data_PCOD8236818
_publ_section_title
;
Structure prediction by ZEFSAII (Michael W. Deem and Ramdas Pophale) SiO2 
 PCOD8236818
Probable space group: P N N M
;
_chemical_formula_sum "Si O2"
_cell_formula_units_Z 56
_cell_length_a 14.725101
_cell_length_b 20.996645
_cell_length_c 9.158246
_cell_angle_alpha 90.000000
_cell_angle_beta 90.000000
_cell_angle_gamma 90.000000
_cell_volume 2831.525602
_symmetry_space_group_name_H-M "P N N M"
_symmetry_group_IT_number 58
_symmetry_cell_setting 'orthorhombic'
loop_
_space_group_symop_operation_xyz
x,y,z
-x,-y,z
1/2+x,1/2-y,1/2-z
1/2-x,1/2+y,1/2-z
-x,-y,-z
x,y,-z
1/2-x,1/2+y,1/2+z
1/2+x,1/2-y,1/2+z
loop_
_atom_site_type_symbol
_atom_site_label
_atom_site_fract_x
_atom_site_fract_y
_atom_site_fract_z
Si Si1 0.485309 0.073418 0.672774
Si Si2 0.528855 0.596902 0.327929
Si Si3 0.723305 0.262314 0.331377
Si Si4 0.579164 0.717516 0.163461
Si Si5 0.699819 0.898702 0.171386
Si Si6 0.071720 0.316794 0.332544
Si Si7 0.638948 0.481699 0.672320
O O1 0.489039 0.082579 0.500000
O O2 0.389320 0.098175 0.731471
O O3 0.565206 0.116458 0.744750
O O4 0.500000 0.000000 0.718003
O O5 0.523066 0.601370 0.500000
O O6 0.534344 0.667803 0.271107
O O7 0.438362 0.564715 0.262039
O O8 0.616801 0.554367 0.279532
O O9 0.694982 0.254627 0.500000
O O10 0.816293 0.226063 0.295559
O O11 0.739267 0.336539 0.293984
O O12 0.645860 0.231410 0.232371
O O13 0.527347 0.784479 0.178670
O O14 0.569376 0.691057 0.000000
O O15 0.760859 0.959543 0.219956
O O16 0.672625 0.899666 0.000000
O O17 0.097808 0.331459 0.500000
O O18 0.630886 0.475850 0.500000
#
# Coordination Sequence:
#
# PCOD8236818 Si02
#       7
#     8   8   8   8   8   8   8
#     4  11  25  43  62  86 119 158 201 254 313 367
#     4   9  17  32  54  82 113 149 192 235 282 341
#     4  10  21  38  60  87 120 156 192 241 306 358
#     4  10  21  37  55  81 118 150 182 234 293 346
#     4  10  19  37  62  86 117 159 202 245 299 362
#     4  11  23  41  63  89 118 154 204 253 298 363
#     4   8  16  31  54  82 112 146 191 240 282 336
#
# _framework density 19.777325000000001
#
# number of rings (size 3 to 8) (size 9 to 14) (size 15 to 20)
#    0.000    2.143    1.429    2.571    0.000    5.714 
#    0.000    5.714    0.000    0.000    0.000    0.000 
#    0.000    0.000    0.000    0.000    0.000    0.000 
#
# Total GULP energy -694237.839445 kJ/mol
# GULP energy per Si atom -12397.104276 kJ/mol
# Density = 1.973231 g / cm^3
# Si number density = 19.777325 Si / 1000 Ang^3
#
#
#
# Elastic Constant Matrix: (Units=GPa)
#
#
# Indices 1 2 3 4 5 6 
#
# 1 75.0338 21.5845 37.2366 0.0000 0.0000 0.0000
# 2 21.5845 90.8058 39.3895 0.0000 0.0000 0.0000
# 3 37.2366 39.3895 73.6000 0.0000 0.0000 0.0000
# 4 0.0000 0.0000 0.0000 26.7266 0.0000 0.0000
# 5 0.0000 0.0000 0.0000 0.0000 31.3754 0.0000
# 6 0.0000 0.0000 0.0000 0.0000 0.0000 26.2966
#
#
#
# Elastic Compliance Matrix: (Units=1/GPa)
#
#
# Indices 1 2 3 4 5 6 
#
# 1 0.017808 -0.000423 -0.008783 0.000000 0.000000 0.000000
# 2 -0.000423 0.014352 -0.007467 0.000000 0.000000 0.000000
# 3 -0.008783 -0.007467 0.022027 0.000000 0.000000 0.000000
# 4 0.000000 0.000000 0.000000 0.037416 0.000000 0.000000
# 5 0.000000 0.000000 0.000000 0.000000 0.031872 0.000000
# 6 0.000000 0.000000 0.000000 0.000000 0.000000 0.038028
#
#
# Mechanical properties :
#
#
# Convention : Reuss Voigt Hill
#
# Bulk Modulus (GPa) = 47.98362 48.42898 48.20630
# Shear Modulus (GPa) = 24.77755 26.29498 25.53627
#
# Velocity S-wave (km/s) = 3.54337 3.65026 3.59721
# Velocity P-wave (km/s) = 6.40743 6.50432 6.45606
#
# Compressibility (1/GPa) = 0.02084045
#
# Stress axis : x y z
#
# Youngs Moduli (GPa) = 56.15525 69.67639 45.39909
#
# Poissons Ratio (x) = 0.02947 0.39875
# Poissons Ratio (y) = 0.02375 0.33900
# Poissons Ratio (z) = 0.49322 0.52027
#
# Static dielectric constant tensor:
#      x y z
#    x 3.648170 0.000000 0.000000 
#    y 0.000000 3.768910 0.000000 
#    z 0.000000 0.000000 3.355770 
# 
# 
# High freq. dielectric constant tensor:
#      x y z
#    x 1.772020 0.000000 0.000000 
#    y 0.000000 1.778120 0.000000 
#    z 0.000000 0.000000 1.747590 
# 
# From -- ./inp_files/6251.got.cif
#   From: 2010.06.25/outbox.cif.g09.slc.cpg/sg58_4_cif.got.tgz:6251.got - 2010.06.26 21:38:00.
