data_PCOD8236681
_publ_section_title
;
Structure prediction by ZEFSAII (Michael W. Deem and Ramdas Pophale) SiO2 
 PCOD8236681
Probable space group: P N N M
;
_chemical_formula_sum "Si O2"
_cell_formula_units_Z 64
_cell_length_a 15.512054
_cell_length_b 23.794389
_cell_length_c 8.988151
_cell_angle_alpha 90.000000
_cell_angle_beta 90.000000
_cell_angle_gamma 90.000000
_cell_volume 3317.525159
_symmetry_space_group_name_H-M "P N N M"
_symmetry_group_IT_number 58
_symmetry_cell_setting 'orthorhombic'
loop_
_space_group_symop_operation_xyz
x,y,z
-x,-y,z
1/2+x,1/2-y,1/2-z
1/2-x,1/2+y,1/2-z
-x,-y,-z
x,y,-z
1/2-x,1/2+y,1/2+z
1/2+x,1/2-y,1/2+z
loop_
_atom_site_type_symbol
_atom_site_label
_atom_site_fract_x
_atom_site_fract_y
_atom_site_fract_z
Si Si1 0.898848 0.614198 0.326288
Si Si2 0.014079 0.913425 0.676199
Si Si3 0.360803 0.508729 0.176023
Si Si4 0.077639 0.600630 0.171929
Si Si5 0.494213 0.288144 0.822630
Si Si6 0.832096 0.733460 0.325465
Si Si7 0.153487 0.718516 0.172514
Si Si8 0.179563 0.504428 0.325099
O O1 0.924048 0.614046 0.500000
O O2 0.838096 0.667280 0.286764
O O3 0.846821 0.558655 0.280736
O O4 0.985390 0.619947 0.232033
O O5 0.011854 0.912695 0.500000
O O6 0.097317 0.949356 0.726975
O O7 0.020879 0.850811 0.741296
O O8 0.925297 0.942133 0.729669
O O9 0.271502 0.518815 0.257121
O O10 0.344949 0.510614 0.000000
O O11 0.145631 0.651411 0.193271
O O12 0.108179 0.546312 0.261438
O O13 0.068875 0.584083 0.000000
O O14 0.585345 0.265975 0.759093
O O15 0.420161 0.248082 0.765605
O O16 0.492929 0.287110 0.000000
O O17 0.831145 0.743454 0.500000
O O18 0.744661 0.760416 0.259999
O O19 0.143422 0.735360 0.000000
O O20 0.183686 0.512568 0.500000
#
# Coordination Sequence:
#
# PCOD8236681 Si02
#       8
#     8   8   8   8   8   8   8   8
#     4  10  21  40  60  79 109 148 185 225 278 340
#     4   8  17  33  57  84 111 147 190 228 275 332
#     4   9  18  36  57  81 114 149 186 233 276 325
#     4  11  23  39  60  84 111 144 186 236 284 328
#     4  10  19  35  61  86 110 148 192 231 277 338
#     4   9  19  36  59  82 111 151 187 222 277 341
#     4  10  22  38  58  86 116 149 188 232 282 338
#     4  11  24  37  56  84 111 145 189 231 279 341
#
# _framework density 19.291488999999999
#
# number of rings (size 3 to 8) (size 9 to 14) (size 15 to 20)
#    0.000    2.250    1.250    1.875    3.500    3.000 
#    0.000    3.125    0.000    0.000    0.000    0.000 
#    0.000    0.000    0.000    0.000    0.000    0.000 
#
# Total GULP energy -793638.797737 kJ/mol
# GULP energy per Si atom -12400.606215 kJ/mol
# Density = 1.924758 g / cm^3
# Si number density = 19.291489 Si / 1000 Ang^3
#
#
#
# Elastic Constant Matrix: (Units=GPa)
#
#
# Indices 1 2 3 4 5 6 
#
# 1 95.6797 8.2659 24.9210 0.0000 0.0000 0.0000
# 2 8.2659 89.2120 25.1611 0.0000 0.0000 0.0000
# 3 24.9210 25.1611 42.2889 0.0000 0.0000 0.0000
# 4 0.0000 0.0000 0.0000 -1.5015 0.0000 0.0000
# 5 0.0000 0.0000 0.0000 0.0000 28.9140 0.0000
# 6 0.0000 0.0000 0.0000 0.0000 0.0000 28.4109
#
#
#
# Elastic Compliance Matrix: (Units=1/GPa)
#
#
# Indices 1 2 3 4 5 6 
#
# 1 0.012436 0.001099 -0.007982 0.000000 0.000000 0.000000
# 2 0.001099 0.013567 -0.008720 0.000000 0.000000 0.000000
# 3 -0.007982 -0.008720 0.033539 0.000000 0.000000 0.000000
# 4 0.000000 0.000000 0.000000 -0.666020 0.000000 0.000000
# 5 0.000000 0.000000 0.000000 0.000000 0.034585 0.000000
# 6 0.000000 0.000000 0.000000 0.000000 0.000000 0.035198
#
#
# Mechanical properties :
#
#
# Convention : Reuss Voigt Hill
#
# Bulk Modulus (GPa) = 35.29138 38.20853 36.74996
# Shear Modulus (GPa) = -10.07973 22.42021 6.17024
#
# Velocity S-wave (km/s) = -2.28830 3.41278 1.79035
# Velocity P-wave (km/s) = 3.36923 5.94797 4.83374
#
# Compressibility (1/GPa) = 0.02833553
#
# Stress axis : x y z
#
# Youngs Moduli (GPa) = 80.41371 73.71004 29.81610
#
# Poissons Ratio (x) = -0.08101 0.23800
# Poissons Ratio (y) = -0.08838 0.25999
# Poissons Ratio (z) = 0.64189 0.64272
#
# Static dielectric constant tensor:
#      x y z
#    x 3.665560 0.000000 0.000000 
#    y 0.000000 3.876070 0.000000 
#    z 0.000000 0.000000 3.207630 
# 
# 
# High freq. dielectric constant tensor:
#      x y z
#    x 1.757230 0.000000 0.000000 
#    y 0.000000 1.766250 0.000000 
#    z 0.000000 0.000000 1.718950 
# 
# From -- ./inp_files/6919.got.cif
#   From: 2010.06.25/outbox.cif.g09.slc.cpg/sg58_4_cif.got.tgz:6919.got - 2010.06.26 21:38:00.
