data_PCOD8236730
_publ_section_title
;
Structure prediction by ZEFSAII (Michael W. Deem and Ramdas Pophale) SiO2 
 PCOD8236730
Probable space group: P N N M
;
_chemical_formula_sum "Si O2"
_cell_formula_units_Z 56
_cell_length_a 15.062748
_cell_length_b 21.257109
_cell_length_c 8.757381
_cell_angle_alpha 90.000000
_cell_angle_beta 90.000000
_cell_angle_gamma 90.000000
_cell_volume 2804.029992
_symmetry_space_group_name_H-M "P N N M"
_symmetry_group_IT_number 58
_symmetry_cell_setting 'orthorhombic'
loop_
_space_group_symop_operation_xyz
x,y,z
-x,-y,z
1/2+x,1/2-y,1/2-z
1/2-x,1/2+y,1/2-z
-x,-y,-z
x,y,-z
1/2-x,1/2+y,1/2+z
1/2+x,1/2-y,1/2+z
loop_
_atom_site_type_symbol
_atom_site_label
_atom_site_fract_x
_atom_site_fract_y
_atom_site_fract_z
Si Si1 0.477166 0.069099 0.318457
Si Si2 0.630598 0.478648 0.680368
Si Si3 0.568887 0.191840 0.326547
Si Si4 0.535178 0.587534 0.178629
Si Si5 0.915225 0.211686 0.174011
Si Si6 0.269788 0.735420 0.179927
Si Si7 0.778912 0.402226 0.818357
O O1 0.478761 0.066940 0.500000
O O2 0.550610 0.120828 0.264200
O O3 0.380295 0.091240 0.263402
O O4 0.500000 0.000000 0.250677
O O5 0.619994 0.472781 0.500000
O O6 0.560498 0.433564 0.762961
O O7 0.613058 0.550177 0.733121
O O8 0.727769 0.458748 0.734957
O O9 0.603266 0.190021 0.500000
O O10 0.474268 0.226034 0.315697
O O11 0.642370 0.228666 0.231380
O O12 0.543908 0.660785 0.212629
O O13 0.542633 0.574167 0.000000
O O14 0.816862 0.226873 0.234914
O O15 0.913694 0.186283 0.000000
O O16 0.262975 0.663765 0.241057
O O17 0.269453 0.731765 0.000000
O O18 0.770274 0.409374 0.000000
#
# Coordination Sequence:
#
# PCOD8236730 Si02
#       7
#     8   8   8   8   8   8   8
#     4   9  18  35  60  86 113 150 196 245 296 348
#     4  11  22  37  57  83 116 154 190 233 292 354
#     4  10  20  36  58  85 116 152 196 248 299 355
#     4  11  22  37  57  84 114 148 193 244 292 344
#     4  10  20  37  57  80 116 156 191 236 298 357
#     4  10  21  36  57  83 115 157 196 240 300 356
#     4  10  19  36  59  84 115 154 200 244 292 353
#
# _framework density 19.971254999999999
#
# number of rings (size 3 to 8) (size 9 to 14) (size 15 to 20)
#    0.000    1.857    1.429    4.286    0.000    5.143 
#    0.000    2.143    0.000    0.857    0.000    0.000 
#    0.000    0.000    0.000    0.000    0.000    0.000 
#
# Total GULP energy -694395.388449 kJ/mol
# GULP energy per Si atom -12399.917651 kJ/mol
# Density = 1.992580 g / cm^3
# Si number density = 19.971255 Si / 1000 Ang^3
#
#
#
# Elastic Constant Matrix: (Units=GPa)
#
#
# Indices 1 2 3 4 5 6 
#
# 1 85.7925 31.9813 10.3341 0.0000 0.0000 0.0000
# 2 31.9813 116.6296 14.2893 0.0000 0.0000 0.0000
# 3 10.3341 14.2893 39.5307 0.0000 0.0000 0.0000
# 4 0.0000 0.0000 0.0000 24.0665 0.0000 0.0000
# 5 0.0000 0.0000 0.0000 0.0000 23.7219 0.0000
# 6 0.0000 0.0000 0.0000 0.0000 0.0000 33.1920
#
#
#
# Elastic Compliance Matrix: (Units=1/GPa)
#
#
# Indices 1 2 3 4 5 6 
#
# 1 0.013169 -0.003337 -0.002236 0.000000 0.000000 0.000000
# 2 -0.003337 0.009817 -0.002676 0.000000 0.000000 0.000000
# 3 -0.002236 -0.002676 0.026849 0.000000 0.000000 0.000000
# 4 0.000000 0.000000 0.000000 0.041551 0.000000 0.000000
# 5 0.000000 0.000000 0.000000 0.000000 0.042155 0.000000
# 6 0.000000 0.000000 0.000000 0.000000 0.000000 0.030128
#
#
# Mechanical properties :
#
#
# Convention : Reuss Voigt Hill
#
# Bulk Modulus (GPa) = 29.99788 39.46245 34.73017
# Shear Modulus (GPa) = 26.13949 28.55262 27.34606
#
# Velocity S-wave (km/s) = 3.62174 3.78522 3.70438
# Velocity P-wave (km/s) = 5.70460 6.23750 5.97699
#
# Compressibility (1/GPa) = 0.03333569
#
# Stress axis : x y z
#
# Youngs Moduli (GPa) = 75.93331 101.86258 37.24553
#
# Poissons Ratio (x) = 0.33994 0.08330
# Poissons Ratio (y) = 0.25341 0.09968
# Poissons Ratio (z) = 0.16982 0.27261
#
# Static dielectric constant tensor:
#      x y z
#    x 3.645580 0.000000 0.000000 
#    y 0.000000 3.822990 0.000000 
#    z 0.000000 0.000000 3.340080 
# 
# 
# High freq. dielectric constant tensor:
#      x y z
#    x 1.779900 0.000000 0.000000 
#    y 0.000000 1.788890 0.000000 
#    z 0.000000 0.000000 1.752970 
# 
# From -- ./inp_files/6276.got.cif
#   From: 2010.06.25/outbox.cif.g09.slc.cpg/sg58_4_cif.got.tgz:6276.got - 2010.06.26 21:38:00.
