data_PCOD8236307
_publ_section_title
;
Structure prediction by ZEFSAII (Michael W. Deem and Ramdas Pophale) SiO2 
 PCOD8236307
Probable space group: P N N M
;
_chemical_formula_sum "Si O2"
_cell_formula_units_Z 64
_cell_length_a 22.005656
_cell_length_b 16.669836
_cell_length_c 9.039092
_cell_angle_alpha 90.000000
_cell_angle_beta 90.000000
_cell_angle_gamma 90.000000
_cell_volume 3315.816234
_symmetry_space_group_name_H-M "P N N M"
_symmetry_group_IT_number 58
_symmetry_cell_setting 'orthorhombic'
loop_
_space_group_symop_operation_xyz
x,y,z
-x,-y,z
1/2+x,1/2-y,1/2-z
1/2-x,1/2+y,1/2-z
-x,-y,-z
x,y,-z
1/2-x,1/2+y,1/2+z
1/2+x,1/2-y,1/2+z
loop_
_atom_site_type_symbol
_atom_site_label
_atom_site_fract_x
_atom_site_fract_y
_atom_site_fract_z
Si Si1 0.627600 0.194635 0.174919
Si Si2 0.115136 0.054964 0.834676
Si Si3 0.324028 0.414713 0.825765
Si Si4 0.531336 0.303411 0.324466
Si Si5 0.605163 0.717657 0.668341
Si Si6 0.824537 0.369459 0.166428
Si Si7 0.212900 0.189277 0.834643
Si Si8 0.685548 0.051440 0.327728
O O1 0.566743 0.231122 0.245612
O O2 0.685925 0.246143 0.222429
O O3 0.639137 0.105167 0.233807
O O4 0.620774 0.194247 0.000000
O O5 0.058975 0.109932 0.778033
O O6 0.175247 0.108002 0.833325
O O7 0.126539 0.979662 0.729335
O O8 0.101490 0.022906 0.000000
O O9 0.343403 0.328617 0.761470
O O10 0.255550 0.436663 0.774631
O O11 0.328092 0.411709 0.000000
O O12 0.538922 0.290812 0.500000
O O13 0.461994 0.300990 0.270502
O O14 0.610553 0.687585 0.500000
O O15 0.615400 0.813970 0.677600
O O16 0.779693 0.331896 0.284709
O O17 0.837724 0.461531 0.205606
O O18 0.796742 0.365474 0.000000
O O19 0.214393 0.226628 0.000000
O O20 0.679766 0.073364 0.500000
#
# Coordination Sequence:
#
# PCOD8236307 Si02
#       8
#     8   8   8   8   8   8   8   8
#     4  11  22  35  57  84 109 144 189 234 279 331
#     4   9  18  33  55  80 108 145 185 225 273 332
#     4  11  22  35  55  84 119 149 180 228 282 333
#     4   9  20  40  60  80 109 149 193 235 281 331
#     4  10  22  39  59  81 110 149 192 234 278 336
#     4  10  20  36  58  84 112 146 188 235 281 334
#     4  10  19  33  55  82 113 148 182 224 284 340
#     4  10  21  37  56  83 118 148 181 228 284 338
#
# _framework density 19.301431999999998
#
# number of rings (size 3 to 8) (size 9 to 14) (size 15 to 20)
#    0.000    2.000    1.250    3.375    0.000    7.000 
#    0.000    3.125    0.000    3.750    0.000    0.000 
#    0.000    0.000    0.000    0.000    0.000    0.000 
#
# Total GULP energy -793597.606072 kJ/mol
# GULP energy per Si atom -12399.962595 kJ/mol
# Density = 1.925750 g / cm^3
# Si number density = 19.301432 Si / 1000 Ang^3
#
#
#
# Elastic Constant Matrix: (Units=GPa)
#
#
# Indices 1 2 3 4 5 6 
#
# 1 46.9869 28.7856 28.7423 0.0000 0.0000 0.0000
# 2 28.7856 120.2108 40.5894 0.0000 0.0000 0.0000
# 3 28.7423 40.5894 71.4688 0.0000 0.0000 0.0000
# 4 0.0000 0.0000 0.0000 29.0953 0.0000 0.0000
# 5 0.0000 0.0000 0.0000 0.0000 21.2538 0.0000
# 6 0.0000 0.0000 0.0000 0.0000 0.0000 18.9521
#
#
#
# Elastic Compliance Matrix: (Units=1/GPa)
#
#
# Indices 1 2 3 4 5 6 
#
# 1 0.029560 -0.003791 -0.009735 0.000000 0.000000 0.000000
# 2 -0.003791 0.010779 -0.004597 0.000000 0.000000 0.000000
# 3 -0.009735 -0.004597 0.020518 0.000000 0.000000 0.000000
# 4 0.000000 0.000000 0.000000 0.034370 0.000000 0.000000
# 5 0.000000 0.000000 0.000000 0.000000 0.047050 0.000000
# 6 0.000000 0.000000 0.000000 0.000000 0.000000 0.052765
#
#
# Mechanical properties :
#
#
# Convention : Reuss Voigt Hill
#
# Bulk Modulus (GPa) = 40.63296 48.32235 44.47765
# Shear Modulus (GPa) = 20.87760 23.23019 22.05389
#
# Velocity S-wave (km/s) = 3.29243 3.47298 3.38391
# Velocity P-wave (km/s) = 5.96246 6.41655 6.19367
#
# Compressibility (1/GPa) = 0.02461056
#
# Stress axis : x y z
#
# Youngs Moduli (GPa) = 33.82930 92.77525 48.73824
#
# Poissons Ratio (x) = 0.35176 0.47446
# Poissons Ratio (y) = 0.12826 0.22404
# Poissons Ratio (z) = 0.32932 0.42647
#
# Static dielectric constant tensor:
#      x y z
#    x 3.406240 0.000000 0.000000 
#    y 0.000000 3.604420 0.000000 
#    z 0.000000 0.000000 3.468830 
# 
# 
# High freq. dielectric constant tensor:
#      x y z
#    x 1.731970 0.000000 0.000000 
#    y 0.000000 1.757350 0.000000 
#    z 0.000000 0.000000 1.744430 
# 
# From -- ./inp_files/8349.got.cif
#   From: 2010.06.25/outbox.cif.g09.slc.cpg/sg58_5_cif.got.tgz:8349.got - 2010.06.26 21:38:00.
