data_PCOD8236850
_publ_section_title
;
Structure prediction by ZEFSAII (Michael W. Deem and Ramdas Pophale) SiO2 
 PCOD8236850
Probable space group: P N N M
;
_chemical_formula_sum "Si O2"
_cell_formula_units_Z 48
_cell_length_a 15.033782
_cell_length_b 18.926172
_cell_length_c 8.830838
_cell_angle_alpha 90.000000
_cell_angle_beta 90.000000
_cell_angle_gamma 90.000000
_cell_volume 2512.655503
_symmetry_space_group_name_H-M "P N N M"
_symmetry_group_IT_number 58
_symmetry_cell_setting 'orthorhombic'
loop_
_space_group_symop_operation_xyz
x,y,z
-x,-y,z
1/2+x,1/2-y,1/2-z
1/2-x,1/2+y,1/2-z
-x,-y,-z
x,y,-z
1/2-x,1/2+y,1/2+z
1/2+x,1/2-y,1/2+z
loop_
_atom_site_type_symbol
_atom_site_label
_atom_site_fract_x
_atom_site_fract_y
_atom_site_fract_z
Si Si1 0.375543 0.824580 0.325789
Si Si2 0.724729 0.920310 0.821681
Si Si3 0.224234 0.932208 0.322060
Si Si4 0.630251 0.324660 0.178768
Si Si5 0.474774 0.423702 0.821356
Si Si6 0.960316 0.425803 0.174264
O O1 0.361091 0.802432 0.500000
O O2 0.294995 0.874051 0.269526
O O3 0.377708 0.756842 0.220344
O O4 0.467683 0.864978 0.303841
O O5 0.782675 0.857094 0.754271
O O6 0.623496 0.905568 0.775463
O O7 0.758390 0.994986 0.761800
O O8 0.733375 0.918958 0.000000
O O9 0.232903 0.947689 0.500000
O O10 0.126323 0.903802 0.277619
O O11 0.542298 0.364709 0.242109
O O12 0.639048 0.332924 0.000000
O O13 0.500000 0.500000 0.750963
O O14 0.485747 0.427680 0.000000
O O15 0.000000 0.500000 0.231438
O O16 0.930070 0.433308 0.000000
#
# Coordination Sequence:
#
# PCOD8236850 Si02
#       6
#     8   8   8   8   8   8
#     4  10  22  39  61  90 125 157 193 245 305 367
#     4  12  24  37  59  91 123 157 205 256 299 349
#     4  10  19  38  64  88 117 156 200 244 302 370
#     4  11  23  40  61  87 123 162 201 247 306 366
#     4   9  17  33  62  89 109 145 201 247 286 352
#     4  10  20  39  65  90 118 160 203 241 301 370
#
# _framework density 19.103296
#
# number of rings (size 3 to 8) (size 9 to 14) (size 15 to 20)
#    0.000    1.667    3.333    2.000    0.000    3.000 
#    0.000    4.167    0.000    0.000    0.000    0.000 
#    0.000    0.000    0.000    0.000    0.000    0.000 
#
# Total GULP energy -595362.999982 kJ/mol
# GULP energy per Si atom -12403.395833 kJ/mol
# Density = 1.905982 g / cm^3
# Si number density = 19.103296 Si / 1000 Ang^3
#
#
#
# Elastic Constant Matrix: (Units=GPa)
#
#
# Indices 1 2 3 4 5 6 
#
# 1 120.4885 47.3965 37.2746 0.0000 0.0000 0.0000
# 2 47.3965 113.0440 36.4635 0.0000 0.0000 0.0000
# 3 37.2746 36.4635 67.8981 0.0000 0.0000 0.0000
# 4 0.0000 0.0000 0.0000 33.7462 0.0000 0.0000
# 5 0.0000 0.0000 0.0000 0.0000 9.0255 0.0000
# 6 0.0000 0.0000 0.0000 0.0000 0.0000 32.5359
#
#
#
# Elastic Compliance Matrix: (Units=1/GPa)
#
#
# Indices 1 2 3 4 5 6 
#
# 1 0.010869 -0.003184 -0.004257 0.000000 0.000000 0.000000
# 2 -0.003184 0.011632 -0.004499 0.000000 0.000000 0.000000
# 3 -0.004257 -0.004499 0.019481 0.000000 0.000000 0.000000
# 4 0.000000 0.000000 0.000000 0.029633 0.000000 0.000000
# 5 0.000000 0.000000 0.000000 0.000000 0.110797 0.000000
# 6 0.000000 0.000000 0.000000 0.000000 0.000000 0.030735
#
#
# Mechanical properties :
#
#
# Convention : Reuss Voigt Hill
#
# Bulk Modulus (GPa) = 55.24101 60.41109 57.82605
# Shear Modulus (GPa) = 20.57090 27.08125 23.82608
#
# Velocity S-wave (km/s) = 3.28506 3.76922 3.53544
# Velocity P-wave (km/s) = 6.58549 7.11581 6.85578
#
# Compressibility (1/GPa) = 0.01810249
#
# Stress axis : x y z
#
# Youngs Moduli (GPa) = 92.00513 85.96780 51.33202
#
# Poissons Ratio (x) = 0.27372 0.21852
# Poissons Ratio (y) = 0.29294 0.23094
# Poissons Ratio (z) = 0.39166 0.38677
#
# Static dielectric constant tensor:
#      x y z
#    x 3.956550 0.000000 0.000000 
#    y 0.000000 3.465830 0.000000 
#    z 0.000000 0.000000 3.261740 
# 
# 
# High freq. dielectric constant tensor:
#      x y z
#    x 1.762460 0.000000 0.000000 
#    y 0.000000 1.741640 0.000000 
#    z 0.000000 0.000000 1.719780 
# 
# From -- ./inp_files/5911.got.cif
#   From: 2010.06.25/outbox.cif.g09.slc.cpg/sg58_3_cif.got.tgz:5911.got - 2010.06.26 21:38:00.
