data_PCOD8236483
_publ_section_title
;
Structure prediction by ZEFSAII (Michael W. Deem and Ramdas Pophale) SiO2 
 PCOD8236483
Probable space group: P N N M
;
_chemical_formula_sum "Si O2"
_cell_formula_units_Z 64
_cell_length_a 28.461865
_cell_length_b 12.552517
_cell_length_c 9.253659
_cell_angle_alpha 90.000000
_cell_angle_beta 90.000000
_cell_angle_gamma 90.000000
_cell_volume 3306.036653
_symmetry_space_group_name_H-M "P N N M"
_symmetry_group_IT_number 58
_symmetry_cell_setting 'orthorhombic'
loop_
_space_group_symop_operation_xyz
x,y,z
-x,-y,z
1/2+x,1/2-y,1/2-z
1/2-x,1/2+y,1/2-z
-x,-y,-z
x,y,-z
1/2-x,1/2+y,1/2+z
1/2+x,1/2-y,1/2+z
loop_
_atom_site_type_symbol
_atom_site_label
_atom_site_fract_x
_atom_site_fract_y
_atom_site_fract_z
Si Si1 0.203944 0.923695 0.170875
Si Si2 0.551267 0.535484 0.665092
Si Si3 0.192056 0.486875 0.332158
Si Si4 0.620664 0.159811 0.327986
Si Si5 0.485872 0.881469 0.669744
Si Si6 0.333523 0.221276 0.835472
Si Si7 0.862195 0.892739 0.165766
Si Si8 0.938502 0.243499 0.666561
O O1 0.258055 0.937934 0.213036
O O2 0.185580 0.813245 0.233257
O O3 0.174505 0.023814 0.237199
O O4 0.195922 0.918822 0.000000
O O5 0.500000 0.500000 0.714180
O O6 0.551494 0.577653 0.500000
O O7 0.584795 0.434098 0.682679
O O8 0.569498 0.626026 0.771212
O O9 0.180904 0.467021 0.500000
O O10 0.151898 0.432830 0.238243
O O11 0.193615 0.612558 0.297865
O O12 0.624329 0.154164 0.500000
O O13 0.567036 0.141672 0.279135
O O14 0.639038 0.274014 0.266375
O O15 0.491869 0.863201 0.500000
O O16 0.520367 0.800734 0.748037
O O17 0.500000 0.000000 0.716052
O O18 0.388804 0.197215 0.812346
O O19 0.323904 0.256804 0.000000
O O20 0.847749 0.881092 0.000000
O O21 0.953198 0.236998 0.500000
#
# Coordination Sequence:
#
# PCOD8236483 Si02
#       8
#     8   8   8   8   8   8   8   8
#     4  10  21  38  60  84 109 147 195 242 292 345
#     4  10  19  34  57  81 109 150 194 237 286 339
#     4  10  23  40  59  85 117 151 190 238 296 353
#     4  10  21  38  61  88 116 153 199 238 287 349
#     4  10  21  37  58  85 117 155 201 246 286 341
#     4  10  22  40  60  84 118 155 193 239 294 353
#     4   9  18  34  56  82 111 145 189 239 286 340
#     4  11  22  35  55  85 117 152 192 238 295 354
#
# _framework density 19.358526000000001
#
# number of rings (size 3 to 8) (size 9 to 14) (size 15 to 20)
#    0.000    2.000    1.250    1.875    1.750    4.500 
#    0.000    1.250    0.000    0.000    0.000    0.000 
#    0.000    0.000    0.000    0.000    0.000    0.000 
#
# Total GULP energy -793702.904536 kJ/mol
# GULP energy per Si atom -12401.607883 kJ/mol
# Density = 1.931447 g / cm^3
# Si number density = 19.358526 Si / 1000 Ang^3
#
#
#
# Elastic Constant Matrix: (Units=GPa)
#
#
# Indices 1 2 3 4 5 6 
#
# 1 110.5129 47.1837 34.7751 0.0000 0.0000 0.0000
# 2 47.1837 110.5503 31.6345 0.0000 0.0000 0.0000
# 3 34.7751 31.6345 35.3244 0.0000 0.0000 0.0000
# 4 0.0000 0.0000 0.0000 26.3050 0.0000 0.0000
# 5 0.0000 0.0000 0.0000 0.0000 19.2220 0.0000
# 6 0.0000 0.0000 0.0000 0.0000 0.0000 35.8331
#
#
#
# Elastic Compliance Matrix: (Units=1/GPa)
#
#
# Indices 1 2 3 4 5 6 
#
# 1 0.013671 -0.002667 -0.011070 0.000000 0.000000 0.000000
# 2 -0.002667 0.012683 -0.008732 0.000000 0.000000 0.000000
# 3 -0.011070 -0.008732 0.047027 0.000000 0.000000 0.000000
# 4 0.000000 0.000000 0.000000 0.038016 0.000000 0.000000
# 5 0.000000 0.000000 0.000000 0.000000 0.052024 0.000000
# 6 0.000000 0.000000 0.000000 0.000000 0.000000 0.027907
#
#
# Mechanical properties :
#
#
# Convention : Reuss Voigt Hill
#
# Bulk Modulus (GPa) = 35.15920 53.73047 44.44484
# Shear Modulus (GPa) = 20.34625 25.79163 23.06894
#
# Velocity S-wave (km/s) = 3.24547 3.65405 3.45580
# Velocity P-wave (km/s) = 5.67852 6.75414 6.23955
#
# Compressibility (1/GPa) = 0.02844206
#
# Stress axis : x y z
#
# Youngs Moduli (GPa) = 73.14899 78.84683 21.26456
#
# Poissons Ratio (x) = 0.21030 0.23539
# Poissons Ratio (y) = 0.19510 0.18569
# Poissons Ratio (z) = 0.80973 0.68852
#
# Static dielectric constant tensor:
#      x y z
#    x 3.687210 0.000000 0.000000 
#    y 0.000000 3.668930 0.000000 
#    z 0.000000 0.000000 3.307220 
# 
# 
# High freq. dielectric constant tensor:
#      x y z
#    x 1.766090 0.000000 0.000000 
#    y 0.000000 1.763560 0.000000 
#    z 0.000000 0.000000 1.727870 
# 
# From -- ./inp_files/11057.got.cif
#   From: 2010.06.25/outbox.cif.g09.slc.cpg/sg58_6_cif.got.tgz:11057.got - 2010.06.26 21:38:00.
