data_PCOD8236337
_publ_section_title
;
Structure prediction by ZEFSAII (Michael W. Deem and Ramdas Pophale) SiO2 
 PCOD8236337
Probable space group: P N N M
;
_chemical_formula_sum "Si O2"
_cell_formula_units_Z 64
_cell_length_a 20.585858
_cell_length_b 19.054803
_cell_length_c 8.726479
_cell_angle_alpha 90.000000
_cell_angle_beta 90.000000
_cell_angle_gamma 90.000000
_cell_volume 3423.044017
_symmetry_space_group_name_H-M "P N N M"
_symmetry_group_IT_number 58
_symmetry_cell_setting 'orthorhombic'
loop_
_space_group_symop_operation_xyz
x,y,z
-x,-y,z
1/2+x,1/2-y,1/2-z
1/2-x,1/2+y,1/2-z
-x,-y,-z
x,y,-z
1/2-x,1/2+y,1/2+z
1/2+x,1/2-y,1/2+z
loop_
_atom_site_type_symbol
_atom_site_label
_atom_site_fract_x
_atom_site_fract_y
_atom_site_fract_z
Si Si1 0.316824 0.540799 0.179581
Si Si2 0.687371 0.039916 0.681022
Si Si3 0.938233 0.458288 0.819324
Si Si4 0.360081 0.822191 0.818761
Si Si5 0.865252 0.823788 0.818990
Si Si6 0.566418 0.540896 0.322969
Si Si7 0.494033 0.331095 0.178095
Si Si8 0.992262 0.328206 0.675842
O O1 0.252938 0.498652 0.229943
O O2 0.316307 0.614308 0.270527
O O3 0.378535 0.493977 0.220928
O O4 0.316622 0.557021 0.000000
O O5 0.682915 0.052215 0.500000
O O6 0.686324 0.115412 0.763325
O O7 0.627713 0.992861 0.743545
O O8 0.943146 0.377329 0.769346
O O9 0.000000 0.500000 0.750365
O O10 0.938390 0.461928 0.000000
O O11 0.336639 0.749909 0.740628
O O12 0.433839 0.838125 0.764990
O O13 0.356402 0.811896 0.000000
O O14 0.934271 0.841645 0.744163
O O15 0.873611 0.821814 0.000000
O O16 0.500000 0.500000 0.294072
O O17 0.587375 0.538972 0.500000
O O18 0.557100 0.620765 0.268002
O O19 0.469929 0.251619 0.201774
O O20 0.495973 0.351740 0.000000
O O21 0.987907 0.350148 0.500000
#
# Coordination Sequence:
#
# PCOD8236337 Si02
#       8
#     8   8   8   8   8   8   8   8
#     4  11  23  39  59  82 115 154 192 234 283 343
#     4  10  22  39  57  84 116 150 191 233 280 337
#     4  10  19  33  56  83 112 145 183 229 279 329
#     4  10  20  35  57  84 113 148 189 233 284 339
#     4  11  21  35  57  84 114 147 189 237 283 337
#     4  11  22  36  57  86 114 143 186 236 285 338
#     4  10  20  35  56  84 115 148 188 234 289 340
#     4   9  19  33  52  83 115 144 184 231 277 334
#
# _framework density 18.696808000000001
#
# number of rings (size 3 to 8) (size 9 to 14) (size 15 to 20)
#    0.000    1.750    2.500    3.375    0.000    4.750 
#    0.000    1.250    0.000    3.000    0.000    0.000 
#    0.000    0.000    0.000    0.000    0.000    0.000 
#
# Total GULP energy -793845.889999 kJ/mol
# GULP energy per Si atom -12403.842031 kJ/mol
# Density = 1.865425 g / cm^3
# Si number density = 18.696808 Si / 1000 Ang^3
#
#
#
# Elastic Constant Matrix: (Units=GPa)
#
#
# Indices 1 2 3 4 5 6 
#
# 1 76.4225 48.1082 19.4237 0.0000 0.0000 0.0000
# 2 48.1082 134.6870 25.3742 0.0000 0.0000 0.0000
# 3 19.4237 25.3742 35.9991 0.0000 0.0000 0.0000
# 4 0.0000 0.0000 0.0000 38.4808 0.0000 0.0000
# 5 0.0000 0.0000 0.0000 0.0000 19.8040 0.0000
# 6 0.0000 0.0000 0.0000 0.0000 0.0000 27.7877
#
#
#
# Elastic Compliance Matrix: (Units=1/GPa)
#
#
# Indices 1 2 3 4 5 6 
#
# 1 0.017921 -0.005281 -0.005947 0.000000 0.000000 0.000000
# 2 -0.005281 0.010118 -0.004282 0.000000 0.000000 0.000000
# 3 -0.005947 -0.004282 0.034006 0.000000 0.000000 0.000000
# 4 0.000000 0.000000 0.000000 0.025987 0.000000 0.000000
# 5 0.000000 0.000000 0.000000 0.000000 0.050495 0.000000
# 6 0.000000 0.000000 0.000000 0.000000 0.000000 0.035987
#
#
# Mechanical properties :
#
#
# Convention : Reuss Voigt Hill
#
# Bulk Modulus (GPa) = 32.23320 48.10228 40.16774
# Shear Modulus (GPa) = 23.16158 27.49466 25.32812
#
# Velocity S-wave (km/s) = 3.52348 3.83894 3.68459
# Velocity P-wave (km/s) = 5.81640 6.74043 6.29539
#
# Compressibility (1/GPa) = 0.03102392
#
# Stress axis : x y z
#
# Youngs Moduli (GPa) = 55.80073 98.83844 29.40678
#
# Poissons Ratio (x) = 0.52193 0.17489
# Poissons Ratio (y) = 0.29466 0.12592
# Poissons Ratio (z) = 0.33187 0.42324
#
# Static dielectric constant tensor:
#      x y z
#    x 3.255440 0.000000 0.000000 
#    y 0.000000 3.617880 0.000000 
#    z 0.000000 0.000000 3.375860 
# 
# 
# High freq. dielectric constant tensor:
#      x y z
#    x 1.693650 0.000000 0.000000 
#    y 0.000000 1.741710 0.000000 
#    z 0.000000 0.000000 1.730660 
# 
# From -- ./inp_files/9313.got.cif
#   From: 2010.06.25/outbox.cif.g09.slc.cpg/sg58_5_cif.got.tgz:9313.got - 2010.06.26 21:38:00.
