data_PCOD8236646
_publ_section_title
;
Structure prediction by ZEFSAII (Michael W. Deem and Ramdas Pophale) SiO2 
 PCOD8236646
Probable space group: P N N M
;
_chemical_formula_sum "Si O2"
_cell_formula_units_Z 64
_cell_length_a 14.360662
_cell_length_b 25.194782
_cell_length_c 8.900524
_cell_angle_alpha 90.000000
_cell_angle_beta 90.000000
_cell_angle_gamma 90.000000
_cell_volume 3220.331952
_symmetry_space_group_name_H-M "P N N M"
_symmetry_group_IT_number 58
_symmetry_cell_setting 'orthorhombic'
loop_
_space_group_symop_operation_xyz
x,y,z
-x,-y,z
1/2+x,1/2-y,1/2-z
1/2-x,1/2+y,1/2-z
-x,-y,-z
x,y,-z
1/2-x,1/2+y,1/2+z
1/2+x,1/2-y,1/2+z
loop_
_atom_site_type_symbol
_atom_site_label
_atom_site_fract_x
_atom_site_fract_y
_atom_site_fract_z
Si Si1 0.628481 0.106529 0.321764
Si Si2 0.292876 0.323053 0.165700
Si Si3 0.250780 0.983843 0.822004
Si Si4 0.910784 0.070711 0.332884
Si Si5 0.765438 0.395872 0.322497
Si Si6 0.054099 0.765208 0.825120
Si Si7 0.045269 0.654935 0.678262
Si Si8 0.563125 0.367972 0.676697
O O1 0.622134 0.099476 0.500000
O O2 0.689986 0.159070 0.281171
O O3 0.672659 0.053627 0.253369
O O4 0.527600 0.114097 0.250150
O O5 0.352161 0.376043 0.156831
O O6 0.340406 0.282248 0.281160
O O7 0.288925 0.296150 0.000000
O O8 0.146249 0.971465 0.765929
O O9 0.274338 0.043371 0.769885
O O10 0.254386 0.976087 0.000000
O O11 0.927803 0.047692 0.500000
O O12 0.009265 0.083485 0.255734
O O13 0.765405 0.393992 0.500000
O O14 0.852934 0.362386 0.261373
O O15 0.669487 0.369175 0.264496
O O16 0.023250 0.714122 0.732363
O O17 0.981215 0.811219 0.781151
O O18 0.051521 0.751676 0.000000
O O19 0.037361 0.651660 0.500000
O O20 0.555890 0.378178 0.500000
#
# Coordination Sequence:
#
# PCOD8236646 Si02
#       8
#     8   8   8   8   8   8   8   8
#     4  10  21  38  58  82 111 142 182 231 281 329
#     4   8  16  32  54  77 105 140 174 214 266 325
#     4  10  19  35  59  83 108 142 186 229 273 328
#     4   9  17  31  52  83 117 144 176 219 271 326
#     4   9  21  39  57  79 108 146 189 229 270 326
#     4  10  20  34  56  85 113 141 178 226 278 329
#     4  11  23  39  57  78 108 148 193 234 276 329
#     4   9  18  36  59  81 110 149 189 227 274 333
#
# _framework density 19.873728
#
# number of rings (size 3 to 8) (size 9 to 14) (size 15 to 20)
#    0.000    2.500    0.000    2.625    0.000    6.000 
#    0.000   12.500    0.000    0.000    0.000    0.000 
#    0.000    0.000    0.000    0.000    0.000    0.000 
#
# Total GULP energy -793525.355688 kJ/mol
# GULP energy per Si atom -12398.833683 kJ/mol
# Density = 1.982849 g / cm^3
# Si number density = 19.873728 Si / 1000 Ang^3
#
#
#
# Elastic Constant Matrix: (Units=GPa)
#
#
# Indices 1 2 3 4 5 6 
#
# 1 147.3244 52.2725 46.1460 0.0000 0.0000 0.0000
# 2 52.2725 90.2819 43.2009 0.0000 0.0000 0.0000
# 3 46.1460 43.2009 87.0579 0.0000 0.0000 0.0000
# 4 0.0000 0.0000 0.0000 24.4387 0.0000 0.0000
# 5 0.0000 0.0000 0.0000 0.0000 23.7428 0.0000
# 6 0.0000 0.0000 0.0000 0.0000 0.0000 26.7993
#
#
#
# Elastic Compliance Matrix: (Units=1/GPa)
#
#
# Indices 1 2 3 4 5 6 
#
# 1 0.009064 -0.003867 -0.002885 0.000000 0.000000 0.000000
# 2 -0.003867 0.016176 -0.005977 0.000000 0.000000 0.000000
# 3 -0.002885 -0.005977 0.015982 0.000000 0.000000 0.000000
# 4 0.000000 0.000000 0.000000 0.040919 0.000000 0.000000
# 5 0.000000 0.000000 0.000000 0.000000 0.042118 0.000000
# 6 0.000000 0.000000 0.000000 0.000000 0.000000 0.037314
#
#
# Mechanical properties :
#
#
# Convention : Reuss Voigt Hill
#
# Bulk Modulus (GPa) = 63.44256 67.54479 65.49368
# Shear Modulus (GPa) = 26.00306 27.19915 26.60110
#
# Velocity S-wave (km/s) = 3.62112 3.70347 3.66253
# Velocity P-wave (km/s) = 7.03388 7.23522 7.13526
#
# Compressibility (1/GPa) = 0.01576229
#
# Stress axis : x y z
#
# Youngs Moduli (GPa) = 110.33167 61.82186 62.57053
#
# Poissons Ratio (x) = 0.23907 0.18053
# Poissons Ratio (y) = 0.42666 0.37398
# Poissons Ratio (z) = 0.31834 0.36951
#
# Static dielectric constant tensor:
#      x y z
#    x 3.933170 0.000000 0.000000 
#    y 0.000000 3.508600 0.000000 
#    z 0.000000 0.000000 3.587050 
# 
# 
# High freq. dielectric constant tensor:
#      x y z
#    x 1.777680 0.000000 0.000000 
#    y 0.000000 1.764610 0.000000 
#    z 0.000000 0.000000 1.767740 
# 
# From -- ./inp_files/6741.got.cif
#   From: 2010.06.25/outbox.cif.g09.slc.cpg/sg58_4_cif.got.tgz:6741.got - 2010.06.26 21:38:00.
