data_PCOD8236603
_publ_section_title
;
Structure prediction by ZEFSAII (Michael W. Deem and Ramdas Pophale) SiO2 
 PCOD8236603
Probable space group: P N N M
;
_chemical_formula_sum "Si O2"
_cell_formula_units_Z 64
_cell_length_a 15.080299
_cell_length_b 24.804055
_cell_length_c 8.514194
_cell_angle_alpha 90.000000
_cell_angle_beta 90.000000
_cell_angle_gamma 90.000000
_cell_volume 3184.756112
_symmetry_space_group_name_H-M "P N N M"
_symmetry_group_IT_number 58
_symmetry_cell_setting 'orthorhombic'
loop_
_space_group_symop_operation_xyz
x,y,z
-x,-y,z
1/2+x,1/2-y,1/2-z
1/2-x,1/2+y,1/2-z
-x,-y,-z
x,y,-z
1/2-x,1/2+y,1/2+z
1/2+x,1/2-y,1/2+z
loop_
_atom_site_type_symbol
_atom_site_label
_atom_site_fract_x
_atom_site_fract_y
_atom_site_fract_z
Si Si1 0.955762 0.217884 0.682133
Si Si2 0.165394 0.058744 0.315744
Si Si3 0.797152 0.351361 0.184929
Si Si4 0.009406 0.672462 0.183662
Si Si5 0.823423 0.633717 0.820591
Si Si6 0.686809 0.554815 0.681867
Si Si7 0.003964 0.890533 0.816115
Si Si8 0.767347 0.231707 0.817856
O O1 0.929915 0.217505 0.500000
O O2 0.868622 0.214685 0.789569
O O3 0.010016 0.272006 0.723039
O O4 0.014170 0.165294 0.723699
O O5 0.152008 0.067618 0.500000
O O6 0.237753 0.100622 0.244248
O O7 0.072037 0.067104 0.229077
O O8 0.200205 0.998983 0.282474
O O9 0.753799 0.293993 0.231852
O O10 0.898933 0.354182 0.246935
O O11 0.799698 0.357851 0.000000
O O12 0.929040 0.630657 0.213345
O O13 0.017734 0.687005 0.000000
O O14 0.771826 0.592766 0.708473
O O15 0.795848 0.695372 0.788636
O O16 0.801854 0.618769 0.000000
O O17 0.680451 0.539323 0.500000
O O18 0.598149 0.585115 0.738348
O O19 0.002805 0.879326 0.000000
O O20 0.744758 0.222107 0.000000
#
# Coordination Sequence:
#
# PCOD8236603 Si02
#       8
#     8   8   8   8   8   8   8   8
#     4  11  21  34  56  87 120 154 198 241 286 346
#     4  11  23  39  62  89 115 152 202 255 296 350
#     4   8  18  38  60  83 116 156 193 236 299 355
#     4   9  20  39  60  85 121 158 194 241 301 358
#     4  11  22  36  60  91 117 151 201 250 290 347
#     4  11  24  42  61  82 117 162 199 242 301 361
#     4  11  23  39  58  83 118 160 197 237 299 362
#     4  10  19  35  57  82 119 159 190 234 296 356
#
# _framework density 20.095731000000001
#
# number of rings (size 3 to 8) (size 9 to 14) (size 15 to 20)
#    0.000    1.750    1.250    4.125    1.750    4.000 
#    0.000    6.250    0.000    3.750    0.000    0.000 
#    0.000    0.000    0.000    0.000    0.000    0.000 
#
# Total GULP energy -793775.935212 kJ/mol
# GULP energy per Si atom -12402.748988 kJ/mol
# Density = 2.004999 g / cm^3
# Si number density = 20.095731 Si / 1000 Ang^3
#
#
#
# Elastic Constant Matrix: (Units=GPa)
#
#
# Indices 1 2 3 4 5 6 
#
# 1 74.1663 49.7163 20.3419 0.0000 0.0000 0.0000
# 2 49.7163 115.2670 26.4570 0.0000 0.0000 0.0000
# 3 20.3419 26.4570 49.5965 0.0000 0.0000 0.0000
# 4 0.0000 0.0000 0.0000 31.0820 0.0000 0.0000
# 5 0.0000 0.0000 0.0000 0.0000 20.2472 0.0000
# 6 0.0000 0.0000 0.0000 0.0000 0.0000 26.8870
#
#
#
# Elastic Compliance Matrix: (Units=1/GPa)
#
#
# Indices 1 2 3 4 5 6 
#
# 1 0.019650 -0.007550 -0.004032 0.000000 0.000000 0.000000
# 2 -0.007550 0.012787 -0.003724 0.000000 0.000000 0.000000
# 3 -0.004032 -0.003724 0.023803 0.000000 0.000000 0.000000
# 4 0.000000 0.000000 0.000000 0.032173 0.000000 0.000000
# 5 0.000000 0.000000 0.000000 0.000000 0.049390 0.000000
# 6 0.000000 0.000000 0.000000 0.000000 0.000000 0.037193
#
#
# Mechanical properties :
#
#
# Convention : Reuss Voigt Hill
#
# Bulk Modulus (GPa) = 39.02079 48.00670 43.51374
# Shear Modulus (GPa) = 23.34809 25.14421 24.24615
#
# Velocity S-wave (km/s) = 3.41228 3.54110 3.47729
# Velocity P-wave (km/s) = 5.91477 6.37652 6.14998
#
# Compressibility (1/GPa) = 0.02562737
#
# Stress axis : x y z
#
# Youngs Moduli (GPa) = 50.89049 78.20586 42.01118
#
# Poissons Ratio (x) = 0.59045 0.16939
# Poissons Ratio (y) = 0.38422 0.15647
# Poissons Ratio (z) = 0.20519 0.29128
#
# Static dielectric constant tensor:
#      x y z
#    x 3.742890 0.000000 0.000000 
#    y 0.000000 3.657560 0.000000 
#    z 0.000000 0.000000 3.443360 
# 
# 
# High freq. dielectric constant tensor:
#      x y z
#    x 1.781690 0.000000 0.000000 
#    y 0.000000 1.775830 0.000000 
#    z 0.000000 0.000000 1.776010 
# 
# From -- ./inp_files/6839.got.cif
#   From: 2010.06.25/outbox.cif.g09.slc.cpg/sg58_4_cif.got.tgz:6839.got - 2010.06.26 21:38:00.
