data_PCOD8236010
_publ_section_title
;
Structure prediction by ZEFSAII (Michael W. Deem and Ramdas Pophale) SiO2 
 PCOD8236010
Probable space group: P N N M
;
_chemical_formula_sum "Si O2"
_cell_formula_units_Z 32
_cell_length_a 14.479879
_cell_length_b 12.682215
_cell_length_c 9.111507
_cell_angle_alpha 90.000000
_cell_angle_beta 90.000000
_cell_angle_gamma 90.000000
_cell_volume 1673.209252
_symmetry_space_group_name_H-M "P N N M"
_symmetry_group_IT_number 58
_symmetry_cell_setting 'orthorhombic'
loop_
_space_group_symop_operation_xyz
x,y,z
-x,-y,z
1/2+x,1/2-y,1/2-z
1/2-x,1/2+y,1/2-z
-x,-y,-z
x,y,-z
1/2-x,1/2+y,1/2+z
1/2+x,1/2-y,1/2+z
loop_
_atom_site_type_symbol
_atom_site_label
_atom_site_fract_x
_atom_site_fract_y
_atom_site_fract_z
Si Si1 0.905520 0.452791 0.825880
Si Si2 0.941168 0.894959 0.660775
Si Si3 0.406504 0.285542 0.673378
Si Si4 0.285623 0.457722 0.826502
O O1 0.889949 0.333398 0.772330
O O2 0.819830 0.525506 0.774930
O O3 0.000000 0.500000 0.758079
O O4 0.911856 0.452854 0.000000
O O5 0.935231 0.839990 0.500000
O O6 0.989896 0.817311 0.775964
O O7 0.840051 0.933560 0.714396
O O8 0.000000 0.000000 0.646114
O O9 0.401249 0.298336 0.500000
O O10 0.326765 0.356935 0.743871
O O11 0.294220 0.436789 0.000000
#
# Coordination Sequence:
#
# PCOD8236010 Si02
#       4
#     8   8   8   8
#     4   9  19  35  52  72 101 135 167 200 246 302
#     4   8  15  29  49  72  98 130 164 196 240 298
#     4  10  19  31  51  78 102 126 164 212 250 284
#     4   9  18  34  54  73  98 135 171 200 242 303
#
# _framework density 19.124925000000001
#
# number of rings (size 3 to 8) (size 9 to 14) (size 15 to 20)
#    0.000    3.000    0.000    2.250    0.000    6.500 
#    0.000    2.500    0.000    5.250    0.000    0.000 
#    0.000    0.000    0.000    0.000    0.000    0.000 
#
# Total GULP energy -396594.903389 kJ/mol
# GULP energy per Si atom -12393.590731 kJ/mol
# Density = 1.908140 g / cm^3
# Si number density = 19.124925 Si / 1000 Ang^3
#
#
#
# Elastic Constant Matrix: (Units=GPa)
#
#
# Indices 1 2 3 4 5 6 
#
# 1 161.7061 68.1802 36.7581 0.0000 0.0000 0.0000
# 2 68.1802 118.2701 45.4365 0.0000 0.0000 0.0000
# 3 36.7581 45.4365 56.7833 0.0000 0.0000 0.0000
# 4 0.0000 0.0000 0.0000 16.9310 0.0000 0.0000
# 5 0.0000 0.0000 0.0000 0.0000 19.2978 0.0000
# 6 0.0000 0.0000 0.0000 0.0000 0.0000 24.9341
#
#
#
# Elastic Compliance Matrix: (Units=1/GPa)
#
#
# Indices 1 2 3 4 5 6 
#
# 1 0.008364 -0.003958 -0.002247 0.000000 0.000000 0.000000
# 2 -0.003958 0.014081 -0.008705 0.000000 0.000000 0.000000
# 3 -0.002247 -0.008705 0.026031 0.000000 0.000000 0.000000
# 4 0.000000 0.000000 0.000000 0.059063 0.000000 0.000000
# 5 0.000000 0.000000 0.000000 0.000000 0.051819 0.000000
# 6 0.000000 0.000000 0.000000 0.000000 0.000000 0.040106
#
#
# Mechanical properties :
#
#
# Convention : Reuss Voigt Hill
#
# Bulk Modulus (GPa) = 53.60382 70.83434 62.21908
# Shear Modulus (GPa) = 21.23108 24.65822 22.94465
#
# Velocity S-wave (km/s) = 3.33547 3.59461 3.46746
# Velocity P-wave (km/s) = 6.55156 7.37200 6.97386
#
# Compressibility (1/GPa) = 0.01865539
#
# Stress axis : x y z
#
# Youngs Moduli (GPa) = 119.56346 71.01528 38.41582
#
# Poissons Ratio (x) = 0.28110 0.08631
# Poissons Ratio (y) = 0.47328 0.33442
# Poissons Ratio (z) = 0.26864 0.61820
#
# Static dielectric constant tensor:
#      x y z
#    x 4.127570 0.000000 0.000000 
#    y 0.000000 3.423530 0.000000 
#    z 0.000000 0.000000 3.235570 
# 
# 
# High freq. dielectric constant tensor:
#      x y z
#    x 1.752580 0.000000 0.000000 
#    y 0.000000 1.727670 0.000000 
#    z 0.000000 0.000000 1.712900 
# 
# From -- ./inp_files/3490.got.cif
#   From: 2010.06.25/outbox.cif.g09.slc.cpg/sg58_2_cif.got.tgz:3490.got - 2010.06.26 21:38:00.
