data_PCOD8236122
_publ_section_title
;
Structure prediction by ZEFSAII (Michael W. Deem and Ramdas Pophale) SiO2 
 PCOD8236122
Probable space group: P N N M
;
_chemical_formula_sum "Si O2"
_cell_formula_units_Z 64
_cell_length_a 24.986131
_cell_length_b 14.497773
_cell_length_c 9.027663
_cell_angle_alpha 90.000000
_cell_angle_beta 90.000000
_cell_angle_gamma 90.000000
_cell_volume 3270.210034
_symmetry_space_group_name_H-M "P N N M"
_symmetry_group_IT_number 58
_symmetry_cell_setting 'orthorhombic'
loop_
_space_group_symop_operation_xyz
x,y,z
-x,-y,z
1/2+x,1/2-y,1/2-z
1/2-x,1/2+y,1/2-z
-x,-y,-z
x,y,-z
1/2-x,1/2+y,1/2+z
1/2+x,1/2-y,1/2+z
loop_
_atom_site_type_symbol
_atom_site_label
_atom_site_fract_x
_atom_site_fract_y
_atom_site_fract_z
Si Si1 0.137538 0.086433 0.334966
Si Si2 0.208389 0.783212 0.173925
Si Si3 0.348994 0.944281 0.671248
Si Si4 0.552121 0.945645 0.323343
Si Si5 0.233620 0.963064 0.335527
Si Si6 0.413630 0.255346 0.675058
Si Si7 0.815589 0.755045 0.174650
Si Si8 0.448423 0.441321 0.825195
O O1 0.117970 0.114928 0.500000
O O2 0.198500 0.053657 0.337729
O O3 0.138735 0.173540 0.227094
O O4 0.101300 0.003883 0.272939
O O5 0.149089 0.748299 0.221755
O O6 0.256425 0.728530 0.256174
O O7 0.211733 0.890833 0.216411
O O8 0.217004 0.770807 0.000000
O O9 0.363839 0.937349 0.500000
O O10 0.339490 0.841561 0.732997
O O11 0.397544 0.999047 0.747783
O O12 0.293552 0.998768 0.700283
O O13 0.553381 0.946754 0.500000
O O14 0.556114 0.838513 0.272233
O O15 0.500000 0.000000 0.263417
O O16 0.233790 0.915235 0.500000
O O17 0.417789 0.268961 0.500000
O O18 0.444417 0.341781 0.748286
O O19 0.809737 0.760756 0.000000
O O20 0.500000 0.500000 0.775247
O O21 0.447917 0.423479 0.000000
#
# Coordination Sequence:
#
# PCOD8236122 Si02
#       8
#     8   8   8   8   8   8   8   8
#     4  10  20  34  54  80 111 150 188 226 282 340
#     4  10  19  32  52  80 114 145 183 230 281 333
#     4   8  16  31  50  73 103 139 180 221 267 323
#     4   9  18  33  54  79 107 140 181 225 272 327
#     4   9  17  31  53  76 105 145 183 222 275 335
#     4  10  21  35  57  86 111 142 187 238 282 331
#     4  10  21  34  52  81 115 152 190 229 281 336
#     4  10  22  40  60  82 112 152 192 229 283 354
#
# _framework density 19.570608
#
# number of rings (size 3 to 8) (size 9 to 14) (size 15 to 20)
#    0.000    2.500    1.250    1.500    1.750    2.750 
#    0.000    1.250    0.000    1.875    0.000    0.000 
#    0.000    0.000    0.000    0.000    0.000    0.000 
#
# Total GULP energy -793082.840944 kJ/mol
# GULP energy per Si atom -12391.919390 kJ/mol
# Density = 1.952606 g / cm^3
# Si number density = 19.570608 Si / 1000 Ang^3
#
#
#
# Elastic Constant Matrix: (Units=GPa)
#
#
# Indices 1 2 3 4 5 6 
#
# 1 132.4433 79.8998 27.3054 0.0000 0.0000 0.0000
# 2 79.8998 130.8138 33.7395 0.0000 0.0000 0.0000
# 3 27.3054 33.7395 45.5097 0.0000 0.0000 0.0000
# 4 0.0000 0.0000 0.0000 25.9041 0.0000 0.0000
# 5 0.0000 0.0000 0.0000 0.0000 19.8085 0.0000
# 6 0.0000 0.0000 0.0000 0.0000 0.0000 33.3575
#
#
#
# Elastic Compliance Matrix: (Units=1/GPa)
#
#
# Indices 1 2 3 4 5 6 
#
# 1 0.012133 -0.006841 -0.002208 0.000000 0.000000 0.000000
# 2 -0.006841 0.013309 -0.005762 0.000000 0.000000 0.000000
# 3 -0.002208 -0.005762 0.027570 0.000000 0.000000 0.000000
# 4 0.000000 0.000000 0.000000 0.038604 0.000000 0.000000
# 5 0.000000 0.000000 0.000000 0.000000 0.050483 0.000000
# 6 0.000000 0.000000 0.000000 0.000000 0.000000 0.029978
#
#
# Mechanical properties :
#
#
# Convention : Reuss Voigt Hill
#
# Bulk Modulus (GPa) = 42.75440 65.62846 54.19143
# Shear Modulus (GPa) = 23.86681 27.00219 25.43450
#
# Velocity S-wave (km/s) = 3.49596 3.71850 3.60895
# Velocity P-wave (km/s) = 6.17975 7.21411 6.71687
#
# Compressibility (1/GPa) = 0.02338940
#
# Stress axis : x y z
#
# Youngs Moduli (GPa) = 82.42258 75.13624 36.27133
#
# Poissons Ratio (x) = 0.51401 0.08008
# Poissons Ratio (y) = 0.56386 0.20901
# Poissons Ratio (z) = 0.18196 0.43297
#
# Static dielectric constant tensor:
#      x y z
#    x 3.811680 0.000000 0.000000 
#    y 0.000000 3.581280 0.000000 
#    z 0.000000 0.000000 3.264420 
# 
# 
# High freq. dielectric constant tensor:
#      x y z
#    x 1.765270 0.000000 0.000000 
#    y 0.000000 1.762570 0.000000 
#    z 0.000000 0.000000 1.724780 
# 
# From -- ./inp_files/10087.got.cif
#   From: 2010.06.25/outbox.cif.g09.slc.cpg/sg58_6_cif.got.tgz:10087.got - 2010.06.26 21:38:00.
