data_PCOD8236623
_publ_section_title
;
Structure prediction by ZEFSAII (Michael W. Deem and Ramdas Pophale) SiO2 
 PCOD8236623
Probable space group: P N N M
;
_chemical_formula_sum "Si O2"
_cell_formula_units_Z 48
_cell_length_a 28.577852
_cell_length_b 9.490822
_cell_length_c 9.065850
_cell_angle_alpha 90.000000
_cell_angle_beta 90.000000
_cell_angle_gamma 90.000000
_cell_volume 2458.906076
_symmetry_space_group_name_H-M "P N N M"
_symmetry_group_IT_number 58
_symmetry_cell_setting 'orthorhombic'
loop_
_space_group_symop_operation_xyz
x,y,z
-x,-y,z
1/2+x,1/2-y,1/2-z
1/2-x,1/2+y,1/2-z
-x,-y,-z
x,y,-z
1/2-x,1/2+y,1/2+z
1/2+x,1/2-y,1/2+z
loop_
_atom_site_type_symbol
_atom_site_label
_atom_site_fract_x
_atom_site_fract_y
_atom_site_fract_z
Si Si1 0.212013 0.794618 0.326338
Si Si2 0.377872 0.790041 0.326924
Si Si3 0.204272 0.494233 0.827939
Si Si4 0.518388 0.145903 0.324141
Si Si5 0.042761 0.896564 0.836679
Si Si6 0.869133 0.994406 0.326540
O O1 0.213293 0.769641 0.500000
O O2 0.210089 0.642082 0.252882
O O3 0.257447 0.881068 0.272788
O O4 0.167237 0.885777 0.277347
O O5 0.379069 0.756381 0.500000
O O6 0.346550 0.927614 0.293755
O O7 0.429903 0.818338 0.263115
O O8 0.355707 0.653719 0.248418
O O9 0.211222 0.524290 0.000000
O O10 0.521340 0.143731 0.500000
O O11 0.478873 0.254169 0.270214
O O12 0.500000 0.000000 0.258445
O O13 0.079879 0.956538 0.723162
O O14 0.065459 0.873933 0.000000
O O15 0.000000 0.000000 0.855074
O O16 0.868344 0.970857 0.500000
#
# Coordination Sequence:
#
# PCOD8236623 Si02
#       6
#     8   8   8   8   8   8
#     4  10  23  41  58  85 121 151 183 234 291 341
#     4  10  20  37  59  85 112 144 194 243 280 330
#     4  10  22  39  63  89 112 147 197 240 279 338
#     4   9  18  32  53  81 112 142 178 235 292 325
#     4  10  19  35  58  82 110 147 192 239 281 325
#     4  11  23  37  56  82 118 156 189 228 286 351
#
# _framework density 19.520876000000001
#
# number of rings (size 3 to 8) (size 9 to 14) (size 15 to 20)
#    0.000    2.000    1.667    1.500    2.333    3.000 
#    0.000    0.000    0.000    1.000    0.000    0.000 
#    0.000    0.000    0.000    0.000    0.000    0.000 
#
# Total GULP energy -595187.961782 kJ/mol
# GULP energy per Si atom -12399.749204 kJ/mol
# Density = 1.947645 g / cm^3
# Si number density = 19.520876 Si / 1000 Ang^3
#
#
#
# Elastic Constant Matrix: (Units=GPa)
#
#
# Indices 1 2 3 4 5 6 
#
# 1 86.3940 46.0451 32.2135 0.0000 0.0000 0.0000
# 2 46.0451 171.2260 47.9649 0.0000 0.0000 0.0000
# 3 32.2135 47.9649 47.3452 0.0000 0.0000 0.0000
# 4 0.0000 0.0000 0.0000 34.2642 0.0000 0.0000
# 5 0.0000 0.0000 0.0000 0.0000 31.7002 0.0000
# 6 0.0000 0.0000 0.0000 0.0000 0.0000 34.5668
#
#
#
# Elastic Compliance Matrix: (Units=1/GPa)
#
#
# Indices 1 2 3 4 5 6 
#
# 1 0.015871 -0.001735 -0.009040 0.000000 0.000000 0.000000
# 2 -0.001735 0.008344 -0.007273 0.000000 0.000000 0.000000
# 3 -0.009040 -0.007273 0.034640 0.000000 0.000000 0.000000
# 4 0.000000 0.000000 0.000000 0.029185 0.000000 0.000000
# 5 0.000000 0.000000 0.000000 0.000000 0.031546 0.000000
# 6 0.000000 0.000000 0.000000 0.000000 0.000000 0.028929
#
#
# Mechanical properties :
#
#
# Convention : Reuss Voigt Hill
#
# Bulk Modulus (GPa) = 43.93957 61.93468 52.93713
# Shear Modulus (GPa) = 26.01495 32.02237 29.01866
#
# Velocity S-wave (km/s) = 3.65454 4.05460 3.85976
# Velocity P-wave (km/s) = 6.35338 7.32912 6.85862
#
# Compressibility (1/GPa) = 0.02275853
#
# Stress axis : x y z
#
# Youngs Moduli (GPa) = 63.00971 119.84431 28.86831
#
# Poissons Ratio (x) = 0.20798 0.26097
# Poissons Ratio (y) = 0.10935 0.20995
# Poissons Ratio (z) = 0.56961 0.87158
#
# Static dielectric constant tensor:
#      x y z
#    x 2.343690 0.000000 0.000000 
#    y 0.000000 3.663860 0.000000 
#    z 0.000000 0.000000 3.278200 
# 
# 
# High freq. dielectric constant tensor:
#      x y z
#    x 1.770120 0.000000 0.000000 
#    y 0.000000 1.776290 0.000000 
#    z 0.000000 0.000000 1.728090 
# 
# From -- ./inp_files/2849.got.cif
#   From: 2010.06.25/outbox.cif.g09.slc.cpg/sg58_2_cif.got.tgz:2849.got - 2010.06.26 21:38:00.
