data_PCOD8236897
_publ_section_title
;
Structure prediction by ZEFSAII (Michael W. Deem and Ramdas Pophale) SiO2 
 PCOD8236897
Probable space group: P N N M
;
_chemical_formula_sum "Si O2"
_cell_formula_units_Z 64
_cell_length_a 20.402976
_cell_length_b 19.345032
_cell_length_c 9.121591
_cell_angle_alpha 90.000000
_cell_angle_beta 90.000000
_cell_angle_gamma 90.000000
_cell_volume 3600.257521
_symmetry_space_group_name_H-M "P N N M"
_symmetry_group_IT_number 58
_symmetry_cell_setting 'orthorhombic'
loop_
_space_group_symop_operation_xyz
x,y,z
-x,-y,z
1/2+x,1/2-y,1/2-z
1/2-x,1/2+y,1/2-z
-x,-y,-z
x,y,-z
1/2-x,1/2+y,1/2+z
1/2+x,1/2-y,1/2+z
loop_
_atom_site_type_symbol
_atom_site_label
_atom_site_fract_x
_atom_site_fract_y
_atom_site_fract_z
Si Si1 0.230626 0.080101 0.667935
Si Si2 0.260388 0.426759 0.832260
Si Si3 0.060213 0.713427 0.826684
Si Si4 0.927950 0.712672 0.670007
Si Si5 0.811169 0.790287 0.171629
Si Si6 0.127032 0.433973 0.331652
Si Si7 0.617462 0.931182 0.330334
Si Si8 0.823650 0.214142 0.668572
O O1 0.217745 0.101926 0.500000
O O2 0.190567 0.130523 0.774171
O O3 0.307260 0.085365 0.706292
O O4 0.206812 0.001496 0.698582
O O5 0.197147 0.413938 0.733969
O O6 0.313712 0.367531 0.802477
O O7 0.235264 0.423737 0.000000
O O8 0.074926 0.634390 0.780876
O O9 0.118761 0.762393 0.774641
O O10 0.994084 0.737756 0.748265
O O11 0.052821 0.721286 0.000000
O O12 0.930693 0.733352 0.500000
O O13 0.867455 0.750771 0.743339
O O14 0.921397 0.630351 0.690829
O O15 0.742574 0.754204 0.210275
O O16 0.826533 0.788008 0.000000
O O17 0.138073 0.451968 0.500000
O O18 0.094194 0.500842 0.256383
O O19 0.608071 0.947880 0.500000
O O20 0.842837 0.228831 0.500000
#
# Coordination Sequence:
#
# PCOD8236897 Si02
#       8
#     8   8   8   8   8   8   8   8
#     4   9  17  32  54  80 111 142 178 221 268 320
#     4   9  18  34  55  80 110 144 179 219 270 326
#     4  11  23  38  56  79 109 147 188 227 272 326
#     4  11  24  39  54  77 111 148 185 228 277 325
#     4  11  21  34  57  84 110 143 183 226 271 321
#     4  10  20  32  51  78 108 143 183 227 268 313
#     4   9  19  34  52  75 108 148 184 219 264 325
#     4  10  20  35  57  83 111 143 181 226 273 323
#
# _framework density 17.776505
#
# number of rings (size 3 to 8) (size 9 to 14) (size 15 to 20)
#    0.000    2.000    2.500    2.250    0.000    6.000 
#    0.000    2.500    0.000    0.750    0.000    5.250 
#    0.000    0.000    0.000    0.000    0.000    0.000 
#
# Total GULP energy -793750.374885 kJ/mol
# GULP energy per Si atom -12402.349608 kJ/mol
# Density = 1.773604 g / cm^3
# Si number density = 17.776505 Si / 1000 Ang^3
#
#
#
# Elastic Constant Matrix: (Units=GPa)
#
#
# Indices 1 2 3 4 5 6 
#
# 1 70.1505 35.5848 44.0872 0.0000 0.0000 0.0000
# 2 35.5848 94.2372 49.3750 0.0000 0.0000 0.0000
# 3 44.0872 49.3750 88.8480 0.0000 0.0000 0.0000
# 4 0.0000 0.0000 0.0000 32.4688 0.0000 0.0000
# 5 0.0000 0.0000 0.0000 0.0000 24.2353 0.0000
# 6 0.0000 0.0000 0.0000 0.0000 0.0000 19.7889
#
#
#
# Elastic Compliance Matrix: (Units=1/GPa)
#
#
# Indices 1 2 3 4 5 6 
#
# 1 0.021536 -0.003574 -0.008700 0.000000 0.000000 0.000000
# 2 -0.003574 0.015563 -0.006876 0.000000 0.000000 0.000000
# 3 -0.008700 -0.006876 0.019393 0.000000 0.000000 0.000000
# 4 0.000000 0.000000 0.000000 0.030799 0.000000 0.000000
# 5 0.000000 0.000000 0.000000 0.000000 0.041262 0.000000
# 6 0.000000 0.000000 0.000000 0.000000 0.000000 0.050533
#
#
# Mechanical properties :
#
#
# Convention : Reuss Voigt Hill
#
# Bulk Modulus (GPa) = 54.96543 56.81440 55.88991
# Shear Modulus (GPa) = 22.37636 23.57786 22.97711
#
# Velocity S-wave (km/s) = 3.55175 3.64586 3.59911
# Velocity P-wave (km/s) = 6.91428 7.05357 6.98427
#
# Compressibility (1/GPa) = 0.01819325
#
# Stress axis : x y z
#
# Youngs Moduli (GPa) = 46.43472 64.25313 51.56412
#
# Poissons Ratio (x) = 0.22962 0.44862
# Poissons Ratio (y) = 0.16594 0.35454
# Poissons Ratio (z) = 0.40399 0.44179
#
# Static dielectric constant tensor:
#      x y z
#    x 2.997160 0.000000 0.000000 
#    y 0.000000 3.494370 0.000000 
#    z 0.000000 0.000000 3.330700 
# 
# 
# High freq. dielectric constant tensor:
#      x y z
#    x 1.658940 0.000000 0.000000 
#    y 0.000000 1.692160 0.000000 
#    z 0.000000 0.000000 1.695310 
# 
# From -- ./inp_files/8269.got.cif
#   From: 2010.06.25/outbox.cif.g09.slc.cpg/sg58_5_cif.got.tgz:8269.got - 2010.06.26 21:38:00.
