data_PCOD8236545
_publ_section_title
;
Structure prediction by ZEFSAII (Michael W. Deem and Ramdas Pophale) SiO2 
 PCOD8236545
Probable space group: P N N M
;
_chemical_formula_sum "Si O2"
_cell_formula_units_Z 56
_cell_length_a 19.491796
_cell_length_b 16.469268
_cell_length_c 8.929629
_cell_angle_alpha 90.000000
_cell_angle_beta 90.000000
_cell_angle_gamma 90.000000
_cell_volume 2866.550319
_symmetry_space_group_name_H-M "P N N M"
_symmetry_group_IT_number 58
_symmetry_cell_setting 'orthorhombic'
loop_
_space_group_symop_operation_xyz
x,y,z
-x,-y,z
1/2+x,1/2-y,1/2-z
1/2-x,1/2+y,1/2-z
-x,-y,-z
x,y,-z
1/2-x,1/2+y,1/2+z
1/2+x,1/2-y,1/2+z
loop_
_atom_site_type_symbol
_atom_site_label
_atom_site_fract_x
_atom_site_fract_y
_atom_site_fract_z
Si Si1 0.114577 0.317732 0.172489
Si Si2 0.305202 0.422054 0.324300
Si Si3 0.941703 0.062099 0.676522
Si Si4 0.344623 0.977848 0.824654
Si Si5 0.641824 0.857267 0.674664
Si Si6 0.236260 0.760245 0.326147
Si Si7 0.023788 0.770130 0.173665
O O1 0.114720 0.397914 0.273896
O O2 0.182481 0.264517 0.201570
O O3 0.051067 0.262094 0.218838
O O4 0.109689 0.345580 0.000000
O O5 0.316466 0.415451 0.500000
O O6 0.370212 0.467134 0.251072
O O7 0.235907 0.469780 0.283291
O O8 0.303220 0.331116 0.260849
O O9 0.932446 0.059886 0.500000
O O10 0.961105 0.152301 0.726227
O O11 0.000000 0.000000 0.731045
O O12 0.375720 0.053704 0.736244
O O13 0.355688 0.990275 0.000000
O O14 0.658115 0.862120 0.500000
O O15 0.709260 0.824641 0.760513
O O16 0.577193 0.800832 0.710796
O O17 0.217684 0.767342 0.500000
O O18 0.027415 0.795393 0.000000
#
# Coordination Sequence:
#
# PCOD8236545 Si02
#       7
#     8   8   8   8   8   8   8
#     4   9  20  39  60  84 117 155 196 242 294 348
#     4  10  20  37  59  82 110 148 193 236 289 352
#     4  11  24  39  58  87 120 154 193 243 301 351
#     4  10  22  38  58  86 117 152 196 245 295 345
#     4  11  22  36  58  86 117 155 200 242 290 352
#     4  10  19  34  59  85 112 148 192 244 294 344
#     4  10  22  40  61  85 116 158 200 238 290 356
#
# _framework density 19.535675999999999
#
# number of rings (size 3 to 8) (size 9 to 14) (size 15 to 20)
#    0.000    1.857    1.429    2.143    0.000    6.286 
#    0.000    7.143    0.000    0.000    0.000    0.000 
#    0.000    0.000    0.000    0.000    0.000    0.000 
#
# Total GULP energy -694680.177548 kJ/mol
# GULP energy per Si atom -12405.003171 kJ/mol
# Density = 1.949121 g / cm^3
# Si number density = 19.535676 Si / 1000 Ang^3
#
#
#
# Elastic Constant Matrix: (Units=GPa)
#
#
# Indices 1 2 3 4 5 6 
#
# 1 89.2703 21.0160 31.0522 0.0000 0.0000 0.0000
# 2 21.0160 47.9617 21.1797 0.0000 0.0000 0.0000
# 3 31.0522 21.1797 71.0144 0.0000 0.0000 0.0000
# 4 0.0000 0.0000 0.0000 33.2747 0.0000 0.0000
# 5 0.0000 0.0000 0.0000 0.0000 29.7903 0.0000
# 6 0.0000 0.0000 0.0000 0.0000 0.0000 29.1063
#
#
#
# Elastic Compliance Matrix: (Units=1/GPa)
#
#
# Indices 1 2 3 4 5 6 
#
# 1 0.013817 -0.003900 -0.004879 0.000000 0.000000 0.000000
# 2 -0.003900 0.025113 -0.005785 0.000000 0.000000 0.000000
# 3 -0.004879 -0.005785 0.017940 0.000000 0.000000 0.000000
# 4 0.000000 0.000000 0.000000 0.030053 0.000000 0.000000
# 5 0.000000 0.000000 0.000000 0.000000 0.033568 0.000000
# 6 0.000000 0.000000 0.000000 0.000000 0.000000 0.034357
#
#
# Mechanical properties :
#
#
# Convention : Reuss Voigt Hill
#
# Bulk Modulus (GPa) = 36.04365 39.41580 37.72973
# Shear Modulus (GPa) = 25.87691 27.43418 26.65554
#
# Velocity S-wave (km/s) = 3.64345 3.75148 3.69786
# Velocity P-wave (km/s) = 6.01580 6.24379 6.13086
#
# Compressibility (1/GPa) = 0.02774414
#
# Stress axis : x y z
#
# Youngs Moduli (GPa) = 72.37426 39.81948 55.74104
#
# Poissons Ratio (x) = 0.15530 0.27194
# Poissons Ratio (y) = 0.28226 0.32244
# Poissons Ratio (z) = 0.35308 0.23034
#
# Static dielectric constant tensor:
#      x y z
#    x 3.779820 0.000000 0.000000 
#    y 0.000000 3.420640 0.000000 
#    z 0.000000 0.000000 3.573110 
# 
# 
# High freq. dielectric constant tensor:
#      x y z
#    x 1.768200 0.000000 0.000000 
#    y 0.000000 1.752330 0.000000 
#    z 0.000000 0.000000 1.768330 
# 
# From -- ./inp_files/8987.got.cif
#   From: 2010.06.25/outbox.cif.g09.slc.cpg/sg58_5_cif.got.tgz:8987.got - 2010.06.26 21:38:00.
