data_PCOD8236477
_publ_section_title
;
Structure prediction by ZEFSAII (Michael W. Deem and Ramdas Pophale) SiO2 
 PCOD8236477
Probable space group: P N N M
;
_chemical_formula_sum "Si O2"
_cell_formula_units_Z 64
_cell_length_a 15.519156
_cell_length_b 23.960515
_cell_length_c 8.745852
_cell_angle_alpha 90.000000
_cell_angle_beta 90.000000
_cell_angle_gamma 90.000000
_cell_volume 3252.118567
_symmetry_space_group_name_H-M "P N N M"
_symmetry_group_IT_number 58
_symmetry_cell_setting 'orthorhombic'
loop_
_space_group_symop_operation_xyz
x,y,z
-x,-y,z
1/2+x,1/2-y,1/2-z
1/2-x,1/2+y,1/2-z
-x,-y,-z
x,y,-z
1/2-x,1/2+y,1/2+z
1/2+x,1/2-y,1/2+z
loop_
_atom_site_type_symbol
_atom_site_label
_atom_site_fract_x
_atom_site_fract_y
_atom_site_fract_z
Si Si1 0.248650 0.072101 0.318160
Si Si2 0.163992 0.751579 0.176931
Si Si3 0.155690 0.248070 0.179939
Si Si4 0.415440 0.640758 0.181045
Si Si5 0.242305 0.944696 0.318622
Si Si6 0.094231 0.871141 0.819541
Si Si7 0.913372 0.364371 0.177685
Si Si8 0.101852 0.369228 0.181876
O O1 0.250434 0.076368 0.500000
O O2 0.164235 0.103885 0.256131
O O3 0.334283 0.101285 0.247083
O O4 0.246042 0.008361 0.263700
O O5 0.246041 0.735612 0.277693
O O6 0.123254 0.809468 0.233983
O O7 0.095436 0.702158 0.202569
O O8 0.192528 0.755103 0.000000
O O9 0.092978 0.203771 0.259337
O O10 0.132052 0.309160 0.243659
O O11 0.141767 0.243325 0.000000
O O12 0.502945 0.613916 0.244571
O O13 0.418382 0.640563 0.000000
O O14 0.230867 0.938884 0.500000
O O15 0.161933 0.916373 0.237383
O O16 0.330779 0.915783 0.261980
O O17 0.085158 0.874320 0.000000
O O18 0.006065 0.382848 0.247057
O O19 0.912812 0.379031 0.000000
O O20 0.098925 0.367241 0.000000
#
# Coordination Sequence:
#
# PCOD8236477 Si02
#       8
#     8   8   8   8   8   8   8   8
#     4   9  19  34  56  81 109 145 192 236 278 332
#     4  10  19  34  57  80 111 149 184 222 278 339
#     4  11  20  33  55  86 117 146 182 227 280 338
#     4  11  22  38  58  83 113 151 189 231 285 341
#     4  10  20  37  57  82 111 146 191 239 282 331
#     4  11  23  38  58  85 113 149 188 235 289 339
#     4   9  16  31  54  82 111 140 178 226 274 328
#     4   9  18  31  53  83 116 145 176 227 283 329
#
# _framework density 19.679480000000002
#
# number of rings (size 3 to 8) (size 9 to 14) (size 15 to 20)
#    0.000    2.000    2.500    1.875    0.000    3.500 
#    0.000    6.250    0.000    0.750    0.000    0.875 
#    0.000    0.000    0.000    0.000    0.000    0.000 
#
# Total GULP energy -793653.081603 kJ/mol
# GULP energy per Si atom -12400.829400 kJ/mol
# Density = 1.963469 g / cm^3
# Si number density = 19.679480 Si / 1000 Ang^3
#
#
#
# Elastic Constant Matrix: (Units=GPa)
#
#
# Indices 1 2 3 4 5 6 
#
# 1 150.8981 51.8778 22.6311 0.0000 0.0000 0.0000
# 2 51.8778 127.0818 18.5818 0.0000 0.0000 0.0000
# 3 22.6311 18.5818 36.0310 0.0000 0.0000 0.0000
# 4 0.0000 0.0000 0.0000 23.2287 0.0000 0.0000
# 5 0.0000 0.0000 0.0000 0.0000 21.8002 0.0000
# 6 0.0000 0.0000 0.0000 0.0000 0.0000 18.6605
#
#
#
# Elastic Compliance Matrix: (Units=1/GPa)
#
#
# Indices 1 2 3 4 5 6 
#
# 1 0.008135 -0.002784 -0.003674 0.000000 0.000000 0.000000
# 2 -0.002784 0.009463 -0.003132 0.000000 0.000000 0.000000
# 3 -0.003674 -0.003132 0.031677 0.000000 0.000000 0.000000
# 4 0.000000 0.000000 0.000000 0.043050 0.000000 0.000000
# 5 0.000000 0.000000 0.000000 0.000000 0.045871 0.000000
# 6 0.000000 0.000000 0.000000 0.000000 0.000000 0.053589
#
#
# Mechanical properties :
#
#
# Convention : Reuss Voigt Hill
#
# Bulk Modulus (GPa) = 33.22728 55.57692 44.40210
# Shear Modulus (GPa) = 22.62476 27.46588 25.04532
#
# Velocity S-wave (km/s) = 3.39435 3.73991 3.57131
# Velocity P-wave (km/s) = 5.68181 6.85212 6.29423
#
# Compressibility (1/GPa) = 0.03009575
#
# Stress axis : x y z
#
# Youngs Moduli (GPa) = 122.92536 105.67172 31.56891
#
# Poissons Ratio (x) = 0.29416 0.11598
# Poissons Ratio (y) = 0.34219 0.09887
# Poissons Ratio (z) = 0.45163 0.33096
#
# Static dielectric constant tensor:
#      x y z
#    x 3.887310 0.000000 0.000000 
#    y 0.000000 3.682360 0.000000 
#    z 0.000000 0.000000 3.159290 
# 
# 
# High freq. dielectric constant tensor:
#      x y z
#    x 1.783980 0.000000 0.000000 
#    y 0.000000 1.766590 0.000000 
#    z 0.000000 0.000000 1.723790 
# 
# From -- ./inp_files/6823.got.cif
#   From: 2010.06.25/outbox.cif.g09.slc.cpg/sg58_4_cif.got.tgz:6823.got - 2010.06.26 21:38:00.
