data_PCOD8236704
_publ_section_title
;
Structure prediction by ZEFSAII (Michael W. Deem and Ramdas Pophale) SiO2 
 PCOD8236704
Probable space group: P N N M
;
_chemical_formula_sum "Si O2"
_cell_formula_units_Z 40
_cell_length_a 15.107764
_cell_length_b 8.856251
_cell_length_c 16.374833
_cell_angle_alpha 90.000000
_cell_angle_beta 90.000000
_cell_angle_gamma 90.000000
_cell_volume 2190.922362
_symmetry_space_group_name_H-M "P N N M"
_symmetry_group_IT_number 58
_symmetry_cell_setting 'orthorhombic'
loop_
_space_group_symop_operation_xyz
x,y,z
-x,-y,z
1/2+x,1/2-y,1/2-z
1/2-x,1/2+y,1/2-z
-x,-y,-z
x,y,-z
1/2-x,1/2+y,1/2+z
1/2+x,1/2-y,1/2+z
loop_
_atom_site_type_symbol
_atom_site_label
_atom_site_fract_x
_atom_site_fract_y
_atom_site_fract_z
Si Si1 0.643086 0.175927 0.622675
Si Si2 0.176955 0.649865 0.592867
Si Si3 0.511756 0.322071 0.500000
Si Si4 0.498566 0.331358 0.906063
Si Si5 0.089270 0.408415 0.301102
Si Si6 0.599902 0.941634 0.500000
O O1 0.732347 0.267700 0.611708
O O2 0.564554 0.272903 0.581401
O O3 0.627765 0.153839 0.717523
O O4 0.649473 0.010069 0.579675
O O5 0.175571 0.588692 0.500000
O O6 0.162981 0.509978 0.653987
O O7 0.099641 0.769892 0.606509
O O8 0.500000 0.500000 0.500000
O O9 0.413163 0.240937 0.500000
O O10 0.500000 0.500000 0.870604
O O11 0.570374 0.233891 0.858173
O O12 0.528094 0.328285 0.000000
O O13 0.000000 0.500000 0.283670
O O14 0.500000 0.000000 0.500000
#
# Coordination Sequence:
#
# PCOD8236704 Si02
#       6
#     8   8   4   8   8   4
#     4  10  19  36  57  81 113 148 186 241 287 345
#     4  10  19  36  59  78 112 150 187 233 289 345
#     4  10  20  36  58  84 110 151 196 236 290 355
#     4   9  19  35  54  78 107 145 188 229 280 342
#     4  10  20  34  56  82 110 151 194 231 284 347
#     4   8  16  34  58  76 106 147 183 214 288 345
#
# _framework density 18.257152000000001
#
# number of rings (size 3 to 8) (size 9 to 14) (size 15 to 20)
#    0.000    2.600    2.000    2.400    0.000    4.800 
#    0.000    6.000    0.000    0.000    0.000    0.000 
#    0.000    0.000    0.000    0.000    0.000    0.000 
#
# Total GULP energy -495862.249007 kJ/mol
# GULP energy per Si atom -12396.556225 kJ/mol
# Density = 1.821560 g / cm^3
# Si number density = 18.257152 Si / 1000 Ang^3
#
#
#
# Elastic Constant Matrix: (Units=GPa)
#
#
# Indices 1 2 3 4 5 6 
#
# 1 80.5031 50.9472 50.3774 0.0000 0.0000 0.0000
# 2 50.9472 149.2331 62.3261 0.0000 0.0000 0.0000
# 3 50.3774 62.3261 118.9946 0.0000 0.0000 0.0000
# 4 0.0000 0.0000 0.0000 24.1018 0.0000 0.0000
# 5 0.0000 0.0000 0.0000 0.0000 23.1165 0.0000
# 6 0.0000 0.0000 0.0000 0.0000 0.0000 31.3465
#
#
#
# Elastic Compliance Matrix: (Units=1/GPa)
#
#
# Indices 1 2 3 4 5 6 
#
# 1 0.018518 -0.003901 -0.005797 0.000000 0.000000 0.000000
# 2 -0.003901 0.009399 -0.003271 0.000000 0.000000 0.000000
# 3 -0.005797 -0.003271 0.012571 0.000000 0.000000 0.000000
# 4 0.000000 0.000000 0.000000 0.041491 0.000000 0.000000
# 5 0.000000 0.000000 0.000000 0.000000 0.043259 0.000000
# 6 0.000000 0.000000 0.000000 0.000000 0.000000 0.031901
#
#
# Mechanical properties :
#
#
# Convention : Reuss Voigt Hill
#
# Bulk Modulus (GPa) = 68.72694 75.11468 71.92081
# Shear Modulus (GPa) = 26.60600 28.05165 27.32882
#
# Velocity S-wave (km/s) = 3.82159 3.92404 3.87315
# Velocity P-wave (km/s) = 7.56296 7.85893 7.71236
#
# Compressibility (1/GPa) = 0.01455034
#
# Stress axis : x y z
#
# Youngs Moduli (GPa) = 54.00134 106.39441 79.54685
#
# Poissons Ratio (x) = 0.41505 0.46109
# Poissons Ratio (y) = 0.21066 0.26023
# Poissons Ratio (z) = 0.31302 0.34806
#
# Static dielectric constant tensor:
#      x y z
#    x 3.270540 0.000000 0.000000 
#    y 0.000000 3.711970 0.000000 
#    z 0.000000 0.000000 3.416610 
# 
# 
# High freq. dielectric constant tensor:
#      x y z
#    x 1.692870 0.000000 0.000000 
#    y 0.000000 1.707370 0.000000 
#    z 0.000000 0.000000 1.710590 
# 
# From -- ./inp_files/21916.got.cif
#   From: 2010.06.25/outbox.cif.g09.slc.cpg/sg58_11_cif.got.tgz:21916.got - 2010.06.26 21:38:00.
