data_PCOD8236944
_publ_section_title
;
Structure prediction by ZEFSAII (Michael W. Deem and Ramdas Pophale) SiO2 
 PCOD8236944
Probable space group: P N N M
;
_chemical_formula_sum "Si O2"
_cell_formula_units_Z 52
_cell_length_a 23.510745
_cell_length_b 6.536932
_cell_length_c 18.227579
_cell_angle_alpha 90.000000
_cell_angle_beta 90.000000
_cell_angle_gamma 90.000000
_cell_volume 2801.362738
_symmetry_space_group_name_H-M "P N N M"
_symmetry_group_IT_number 58
_symmetry_cell_setting 'orthorhombic'
loop_
_space_group_symop_operation_xyz
x,y,z
-x,-y,z
1/2+x,1/2-y,1/2-z
1/2-x,1/2+y,1/2-z
-x,-y,-z
x,y,-z
1/2-x,1/2+y,1/2+z
1/2+x,1/2-y,1/2+z
loop_
_atom_site_type_symbol
_atom_site_label
_atom_site_fract_x
_atom_site_fract_y
_atom_site_fract_z
Si Si1 0.687122 0.588153 0.080677
Si Si2 0.671312 0.113446 0.704836
Si Si3 0.248754 0.235414 0.333326
Si Si4 0.792781 0.878635 0.081634
Si Si5 0.445631 0.879028 0.210704
Si Si6 0.920168 0.326354 0.415152
Si Si7 0.500000 0.500000 0.849176
O O1 0.696724 0.391214 0.131118
O O2 0.744870 0.709669 0.074434
O O3 0.639590 0.737243 0.114400
O O4 0.666932 0.514217 0.000000
O O5 0.722974 0.186530 0.757082
O O6 0.662561 0.279648 0.639227
O O7 0.609745 0.086373 0.740191
O O8 0.693122 0.892829 0.677326
O O9 0.265833 0.413981 0.388515
O O10 0.819468 0.916080 0.000000
O O11 0.459142 0.637555 0.202980
O O12 0.500000 0.000000 0.245564
O O13 0.434169 0.969859 0.129770
O O14 0.918229 0.390034 0.500000
O O15 0.966034 0.150440 0.401985
#
# Coordination Sequence:
#
# PCOD8236944 Si02
#       7
#     8   8   8   8   8   8   4
#     4   9  19  33  51  77 112 149 184 220 273 334
#     4  11  22  36  58  85 113 146 189 230 288 339
#     4  11  20  33  56  85 112 148 181 233 281 339
#     4  10  21  36  54  81 115 146 181 227 284 346
#     4  10  23  38  55  78 111 150 194 245 282 337
#     4  10  20  33  51  76 111 151 193 238 277 327
#     4  10  21  36  52  74 103 148 202 238 283 322
#
# _framework density 18.562393
#
# number of rings (size 3 to 8) (size 9 to 14) (size 15 to 20)
#    0.000    1.846    1.538    2.538    2.154    6.462 
#    0.000    3.846    0.000    0.462    0.000    1.615 
#    0.000    0.000    0.000    0.000    0.000    0.000 
#
# Total GULP energy -644667.634202 kJ/mol
# GULP energy per Si atom -12397.454504 kJ/mol
# Density = 1.852014 g / cm^3
# Si number density = 18.562393 Si / 1000 Ang^3
#
#
#
# Elastic Constant Matrix: (Units=GPa)
#
#
# Indices 1 2 3 4 5 6 
#
# 1 83.2598 13.5105 31.8519 0.0000 0.0000 0.0000
# 2 13.5105 81.3072 41.8698 0.0000 0.0000 0.0000
# 3 31.8519 41.8698 100.7245 0.0000 0.0000 0.0000
# 4 0.0000 0.0000 0.0000 -2.8613 0.0000 0.0000
# 5 0.0000 0.0000 0.0000 0.0000 27.1869 0.0000
# 6 0.0000 0.0000 0.0000 0.0000 0.0000 21.6092
#
#
#
# Elastic Compliance Matrix: (Units=1/GPa)
#
#
# Indices 1 2 3 4 5 6 
#
# 1 0.013664 -0.000058 -0.004297 0.000000 0.000000 0.000000
# 2 -0.000058 0.015649 -0.006487 0.000000 0.000000 0.000000
# 3 -0.004297 -0.006487 0.013983 0.000000 0.000000 0.000000
# 4 0.000000 0.000000 0.000000 -0.349487 0.000000 0.000000
# 5 0.000000 0.000000 0.000000 0.000000 0.036782 0.000000
# 6 0.000000 0.000000 0.000000 0.000000 0.000000 0.046277
#
#
# Mechanical properties :
#
#
# Convention : Reuss Voigt Hill
#
# Bulk Modulus (GPa) = 46.26783 48.86178 47.56481
# Shear Modulus (GPa) = -25.74071 21.05757 -2.34157
#
# Velocity S-wave (km/s) = -3.72790 3.37177 -1.12437
# Velocity P-wave (km/s) = 2.53969 6.44504 4.89840
#
# Compressibility (1/GPa) = 0.02161329
#
# Stress axis : x y z
#
# Youngs Moduli (GPa) = 73.18618 63.90151 71.51358
#
# Poissons Ratio (x) = 0.00369 0.30728
# Poissons Ratio (y) = 0.00423 0.46390
# Poissons Ratio (z) = 0.31447 0.41452
#
# Static dielectric constant tensor:
#      x y z
#    x 3.366120 0.000000 0.000000 
#    y 0.000000 3.567940 0.000000 
#    z 0.000000 0.000000 3.791530 
# 
# 
# High freq. dielectric constant tensor:
#      x y z
#    x 1.701390 0.000000 0.000000 
#    y 0.000000 1.733370 0.000000 
#    z 0.000000 0.000000 1.707110 
# 
# From -- ./inp_files/27716.got.cif
#   From: 2010.06.25/outbox.cif.g09.slc.cpg/sg58_14_cif.got.tgz:27716.got - 2010.06.26 21:38:00.
