data_PCOD8236563
_publ_section_title
;
Structure prediction by ZEFSAII (Michael W. Deem and Ramdas Pophale) SiO2 
 PCOD8236563
Probable space group: P N N M
;
_chemical_formula_sum "Si O2"
_cell_formula_units_Z 64
_cell_length_a 30.676100
_cell_length_b 12.058075
_cell_length_c 8.778705
_cell_angle_alpha 90.000000
_cell_angle_beta 90.000000
_cell_angle_gamma 90.000000
_cell_volume 3247.196580
_symmetry_space_group_name_H-M "P N N M"
_symmetry_group_IT_number 58
_symmetry_cell_setting 'orthorhombic'
loop_
_space_group_symop_operation_xyz
x,y,z
-x,-y,z
1/2+x,1/2-y,1/2-z
1/2-x,1/2+y,1/2-z
-x,-y,-z
x,y,-z
1/2-x,1/2+y,1/2+z
1/2+x,1/2-y,1/2+z
loop_
_atom_site_type_symbol
_atom_site_label
_atom_site_fract_x
_atom_site_fract_y
_atom_site_fract_z
Si Si1 0.925131 0.777661 0.170151
Si Si2 0.450213 0.501214 0.821635
Si Si3 0.695070 0.498135 0.178585
Si Si4 0.674528 0.274300 0.329537
Si Si5 0.372958 0.098033 0.318473
Si Si6 0.791913 0.542482 0.819074
Si Si7 0.954293 0.543230 0.818536
Si Si8 0.878344 0.149135 0.180435
O O1 0.875487 0.738799 0.162718
O O2 0.951156 0.671340 0.233344
O O3 0.930317 0.879358 0.284269
O O4 0.941020 0.812076 0.000000
O O5 0.500000 0.500000 0.764135
O O6 0.423069 0.404872 0.739653
O O7 0.446802 0.479542 0.000000
O O8 0.680310 0.373976 0.212812
O O9 0.744284 0.509237 0.240921
O O10 0.664083 0.584874 0.262134
O O11 0.691833 0.521324 0.000000
O O12 0.690621 0.307665 0.500000
O O13 0.700125 0.168248 0.264129
O O14 0.373009 0.095090 0.500000
O O15 0.375578 0.224618 0.260435
O O16 0.328570 0.041759 0.253838
O O17 0.414700 0.031196 0.253249
O O18 0.794263 0.538281 0.000000
O O19 0.000000 0.500000 0.752031
O O20 0.953215 0.536871 0.000000
O O21 0.879019 0.142090 0.000000
#
# Coordination Sequence:
#
# PCOD8236563 Si02
#       8
#     8   8   8   8   8   8   8   8
#     4  10  19  34  61  88 112 145 190 241 283 332
#     4  11  25  42  59  81 116 157 191 231 285 342
#     4  11  23  37  57  83 116 156 193 233 288 346
#     4  10  19  36  60  83 110 147 194 242 284 331
#     4   9  18  34  54  81 116 149 184 231 287 339
#     4   9  19  36  56  81 115 154 190 234 291 342
#     4   9  17  30  53  87 118 143 181 235 288 332
#     4  11  23  38  60  86 115 149 190 240 283 335
#
# _framework density 19.709309999999999
#
# number of rings (size 3 to 8) (size 9 to 14) (size 15 to 20)
#    0.000    2.000    2.500    1.125    3.500    1.000 
#    0.000    0.625    0.000    3.375    0.000    0.000 
#    0.000    0.000    0.000    0.000    0.000    0.000 
#
# Total GULP energy -793620.774948 kJ/mol
# GULP energy per Si atom -12400.324609 kJ/mol
# Density = 1.966445 g / cm^3
# Si number density = 19.709310 Si / 1000 Ang^3
#
#
#
# Elastic Constant Matrix: (Units=GPa)
#
#
# Indices 1 2 3 4 5 6 
#
# 1 129.1097 45.5349 22.0416 0.0000 0.0000 0.0000
# 2 45.5349 123.6258 20.5082 0.0000 0.0000 0.0000
# 3 22.0416 20.5082 40.4589 0.0000 0.0000 0.0000
# 4 0.0000 0.0000 0.0000 0.0404 0.0000 0.0000
# 5 0.0000 0.0000 0.0000 0.0000 16.9754 0.0000
# 6 0.0000 0.0000 0.0000 0.0000 0.0000 35.0374
#
#
#
# Elastic Compliance Matrix: (Units=1/GPa)
#
#
# Indices 1 2 3 4 5 6 
#
# 1 0.009374 -0.002845 -0.003665 0.000000 0.000000 0.000000
# 2 -0.002845 0.009695 -0.003364 0.000000 0.000000 0.000000
# 3 -0.003665 -0.003364 0.028418 0.000000 0.000000 0.000000
# 4 0.000000 0.000000 0.000000 24.754609 0.000000 0.000000
# 5 0.000000 0.000000 0.000000 0.000000 0.058909 0.000000
# 6 0.000000 0.000000 0.000000 0.000000 0.000000 0.028541
#
#
# Mechanical properties :
#
#
# Convention : Reuss Voigt Hill
#
# Bulk Modulus (GPa) = 36.05008 52.15154 44.10081
# Shear Modulus (GPa) = 0.20065 24.08461 12.14263
#
# Velocity S-wave (km/s) = 0.31942 3.49949 2.48480
# Velocity P-wave (km/s) = 4.29728 6.54572 5.53683
#
# Compressibility (1/GPa) = 0.02773919
#
# Stress axis : x y z
#
# Youngs Moduli (GPa) = 106.67372 103.14714 35.18836
#
# Poissons Ratio (x) = 0.29344 0.12897
# Poissons Ratio (y) = 0.30347 0.11839
# Poissons Ratio (z) = 0.39096 0.34703
#
# Static dielectric constant tensor:
#      x y z
#    x 3.926060 0.000000 0.000000 
#    y 0.000000 3.669800 0.000000 
#    z 0.000000 0.000000 3.149460 
# 
# 
# High freq. dielectric constant tensor:
#      x y z
#    x 1.780250 0.000000 0.000000 
#    y 0.000000 1.780240 0.000000 
#    z 0.000000 0.000000 1.725060 
# 
# From -- ./inp_files/10977.got.cif
#   From: 2010.06.25/outbox.cif.g09.slc.cpg/sg58_6_cif.got.tgz:10977.got - 2010.06.26 21:38:00.
