data_PCOD8236988
_publ_section_title
;
Structure prediction by ZEFSAII (Michael W. Deem and Ramdas Pophale) SiO2 
 PCOD8236988
Probable space group: P N N M
;
_chemical_formula_sum "Si O2"
_cell_formula_units_Z 48
_cell_length_a 23.903272
_cell_length_b 11.968129
_cell_length_c 9.062602
_cell_angle_alpha 90.000000
_cell_angle_beta 90.000000
_cell_angle_gamma 90.000000
_cell_volume 2592.606005
_symmetry_space_group_name_H-M "P N N M"
_symmetry_group_IT_number 58
_symmetry_cell_setting 'orthorhombic'
loop_
_space_group_symop_operation_xyz
x,y,z
-x,-y,z
1/2+x,1/2-y,1/2-z
1/2-x,1/2+y,1/2-z
-x,-y,-z
x,y,-z
1/2-x,1/2+y,1/2+z
1/2+x,1/2-y,1/2+z
loop_
_atom_site_type_symbol
_atom_site_label
_atom_site_fract_x
_atom_site_fract_y
_atom_site_fract_z
Si Si1 0.046397 0.225549 0.174319
Si Si2 0.385254 0.515538 0.327501
Si Si3 0.417986 0.276106 0.674625
Si Si4 0.141633 0.350537 0.326467
Si Si5 0.337728 0.105934 0.827538
Si Si6 0.213981 0.169744 0.173326
O O1 0.068602 0.104496 0.228829
O O2 0.081887 0.321325 0.255034
O O3 0.982366 0.238340 0.220726
O O4 0.055711 0.238901 0.000000
O O5 0.393768 0.500649 0.500000
O O6 0.395330 0.393379 0.257016
O O7 0.323442 0.560617 0.288086
O O8 0.410717 0.272072 0.500000
O O9 0.384446 0.174429 0.742722
O O10 0.138623 0.329995 0.500000
O O11 0.155423 0.477241 0.285969
O O12 0.191661 0.276525 0.260767
O O13 0.276702 0.145720 0.774681
O O14 0.345527 0.126424 0.000000
O O15 0.209648 0.195562 0.000000
#
# Coordination Sequence:
#
# PCOD8236988 Si02
#       6
#     8   8   8   8   8   8
#     4   9  18  35  57  81 110 142 178 222 270 316
#     4   8  15  31  57  82 103 134 178 224 267 310
#     4  10  20  33  56  85 108 140 185 224 260 314
#     4  10  21  37  57  79 105 142 183 219 265 323
#     4  10  23  38  52  77 112 146 176 218 274 320
#     4   9  19  37  58  77 104 141 177 221 273 319
#
# _framework density 18.514189999999999
#
# number of rings (size 3 to 8) (size 9 to 14) (size 15 to 20)
#    0.000    2.667    0.000    2.000    2.333    5.333 
#    0.000    6.667    0.000    5.000    0.000    0.000 
#    0.000    0.000    0.000    0.000    0.000    0.000 
#
# Total GULP energy -595190.409696 kJ/mol
# GULP energy per Si atom -12399.800202 kJ/mol
# Density = 1.847205 g / cm^3
# Si number density = 18.514190 Si / 1000 Ang^3
#
#
#
# Elastic Constant Matrix: (Units=GPa)
#
#
# Indices 1 2 3 4 5 6 
#
# 1 131.5075 76.9410 40.2172 0.0000 0.0000 0.0000
# 2 76.9410 127.1629 47.0282 0.0000 0.0000 0.0000
# 3 40.2172 47.0282 39.4093 0.0000 0.0000 0.0000
# 4 0.0000 0.0000 0.0000 26.2399 0.0000 0.0000
# 5 0.0000 0.0000 0.0000 0.0000 26.8217 0.0000
# 6 0.0000 0.0000 0.0000 0.0000 0.0000 22.5176
#
#
#
# Elastic Compliance Matrix: (Units=1/GPa)
#
#
# Indices 1 2 3 4 5 6 
#
# 1 0.012711 -0.005180 -0.006791 0.000000 0.000000 0.000000
# 2 -0.005180 0.016187 -0.014030 0.000000 0.000000 0.000000
# 3 -0.006791 -0.014030 0.049047 0.000000 0.000000 0.000000
# 4 0.000000 0.000000 0.000000 0.038110 0.000000 0.000000
# 5 0.000000 0.000000 0.000000 0.000000 0.037283 0.000000
# 6 0.000000 0.000000 0.000000 0.000000 0.000000 0.044410
#
#
# Mechanical properties :
#
#
# Convention : Reuss Voigt Hill
#
# Bulk Modulus (GPa) = 38.54461 69.60584 54.07523
# Shear Modulus (GPa) = 19.35004 24.04207 21.69605
#
# Velocity S-wave (km/s) = 3.23638 3.60748 3.42696
# Velocity P-wave (km/s) = 5.90167 7.41819 6.70295
#
# Compressibility (1/GPa) = 0.02594396
#
# Stress axis : x y z
#
# Youngs Moduli (GPa) = 78.66963 61.77942 20.38848
#
# Poissons Ratio (x) = 0.32000 0.13846
# Poissons Ratio (y) = 0.40748 0.28605
# Poissons Ratio (z) = 0.53424 0.86677
#
# Static dielectric constant tensor:
#      x y z
#    x 3.545720 0.000000 0.000000 
#    y 0.000000 3.501570 0.000000 
#    z 0.000000 0.000000 3.147680 
# 
# 
# High freq. dielectric constant tensor:
#      x y z
#    x 1.728690 0.000000 0.000000 
#    y 0.000000 1.723530 0.000000 
#    z 0.000000 0.000000 1.692940 
# 
# From -- ./inp_files/4184.got.cif
#   From: 2010.06.25/outbox.cif.g09.slc.cpg/sg58_3_cif.got.tgz:4184.got - 2010.06.26 21:38:00.
