data_PCOD8236808
_publ_section_title
;
Structure prediction by ZEFSAII (Michael W. Deem and Ramdas Pophale) SiO2 
 PCOD8236808
Probable space group: P N N M
;
_chemical_formula_sum "Si O2"
_cell_formula_units_Z 64
_cell_length_a 14.766578
_cell_length_b 25.676276
_cell_length_c 8.808420
_cell_angle_alpha 90.000000
_cell_angle_beta 90.000000
_cell_angle_gamma 90.000000
_cell_volume 3339.718893
_symmetry_space_group_name_H-M "P N N M"
_symmetry_group_IT_number 58
_symmetry_cell_setting 'orthorhombic'
loop_
_space_group_symop_operation_xyz
x,y,z
-x,-y,z
1/2+x,1/2-y,1/2-z
1/2-x,1/2+y,1/2-z
-x,-y,-z
x,y,-z
1/2-x,1/2+y,1/2+z
1/2+x,1/2-y,1/2+z
loop_
_atom_site_type_symbol
_atom_site_label
_atom_site_fract_x
_atom_site_fract_y
_atom_site_fract_z
Si Si1 0.011117 0.439947 0.675747
Si Si2 0.337306 0.389315 0.678915
Si Si3 0.104562 0.995905 0.320821
Si Si4 0.005098 0.281547 0.826756
Si Si5 0.368184 0.130094 0.676575
Si Si6 0.831814 0.892656 0.679384
Si Si7 0.999686 0.172768 0.321459
Si Si8 0.650995 0.131297 0.323787
O O1 0.031444 0.429029 0.500000
O O2 0.918102 0.412596 0.722675
O O3 0.000000 0.500000 0.712397
O O4 0.095021 0.419389 0.773894
O O5 0.342373 0.391440 0.500000
O O6 0.347491 0.447490 0.741692
O O7 0.413840 0.351118 0.739175
O O8 0.242432 0.364488 0.728781
O O9 0.113001 0.987783 0.500000
O O10 0.155103 0.048091 0.263340
O O11 0.000000 0.000000 0.271921
O O12 0.091322 0.317606 0.790646
O O13 0.912302 0.313310 0.797204
O O14 0.007462 0.233692 0.712387
O O15 0.008238 0.261606 0.000000
O O16 0.376999 0.114068 0.500000
O O17 0.264257 0.130707 0.732282
O O18 0.839033 0.892528 0.500000
O O19 0.911054 0.855874 0.743992
O O20 0.988616 0.163807 0.500000
O O21 0.674958 0.125870 0.500000
#
# Coordination Sequence:
#
# PCOD8236808 Si02
#       8
#     8   8   8   8   8   8   8   8
#     4  10  21  36  54  83 121 153 189 241 294 345
#     4  12  25  39  58  88 124 157 197 246 299 350
#     4  10  19  37  61  84 116 154 197 245 292 352
#     4   9  20  39  60  86 118 148 190 249 300 344
#     4   9  19  37  59  83 113 153 197 237 289 355
#     4   9  19  36  59  86 113 149 196 241 284 347
#     4  11  22  39  62  87 116 156 203 242 294 356
#     4  10  22  41  63  85 115 156 201 243 292 358
#
# _framework density 19.16329
#
# number of rings (size 3 to 8) (size 9 to 14) (size 15 to 20)
#    0.000    2.000    1.250    3.000    1.750    4.750 
#    0.000    2.500    0.000    0.000    0.000    0.000 
#    0.000    0.000    0.000    0.000    0.000    0.000 
#
# Total GULP energy -793796.957889 kJ/mol
# GULP energy per Si atom -12403.077467 kJ/mol
# Density = 1.911967 g / cm^3
# Si number density = 19.163290 Si / 1000 Ang^3
#
#
#
# Elastic Constant Matrix: (Units=GPa)
#
#
# Indices 1 2 3 4 5 6 
#
# 1 146.5490 57.0329 31.1913 0.0000 0.0000 0.0000
# 2 57.0329 119.8286 38.6447 0.0000 0.0000 0.0000
# 3 31.1913 38.6447 56.4283 0.0000 0.0000 0.0000
# 4 0.0000 0.0000 0.0000 32.8575 0.0000 0.0000
# 5 0.0000 0.0000 0.0000 0.0000 10.7676 0.0000
# 6 0.0000 0.0000 0.0000 0.0000 0.0000 11.3365
#
#
#
# Elastic Compliance Matrix: (Units=1/GPa)
#
#
# Indices 1 2 3 4 5 6 
#
# 1 0.008645 -0.003303 -0.002516 0.000000 0.000000 0.000000
# 2 -0.003303 0.011973 -0.006374 0.000000 0.000000 0.000000
# 3 -0.002516 -0.006374 0.023478 0.000000 0.000000 0.000000
# 4 0.000000 0.000000 0.000000 0.030434 0.000000 0.000000
# 5 0.000000 0.000000 0.000000 0.000000 0.092871 0.000000
# 6 0.000000 0.000000 0.000000 0.000000 0.000000 0.088211
#
#
# Mechanical properties :
#
#
# Convention : Reuss Voigt Hill
#
# Bulk Modulus (GPa) = 50.73867 64.06039 57.39953
# Shear Modulus (GPa) = 17.44792 24.05479 20.75136
#
# Velocity S-wave (km/s) = 3.02070 3.54680 3.29427
# Velocity P-wave (km/s) = 6.22099 7.09044 6.66989
#
# Compressibility (1/GPa) = 0.01970883
#
# Stress axis : x y z
#
# Youngs Moduli (GPa) = 115.67848 83.52232 42.59361
#
# Poissons Ratio (x) = 0.27587 0.10718
# Poissons Ratio (y) = 0.38208 0.27148
# Poissons Ratio (z) = 0.29110 0.53236
#
# Static dielectric constant tensor:
#      x y z
#    x 3.727770 0.000000 0.000000 
#    y 0.000000 3.495710 0.000000 
#    z 0.000000 0.000000 3.371280 
# 
# 
# High freq. dielectric constant tensor:
#      x y z
#    x 1.755210 0.000000 0.000000 
#    y 0.000000 1.747730 0.000000 
#    z 0.000000 0.000000 1.734540 
# 
# From -- ./inp_files/6887.got.cif
#   From: 2010.06.25/outbox.cif.g09.slc.cpg/sg58_4_cif.got.tgz:6887.got - 2010.06.26 21:38:00.
