data_PCOD8236302
_publ_section_title
;
Structure prediction by ZEFSAII (Michael W. Deem and Ramdas Pophale) SiO2 
 PCOD8236302
Probable space group: P N N M
;
_chemical_formula_sum "Si O2"
_cell_formula_units_Z 48
_cell_length_a 16.582304
_cell_length_b 18.021489
_cell_length_c 8.601747
_cell_angle_alpha 90.000000
_cell_angle_beta 90.000000
_cell_angle_gamma 90.000000
_cell_volume 2570.527228
_symmetry_space_group_name_H-M "P N N M"
_symmetry_group_IT_number 58
_symmetry_cell_setting 'orthorhombic'
loop_
_space_group_symop_operation_xyz
x,y,z
-x,-y,z
1/2+x,1/2-y,1/2-z
1/2-x,1/2+y,1/2-z
-x,-y,-z
x,y,-z
1/2-x,1/2+y,1/2+z
1/2+x,1/2-y,1/2+z
loop_
_atom_site_type_symbol
_atom_site_label
_atom_site_fract_x
_atom_site_fract_y
_atom_site_fract_z
Si Si1 0.504086 0.414066 0.818827
Si Si2 0.828326 0.904024 0.818194
Si Si3 0.147284 0.834385 0.180946
Si Si4 0.915080 0.475401 0.817313
Si Si5 0.748613 0.045837 0.681613
Si Si6 0.323460 0.167665 0.683146
O O1 0.500000 0.500000 0.771614
O O2 0.590705 0.381515 0.772543
O O3 0.437503 0.370061 0.723007
O O4 0.487015 0.402328 0.000000
O O5 0.760800 0.844900 0.769951
O O6 0.802914 0.987262 0.773924
O O7 0.845232 0.899617 0.000000
O O8 0.221745 0.872417 0.272089
O O9 0.143543 0.748161 0.228519
O O10 0.164647 0.843750 0.000000
O O11 0.845615 0.535340 0.774699
O O12 0.888036 0.393868 0.757902
O O13 0.000000 0.500000 0.738388
O O14 0.927787 0.471516 0.000000
O O15 0.762704 0.031082 0.500000
O O16 0.308181 0.158087 0.500000
#
# Coordination Sequence:
#
# PCOD8236302 Si02
#       6
#     8   8   8   8   8   8
#     4  11  22  36  58  84 114 150 187 230 283 340
#     4  11  21  35  58  83 108 144 190 230 274 335
#     4  11  22  36  55  82 116 149 186 233 283 336
#     4   8  15  32  58  81 102 136 185 230 269 325
#     4  10  19  33  55  81 109 144 184 226 281 338
#     4   9  20  38  57  79 114 150 182 229 289 335
#
# _framework density 18.673211999999999
#
# number of rings (size 3 to 8) (size 9 to 14) (size 15 to 20)
#    0.000    2.000    1.667    4.000    0.000    2.000 
#    3.000    0.000    0.000   12.500    0.000    0.000 
#    0.000    0.000    0.000    0.000    0.000    0.000 
#
# Total GULP energy -595249.582048 kJ/mol
# GULP energy per Si atom -12401.032959 kJ/mol
# Density = 1.863071 g / cm^3
# Si number density = 18.673212 Si / 1000 Ang^3
#
#
#
# Elastic Constant Matrix: (Units=GPa)
#
#
# Indices 1 2 3 4 5 6 
#
# 1 140.9936 60.9797 12.3054 0.0000 0.0000 0.0000
# 2 60.9797 113.9226 19.7407 0.0000 0.0000 0.0000
# 3 12.3054 19.7407 33.2007 0.0000 0.0000 0.0000
# 4 0.0000 0.0000 0.0000 25.0714 0.0000 0.0000
# 5 0.0000 0.0000 0.0000 0.0000 20.6994 0.0000
# 6 0.0000 0.0000 0.0000 0.0000 0.0000 23.6053
#
#
#
# Elastic Compliance Matrix: (Units=1/GPa)
#
#
# Indices 1 2 3 4 5 6 
#
# 1 0.009238 -0.004851 -0.000539 0.000000 0.000000 0.000000
# 2 -0.004851 0.012334 -0.005535 0.000000 0.000000 0.000000
# 3 -0.000539 -0.005535 0.033611 0.000000 0.000000 0.000000
# 4 0.000000 0.000000 0.000000 0.039886 0.000000 0.000000
# 5 0.000000 0.000000 0.000000 0.000000 0.048311 0.000000
# 6 0.000000 0.000000 0.000000 0.000000 0.000000 0.042363
#
#
# Mechanical properties :
#
#
# Convention : Reuss Voigt Hill
#
# Bulk Modulus (GPa) = 30.00259 52.68539 41.34399
# Shear Modulus (GPa) = 22.86184 26.88129 24.87157
#
# Velocity S-wave (km/s) = 3.50281 3.79828 3.65353
# Velocity P-wave (km/s) = 5.69751 6.89286 6.32350
#
# Compressibility (1/GPa) = 0.03333045
#
# Stress axis : x y z
#
# Youngs Moduli (GPa) = 108.25131 81.07776 29.75212
#
# Poissons Ratio (x) = 0.39333 0.01605
# Poissons Ratio (y) = 0.52516 0.16469
# Poissons Ratio (z) = 0.05839 0.44880
#
# Static dielectric constant tensor:
#      x y z
#    x 3.660280 0.000000 0.000000 
#    y 0.000000 3.436020 0.000000 
#    z 0.000000 0.000000 3.280900 
# 
# 
# High freq. dielectric constant tensor:
#      x y z
#    x 1.732200 0.000000 0.000000 
#    y 0.000000 1.711160 0.000000 
#    z 0.000000 0.000000 1.715480 
# 
# From -- ./inp_files/5841.got.cif
#   From: 2010.06.25/outbox.cif.g09.slc.cpg/sg58_3_cif.got.tgz:5841.got - 2010.06.26 21:38:00.
