data_PCOD8236642
_publ_section_title
;
Structure prediction by ZEFSAII (Michael W. Deem and Ramdas Pophale) SiO2 
 PCOD8236642
Probable space group: P N N M
;
_chemical_formula_sum "Si O2"
_cell_formula_units_Z 64
_cell_length_a 20.671618
_cell_length_b 19.346429
_cell_length_c 9.033420
_cell_angle_alpha 90.000000
_cell_angle_beta 90.000000
_cell_angle_gamma 90.000000
_cell_volume 3612.663302
_symmetry_space_group_name_H-M "P N N M"
_symmetry_group_IT_number 58
_symmetry_cell_setting 'orthorhombic'
loop_
_space_group_symop_operation_xyz
x,y,z
-x,-y,z
1/2+x,1/2-y,1/2-z
1/2-x,1/2+y,1/2-z
-x,-y,-z
x,y,-z
1/2-x,1/2+y,1/2+z
1/2+x,1/2-y,1/2+z
loop_
_atom_site_type_symbol
_atom_site_label
_atom_site_fract_x
_atom_site_fract_y
_atom_site_fract_z
Si Si1 0.735872 0.574978 0.324459
Si Si2 0.059534 0.285051 0.170971
Si Si3 0.307085 0.291861 0.174115
Si Si4 0.369995 0.922256 0.670093
Si Si5 0.120987 0.576465 0.831571
Si Si6 0.430749 0.203929 0.173489
Si Si7 0.270783 0.566319 0.826387
Si Si8 0.815155 0.800855 0.826423
O O1 0.731453 0.570578 0.500000
O O2 0.691548 0.637047 0.264717
O O3 0.809359 0.589318 0.276296
O O4 0.708834 0.504145 0.254901
O O5 0.076304 0.365031 0.204857
O O6 0.119133 0.237330 0.219870
O O7 0.996321 0.263561 0.261908
O O8 0.043722 0.274124 0.000000
O O9 0.370650 0.250502 0.224332
O O10 0.244638 0.247349 0.220188
O O11 0.306671 0.308007 0.000000
O O12 0.344847 0.915424 0.500000
O O13 0.401662 0.997471 0.695328
O O14 0.078854 0.625705 0.728692
O O15 0.196314 0.583142 0.790486
O O16 0.108506 0.599058 0.000000
O O17 0.437143 0.201761 0.000000
O O18 0.314303 0.627990 0.763691
O O19 0.282805 0.557104 0.000000
O O20 0.812075 0.817463 0.000000
#
# Coordination Sequence:
#
# PCOD8236642 Si02
#       8
#     8   8   8   8   8   8   8   8
#     4  11  21  32  54  85 112 139 179 229 272 320
#     4  10  21  37  56  76 108 148 183 223 271 328
#     4  10  20  37  57  78 109 145 182 224 275 324
#     4   9  18  35  54  76 107 148 186 219 268 321
#     4   9  18  32  52  76 106 144 186 220 258 319
#     4  11  23  36  53  77 110 146 181 227 273 319
#     4  10  20  34  55  82 113 144 177 223 274 326
#     4  10  19  35  59  82 107 142 184 227 271 319
#
# _framework density 17.715461999999999
#
# number of rings (size 3 to 8) (size 9 to 14) (size 15 to 20)
#    0.000    2.000    2.500    2.625    0.000    5.000 
#    0.000    2.500    0.000    0.750    0.000    5.250 
#    0.000    0.000    0.000    0.000    0.000    0.000 
#
# Total GULP energy -793803.690512 kJ/mol
# GULP energy per Si atom -12403.182664 kJ/mol
# Density = 1.767514 g / cm^3
# Si number density = 17.715462 Si / 1000 Ang^3
#
#
#
# Elastic Constant Matrix: (Units=GPa)
#
#
# Indices 1 2 3 4 5 6 
#
# 1 105.0899 55.8189 45.0020 0.0000 0.0000 0.0000
# 2 55.8189 115.3586 56.2102 0.0000 0.0000 0.0000
# 3 45.0020 56.2102 79.6554 0.0000 0.0000 0.0000
# 4 0.0000 0.0000 0.0000 32.3952 0.0000 0.0000
# 5 0.0000 0.0000 0.0000 0.0000 28.6392 0.0000
# 6 0.0000 0.0000 0.0000 0.0000 0.0000 20.3146
#
#
#
# Elastic Compliance Matrix: (Units=1/GPa)
#
#
# Indices 1 2 3 4 5 6 
#
# 1 0.013886 -0.004414 -0.004730 0.000000 0.000000 0.000000
# 2 -0.004414 0.014615 -0.007819 0.000000 0.000000 0.000000
# 3 -0.004730 -0.007819 0.020744 0.000000 0.000000 0.000000
# 4 0.000000 0.000000 0.000000 0.030869 0.000000 0.000000
# 5 0.000000 0.000000 0.000000 0.000000 0.034917 0.000000
# 6 0.000000 0.000000 0.000000 0.000000 0.000000 0.049226
#
#
# Mechanical properties :
#
#
# Convention : Reuss Voigt Hill
#
# Bulk Modulus (GPa) = 65.28379 68.24066 66.76222
# Shear Modulus (GPa) = 24.59561 25.80799 25.20180
#
# Velocity S-wave (km/s) = 3.73013 3.82095 3.77581
# Velocity P-wave (km/s) = 7.44870 7.62038 7.53503
#
# Compressibility (1/GPa) = 0.01531774
#
# Stress axis : x y z
#
# Youngs Moduli (GPa) = 72.01628 68.42500 48.20672
#
# Poissons Ratio (x) = 0.30204 0.22801
# Poissons Ratio (y) = 0.31790 0.37694
# Poissons Ratio (z) = 0.34063 0.53503
#
# Static dielectric constant tensor:
#      x y z
#    x 3.096920 0.000000 0.000000 
#    y 0.000000 3.399110 0.000000 
#    z 0.000000 0.000000 3.195560 
# 
# 
# High freq. dielectric constant tensor:
#      x y z
#    x 1.660220 0.000000 0.000000 
#    y 0.000000 1.689670 0.000000 
#    z 0.000000 0.000000 1.683630 
# 
# From -- ./inp_files/9331.got.cif
#   From: 2010.06.25/outbox.cif.g09.slc.cpg/sg58_5_cif.got.tgz:9331.got - 2010.06.26 21:38:00.
