data_PCOD8236234
_publ_section_title
;
Structure prediction by ZEFSAII (Michael W. Deem and Ramdas Pophale) SiO2 
 PCOD8236234
Probable space group: P N N M
;
_chemical_formula_sum "Si O2"
_cell_formula_units_Z 64
_cell_length_a 20.321091
_cell_length_b 5.021453
_cell_length_c 32.807513
_cell_angle_alpha 90.000000
_cell_angle_beta 90.000000
_cell_angle_gamma 90.000000
_cell_volume 3347.724667
_symmetry_space_group_name_H-M "P N N M"
_symmetry_group_IT_number 58
_symmetry_cell_setting 'orthorhombic'
loop_
_space_group_symop_operation_xyz
x,y,z
-x,-y,z
1/2+x,1/2-y,1/2-z
1/2-x,1/2+y,1/2-z
-x,-y,-z
x,y,-z
1/2-x,1/2+y,1/2+z
1/2+x,1/2-y,1/2+z
loop_
_atom_site_type_symbol
_atom_site_label
_atom_site_fract_x
_atom_site_fract_y
_atom_site_fract_z
Si Si1 0.573288 0.035637 0.658218
Si Si2 0.198705 0.907886 0.643695
Si Si3 0.338507 0.922596 0.098472
Si Si4 0.324296 0.883824 0.406589
Si Si5 0.712727 0.599890 0.452065
Si Si6 0.923992 0.034057 0.212240
Si Si7 0.708022 0.534544 0.762167
Si Si8 0.956496 0.756328 0.455111
O O1 0.586568 0.327324 0.675858
O O2 0.500000 0.000000 0.642792
O O3 0.613263 0.999770 0.616766
O O4 0.588782 0.825467 0.693863
O O5 0.147631 0.700298 0.622296
O O6 0.185609 0.212100 0.632006
O O7 0.270554 0.824390 0.628143
O O8 0.197202 0.872956 0.691797
O O9 0.286112 0.975274 0.062572
O O10 0.402554 0.800613 0.078463
O O11 0.302244 0.098644 0.439894
O O12 0.337781 0.608213 0.430730
O O13 0.707677 0.568054 0.500000
O O14 0.866301 0.989565 0.245248
O O15 0.000000 0.000000 0.229667
O O16 0.749442 0.763229 0.739039
O O17 0.926508 0.828926 0.500000
O O18 0.000000 0.500000 0.460347
O O19 0.000000 0.000000 0.438663
#
# Coordination Sequence:
#
# PCOD8236234 Si02
#       8
#     8   8   8   8   8   8   8   8
#     4  10  20  36  59  83 107 140 179 220 268 317
#     4  10  21  34  53  80 105 139 177 218 270 321
#     4  10  20  36  53  74 106 137 177 221 264 319
#     4  10  19  33  53  78 108 134 173 221 260 312
#     4  10  20  33  53  77 104 139 172 213 265 316
#     4  10  21  37  57  82 112 145 185 228 271 326
#     4  12  23  37  59  85 115 147 184 230 282 330
#     4  10  20  34  54  78 103 136 180 228 273 316
#
# _framework density 19.117463000000001
#
# number of rings (size 3 to 8) (size 9 to 14) (size 15 to 20)
#    0.000    1.750    0.000    5.250    0.000    2.000 
#    0.000    5.625    0.000    2.250    0.000    0.000 
#    0.000    0.000    0.000    0.000    0.000    0.000 
#
# Total GULP energy -793503.391453 kJ/mol
# GULP energy per Si atom -12398.490491 kJ/mol
# Density = 1.907395 g / cm^3
# Si number density = 19.117463 Si / 1000 Ang^3
#
#
#
# Elastic Constant Matrix: (Units=GPa)
#
#
# Indices 1 2 3 4 5 6 
#
# 1 93.3015 26.4758 54.1698 0.0000 0.0000 0.0000
# 2 26.4758 88.0407 16.3229 0.0000 0.0000 0.0000
# 3 54.1698 16.3229 112.0547 0.0000 0.0000 0.0000
# 4 0.0000 0.0000 0.0000 20.6098 0.0000 0.0000
# 5 0.0000 0.0000 0.0000 0.0000 24.3637 0.0000
# 6 0.0000 0.0000 0.0000 0.0000 0.0000 28.6320
#
#
#
# Elastic Compliance Matrix: (Units=1/GPa)
#
#
# Indices 1 2 3 4 5 6 
#
# 1 0.015852 -0.003439 -0.007162 0.000000 0.000000 0.000000
# 2 -0.003439 0.012420 -0.000147 0.000000 0.000000 0.000000
# 3 -0.007162 -0.000147 0.012408 0.000000 0.000000 0.000000
# 4 0.000000 0.000000 0.000000 0.048521 0.000000 0.000000
# 5 0.000000 0.000000 0.000000 0.000000 0.041045 0.000000
# 6 0.000000 0.000000 0.000000 0.000000 0.000000 0.034926
#
#
# Mechanical properties :
#
#
# Convention : Reuss Voigt Hill
#
# Bulk Modulus (GPa) = 52.12743 54.14822 53.13782
# Shear Modulus (GPa) = 25.89838 27.81632 26.85735
#
# Velocity S-wave (km/s) = 3.68461 3.81861 3.75221
# Velocity P-wave (km/s) = 6.74003 6.91577 6.82846
#
# Compressibility (1/GPa) = 0.01918376
#
# Stress axis : x y z
#
# Youngs Moduli (GPa) = 63.08249 80.51657 80.59310
#
# Poissons Ratio (x) = 0.27691 0.57724
# Poissons Ratio (y) = 0.21695 0.01181
# Poissons Ratio (z) = 0.45182 0.01180
#
# Static dielectric constant tensor:
#      x y z
#    x 3.464910 0.000000 0.000000 
#    y 0.000000 3.742100 0.000000 
#    z 0.000000 0.000000 3.310700 
# 
# 
# High freq. dielectric constant tensor:
#      x y z
#    x 1.726160 0.000000 0.000000 
#    y 0.000000 1.766690 0.000000 
#    z 0.000000 0.000000 1.732910 
# 
# From -- ./inp_files/35152.got.cif
#   From: 2010.06.25/outbox.cif.g09.slc.cpg/sg58_18_cif.got.tgz:35152.got - 2010.06.26 21:38:00.
