data_PCOD8236200
_publ_section_title
;
Structure prediction by ZEFSAII (Michael W. Deem and Ramdas Pophale) SiO2 
 PCOD8236200
Probable space group: P N N M
;
_chemical_formula_sum "Si O2"
_cell_formula_units_Z 48
_cell_length_a 16.793625
_cell_length_b 9.742119
_cell_length_c 13.810007
_cell_angle_alpha 90.000000
_cell_angle_beta 90.000000
_cell_angle_gamma 90.000000
_cell_volume 2259.393006
_symmetry_space_group_name_H-M "P N N M"
_symmetry_group_IT_number 58
_symmetry_cell_setting 'orthorhombic'
loop_
_space_group_symop_operation_xyz
x,y,z
-x,-y,z
1/2+x,1/2-y,1/2-z
1/2-x,1/2+y,1/2-z
-x,-y,-z
x,y,-z
1/2-x,1/2+y,1/2+z
1/2+x,1/2-y,1/2+z
loop_
_atom_site_type_symbol
_atom_site_label
_atom_site_fract_x
_atom_site_fract_y
_atom_site_fract_z
Si Si1 0.029004 0.652585 0.707291
Si Si2 0.256983 0.418805 0.613914
Si Si3 0.881908 0.774836 0.386387
Si Si4 0.121623 0.695059 0.113464
Si Si5 0.698558 0.797250 0.884439
Si Si6 0.238705 0.997770 0.613176
O O1 0.042454 0.675004 0.822741
O O2 0.108973 0.681376 0.648866
O O3 0.000000 0.500000 0.683741
O O4 0.963359 0.761652 0.672954
O O5 0.247659 0.415893 0.500000
O O6 0.180168 0.338221 0.653636
O O7 0.339725 0.343252 0.639683
O O8 0.254413 0.576040 0.652832
O O9 0.900095 0.755987 0.500000
O O10 0.843800 0.923828 0.365029
O O11 0.184366 0.580175 0.151169
O O12 0.100078 0.682300 0.000000
O O13 0.733602 0.654715 0.839895
O O14 0.698721 0.789514 0.000000
O O15 0.251371 0.985966 0.500000
#
# Coordination Sequence:
#
# PCOD8236200 Si02
#       6
#     8   8   8   8   8   8
#     4  12  23  32  52  85 118 151 188 226 288 344
#     4   8  15  32  58  80 104 140 181 232 280 326
#     4   9  17  33  56  83 116 145 174 221 286 352
#     4   9  20  39  58  76 106 151 203 242 274 322
#     4  10  19  32  56  90 117 137 176 229 290 351
#     4   8  17  36  60  83 110 147 187 234 285 332
#
# _framework density 21.244644999999998
#
# number of rings (size 3 to 8) (size 9 to 14) (size 15 to 20)
#    0.000    2.667    1.667    2.500    0.000    3.000 
#    0.000    2.500    3.667    0.000    0.000    2.333 
#    0.000    0.000    0.000    0.000    0.000    0.000 
#
# Total GULP energy -594937.714469 kJ/mol
# GULP energy per Si atom -12394.535718 kJ/mol
# Density = 2.119629 g / cm^3
# Si number density = 21.244645 Si / 1000 Ang^3
#
#
#
# Elastic Constant Matrix: (Units=GPa)
#
#
# Indices 1 2 3 4 5 6 
#
# 1 63.3333 34.7875 25.7479 0.0000 0.0000 0.0000
# 2 34.7875 158.2751 21.6483 0.0000 0.0000 0.0000
# 3 25.7479 21.6483 57.9017 0.0000 0.0000 0.0000
# 4 0.0000 0.0000 0.0000 12.6402 0.0000 0.0000
# 5 0.0000 0.0000 0.0000 0.0000 35.1917 0.0000
# 6 0.0000 0.0000 0.0000 0.0000 0.0000 10.7594
#
#
#
# Elastic Compliance Matrix: (Units=1/GPa)
#
#
# Indices 1 2 3 4 5 6 
#
# 1 0.020978 -0.003515 -0.008015 0.000000 0.000000 0.000000
# 2 -0.003515 0.007247 -0.001147 0.000000 0.000000 0.000000
# 3 -0.008015 -0.001147 0.021263 0.000000 0.000000 0.000000
# 4 0.000000 0.000000 0.000000 0.079113 0.000000 0.000000
# 5 0.000000 0.000000 0.000000 0.000000 0.028416 0.000000
# 6 0.000000 0.000000 0.000000 0.000000 0.000000 0.092942
#
#
# Mechanical properties :
#
#
# Convention : Reuss Voigt Hill
#
# Bulk Modulus (GPa) = 41.43013 49.31973 45.37493
# Shear Modulus (GPa) = 17.64556 24.87335 21.25945
#
# Velocity S-wave (km/s) = 2.88512 3.42542 3.16681
# Velocity P-wave (km/s) = 5.53555 6.23780 5.89714
#
# Compressibility (1/GPa) = 0.02413702
#
# Stress axis : x y z
#
# Youngs Moduli (GPa) = 47.66830 137.97947 47.02918
#
# Poissons Ratio (x) = 0.48495 0.37692
# Poissons Ratio (y) = 0.16754 0.05393
# Poissons Ratio (z) = 0.38204 0.15823
#
# Static dielectric constant tensor:
#      x y z
#    x 3.545880 0.000000 0.000000 
#    y 0.000000 4.825300 0.000000 
#    z 0.000000 0.000000 3.754640 
# 
# 
# High freq. dielectric constant tensor:
#      x y z
#    x 1.800600 0.000000 0.000000 
#    y 0.000000 1.838730 0.000000 
#    z 0.000000 0.000000 1.838330 
# 
# From -- ./inp_files/22765.got.cif
#   From: 2010.06.25/outbox.cif.g09.slc.cpg/sg58_12_cif.got.tgz:22765.got - 2010.06.26 21:38:00.
