data_PCOD8236036
_publ_section_title
;
Structure prediction by ZEFSAII (Michael W. Deem and Ramdas Pophale) SiO2 
 PCOD8236036
Probable space group: P N N M
;
_chemical_formula_sum "Si O2"
_cell_formula_units_Z 56
_cell_length_a 14.419181
_cell_length_b 22.522933
_cell_length_c 8.862025
_cell_angle_alpha 90.000000
_cell_angle_beta 90.000000
_cell_angle_gamma 90.000000
_cell_volume 2878.051157
_symmetry_space_group_name_H-M "P N N M"
_symmetry_group_IT_number 58
_symmetry_cell_setting 'orthorhombic'
loop_
_space_group_symop_operation_xyz
x,y,z
-x,-y,z
1/2+x,1/2-y,1/2-z
1/2-x,1/2+y,1/2-z
-x,-y,-z
x,y,-z
1/2-x,1/2+y,1/2+z
1/2+x,1/2-y,1/2+z
loop_
_atom_site_type_symbol
_atom_site_label
_atom_site_fract_x
_atom_site_fract_y
_atom_site_fract_z
Si Si1 0.105202 0.497842 0.822060
Si Si2 0.713502 0.106216 0.827758
Si Si3 0.909131 0.718578 0.671716
Si Si4 0.705845 0.892478 0.825712
Si Si5 0.100104 0.845113 0.822502
Si Si6 0.403678 0.210940 0.321870
Si Si7 0.104081 0.159912 0.174555
O O1 0.153201 0.436977 0.774253
O O2 0.164790 0.552381 0.762411
O O3 0.000000 0.500000 0.757943
O O4 0.103319 0.502159 0.000000
O O5 0.674906 0.172715 0.818089
O O6 0.819192 0.110812 0.761703
O O7 0.711145 0.082323 0.000000
O O8 0.944372 0.724814 0.500000
O O9 0.871851 0.782065 0.728113
O O10 0.991767 0.693593 0.775851
O O11 0.667098 0.830910 0.764397
O O12 0.817403 0.890137 0.801685
O O13 0.679521 0.899516 0.000000
O O14 0.114109 0.777879 0.764217
O O15 0.996547 0.867147 0.776974
O O16 0.113396 0.843757 0.000000
O O17 0.391173 0.202594 0.500000
O O18 0.098974 0.180231 0.000000
#
# Coordination Sequence:
#
# PCOD8236036 Si02
#       7
#     8   8   8   8   8   8   8
#     4  11  25  42  58  77 103 138 178 221 273 328
#     4  10  20  35  56  79 105 140 180 221 264 313
#     4  10  19  31  52  84 116 145 180 221 267 320
#     4  11  22  36  56  81 108 142 184 226 269 320
#     4   8  16  33  55  79 108 142 177 212 258 316
#     4  10  19  33  54  80 113 149 181 219 270 324
#     4   9  19  35  55  81 113 146 179 217 265 323
#
# _framework density 19.457611
#
# number of rings (size 3 to 8) (size 9 to 14) (size 15 to 20)
#    0.000    2.143    0.000    4.286    0.000    6.857 
#    0.000    4.286    0.000    4.286    0.000    0.000 
#    0.000    0.000    0.000    0.000    0.000    0.000 
#
# Total GULP energy -694286.357057 kJ/mol
# GULP energy per Si atom -12397.970662 kJ/mol
# Density = 1.941332 g / cm^3
# Si number density = 19.457611 Si / 1000 Ang^3
#
#
#
# Elastic Constant Matrix: (Units=GPa)
#
#
# Indices 1 2 3 4 5 6 
#
# 1 144.9128 64.8144 38.3023 0.0000 0.0000 0.0000
# 2 64.8144 72.9135 33.3439 0.0000 0.0000 0.0000
# 3 38.3023 33.3439 55.2071 0.0000 0.0000 0.0000
# 4 0.0000 0.0000 0.0000 27.2123 0.0000 0.0000
# 5 0.0000 0.0000 0.0000 0.0000 22.5035 0.0000
# 6 0.0000 0.0000 0.0000 0.0000 0.0000 30.7746
#
#
#
# Elastic Compliance Matrix: (Units=1/GPa)
#
#
# Indices 1 2 3 4 5 6 
#
# 1 0.011707 -0.009246 -0.002538 0.000000 0.000000 0.000000
# 2 -0.009246 0.026251 -0.009440 0.000000 0.000000 0.000000
# 3 -0.002538 -0.009440 0.025576 0.000000 0.000000 0.000000
# 4 0.000000 0.000000 0.000000 0.036748 0.000000 0.000000
# 5 0.000000 0.000000 0.000000 0.000000 0.044437 0.000000
# 6 0.000000 0.000000 0.000000 0.000000 0.000000 0.032494
#
#
# Mechanical properties :
#
#
# Convention : Reuss Voigt Hill
#
# Bulk Modulus (GPa) = 47.42512 60.66162 54.04337
# Shear Modulus (GPa) = 22.05655 25.20295 23.62975
#
# Velocity S-wave (km/s) = 3.37050 3.60290 3.48864
# Velocity P-wave (km/s) = 6.29075 6.96791 6.63797
#
# Compressibility (1/GPa) = 0.02108587
#
# Stress axis : x y z
#
# Youngs Moduli (GPa) = 85.42022 38.09401 39.09911
#
# Poissons Ratio (x) = 0.35221 0.09922
# Poissons Ratio (y) = 0.78979 0.36911
# Poissons Ratio (z) = 0.21678 0.35962
#
# Static dielectric constant tensor:
#      x y z
#    x 3.968720 0.000000 0.000000 
#    y 0.000000 3.328300 0.000000 
#    z 0.000000 0.000000 3.504040 
# 
# 
# High freq. dielectric constant tensor:
#      x y z
#    x 1.775970 0.000000 0.000000 
#    y 0.000000 1.733250 0.000000 
#    z 0.000000 0.000000 1.747370 
# 
# From -- ./inp_files/6424.got.cif
#   From: 2010.06.25/outbox.cif.g09.slc.cpg/sg58_4_cif.got.tgz:6424.got - 2010.06.26 21:38:00.
