data_PCOD8236738
_publ_section_title
;
Structure prediction by ZEFSAII (Michael W. Deem and Ramdas Pophale) SiO2 
 PCOD8236738
Probable space group: P N N M
;
_chemical_formula_sum "Si O2"
_cell_formula_units_Z 64
_cell_length_a 19.036605
_cell_length_b 18.805010
_cell_length_c 9.121189
_cell_angle_alpha 90.000000
_cell_angle_beta 90.000000
_cell_angle_gamma 90.000000
_cell_volume 3265.235595
_symmetry_space_group_name_H-M "P N N M"
_symmetry_group_IT_number 58
_symmetry_cell_setting 'orthorhombic'
loop_
_space_group_symop_operation_xyz
x,y,z
-x,-y,z
1/2+x,1/2-y,1/2-z
1/2-x,1/2+y,1/2-z
-x,-y,-z
x,y,-z
1/2-x,1/2+y,1/2+z
1/2+x,1/2-y,1/2+z
loop_
_atom_site_type_symbol
_atom_site_label
_atom_site_fract_x
_atom_site_fract_y
_atom_site_fract_z
Si Si1 0.626934 0.965982 0.328751
Si Si2 0.759014 0.735446 0.827758
Si Si3 0.522554 0.874744 0.831078
Si Si4 0.530567 0.609108 0.673056
Si Si5 0.120695 0.369816 0.171872
Si Si6 0.756564 0.896836 0.826999
Si Si7 0.897517 0.231041 0.331839
Si Si8 0.604846 0.470173 0.326647
O O1 0.620332 0.949729 0.500000
O O2 0.553746 0.943639 0.252013
O O3 0.688540 0.918955 0.261740
O O4 0.641899 0.048720 0.297901
O O5 0.816944 0.680590 0.764451
O O6 0.779506 0.816379 0.789363
O O7 0.680791 0.720381 0.764989
O O8 0.755528 0.724706 0.000000
O O9 0.449965 0.850114 0.757752
O O10 0.579986 0.812635 0.815361
O O11 0.508750 0.894194 0.000000
O O12 0.528833 0.618975 0.500000
O O13 0.547273 0.684121 0.743924
O O14 0.455471 0.582440 0.734096
O O15 0.589480 0.551204 0.720552
O O16 0.107905 0.355680 0.000000
O O17 0.819282 0.946935 0.768707
O O18 0.741049 0.905530 0.000000
O O19 0.899702 0.207155 0.500000
O O20 0.602309 0.463565 0.500000
#
# Coordination Sequence:
#
# PCOD8236738 Si02
#       8
#     8   8   8   8   8   8   8   8
#     4  11  23  39  59  87 118 149 189 240 290 341
#     4   9  19  38  59  80 111 151 188 224 277 342
#     4  11  23  41  62  85 115 153 194 238 286 339
#     4   9  18  34  55  83 113 145 188 236 279 329
#     4  10  23  40  62  89 116 147 190 239 289 343
#     4  10  19  36  60  81 110 155 195 227 277 341
#     4  10  21  37  56  80 113 150 188 230 280 339
#     4   8  17  33  55  83 113 145 189 235 276 332
#
# _framework density 19.600424
#
# number of rings (size 3 to 8) (size 9 to 14) (size 15 to 20)
#    0.000    2.250    1.250    1.875    3.500    3.500 
#    0.000    3.125    0.000    0.000    0.000    0.000 
#    0.000    0.000    0.000    0.000    0.000    0.000 
#
# Total GULP energy -793567.516887 kJ/mol
# GULP energy per Si atom -12399.492451 kJ/mol
# Density = 1.955581 g / cm^3
# Si number density = 19.600424 Si / 1000 Ang^3
#
#
#
# Elastic Constant Matrix: (Units=GPa)
#
#
# Indices 1 2 3 4 5 6 
#
# 1 106.0441 33.4300 37.5460 0.0000 0.0000 0.0000
# 2 33.4300 77.5441 36.0976 0.0000 0.0000 0.0000
# 3 37.5460 36.0976 62.9177 0.0000 0.0000 0.0000
# 4 0.0000 0.0000 0.0000 21.4958 0.0000 0.0000
# 5 0.0000 0.0000 0.0000 0.0000 23.7604 0.0000
# 6 0.0000 0.0000 0.0000 0.0000 0.0000 40.6669
#
#
#
# Elastic Compliance Matrix: (Units=1/GPa)
#
#
# Indices 1 2 3 4 5 6 
#
# 1 0.012323 -0.002578 -0.005875 0.000000 0.000000 0.000000
# 2 -0.002578 0.018134 -0.008866 0.000000 0.000000 0.000000
# 3 -0.005875 -0.008866 0.024486 0.000000 0.000000 0.000000
# 4 0.000000 0.000000 0.000000 0.046521 0.000000 0.000000
# 5 0.000000 0.000000 0.000000 0.000000 0.042087 0.000000
# 6 0.000000 0.000000 0.000000 0.000000 0.000000 0.024590
#
#
# Mechanical properties :
#
#
# Convention : Reuss Voigt Hill
#
# Bulk Modulus (GPa) = 49.24519 51.18369 50.21444
# Shear Modulus (GPa) = 23.86111 26.48010 25.17061
#
# Velocity S-wave (km/s) = 3.49288 3.67958 3.58744
# Velocity P-wave (km/s) = 6.43786 6.65001 6.54479
#
# Compressibility (1/GPa) = 0.02030655
#
# Stress axis : x y z
#
# Youngs Moduli (GPa) = 81.15165 55.14394 40.83958
#
# Poissons Ratio (x) = 0.14214 0.23992
# Poissons Ratio (y) = 0.20918 0.36208
# Poissons Ratio (z) = 0.47673 0.48890
#
# Static dielectric constant tensor:
#      x y z
#    x 3.852040 0.000000 0.000000 
#    y 0.000000 3.646270 0.000000 
#    z 0.000000 0.000000 3.265040 
# 
# 
# High freq. dielectric constant tensor:
#      x y z
#    x 1.774640 0.000000 0.000000 
#    y 0.000000 1.770340 0.000000 
#    z 0.000000 0.000000 1.729880 
# 
# From -- ./inp_files/8396.got.cif
#   From: 2010.06.25/outbox.cif.g09.slc.cpg/sg58_5_cif.got.tgz:8396.got - 2010.06.26 21:38:00.
