data_PCOD8236525
_publ_section_title
;
Structure prediction by ZEFSAII (Michael W. Deem and Ramdas Pophale) SiO2 
 PCOD8236525
Probable space group: P N N M
;
_chemical_formula_sum "Si O2"
_cell_formula_units_Z 64
_cell_length_a 18.995130
_cell_length_b 19.663138
_cell_length_c 9.079871
_cell_angle_alpha 90.000000
_cell_angle_beta 90.000000
_cell_angle_gamma 90.000000
_cell_volume 3391.366890
_symmetry_space_group_name_H-M "P N N M"
_symmetry_group_IT_number 58
_symmetry_cell_setting 'orthorhombic'
loop_
_space_group_symop_operation_xyz
x,y,z
-x,-y,z
1/2+x,1/2-y,1/2-z
1/2-x,1/2+y,1/2-z
-x,-y,-z
x,y,-z
1/2-x,1/2+y,1/2+z
1/2+x,1/2-y,1/2+z
loop_
_atom_site_type_symbol
_atom_site_label
_atom_site_fract_x
_atom_site_fract_y
_atom_site_fract_z
Si Si1 0.063177 0.319827 0.172493
Si Si2 0.095250 0.187581 0.669319
Si Si3 0.313976 0.107026 0.832248
Si Si4 0.210501 0.986863 0.173206
Si Si5 0.745692 0.773395 0.330226
Si Si6 0.074280 0.034216 0.671773
Si Si7 0.720931 0.140969 0.326558
Si Si8 0.971413 0.428507 0.669633
O O1 0.054174 0.243945 0.236390
O O2 0.138905 0.350989 0.214696
O O3 0.002984 0.366880 0.238526
O O4 0.052405 0.315140 0.000000
O O5 0.075715 0.200285 0.500000
O O6 0.178217 0.193731 0.696845
O O7 0.070763 0.112981 0.721339
O O8 0.311182 0.172562 0.727419
O O9 0.387885 0.069673 0.809159
O O10 0.252445 0.055262 0.788606
O O11 0.304723 0.131689 0.000000
O O12 0.250978 0.926445 0.252189
O O13 0.131902 0.993411 0.235038
O O14 0.208181 0.972249 0.000000
O O15 0.731266 0.756981 0.500000
O O16 0.736099 0.704552 0.238212
O O17 0.094483 0.029131 0.500000
O O18 0.000000 0.000000 0.706400
O O19 0.733396 0.137585 0.500000
O O20 0.993621 0.418835 0.500000
O O21 0.000000 0.500000 0.731402
#
# Coordination Sequence:
#
# PCOD8236525 Si02
#       8
#     8   8   8   8   8   8   8   8
#     4  10  21  36  57  86 116 151 193 240 288 334
#     4   9  18  35  59  83 109 148 191 230 279 342
#     4  10  21  36  57  84 114 152 191 233 284 339
#     4  11  22  37  60  88 117 149 191 238 286 337
#     4  10  19  34  58  84 110 142 187 236 281 334
#     4  10  21  39  61  85 114 150 192 235 289 351
#     4  10  21  37  58  84 117 152 188 232 285 342
#     4  10  21  38  58  81 114 154 195 234 280 344
#
# _framework density 18.871447
#
# number of rings (size 3 to 8) (size 9 to 14) (size 15 to 20)
#    0.000    2.000    1.250    2.250    0.000    5.000 
#    2.250    0.000    0.000    0.000    0.000    0.000 
#    0.000    0.000    0.000    0.000    0.000    0.000 
#
# Total GULP energy -793914.729131 kJ/mol
# GULP energy per Si atom -12404.917643 kJ/mol
# Density = 1.882849 g / cm^3
# Si number density = 18.871447 Si / 1000 Ang^3
#
#
#
# Elastic Constant Matrix: (Units=GPa)
#
#
# Indices 1 2 3 4 5 6 
#
# 1 63.6118 23.5998 35.4606 0.0000 0.0000 0.0000
# 2 23.5998 81.7759 47.6458 0.0000 0.0000 0.0000
# 3 35.4606 47.6458 83.2720 0.0000 0.0000 0.0000
# 4 0.0000 0.0000 0.0000 32.2950 0.0000 0.0000
# 5 0.0000 0.0000 0.0000 0.0000 28.0092 0.0000
# 6 0.0000 0.0000 0.0000 0.0000 0.0000 33.3397
#
#
#
# Elastic Compliance Matrix: (Units=1/GPa)
#
#
# Indices 1 2 3 4 5 6 
#
# 1 0.020700 -0.001257 -0.008096 0.000000 0.000000 0.000000
# 2 -0.001257 0.018420 -0.010004 0.000000 0.000000 0.000000
# 3 -0.008096 -0.010004 0.021180 0.000000 0.000000 0.000000
# 4 0.000000 0.000000 0.000000 0.030965 0.000000 0.000000
# 5 0.000000 0.000000 0.000000 0.000000 0.035703 0.000000
# 6 0.000000 0.000000 0.000000 0.000000 0.000000 0.029994
#
#
# Mechanical properties :
#
#
# Convention : Reuss Voigt Hill
#
# Bulk Modulus (GPa) = 46.32482 49.11912 47.72197
# Shear Modulus (GPa) = 24.64630 26.85902 25.75266
#
# Velocity S-wave (km/s) = 3.61780 3.77671 3.69811
# Velocity P-wave (km/s) = 6.48476 6.71586 6.60132
#
# Compressibility (1/GPa) = 0.02158670
#
# Stress axis : x y z
#
# Youngs Moduli (GPa) = 48.31023 54.28844 47.21356
#
# Poissons Ratio (x) = 0.06824 0.38222
# Poissons Ratio (y) = 0.06072 0.47233
# Poissons Ratio (z) = 0.39110 0.54311
#
# Static dielectric constant tensor:
#      x y z
#    x 3.301280 0.000000 0.000000 
#    y 0.000000 3.542250 0.000000 
#    z 0.000000 0.000000 3.456500 
# 
# 
# High freq. dielectric constant tensor:
#      x y z
#    x 1.719040 0.000000 0.000000 
#    y 0.000000 1.743040 0.000000 
#    z 0.000000 0.000000 1.736360 
# 
# From -- ./inp_files/9229.got.cif
#   From: 2010.06.25/outbox.cif.g09.slc.cpg/sg58_5_cif.got.tgz:9229.got - 2010.06.26 21:38:00.
