data_PCOD8236042
_publ_section_title
;
Structure prediction by ZEFSAII (Michael W. Deem and Ramdas Pophale) SiO2 
 PCOD8236042
Probable space group: P N N M
;
_chemical_formula_sum "Si O2"
_cell_formula_units_Z 64
_cell_length_a 25.001637
_cell_length_b 14.971084
_cell_length_c 8.662582
_cell_angle_alpha 90.000000
_cell_angle_beta 90.000000
_cell_angle_gamma 90.000000
_cell_volume 3242.418369
_symmetry_space_group_name_H-M "P N N M"
_symmetry_group_IT_number 58
_symmetry_cell_setting 'orthorhombic'
loop_
_space_group_symop_operation_xyz
x,y,z
-x,-y,z
1/2+x,1/2-y,1/2-z
1/2-x,1/2+y,1/2-z
-x,-y,-z
x,y,-z
1/2-x,1/2+y,1/2+z
1/2+x,1/2-y,1/2+z
loop_
_atom_site_type_symbol
_atom_site_label
_atom_site_fract_x
_atom_site_fract_y
_atom_site_fract_z
Si Si1 0.053701 0.744137 0.316937
Si Si2 0.851219 0.140867 0.682409
Si Si3 0.266362 0.835439 0.683750
Si Si4 0.551237 0.946128 0.682056
Si Si5 0.170168 0.509387 0.183823
Si Si6 0.237023 0.141723 0.316504
Si Si7 0.018761 0.095350 0.316961
Si Si8 0.631532 0.448972 0.817591
O O1 0.048222 0.729203 0.500000
O O2 0.113594 0.773963 0.267525
O O3 0.039935 0.655026 0.227349
O O4 0.014041 0.820608 0.253046
O O5 0.846880 0.140255 0.500000
O O6 0.792115 0.143008 0.752321
O O7 0.879747 0.050133 0.739058
O O8 0.267382 0.832763 0.500000
O O9 0.307085 0.913128 0.742482
O O10 0.277725 0.737782 0.748081
O O11 0.552951 0.956822 0.500000
O O12 0.500000 0.000000 0.749799
O O13 0.609322 0.978515 0.748517
O O14 0.208376 0.591924 0.241305
O O15 0.170405 0.510259 0.000000
O O16 0.238126 0.149037 0.500000
O O17 0.187718 0.083935 0.250538
O O18 0.010861 0.092433 0.500000
O O19 0.080692 0.110599 0.267253
O O20 0.000000 0.000000 0.248022
O O21 0.636667 0.447328 0.000000
#
# Coordination Sequence:
#
# PCOD8236042 Si02
#       8
#     8   8   8   8   8   8   8   8
#     4  10  19  31  53  82 104 127 164 209 252 292
#     4   9  15  27  49  75  99 127 164 200 240 293
#     4  10  19  32  52  75  99 131 169 207 245 292
#     4  10  22  39  55  70  94 135 180 213 245 292
#     4   9  18  35  56  73  95 134 177 207 242 300
#     4  10  19  32  51  76 103 131 164 204 249 297
#     4   9  15  25  45  76 107 129 154 193 242 298
#     4   9  15  26  46  72 101 130 160 195 237 294
#
# _framework density 19.738353
#
# number of rings (size 3 to 8) (size 9 to 14) (size 15 to 20)
#    0.000    2.500    2.500    0.750    0.000    1.250 
#    0.000    1.250    0.000    1.125    0.000    0.000 
#    0.000    0.000    0.000    0.000    0.000    0.000 
#
# Total GULP energy -792862.392437 kJ/mol
# GULP energy per Si atom -12388.474882 kJ/mol
# Density = 1.969343 g / cm^3
# Si number density = 19.738353 Si / 1000 Ang^3
#
#
#
# Elastic Constant Matrix: (Units=GPa)
#
#
# Indices 1 2 3 4 5 6 
#
# 1 160.0342 72.1308 8.4854 0.0000 0.0000 0.0000
# 2 72.1308 145.6891 5.1606 0.0000 0.0000 0.0000
# 3 8.4854 5.1606 3.5316 0.0000 0.0000 0.0000
# 4 0.0000 0.0000 0.0000 25.8593 0.0000 0.0000
# 5 0.0000 0.0000 0.0000 0.0000 7.8052 0.0000
# 6 0.0000 0.0000 0.0000 0.0000 0.0000 35.9759
#
#
#
# Elastic Compliance Matrix: (Units=1/GPa)
#
#
# Indices 1 2 3 4 5 6 
#
# 1 0.008786 -0.003799 -0.015559 0.000000 0.000000 0.000000
# 2 -0.003799 0.008881 -0.003850 0.000000 0.000000 0.000000
# 3 -0.015559 -0.003850 0.326167 0.000000 0.000000 0.000000
# 4 0.000000 0.000000 0.000000 0.038671 0.000000 0.000000
# 5 0.000000 0.000000 0.000000 0.000000 0.128119 0.000000
# 6 0.000000 0.000000 0.000000 0.000000 0.000000 0.027796
#
#
# Mechanical properties :
#
#
# Convention : Reuss Voigt Hill
#
# Bulk Modulus (GPa) = 3.36227 53.42317 28.39272
# Shear Modulus (GPa) = 7.31020 28.82661 18.06841
#
# Velocity S-wave (km/s) = 1.92655 3.82571 3.02883
# Velocity P-wave (km/s) = 2.57990 6.82929 5.16213
#
# Compressibility (1/GPa) = 0.29741796
#
# Stress axis : x y z
#
# Youngs Moduli (GPa) = 113.81991 112.59902 3.06592
#
# Poissons Ratio (x) = 0.42773 0.04770
# Poissons Ratio (y) = 0.43237 0.01180
# Poissons Ratio (z) = 1.77091 0.43354
#
# Static dielectric constant tensor:
#      x y z
#    x 4.149950 0.000000 0.000000 
#    y 0.000000 3.705770 0.000000 
#    z 0.000000 0.000000 2.939600 
# 
# 
# High freq. dielectric constant tensor:
#      x y z
#    x 1.786260 0.000000 0.000000 
#    y 0.000000 1.775490 0.000000 
#    z 0.000000 0.000000 1.699170 
# 
# From -- ./inp_files/9989.got.cif
#   From: 2010.06.25/outbox.cif.g09.slc.cpg/sg58_5_cif.got.tgz:9989.got - 2010.06.26 21:38:00.
