data_PCOD8236928
_publ_section_title
;
Structure prediction by ZEFSAII (Michael W. Deem and Ramdas Pophale) SiO2 
 PCOD8236928
Probable space group: P N N M
;
_chemical_formula_sum "Si O2"
_cell_formula_units_Z 64
_cell_length_a 22.430860
_cell_length_b 16.570051
_cell_length_c 8.946338
_cell_angle_alpha 90.000000
_cell_angle_beta 90.000000
_cell_angle_gamma 90.000000
_cell_volume 3325.179329
_symmetry_space_group_name_H-M "P N N M"
_symmetry_group_IT_number 58
_symmetry_cell_setting 'orthorhombic'
loop_
_space_group_symop_operation_xyz
x,y,z
-x,-y,z
1/2+x,1/2-y,1/2-z
1/2-x,1/2+y,1/2-z
-x,-y,-z
x,y,-z
1/2-x,1/2+y,1/2+z
1/2+x,1/2-y,1/2+z
loop_
_atom_site_type_symbol
_atom_site_label
_atom_site_fract_x
_atom_site_fract_y
_atom_site_fract_z
Si Si1 0.965517 0.417558 0.177146
Si Si2 0.646114 0.590824 0.166505
Si Si3 0.159465 0.205373 0.822239
Si Si4 0.217672 0.766010 0.328253
Si Si5 0.661763 0.904352 0.173014
Si Si6 0.720487 0.434514 0.834684
Si Si7 0.971183 0.748852 0.177363
Si Si8 0.472931 0.417140 0.675558
O O1 0.900379 0.424656 0.248299
O O2 0.000000 0.500000 0.223213
O O3 0.998869 0.335157 0.236461
O O4 0.958655 0.412757 0.000000
O O5 0.682332 0.662119 0.248596
O O6 0.692208 0.520424 0.147619
O O7 0.595246 0.573100 0.283967
O O8 0.620777 0.613399 0.000000
O O9 0.215749 0.257203 0.761712
O O10 0.170527 0.117503 0.752402
O O11 0.097994 0.247119 0.769705
O O12 0.160551 0.194214 0.000000
O O13 0.225964 0.788306 0.500000
O O14 0.176158 0.689081 0.305259
O O15 0.717410 0.949766 0.248416
O O16 0.657525 0.929399 0.000000
O O17 0.733160 0.397561 0.000000
O O18 0.001615 0.831593 0.240855
O O19 0.975222 0.748314 0.000000
O O20 0.500000 0.500000 0.744361
O O21 0.483712 0.415943 0.500000
#
# Coordination Sequence:
#
# PCOD8236928 Si02
#       8
#     8   8   8   8   8   8   8   8
#     4  10  21  36  55  79 106 138 176 218 263 308
#     4  10  20  33  50  75 104 132 166 207 255 308
#     4   9  17  33  55  74  99 136 174 208 248 304
#     4   8  16  31  52  76  98 127 168 210 252 301
#     4  10  20  36  57  76  99 135 175 214 260 311
#     4  10  20  33  52  78 106 133 165 212 262 309
#     4   9  18  33  54  79 106 139 177 214 254 304
#     4  10  20  33  51  76 105 137 173 211 251 301
#
# _framework density 19.247081000000001
#
# number of rings (size 3 to 8) (size 9 to 14) (size 15 to 20)
#    0.000    2.500    0.000    3.000    0.000    3.500 
#    0.000    7.500    0.000    3.000    0.000    0.000 
#    0.000    0.000    0.000    0.000    0.000    0.000 
#
# Total GULP energy -792918.999759 kJ/mol
# GULP energy per Si atom -12389.359371 kJ/mol
# Density = 1.920327 g / cm^3
# Si number density = 19.247081 Si / 1000 Ang^3
#
#
#
# Elastic Constant Matrix: (Units=GPa)
#
#
# Indices 1 2 3 4 5 6 
#
# 1 122.8747 60.6350 32.7445 0.0000 0.0000 0.0000
# 2 60.6350 118.3182 21.6734 0.0000 0.0000 0.0000
# 3 32.7445 21.6734 31.5528 0.0000 0.0000 0.0000
# 4 0.0000 0.0000 0.0000 8.9703 0.0000 0.0000
# 5 0.0000 0.0000 0.0000 0.0000 22.2188 0.0000
# 6 0.0000 0.0000 0.0000 0.0000 0.0000 20.7532
#
#
#
# Elastic Compliance Matrix: (Units=1/GPa)
#
#
# Indices 1 2 3 4 5 6 
#
# 1 0.013364 -0.004928 -0.010484 0.000000 0.000000 0.000000
# 2 -0.004928 0.011486 -0.002775 0.000000 0.000000 0.000000
# 3 -0.010484 -0.002775 0.044478 0.000000 0.000000 0.000000
# 4 0.000000 0.000000 0.000000 0.111478 0.000000 0.000000
# 5 0.000000 0.000000 0.000000 0.000000 0.045007 0.000000
# 6 0.000000 0.000000 0.000000 0.000000 0.000000 0.048185
#
#
# Mechanical properties :
#
#
# Convention : Reuss Voigt Hill
#
# Bulk Modulus (GPa) = 30.34483 55.87238 43.10861
# Shear Modulus (GPa) = 15.55898 20.90133 18.23016
#
# Velocity S-wave (km/s) = 2.84629 3.29895 3.08094
# Velocity P-wave (km/s) = 5.15771 6.60324 5.92473
#
# Compressibility (1/GPa) = 0.03295454
#
# Stress axis : x y z
#
# Youngs Moduli (GPa) = 74.82722 87.06419 22.48277
#
# Poissons Ratio (x) = 0.42909 0.23570
# Poissons Ratio (y) = 0.36878 0.06239
# Poissons Ratio (z) = 0.78446 0.24160
#
# Static dielectric constant tensor:
#      x y z
#    x 3.768230 0.000000 0.000000 
#    y 0.000000 3.797860 0.000000 
#    z 0.000000 0.000000 3.436590 
# 
# 
# High freq. dielectric constant tensor:
#      x y z
#    x 1.759370 0.000000 0.000000 
#    y 0.000000 1.750510 0.000000 
#    z 0.000000 0.000000 1.718900 
# 
# From -- ./inp_files/10000.got.cif
#   From: 2010.06.25/outbox.cif.g09.slc.cpg/sg58_5_cif.got.tgz:10000.got - 2010.06.26 21:38:00.
