data_PCOD8236918
_publ_section_title
;
Structure prediction by ZEFSAII (Michael W. Deem and Ramdas Pophale) SiO2 
 PCOD8236918
Probable space group: P N N M
;
_chemical_formula_sum "Si O2"
_cell_formula_units_Z 48
_cell_length_a 10.130425
_cell_length_b 30.342346
_cell_length_c 8.811039
_cell_angle_alpha 90.000000
_cell_angle_beta 90.000000
_cell_angle_gamma 90.000000
_cell_volume 2708.344750
_symmetry_space_group_name_H-M "P N N M"
_symmetry_group_IT_number 58
_symmetry_cell_setting 'orthorhombic'
loop_
_space_group_symop_operation_xyz
x,y,z
-x,-y,z
1/2+x,1/2-y,1/2-z
1/2-x,1/2+y,1/2-z
-x,-y,-z
x,y,-z
1/2-x,1/2+y,1/2+z
1/2+x,1/2-y,1/2+z
loop_
_atom_site_type_symbol
_atom_site_label
_atom_site_fract_x
_atom_site_fract_y
_atom_site_fract_z
Si Si1 0.353949 0.118488 0.678650
Si Si2 0.853570 0.049432 0.319717
Si Si3 0.650602 0.121382 0.679840
Si Si4 0.637529 0.782880 0.679440
Si Si5 0.851023 0.951220 0.680875
Si Si6 0.360665 0.785245 0.179411
O O1 0.336101 0.116016 0.500000
O O2 0.503263 0.105851 0.724658
O O3 0.322053 0.167998 0.734683
O O4 0.252289 0.083591 0.753412
O O5 0.846300 0.050027 0.500000
O O6 0.751173 0.085060 0.253491
O O7 0.001407 0.061708 0.265351
O O8 0.815563 0.000467 0.261143
O O9 0.664000 0.127278 0.500000
O O10 0.684134 0.167892 0.755220
O O11 0.614544 0.782285 0.500000
O O12 0.500408 0.768825 0.756394
O O13 0.751421 0.749918 0.732147
O O14 0.844986 0.950608 0.500000
O O15 0.370126 0.788269 0.000000
#
# Coordination Sequence:
#
# PCOD8236918 Si02
#       6
#     8   8   8   8   8   8
#     4   8  14  25  40  58  84 114 142 180 225 267
#     4   8  14  23  37  61  91 118 144 182 230 273
#     4   9  17  29  44  64  91 120 150 186 228 272
#     4   9  19  34  49  69  95 121 155 195 233 277
#     4   8  13  22  37  61  90 114 143 185 230 274
#     4  10  20  33  50  71  95 125 158 192 233 279
#
# _framework density 17.723002000000001
#
# number of rings (size 3 to 8) (size 9 to 14) (size 15 to 20)
#    0.000    3.333    0.000    2.500    0.000    3.333 
#    0.000    6.667    0.000    0.000    0.000   11.667 
#    0.000    0.000    0.000    0.000    0.000    0.000 
#
# Total GULP energy -594939.113075 kJ/mol
# GULP energy per Si atom -12394.564856 kJ/mol
# Density = 1.768266 g / cm^3
# Si number density = 17.723002 Si / 1000 Ang^3
#
#
#
# Elastic Constant Matrix: (Units=GPa)
#
#
# Indices 1 2 3 4 5 6 
#
# 1 164.6518 129.0341 24.9263 0.0000 0.0000 0.0000
# 2 129.0341 148.2919 24.5906 0.0000 0.0000 0.0000
# 3 24.9263 24.5906 19.3401 0.0000 0.0000 0.0000
# 4 0.0000 0.0000 0.0000 17.2938 0.0000 0.0000
# 5 0.0000 0.0000 0.0000 0.0000 14.5808 0.0000
# 6 0.0000 0.0000 0.0000 0.0000 0.0000 46.3129
#
#
#
# Elastic Compliance Matrix: (Units=1/GPa)
#
#
# Indices 1 2 3 4 5 6 
#
# 1 0.019395 -0.016133 -0.004485 0.000000 0.000000 0.000000
# 2 -0.016133 0.021964 -0.007134 0.000000 0.000000 0.000000
# 3 -0.004485 -0.007134 0.066558 0.000000 0.000000 0.000000
# 4 0.000000 0.000000 0.000000 0.057824 0.000000 0.000000
# 5 0.000000 0.000000 0.000000 0.000000 0.068583 0.000000
# 6 0.000000 0.000000 0.000000 0.000000 0.000000 0.021592
#
#
# Mechanical properties :
#
#
# Convention : Reuss Voigt Hill
#
# Bulk Modulus (GPa) = 19.07931 76.59844 47.83888
# Shear Modulus (GPa) = 15.20252 25.88635 20.54443
#
# Velocity S-wave (km/s) = 2.93197 3.82594 3.40839
# Velocity P-wave (km/s) = 4.71706 7.92658 6.52232
#
# Compressibility (1/GPa) = 0.05241279
#
# Stress axis : x y z
#
# Youngs Moduli (GPa) = 51.55856 45.52827 15.02458
#
# Poissons Ratio (x) = 0.73450 0.06738
# Poissons Ratio (y) = 0.83179 0.10719
# Poissons Ratio (z) = 0.23124 0.32482
#
# Static dielectric constant tensor:
#      x y z
#    x 3.541820 0.000000 0.000000 
#    y 0.000000 3.615050 0.000000 
#    z 0.000000 0.000000 2.758270 
# 
# 
# High freq. dielectric constant tensor:
#      x y z
#    x 1.692000 0.000000 0.000000 
#    y 0.000000 1.692050 0.000000 
#    z 0.000000 0.000000 1.630670 
# 
# From -- ./inp_files/4317.got.cif
#   From: 2010.06.25/outbox.cif.g09.slc.cpg/sg58_3_cif.got.tgz:4317.got - 2010.06.26 21:38:00.
