data_PCOD8236663
_publ_section_title
;
Structure prediction by ZEFSAII (Michael W. Deem and Ramdas Pophale) SiO2 
 PCOD8236663
Probable space group: P N N M
;
_chemical_formula_sum "Si O2"
_cell_formula_units_Z 56
_cell_length_a 12.316393
_cell_length_b 20.628151
_cell_length_c 10.759099
_cell_angle_alpha 90.000000
_cell_angle_beta 90.000000
_cell_angle_gamma 90.000000
_cell_volume 2733.504189
_symmetry_space_group_name_H-M "P N N M"
_symmetry_group_IT_number 58
_symmetry_cell_setting 'orthorhombic'
loop_
_space_group_symop_operation_xyz
x,y,z
-x,-y,z
1/2+x,1/2-y,1/2-z
1/2-x,1/2+y,1/2-z
-x,-y,-z
x,y,-z
1/2-x,1/2+y,1/2+z
1/2+x,1/2-y,1/2+z
loop_
_atom_site_type_symbol
_atom_site_label
_atom_site_fract_x
_atom_site_fract_y
_atom_site_fract_z
Si Si1 0.728363 0.199036 0.357579
Si Si2 0.658281 0.325975 0.224869
Si Si3 0.456326 0.258338 0.862854
Si Si4 0.402868 0.921202 0.641440
Si Si5 0.095171 0.044847 0.857969
Si Si6 0.664858 0.986186 0.140481
Si Si7 0.609857 0.864071 0.724006
O O1 0.701274 0.190344 0.500000
O O2 0.682517 0.269308 0.322611
O O3 0.856458 0.194232 0.325550
O O4 0.668478 0.137024 0.298098
O O5 0.569553 0.297245 0.130681
O O6 0.601475 0.387514 0.286667
O O7 0.773864 0.345123 0.160127
O O8 0.457395 0.198537 0.768656
O O9 0.433035 0.230755 0.000000
O O10 0.368154 0.943337 0.500000
O O11 0.529410 0.900183 0.628921
O O12 0.394057 0.976463 0.746682
O O13 0.206180 0.004085 0.846724
O O14 0.067738 0.061761 0.000000
O O15 0.000000 0.000000 0.800177
O O16 0.637464 0.910034 0.158015
O O17 0.627018 0.007072 0.000000
#
# Coordination Sequence:
#
# PCOD8236663 Si02
#       7
#     8   8   8   8   8   8   8
#     4   9  19  36  55  80 114 154 195 234 292 359
#     4  10  19  35  60  84 112 150 193 243 301 351
#     4  10  20  35  58  83 113 152 198 245 291 350
#     4  11  23  39  60  87 123 161 198 242 298 356
#     4   9  19  36  59  87 118 152 194 248 300 353
#     4  10  22  39  61  89 119 158 206 249 293 350
#     4  10  21  38  58  85 118 156 194 245 300 356
#
# _framework density 20.486523999999999
#
# number of rings (size 3 to 8) (size 9 to 14) (size 15 to 20)
#    0.000    2.143    1.429    1.286    2.000    6.857 
#    0.000    2.143    0.000    0.857    0.000    0.000 
#    0.000    0.000    0.000    0.000    0.000    0.000 
#
# Total GULP energy -693766.687157 kJ/mol
# GULP energy per Si atom -12388.690842 kJ/mol
# Density = 2.043990 g / cm^3
# Si number density = 20.486524 Si / 1000 Ang^3
#
#
#
# Elastic Constant Matrix: (Units=GPa)
#
#
# Indices 1 2 3 4 5 6 
#
# 1 128.2947 42.7806 25.2137 0.0000 0.0000 0.0000
# 2 42.7806 85.0353 27.3681 0.0000 0.0000 0.0000
# 3 25.2137 27.3681 69.3099 0.0000 0.0000 0.0000
# 4 0.0000 0.0000 0.0000 17.4145 0.0000 0.0000
# 5 0.0000 0.0000 0.0000 0.0000 23.3715 0.0000
# 6 0.0000 0.0000 0.0000 0.0000 0.0000 39.0942
#
#
#
# Elastic Compliance Matrix: (Units=1/GPa)
#
#
# Indices 1 2 3 4 5 6 
#
# 1 0.009560 -0.004227 -0.001808 0.000000 0.000000 0.000000
# 2 -0.004227 0.015341 -0.004520 0.000000 0.000000 0.000000
# 3 -0.001808 -0.004520 0.016871 0.000000 0.000000 0.000000
# 4 0.000000 0.000000 0.000000 0.057423 0.000000 0.000000
# 5 0.000000 0.000000 0.000000 0.000000 0.042787 0.000000
# 6 0.000000 0.000000 0.000000 0.000000 0.000000 0.025579
#
#
# Mechanical properties :
#
#
# Convention : Reuss Voigt Hill
#
# Bulk Modulus (GPa) = 48.40232 52.59608 50.49920
# Shear Modulus (GPa) = 25.56772 28.46121 27.01447
#
# Velocity S-wave (km/s) = 3.53657 3.73133 3.63526
# Velocity P-wave (km/s) = 6.35249 6.65530 6.50566
#
# Compressibility (1/GPa) = 0.02066017
#
# Stress axis : x y z
#
# Youngs Moduli (GPa) = 104.60703 65.18369 59.27489
#
# Poissons Ratio (x) = 0.27555 0.10719
# Poissons Ratio (y) = 0.44221 0.26792
# Poissons Ratio (z) = 0.18917 0.29462
#
# Static dielectric constant tensor:
#      x y z
#    x 4.038750 0.000000 0.000000 
#    y 0.000000 3.671480 0.000000 
#    z 0.000000 0.000000 3.287230 
# 
# 
# High freq. dielectric constant tensor:
#      x y z
#    x 1.819500 0.000000 0.000000 
#    y 0.000000 1.799260 0.000000 
#    z 0.000000 0.000000 1.765270 
# 
# From -- ./inp_files/14582.got.cif
#   From: 2010.06.25/outbox.cif.g09.slc.cpg/sg58_8_cif.got.tgz:14582.got - 2010.06.26 21:38:00.
