data_PCOD8236942
_publ_section_title
;
Structure prediction by ZEFSAII (Michael W. Deem and Ramdas Pophale) SiO2 
 PCOD8236942
Probable space group: P N N M
;
_chemical_formula_sum "Si O2"
_cell_formula_units_Z 48
_cell_length_a 23.536657
_cell_length_b 12.048459
_cell_length_c 9.232131
_cell_angle_alpha 90.000000
_cell_angle_beta 90.000000
_cell_angle_gamma 90.000000
_cell_volume 2618.051834
_symmetry_space_group_name_H-M "P N N M"
_symmetry_group_IT_number 58
_symmetry_cell_setting 'orthorhombic'
loop_
_space_group_symop_operation_xyz
x,y,z
-x,-y,z
1/2+x,1/2-y,1/2-z
1/2-x,1/2+y,1/2-z
-x,-y,-z
x,y,-z
1/2-x,1/2+y,1/2+z
1/2+x,1/2-y,1/2+z
loop_
_atom_site_type_symbol
_atom_site_label
_atom_site_fract_x
_atom_site_fract_y
_atom_site_fract_z
Si Si1 0.785756 0.663614 0.331395
Si Si2 0.544216 0.186989 0.332727
Si Si3 0.109585 0.492544 0.668747
Si Si4 0.914568 0.287728 0.830483
Si Si5 0.336695 0.411494 0.671606
Si Si6 0.353165 0.658126 0.330168
O O1 0.782943 0.693697 0.500000
O O2 0.830310 0.565592 0.301200
O O3 0.725112 0.624186 0.270067
O O4 0.803130 0.774464 0.247237
O O5 0.550469 0.152126 0.500000
O O6 0.558792 0.079188 0.238176
O O7 0.480970 0.226247 0.295440
O O8 0.585644 0.288877 0.293563
O O9 0.096640 0.506041 0.500000
O O10 0.112798 0.611701 0.742778
O O11 0.883955 0.175892 0.775860
O O12 0.903813 0.308959 0.000000
O O13 0.335222 0.416666 0.500000
O O14 0.353074 0.532991 0.731703
O O15 0.340302 0.661136 0.500000
#
# Coordination Sequence:
#
# PCOD8236942 Si02
#       6
#     8   8   8   8   8   8
#     4   9  19  35  52  72 101 133 166 207 253 298
#     4   9  18  33  53  77 102 131 169 210 251 298
#     4  10  20  33  52  76 103 136 171 208 251 297
#     4  10  20  33  51  76 105 133 166 209 253 298
#     4   9  19  34  52  75 102 133 166 207 255 298
#     4   9  18  34  55  75  98 131 169 206 250 302
#
# _framework density 18.334243000000001
#
# number of rings (size 3 to 8) (size 9 to 14) (size 15 to 20)
#    0.000    2.667    0.000    1.000    2.333    4.000 
#    0.000    5.000    0.000    0.000    0.000    5.833 
#    0.000    0.000    0.000    0.000    0.000    0.000 
#
# Total GULP energy -595310.698502 kJ/mol
# GULP energy per Si atom -12402.306219 kJ/mol
# Density = 1.829251 g / cm^3
# Si number density = 18.334243 Si / 1000 Ang^3
#
#
#
# Elastic Constant Matrix: (Units=GPa)
#
#
# Indices 1 2 3 4 5 6 
#
# 1 97.8543 58.9729 27.7003 0.0000 0.0000 0.0000
# 2 58.9729 168.7445 46.0525 0.0000 0.0000 0.0000
# 3 27.7003 46.0525 45.1531 0.0000 0.0000 0.0000
# 4 0.0000 0.0000 0.0000 21.8790 0.0000 0.0000
# 5 0.0000 0.0000 0.0000 0.0000 22.0340 0.0000
# 6 0.0000 0.0000 0.0000 0.0000 0.0000 23.7637
#
#
#
# Elastic Compliance Matrix: (Units=1/GPa)
#
#
# Indices 1 2 3 4 5 6 
#
# 1 0.013678 -0.003451 -0.004872 0.000000 0.000000 0.000000
# 2 -0.003451 0.009082 -0.007146 0.000000 0.000000 0.000000
# 3 -0.004872 -0.007146 0.032424 0.000000 0.000000 0.000000
# 4 0.000000 0.000000 0.000000 0.045706 0.000000 0.000000
# 5 0.000000 0.000000 0.000000 0.000000 0.045384 0.000000
# 6 0.000000 0.000000 0.000000 0.000000 0.000000 0.042081
#
#
# Mechanical properties :
#
#
# Convention : Reuss Voigt Hill
#
# Bulk Modulus (GPa) = 41.24205 64.13369 52.68787
# Shear Modulus (GPa) = 21.99003 25.47042 23.73023
#
# Velocity S-wave (km/s) = 3.46699 3.73128 3.60156
# Velocity P-wave (km/s) = 6.21048 7.32253 6.78931
#
# Compressibility (1/GPa) = 0.02424710
#
# Stress axis : x y z
#
# Youngs Moduli (GPa) = 73.11077 110.10320 30.84103
#
# Poissons Ratio (x) = 0.37992 0.15025
# Poissons Ratio (y) = 0.25228 0.22040
# Poissons Ratio (z) = 0.35617 0.78685
#
# Static dielectric constant tensor:
#      x y z
#    x 3.482340 0.000000 0.000000 
#    y 0.000000 3.545940 0.000000 
#    z 0.000000 0.000000 3.192680 
# 
# 
# High freq. dielectric constant tensor:
#      x y z
#    x 1.717670 0.000000 0.000000 
#    y 0.000000 1.714410 0.000000 
#    z 0.000000 0.000000 1.687790 
# 
# From -- ./inp_files/4194.got.cif
#   From: 2010.06.25/outbox.cif.g09.slc.cpg/sg58_3_cif.got.tgz:4194.got - 2010.06.26 21:38:00.
