data_PCOD8236882
_publ_section_title
;
Structure prediction by ZEFSAII (Michael W. Deem and Ramdas Pophale) SiO2 
 PCOD8236882
Probable space group: P N N M
;
_chemical_formula_sum "Si O2"
_cell_formula_units_Z 64
_cell_length_a 20.735863
_cell_length_b 19.672580
_cell_length_c 9.342760
_cell_angle_alpha 90.000000
_cell_angle_beta 90.000000
_cell_angle_gamma 90.000000
_cell_volume 3811.172689
_symmetry_space_group_name_H-M "P N N M"
_symmetry_group_IT_number 58
_symmetry_cell_setting 'orthorhombic'
loop_
_space_group_symop_operation_xyz
x,y,z
-x,-y,z
1/2+x,1/2-y,1/2-z
1/2-x,1/2+y,1/2-z
-x,-y,-z
x,y,-z
1/2-x,1/2+y,1/2+z
1/2+x,1/2-y,1/2+z
loop_
_atom_site_type_symbol
_atom_site_label
_atom_site_fract_x
_atom_site_fract_y
_atom_site_fract_z
Si Si1 0.814836 0.796903 0.156656
Si Si2 0.682613 0.458424 0.338853
Si Si3 0.554965 0.950481 0.670687
Si Si4 0.800181 0.296703 0.157626
Si Si5 0.198051 0.541738 0.840334
Si Si6 0.942730 0.946892 0.665842
Si Si7 0.955925 0.809811 0.829542
Si Si8 0.440680 0.200942 0.329333
O O1 0.810981 0.877897 0.153566
O O2 0.759031 0.764815 0.254179
O O3 0.886396 0.777241 0.210256
O O4 0.802920 0.766394 0.000000
O O5 0.676020 0.488353 0.500000
O O6 0.747160 0.488941 0.264485
O O7 0.620080 0.477848 0.244812
O O8 0.552826 0.950156 0.500000
O O9 0.626273 0.976192 0.718649
O O10 0.541395 0.874193 0.728959
O O11 0.500000 0.000000 0.734655
O O12 0.795140 0.377528 0.151223
O O13 0.869491 0.277069 0.226388
O O14 0.794179 0.265193 0.000000
O O15 0.208035 0.511392 0.000000
O O16 0.925468 0.931719 0.500000
O O17 0.967196 0.878856 0.743392
O O18 0.000000 0.000000 0.678748
O O19 0.008295 0.755884 0.774573
O O20 0.959928 0.824779 0.000000
O O21 0.438719 0.198116 0.500000
#
# Coordination Sequence:
#
# PCOD8236882 Si02
#       8
#     8   8   8   8   8   8   8   8
#     4   8  14  23  36  57  81 104 135 175 213 246
#     4   9  16  26  42  63  85 111 143 176 213 258
#     4   8  13  22  40  67  94 120 151 183 215 254
#     4   8  13  22  38  58  79 106 139 174 210 245
#     4   8  13  22  38  61  87 113 144 183 219 247
#     4  10  20  32  46  65  88 111 137 175 220 262
#     4   9  17  29  45  64  87 115 145 177 213 255
#     4   8  14  25  41  62  87 114 146 180 211 247
#
# _framework density 16.792732000000001
#
# number of rings (size 3 to 8) (size 9 to 14) (size 15 to 20)
#    0.000    3.500    0.000    3.000    0.000    4.000 
#    0.000    0.625    0.000    2.625    0.000    3.500 
#    0.000    0.000    0.000    0.000    0.000    0.000 
#
# Total GULP energy -793004.729515 kJ/mol
# GULP energy per Si atom -12390.698899 kJ/mol
# Density = 1.675451 g / cm^3
# Si number density = 16.792732 Si / 1000 Ang^3
#
#
#
# Elastic Constant Matrix: (Units=GPa)
#
#
# Indices 1 2 3 4 5 6 
#
# 1 161.3193 49.9100 61.8351 0.0000 0.0000 0.0000
# 2 49.9100 40.9264 27.5698 0.0000 0.0000 0.0000
# 3 61.8351 27.5698 73.7593 0.0000 0.0000 0.0000
# 4 0.0000 0.0000 0.0000 8.6806 0.0000 0.0000
# 5 0.0000 0.0000 0.0000 0.0000 24.6489 0.0000
# 6 0.0000 0.0000 0.0000 0.0000 0.0000 22.9233
#
#
#
# Elastic Compliance Matrix: (Units=1/GPa)
#
#
# Indices 1 2 3 4 5 6 
#
# 1 0.011624 -0.010172 -0.005943 0.000000 0.000000 0.000000
# 2 -0.010172 0.041559 -0.007006 0.000000 0.000000 0.000000
# 3 -0.005943 -0.007006 0.021158 0.000000 0.000000 0.000000
# 4 0.000000 0.000000 0.000000 0.115199 0.000000 0.000000
# 5 0.000000 0.000000 0.000000 0.000000 0.040570 0.000000
# 6 0.000000 0.000000 0.000000 0.000000 0.000000 0.043624
#
#
# Mechanical properties :
#
#
# Convention : Reuss Voigt Hill
#
# Bulk Modulus (GPa) = 35.58829 61.62608 48.60719
# Shear Modulus (GPa) = 15.18179 20.36323 17.77251
#
# Velocity S-wave (km/s) = 3.01004 3.48605 3.25675
# Velocity P-wave (km/s) = 5.77227 7.27881 6.56887
#
# Compressibility (1/GPa) = 0.02809913
#
# Stress axis : x y z
#
# Youngs Moduli (GPa) = 86.02999 24.06223 47.26296
#
# Poissons Ratio (x) = 0.24477 0.28086
# Poissons Ratio (y) = 0.87512 0.33113
# Poissons Ratio (z) = 0.51123 0.16858
#
# Static dielectric constant tensor:
#      x y z
#    x 3.587360 0.000000 0.000000 
#    y 0.000000 2.718590 0.000000 
#    z 0.000000 0.000000 3.170500 
# 
# 
# High freq. dielectric constant tensor:
#      x y z
#    x 1.667210 0.000000 0.000000 
#    y 0.000000 1.583990 0.000000 
#    z 0.000000 0.000000 1.624080 
# 
# From -- ./inp_files/9403.got.cif
#   From: 2010.06.25/outbox.cif.g09.slc.cpg/sg58_5_cif.got.tgz:9403.got - 2010.06.26 21:38:00.
