data_PCOD8236548
_publ_section_title
;
Structure prediction by ZEFSAII (Michael W. Deem and Ramdas Pophale) SiO2 
 PCOD8236548
Probable space group: P N N M
;
_chemical_formula_sum "Si O2"
_cell_formula_units_Z 64
_cell_length_a 15.128823
_cell_length_b 24.860009
_cell_length_c 9.040616
_cell_angle_alpha 90.000000
_cell_angle_beta 90.000000
_cell_angle_gamma 90.000000
_cell_volume 3400.199870
_symmetry_space_group_name_H-M "P N N M"
_symmetry_group_IT_number 58
_symmetry_cell_setting 'orthorhombic'
loop_
_space_group_symop_operation_xyz
x,y,z
-x,-y,z
1/2+x,1/2-y,1/2-z
1/2-x,1/2+y,1/2-z
-x,-y,-z
x,y,-z
1/2-x,1/2+y,1/2+z
1/2+x,1/2-y,1/2+z
loop_
_atom_site_type_symbol
_atom_site_label
_atom_site_fract_x
_atom_site_fract_y
_atom_site_fract_z
Si Si1 0.799329 0.358832 0.331059
Si Si2 0.282010 0.261649 0.830126
Si Si3 0.960038 0.221617 0.175343
Si Si4 0.680479 0.562659 0.824156
Si Si5 0.178719 0.057637 0.325998
Si Si6 0.000618 0.115898 0.674808
Si Si7 0.836255 0.639585 0.170654
Si Si8 0.502504 0.830842 0.171929
O O1 0.777993 0.372423 0.500000
O O2 0.759761 0.300060 0.288844
O O3 0.755453 0.404047 0.232207
O O4 0.904215 0.359992 0.300408
O O5 0.358705 0.284423 0.726011
O O6 0.196603 0.298853 0.809141
O O7 0.316858 0.264085 0.000000
O O8 0.014998 0.171643 0.239356
O O9 0.002843 0.275551 0.238563
O O10 0.966713 0.222600 0.000000
O O11 0.691306 0.502362 0.760950
O O12 0.588522 0.587490 0.766830
O O13 0.762244 0.598671 0.767923
O O14 0.677731 0.562468 0.000000
O O15 0.188769 0.056326 0.500000
O O16 0.082009 0.078018 0.280208
O O17 0.997292 0.127041 0.500000
O O18 0.924604 0.630975 0.266638
O O19 0.857662 0.627339 0.000000
O O20 0.488046 0.818636 0.000000
#
# Coordination Sequence:
#
# PCOD8236548 Si02
#       8
#     8   8   8   8   8   8   8   8
#     4   9  20  38  56  76 111 151 183 227 286 334
#     4   9  18  35  56  79 111 150 182 220 283 340
#     4  11  21  33  53  83 115 147 186 227 274 329
#     4   9  18  36  59  83 114 147 185 229 281 335
#     4  10  21  35  58  86 108 144 195 236 270 328
#     4  10  19  35  56  81 115 152 184 223 279 335
#     4  10  19  34  59  86 112 147 185 231 286 332
#     4  10  22  39  57  79 112 151 190 232 284 340
#
# _framework density 18.822424000000002
#
# number of rings (size 3 to 8) (size 9 to 14) (size 15 to 20)
#    0.000    2.250    1.250    2.625    1.750    5.000 
#    0.000    1.875    0.000    5.250    0.000    0.000 
#    0.000    0.000    0.000    0.000    0.000    0.000 
#
# Total GULP energy -793677.734489 kJ/mol
# GULP energy per Si atom -12401.214601 kJ/mol
# Density = 1.877958 g / cm^3
# Si number density = 18.822424 Si / 1000 Ang^3
#
#
#
# Elastic Constant Matrix: (Units=GPa)
#
#
# Indices 1 2 3 4 5 6 
#
# 1 106.9192 60.0906 40.0398 0.0000 0.0000 0.0000
# 2 60.0906 107.3350 31.5989 0.0000 0.0000 0.0000
# 3 40.0398 31.5989 60.2240 0.0000 0.0000 0.0000
# 4 0.0000 0.0000 0.0000 24.3213 0.0000 0.0000
# 5 0.0000 0.0000 0.0000 0.0000 29.5520 0.0000
# 6 0.0000 0.0000 0.0000 0.0000 0.0000 24.6085
#
#
#
# Elastic Compliance Matrix: (Units=1/GPa)
#
#
# Indices 1 2 3 4 5 6 
#
# 1 0.015756 -0.006785 -0.006915 0.000000 0.000000 0.000000
# 2 -0.006785 0.013940 -0.002803 0.000000 0.000000 0.000000
# 3 -0.006915 -0.002803 0.022673 0.000000 0.000000 0.000000
# 4 0.000000 0.000000 0.000000 0.041116 0.000000 0.000000
# 5 0.000000 0.000000 0.000000 0.000000 0.033839 0.000000
# 6 0.000000 0.000000 0.000000 0.000000 0.000000 0.040636
#
#
# Mechanical properties :
#
#
# Convention : Reuss Voigt Hill
#
# Bulk Modulus (GPa) = 51.64700 59.77073 55.70886
# Shear Modulus (GPa) = 24.10547 25.21296 24.65922
#
# Velocity S-wave (km/s) = 3.58254 3.66391 3.62345
# Velocity P-wave (km/s) = 6.67918 7.05145 6.86784
#
# Compressibility (1/GPa) = 0.01936221
#
# Stress axis : x y z
#
# Youngs Moduli (GPa) = 63.46887 71.73374 44.10495
#
# Poissons Ratio (x) = 0.48671 0.30499
# Poissons Ratio (y) = 0.43063 0.12365
# Poissons Ratio (z) = 0.43890 0.20110
#
# Static dielectric constant tensor:
#      x y z
#    x 3.415970 0.000000 0.000000 
#    y 0.000000 3.547130 0.000000 
#    z 0.000000 0.000000 3.221780 
# 
# 
# High freq. dielectric constant tensor:
#      x y z
#    x 1.732020 0.000000 0.000000 
#    y 0.000000 1.726230 0.000000 
#    z 0.000000 0.000000 1.709680 
# 
# From -- ./inp_files/6816.got.cif
#   From: 2010.06.25/outbox.cif.g09.slc.cpg/sg58_4_cif.got.tgz:6816.got - 2010.06.26 21:38:00.
