data_PCOD8236308
_publ_section_title
;
Structure prediction by ZEFSAII (Michael W. Deem and Ramdas Pophale) SiO2 
 PCOD8236308
Probable space group: P N N M
;
_chemical_formula_sum "Si O2"
_cell_formula_units_Z 64
_cell_length_a 21.326237
_cell_length_b 16.585303
_cell_length_c 8.946894
_cell_angle_alpha 90.000000
_cell_angle_beta 90.000000
_cell_angle_gamma 90.000000
_cell_volume 3164.535219
_symmetry_space_group_name_H-M "P N N M"
_symmetry_group_IT_number 58
_symmetry_cell_setting 'orthorhombic'
loop_
_space_group_symop_operation_xyz
x,y,z
-x,-y,z
1/2+x,1/2-y,1/2-z
1/2-x,1/2+y,1/2-z
-x,-y,-z
x,y,-z
1/2-x,1/2+y,1/2+z
1/2+x,1/2-y,1/2+z
loop_
_atom_site_type_symbol
_atom_site_label
_atom_site_fract_x
_atom_site_fract_y
_atom_site_fract_z
Si Si1 0.104712 0.765777 0.327304
Si Si2 0.318492 0.956219 0.171756
Si Si3 0.719222 0.327255 0.333310
Si Si4 0.364992 0.786190 0.830690
Si Si5 0.659540 0.882121 0.675346
Si Si6 0.312259 0.414126 0.173496
Si Si7 0.109901 0.043594 0.831800
Si Si8 0.526423 0.333033 0.825638
O O1 0.095689 0.743264 0.500000
O O2 0.110079 0.682759 0.236670
O O3 0.166635 0.821045 0.303512
O O4 0.043317 0.812877 0.269520
O O5 0.352073 0.030176 0.253954
O O6 0.367650 0.882668 0.186987
O O7 0.251110 0.932517 0.238386
O O8 0.306275 0.980113 0.000000
O O9 0.747570 0.315270 0.500000
O O10 0.689506 0.243522 0.279859
O O11 0.771224 0.353795 0.216864
O O12 0.667197 0.395179 0.332214
O O13 0.431080 0.745542 0.788516
O O14 0.346438 0.762353 0.000000
O O15 0.651793 0.889254 0.500000
O O16 0.370305 0.467321 0.232951
O O17 0.301388 0.434208 0.000000
O O18 0.049429 0.087628 0.761696
O O19 0.093640 0.015816 0.000000
O O20 0.528271 0.354123 0.000000
#
# Coordination Sequence:
#
# PCOD8236308 Si02
#       8
#     8   8   8   8   8   8   8   8
#     4  10  23  41  60  83 114 154 195 239 288 339
#     4  11  22  37  57  85 117 146 183 236 291 344
#     4  10  19  33  55  82 114 148 183 226 284 342
#     4   9  19  35  59  86 111 146 192 237 282 337
#     4  12  24  37  57  82 112 150 189 234 289 347
#     4  11  22  36  57  86 118 151 189 233 286 347
#     4  10  20  34  56  85 117 154 188 233 284 334
#     4   9  19  39  62  83 113 153 199 241 280 338
#
# _framework density 20.224138
#
# number of rings (size 3 to 8) (size 9 to 14) (size 15 to 20)
#    0.000    1.750    1.250    3.375    0.000    6.000 
#    0.000    3.125    0.000    3.750    0.000    0.000 
#    0.000    0.000    0.000    0.000    0.000    0.000 
#
# Total GULP energy -793735.519067 kJ/mol
# GULP energy per Si atom -12402.117485 kJ/mol
# Density = 2.017811 g / cm^3
# Si number density = 20.224138 Si / 1000 Ang^3
#
#
#
# Elastic Constant Matrix: (Units=GPa)
#
#
# Indices 1 2 3 4 5 6 
#
# 1 32.7496 -1.3079 10.6946 0.0000 0.0000 0.0000
# 2 -1.3079 90.3393 40.5987 0.0000 0.0000 0.0000
# 3 10.6946 40.5987 111.4502 0.0000 0.0000 0.0000
# 4 0.0000 0.0000 0.0000 27.4015 0.0000 0.0000
# 5 0.0000 0.0000 0.0000 0.0000 26.6889 0.0000
# 6 0.0000 0.0000 0.0000 0.0000 0.0000 20.5395
#
#
#
# Elastic Compliance Matrix: (Units=1/GPa)
#
#
# Indices 1 2 3 4 5 6 
#
# 1 0.031883 0.002196 -0.003859 0.000000 0.000000 0.000000
# 2 0.002196 0.013388 -0.005087 0.000000 0.000000 0.000000
# 3 -0.003859 -0.005087 0.011196 0.000000 0.000000 0.000000
# 4 0.000000 0.000000 0.000000 0.036494 0.000000 0.000000
# 5 0.000000 0.000000 0.000000 0.000000 0.037469 0.000000
# 6 0.000000 0.000000 0.000000 0.000000 0.000000 0.048687
#
#
# Mechanical properties :
#
#
# Convention : Reuss Voigt Hill
#
# Bulk Modulus (GPa) = 23.27489 37.16777 30.22133
# Shear Modulus (GPa) = 24.16165 27.22956 25.69560
#
# Velocity S-wave (km/s) = 3.46018 3.67330 3.56833
# Velocity P-wave (km/s) = 5.24379 6.03396 5.65270
#
# Compressibility (1/GPa) = 0.04296476
#
# Stress axis : x y z
#
# Youngs Moduli (GPa) = 31.36494 74.69648 89.31596
#
# Poissons Ratio (x) = -0.16403 0.34470
# Poissons Ratio (y) = -0.06888 0.45439
# Poissons Ratio (z) = 0.12105 0.38002
#
# Static dielectric constant tensor:
#      x y z
#    x 3.512840 0.000000 0.000000 
#    y 0.000000 3.814440 0.000000 
#    z 0.000000 0.000000 3.761290 
# 
# 
# High freq. dielectric constant tensor:
#      x y z
#    x 1.769460 0.000000 0.000000 
#    y 0.000000 1.797230 0.000000 
#    z 0.000000 0.000000 1.793240 
# 
# From -- ./inp_files/9943.got.cif
#   From: 2010.06.25/outbox.cif.g09.slc.cpg/sg58_5_cif.got.tgz:9943.got - 2010.06.26 21:38:00.
