data_PCOD8236936
_publ_section_title
;
Structure prediction by ZEFSAII (Michael W. Deem and Ramdas Pophale) SiO2 
 PCOD8236936
Probable space group: P N N M
;
_chemical_formula_sum "Si O2"
_cell_formula_units_Z 56
_cell_length_a 22.226102
_cell_length_b 14.785517
_cell_length_c 8.935602
_cell_angle_alpha 90.000000
_cell_angle_beta 90.000000
_cell_angle_gamma 90.000000
_cell_volume 2936.456926
_symmetry_space_group_name_H-M "P N N M"
_symmetry_group_IT_number 58
_symmetry_cell_setting 'orthorhombic'
loop_
_space_group_symop_operation_xyz
x,y,z
-x,-y,z
1/2+x,1/2-y,1/2-z
1/2-x,1/2+y,1/2-z
-x,-y,-z
x,y,-z
1/2-x,1/2+y,1/2+z
1/2+x,1/2-y,1/2+z
loop_
_atom_site_type_symbol
_atom_site_label
_atom_site_fract_x
_atom_site_fract_y
_atom_site_fract_z
Si Si1 0.644967 0.834872 0.321820
Si Si2 0.430138 0.991607 0.322206
Si Si3 0.091959 0.849841 0.177686
Si Si4 0.645624 0.469773 0.330948
Si Si5 0.040823 0.166411 0.830983
Si Si6 0.780024 0.823356 0.676592
Si Si7 0.617558 0.189037 0.823323
O O1 0.646089 0.836469 0.500000
O O2 0.612382 0.746320 0.258026
O O3 0.712709 0.826542 0.257679
O O4 0.607732 0.921720 0.264339
O O5 0.428753 0.982987 0.500000
O O6 0.394675 0.906221 0.255303
O O7 0.500000 0.000000 0.267786
O O8 0.023731 0.865115 0.229325
O O9 0.135238 0.930012 0.237082
O O10 0.096518 0.852460 0.000000
O O11 0.671577 0.472299 0.500000
O O12 0.581207 0.422041 0.329656
O O13 0.691569 0.417961 0.225765
O O14 0.064007 0.243816 0.720444
O O15 0.036792 0.207083 0.000000
O O16 0.779127 0.820200 0.500000
O O17 0.819424 0.736349 0.732711
O O18 0.618350 0.173801 0.000000
#
# Coordination Sequence:
#
# PCOD8236936 Si02
#       7
#     8   8   8   8   8   8   8
#     4   9  18  32  50  71  97 130 167 207 247 293
#     4  10  20  35  56  79 100 129 172 216 257 299
#     4   9  16  28  49  75  98 122 157 201 246 288
#     4   9  17  29  50  77 100 124 157 200 245 288
#     4   9  16  29  50  76 103 127 157 198 241 290
#     4   9  19  35  50  68  98 134 168 199 241 298
#     4  10  20  33  51  74 102 136 168 201 245 297
#
# _framework density 19.070602000000001
#
# number of rings (size 3 to 8) (size 9 to 14) (size 15 to 20)
#    0.000    2.714    0.000    1.714    0.000    6.000 
#    0.000    2.857    0.000    6.000    0.000    0.000 
#    0.000    0.000    0.000    0.000    0.000    0.000 
#
# Total GULP energy -694068.453950 kJ/mol
# GULP energy per Si atom -12394.079535 kJ/mol
# Density = 1.902720 g / cm^3
# Si number density = 19.070602 Si / 1000 Ang^3
#
#
#
# Elastic Constant Matrix: (Units=GPa)
#
#
# Indices 1 2 3 4 5 6 
#
# 1 119.5360 46.7300 16.1403 0.0000 0.0000 0.0000
# 2 46.7300 141.1599 17.9410 0.0000 0.0000 0.0000
# 3 16.1403 17.9410 15.2719 0.0000 0.0000 0.0000
# 4 0.0000 0.0000 0.0000 17.2567 0.0000 0.0000
# 5 0.0000 0.0000 0.0000 0.0000 17.3269 0.0000
# 6 0.0000 0.0000 0.0000 0.0000 0.0000 21.0811
#
#
#
# Elastic Compliance Matrix: (Units=1/GPa)
#
#
# Indices 1 2 3 4 5 6 
#
# 1 0.010411 -0.002407 -0.008174 0.000000 0.000000 0.000000
# 2 -0.002407 0.008884 -0.007893 0.000000 0.000000 0.000000
# 3 -0.008174 -0.007893 0.083391 0.000000 0.000000 0.000000
# 4 0.000000 0.000000 0.000000 0.057948 0.000000 0.000000
# 5 0.000000 0.000000 0.000000 0.000000 0.057714 0.000000
# 6 0.000000 0.000000 0.000000 0.000000 0.000000 0.047436
#
#
# Mechanical properties :
#
#
# Convention : Reuss Voigt Hill
#
# Bulk Modulus (GPa) = 15.21210 48.62116 31.91663
# Shear Modulus (GPa) = 15.40140 24.14337 19.77239
#
# Velocity S-wave (km/s) = 2.84491 3.56195 3.22343
# Velocity P-wave (km/s) = 4.33421 6.51670 5.53411
#
# Compressibility (1/GPa) = 0.06573713
#
# Stress axis : x y z
#
# Youngs Moduli (GPa) = 96.05640 112.55858 11.99164
#
# Poissons Ratio (x) = 0.27097 0.09802
# Poissons Ratio (y) = 0.23125 0.09465
# Poissons Ratio (z) = 0.78520 0.88840
#
# Static dielectric constant tensor:
#      x y z
#    x 3.711920 0.000000 0.000000 
#    y 0.000000 3.663610 0.000000 
#    z 0.000000 0.000000 3.107390 
# 
# 
# High freq. dielectric constant tensor:
#      x y z
#    x 1.746010 0.000000 0.000000 
#    y 0.000000 1.750780 0.000000 
#    z 0.000000 0.000000 1.696560 
# 
# From -- ./inp_files/6472.got.cif
#   From: 2010.06.25/outbox.cif.g09.slc.cpg/sg58_4_cif.got.tgz:6472.got - 2010.06.26 21:38:00.
