data_PCOD8236294
_publ_section_title
;
Structure prediction by ZEFSAII (Michael W. Deem and Ramdas Pophale) SiO2 
 PCOD8236294
Probable space group: P N N M
;
_chemical_formula_sum "Si O2"
_cell_formula_units_Z 64
_cell_length_a 25.093439
_cell_length_b 14.398670
_cell_length_c 9.168086
_cell_angle_alpha 90.000000
_cell_angle_beta 90.000000
_cell_angle_gamma 90.000000
_cell_volume 3312.540840
_symmetry_space_group_name_H-M "P N N M"
_symmetry_group_IT_number 58
_symmetry_cell_setting 'orthorhombic'
loop_
_space_group_symop_operation_xyz
x,y,z
-x,-y,z
1/2+x,1/2-y,1/2-z
1/2-x,1/2+y,1/2-z
-x,-y,-z
x,y,-z
1/2-x,1/2+y,1/2+z
1/2+x,1/2-y,1/2+z
loop_
_atom_site_type_symbol
_atom_site_label
_atom_site_fract_x
_atom_site_fract_y
_atom_site_fract_z
Si Si1 0.218307 0.878108 0.669714
Si Si2 0.018192 0.268268 0.332359
Si Si3 0.890115 0.812424 0.162353
Si Si4 0.576168 0.035560 0.834508
Si Si5 0.688977 0.798029 0.330716
Si Si6 0.794109 0.909119 0.672400
Si Si7 0.429265 0.142617 0.670370
Si Si8 0.837144 0.617135 0.840048
O O1 0.207510 0.863372 0.500000
O O2 0.183869 0.802383 0.754860
O O3 0.278919 0.855807 0.714227
O O4 0.205931 0.983037 0.717003
O O5 0.009659 0.238580 0.500000
O O6 0.055020 0.189830 0.255235
O O7 0.044335 0.369465 0.320809
O O8 0.961573 0.273627 0.248655
O O9 0.845163 0.868278 0.247553
O O10 0.872180 0.707632 0.143190
O O11 0.899591 0.855156 0.000000
O O12 0.549682 0.954582 0.737869
O O13 0.636466 0.048955 0.776935
O O14 0.577860 0.999874 0.000000
O O15 0.696299 0.778726 0.500000
O O16 0.738932 0.860424 0.274049
O O17 0.633602 0.849573 0.297444
O O18 0.800983 0.895353 0.500000
O O19 0.442722 0.145111 0.500000
O O20 0.833609 0.566773 0.000000
#
# Coordination Sequence:
#
# PCOD8236294 Si02
#       8
#     8   8   8   8   8   8   8   8
#     4  10  20  35  55  80 111 148 187 228 276 332
#     4  10  21  36  54  78 109 144 184 230 279 329
#     4  10  19  33  55  80 106 139 182 226 267 320
#     4  10  20  32  50  78 109 143 184 227 272 326
#     4  10  22  38  56  80 114 151 185 226 275 328
#     4  10  20  35  56  81 113 148 181 225 280 328
#     4  11  22  36  53  76 109 148 187 226 277 333
#     4   9  17  31  50  74 107 142 178 220 266 319
#
# _framework density 19.320516000000001
#
# number of rings (size 3 to 8) (size 9 to 14) (size 15 to 20)
#    0.000    2.000    1.250    2.625    0.000    7.500 
#    0.000    1.250    0.000    0.750    0.000    5.250 
#    0.000    0.000    0.000    0.000    0.000    0.000 
#
# Total GULP energy -793408.093479 kJ/mol
# GULP energy per Si atom -12397.001461 kJ/mol
# Density = 1.927654 g / cm^3
# Si number density = 19.320516 Si / 1000 Ang^3
#
#
#
# Elastic Constant Matrix: (Units=GPa)
#
#
# Indices 1 2 3 4 5 6 
#
# 1 40.4156 18.2212 24.4644 0.0000 0.0000 0.0000
# 2 18.2212 62.2397 35.6696 0.0000 0.0000 0.0000
# 3 24.4644 35.6696 88.3299 0.0000 0.0000 0.0000
# 4 0.0000 0.0000 0.0000 15.0234 0.0000 0.0000
# 5 0.0000 0.0000 0.0000 0.0000 32.1726 0.0000
# 6 0.0000 0.0000 0.0000 0.0000 0.0000 19.9130
#
#
#
# Elastic Compliance Matrix: (Units=1/GPa)
#
#
# Indices 1 2 3 4 5 6 
#
# 1 0.031070 -0.005418 -0.006417 0.000000 0.000000 0.000000
# 2 -0.005418 0.021850 -0.007323 0.000000 0.000000 0.000000
# 3 -0.006417 -0.007323 0.016056 0.000000 0.000000 0.000000
# 4 0.000000 0.000000 0.000000 0.066563 0.000000 0.000000
# 5 0.000000 0.000000 0.000000 0.000000 0.031082 0.000000
# 6 0.000000 0.000000 0.000000 0.000000 0.000000 0.050219
#
#
# Mechanical properties :
#
#
# Convention : Reuss Voigt Hill
#
# Bulk Modulus (GPa) = 32.61691 38.63286 35.62488
# Shear Modulus (GPa) = 18.84118 20.93046 19.88582
#
# Velocity S-wave (km/s) = 3.12619 3.29497 3.21169
# Velocity P-wave (km/s) = 5.47261 5.87494 5.67734
#
# Compressibility (1/GPa) = 0.03065895
#
# Stress axis : x y z
#
# Youngs Moduli (GPa) = 32.18504 45.76692 62.28314
#
# Poissons Ratio (x) = 0.24798 0.39970
# Poissons Ratio (y) = 0.17439 0.45609
# Poissons Ratio (z) = 0.20654 0.33514
#
# Static dielectric constant tensor:
#      x y z
#    x 3.575690 0.000000 0.000000 
#    y 0.000000 3.262060 0.000000 
#    z 0.000000 0.000000 3.665830 
# 
# 
# High freq. dielectric constant tensor:
#      x y z
#    x 1.749780 0.000000 0.000000 
#    y 0.000000 1.721230 0.000000 
#    z 0.000000 0.000000 1.755790 
# 
# From -- ./inp_files/10017.got.cif
#   From: 2010.06.25/outbox.cif.g09.slc.cpg/sg58_6_cif.got.tgz:10017.got - 2010.06.26 21:38:00.
