data_PCOD8236710
_publ_section_title
;
Structure prediction by ZEFSAII (Michael W. Deem and Ramdas Pophale) SiO2 
 PCOD8236710
Probable space group: P N N M
;
_chemical_formula_sum "Si O2"
_cell_formula_units_Z 64
_cell_length_a 18.801675
_cell_length_b 19.941956
_cell_length_c 9.226160
_cell_angle_alpha 90.000000
_cell_angle_beta 90.000000
_cell_angle_gamma 90.000000
_cell_volume 3459.276503
_symmetry_space_group_name_H-M "P N N M"
_symmetry_group_IT_number 58
_symmetry_cell_setting 'orthorhombic'
loop_
_space_group_symop_operation_xyz
x,y,z
-x,-y,z
1/2+x,1/2-y,1/2-z
1/2-x,1/2+y,1/2-z
-x,-y,-z
x,y,-z
1/2-x,1/2+y,1/2+z
1/2+x,1/2-y,1/2+z
loop_
_atom_site_type_symbol
_atom_site_label
_atom_site_fract_x
_atom_site_fract_y
_atom_site_fract_z
Si Si1 0.944890 0.816248 0.165511
Si Si2 0.697517 0.345784 0.168858
Si Si3 0.311688 0.406043 0.829368
Si Si4 0.284945 0.028798 0.329593
Si Si5 0.546266 0.797836 0.328057
Si Si6 0.451263 0.438951 0.665804
Si Si7 0.557592 0.947728 0.673101
Si Si8 0.809162 0.231200 0.830508
O O1 0.878713 0.837508 0.260034
O O2 0.977664 0.745472 0.220447
O O3 0.007588 0.869617 0.182068
O O4 0.919307 0.810936 0.000000
O O5 0.736824 0.411058 0.235738
O O6 0.744207 0.280568 0.200548
O O7 0.684090 0.356088 0.000000
O O8 0.247895 0.456882 0.791615
O O9 0.383580 0.438148 0.768950
O O10 0.292354 0.336402 0.754792
O O11 0.319961 0.395327 0.000000
O O12 0.289306 0.041317 0.500000
O O13 0.364750 0.032092 0.265916
O O14 0.552547 0.798769 0.500000
O O15 0.537927 0.873415 0.268955
O O16 0.618869 0.764677 0.268477
O O17 0.500000 0.500000 0.718779
O O18 0.426599 0.450151 0.500000
O O19 0.556825 0.949245 0.500000
O O20 0.500000 0.000000 0.735937
O O21 0.817042 0.214044 0.000000
#
# Coordination Sequence:
#
# PCOD8236710 Si02
#       8
#     8   8   8   8   8   8   8   8
#     4  10  20  33  52  79 109 137 175 226 272 316
#     4  10  20  35  57  79 105 145 185 222 267 328
#     4  11  22  33  52  82 115 144 175 227 281 325
#     4   9  18  33  50  76 112 143 175 221 275 324
#     4   9  16  31  53  74 101 140 178 218 266 321
#     4  10  20  35  54  76 106 147 188 223 263 323
#     4   9  16  28  51  79 103 134 178 223 271 321
#     4  10  19  36  58  75 102 147 189 217 259 329
#
# _framework density 18.500979000000001
#
# number of rings (size 3 to 8) (size 9 to 14) (size 15 to 20)
#    0.000    2.250    2.500    1.125    0.000    2.250 
#    0.000    3.125    0.000    0.000    0.000    0.000 
#    0.000    5.500    0.000    0.000    0.000    0.000 
#
# Total GULP energy -793609.770314 kJ/mol
# GULP energy per Si atom -12400.152661 kJ/mol
# Density = 1.845887 g / cm^3
# Si number density = 18.500979 Si / 1000 Ang^3
#
#
#
# Elastic Constant Matrix: (Units=GPa)
#
#
# Indices 1 2 3 4 5 6 
#
# 1 107.8070 51.7948 24.0807 0.0000 0.0000 0.0000
# 2 51.7948 143.7550 31.8566 0.0000 0.0000 0.0000
# 3 24.0807 31.8566 35.0211 0.0000 0.0000 0.0000
# 4 0.0000 0.0000 0.0000 21.4636 0.0000 0.0000
# 5 0.0000 0.0000 0.0000 0.0000 20.0964 0.0000
# 6 0.0000 0.0000 0.0000 0.0000 0.0000 29.9366
#
#
#
# Elastic Compliance Matrix: (Units=1/GPa)
#
#
# Indices 1 2 3 4 5 6 
#
# 1 0.011981 -0.003120 -0.005400 0.000000 0.000000 0.000000
# 2 -0.003120 0.009525 -0.006519 0.000000 0.000000 0.000000
# 3 -0.005400 -0.006519 0.038197 0.000000 0.000000 0.000000
# 4 0.000000 0.000000 0.000000 0.046591 0.000000 0.000000
# 5 0.000000 0.000000 0.000000 0.000000 0.049760 0.000000
# 6 0.000000 0.000000 0.000000 0.000000 0.000000 0.033404
#
#
# Mechanical properties :
#
#
# Convention : Reuss Voigt Hill
#
# Bulk Modulus (GPa) = 33.75522 55.78305 44.76913
# Shear Modulus (GPa) = 21.79491 26.22271 24.00881
#
# Velocity S-wave (km/s) = 3.43598 3.76888 3.60628
# Velocity P-wave (km/s) = 5.83318 7.01114 6.44911
#
# Compressibility (1/GPa) = 0.02962505
#
# Stress axis : x y z
#
# Youngs Moduli (GPa) = 83.46504 104.98605 26.17989
#
# Poissons Ratio (x) = 0.32757 0.14137
# Poissons Ratio (y) = 0.26042 0.17067
# Poissons Ratio (z) = 0.45072 0.68440
#
# Static dielectric constant tensor:
#      x y z
#    x 3.447840 0.000000 0.000000 
#    y 0.000000 3.662040 0.000000 
#    z 0.000000 0.000000 2.992820 
# 
# 
# High freq. dielectric constant tensor:
#      x y z
#    x 1.723060 0.000000 0.000000 
#    y 0.000000 1.736030 0.000000 
#    z 0.000000 0.000000 1.669060 
# 
# From -- ./inp_files/8318.got.cif
#   From: 2010.06.25/outbox.cif.g09.slc.cpg/sg58_5_cif.got.tgz:8318.got - 2010.06.26 21:38:00.
