data_PCOD8236076
_publ_section_title
;
Structure prediction by ZEFSAII (Michael W. Deem and Ramdas Pophale) SiO2 
 PCOD8236076
Probable space group: P N N M
;
_chemical_formula_sum "Si O2"
_cell_formula_units_Z 48
_cell_length_a 16.192263
_cell_length_b 18.398528
_cell_length_c 8.987563
_cell_angle_alpha 90.000000
_cell_angle_beta 90.000000
_cell_angle_gamma 90.000000
_cell_volume 2677.519084
_symmetry_space_group_name_H-M "P N N M"
_symmetry_group_IT_number 58
_symmetry_cell_setting 'orthorhombic'
loop_
_space_group_symop_operation_xyz
x,y,z
-x,-y,z
1/2+x,1/2-y,1/2-z
1/2-x,1/2+y,1/2-z
-x,-y,-z
x,y,-z
1/2-x,1/2+y,1/2+z
1/2+x,1/2-y,1/2+z
loop_
_atom_site_type_symbol
_atom_site_label
_atom_site_fract_x
_atom_site_fract_y
_atom_site_fract_z
Si Si1 0.336154 0.832840 0.823729
Si Si2 0.496055 0.417187 0.173827
Si Si3 0.415125 0.704041 0.666110
Si Si4 0.169471 0.832371 0.672863
Si Si5 0.019080 0.418374 0.174496
Si Si6 0.414073 0.211385 0.335872
O O1 0.350317 0.751599 0.760073
O O2 0.247232 0.860307 0.767039
O O3 0.403458 0.890306 0.767954
O O4 0.338689 0.829676 0.000000
O O5 0.500000 0.500000 0.228593
O O6 0.568715 0.373653 0.257238
O O7 0.405914 0.385734 0.212642
O O8 0.514424 0.410149 0.000000
O O9 0.379872 0.691659 0.500000
O O10 0.499617 0.747472 0.659999
O O11 0.191839 0.833735 0.500000
O O12 0.146555 0.749381 0.718242
O O13 0.000000 0.500000 0.223773
O O14 0.936269 0.371359 0.210395
O O15 0.041231 0.412034 0.000000
O O16 0.372673 0.214111 0.500000
#
# Coordination Sequence:
#
# PCOD8236076 Si02
#       6
#     8   8   8   8   8   8
#     4  11  21  33  51  74 101 131 168 213 256 298
#     4   9  18  33  53  77 104 135 169 205 250 304
#     4   9  17  31  51  73  97 127 165 204 244 294
#     4  10  19  32  51  73  99 131 168 209 252 299
#     4   9  18  34  55  77 103 135 168 202 247 305
#     4   8  15  29  49  72  96 124 160 199 239 288
#
# _framework density 17.927043000000001
#
# number of rings (size 3 to 8) (size 9 to 14) (size 15 to 20)
#    0.000    2.667    0.000    3.500    0.000    5.333 
#    0.000    1.667    0.000    4.000    0.000    0.000 
#    0.000    0.000    0.000    0.000    0.000    0.000 
#
# Total GULP energy -595112.953929 kJ/mol
# GULP energy per Si atom -12398.186540 kJ/mol
# Density = 1.788624 g / cm^3
# Si number density = 17.927043 Si / 1000 Ang^3
#
#
#
# Elastic Constant Matrix: (Units=GPa)
#
#
# Indices 1 2 3 4 5 6 
#
# 1 69.5220 37.4817 47.6130 0.0000 0.0000 0.0000
# 2 37.4817 136.8707 50.3663 0.0000 0.0000 0.0000
# 3 47.6130 50.3663 109.5243 0.0000 0.0000 0.0000
# 4 0.0000 0.0000 0.0000 25.9864 0.0000 0.0000
# 5 0.0000 0.0000 0.0000 0.0000 28.9642 0.0000
# 6 0.0000 0.0000 0.0000 0.0000 0.0000 16.1015
#
#
#
# Elastic Compliance Matrix: (Units=1/GPa)
#
#
# Indices 1 2 3 4 5 6 
#
# 1 0.021419 -0.002936 -0.007961 0.000000 0.000000 0.000000
# 2 -0.002936 0.009197 -0.002953 0.000000 0.000000 0.000000
# 3 -0.007961 -0.002953 0.013949 0.000000 0.000000 0.000000
# 4 0.000000 0.000000 0.000000 0.038482 0.000000 0.000000
# 5 0.000000 0.000000 0.000000 0.000000 0.034525 0.000000
# 6 0.000000 0.000000 0.000000 0.000000 0.000000 0.062106
#
#
# Mechanical properties :
#
#
# Convention : Reuss Voigt Hill
#
# Bulk Modulus (GPa) = 59.29474 65.20432 62.24953
# Shear Modulus (GPa) = 23.47414 26.24084 24.85749
#
# Velocity S-wave (km/s) = 3.62252 3.83006 3.72774
# Velocity P-wave (km/s) = 7.11648 7.48399 7.30255
#
# Compressibility (1/GPa) = 0.01686490
#
# Stress axis : x y z
#
# Youngs Moduli (GPa) = 46.68701 108.73345 71.68796
#
# Poissons Ratio (x) = 0.31924 0.57073
# Poissons Ratio (y) = 0.13707 0.21169
# Poissons Ratio (z) = 0.37169 0.32108
#
# Static dielectric constant tensor:
#      x y z
#    x 3.148100 0.000000 0.000000 
#    y 0.000000 3.484040 0.000000 
#    z 0.000000 0.000000 3.381020 
# 
# 
# High freq. dielectric constant tensor:
#      x y z
#    x 1.672580 0.000000 0.000000 
#    y 0.000000 1.684830 0.000000 
#    z 0.000000 0.000000 1.697950 
# 
# From -- ./inp_files/5887.got.cif
#   From: 2010.06.25/outbox.cif.g09.slc.cpg/sg58_3_cif.got.tgz:5887.got - 2010.06.26 21:38:00.
