data_PCOD8236595
_publ_section_title
;
Structure prediction by ZEFSAII (Michael W. Deem and Ramdas Pophale) SiO2 
 PCOD8236595
Probable space group: P N N M
;
_chemical_formula_sum "Si O2"
_cell_formula_units_Z 64
_cell_length_a 14.253092
_cell_length_b 24.540552
_cell_length_c 9.377288
_cell_angle_alpha 90.000000
_cell_angle_beta 90.000000
_cell_angle_gamma 90.000000
_cell_volume 3279.976032
_symmetry_space_group_name_H-M "P N N M"
_symmetry_group_IT_number 58
_symmetry_cell_setting 'orthorhombic'
loop_
_space_group_symop_operation_xyz
x,y,z
-x,-y,z
1/2+x,1/2-y,1/2-z
1/2-x,1/2+y,1/2-z
-x,-y,-z
x,y,-z
1/2-x,1/2+y,1/2+z
1/2+x,1/2-y,1/2+z
loop_
_atom_site_type_symbol
_atom_site_label
_atom_site_fract_x
_atom_site_fract_y
_atom_site_fract_z
Si Si1 0.722403 0.202123 0.168547
Si Si2 0.768875 0.516429 0.161156
Si Si3 0.967573 0.557942 0.160916
Si Si4 0.659392 0.598889 0.664018
Si Si5 0.966406 0.942866 0.835638
Si Si6 0.261475 0.584117 0.668073
Si Si7 0.481864 0.836005 0.165492
Si Si8 0.817272 0.298398 0.664385
O O1 0.788567 0.152618 0.220756
O O2 0.614710 0.192111 0.218085
O O3 0.761634 0.255874 0.240646
O O4 0.728501 0.209965 0.000000
O O5 0.855114 0.558343 0.161216
O O6 0.686078 0.545512 0.246928
O O7 0.797059 0.460624 0.242498
O O8 0.736854 0.503325 0.000000
O O9 0.000000 0.500000 0.225401
O O10 0.003747 0.607738 0.254752
O O11 0.007517 0.564443 0.000000
O O12 0.687625 0.588321 0.500000
O O13 0.546716 0.603713 0.682698
O O14 0.868888 0.919916 0.773506
O O15 0.946831 0.955309 0.000000
O O16 0.000000 0.000000 0.763769
O O17 0.250839 0.572696 0.500000
O O18 0.221208 0.642688 0.707751
O O19 0.570302 0.796020 0.193409
O O20 0.473601 0.851237 0.000000
O O21 0.795654 0.285316 0.500000
#
# Coordination Sequence:
#
# PCOD8236595 Si02
#       8
#     8   8   8   8   8   8   8   8
#     4  10  22  39  61  84 112 151 195 237 283 343
#     4  11  21  32  52  83 115 145 181 232 286 338
#     4  10  21  35  53  82 117 152 189 231 284 344
#     4  10  19  35  57  80 107 147 192 233 275 330
#     4   9  16  29  54  81 107 143 189 233 270 324
#     4  10  20  36  56  80 111 151 191 231 282 343
#     4  10  21  39  60  86 115 147 191 240 288 340
#     4  10  23  40  60  86 116 148 190 242 289 335
#
# _framework density 19.512336999999999
#
# number of rings (size 3 to 8) (size 9 to 14) (size 15 to 20)
#    0.000    2.000    2.500    1.125    0.000    3.750 
#    0.000    2.500    0.000    0.000    0.000    0.000 
#    0.000    0.000    0.000    0.000    0.000    0.000 
#
# Total GULP energy -793484.675025 kJ/mol
# GULP energy per Si atom -12398.198047 kJ/mol
# Density = 1.946793 g / cm^3
# Si number density = 19.512337 Si / 1000 Ang^3
#
#
#
# Elastic Constant Matrix: (Units=GPa)
#
#
# Indices 1 2 3 4 5 6 
#
# 1 91.7002 33.8359 16.9745 0.0000 0.0000 0.0000
# 2 33.8359 104.6932 45.6012 0.0000 0.0000 0.0000
# 3 16.9745 45.6012 60.6762 0.0000 0.0000 0.0000
# 4 0.0000 0.0000 0.0000 36.7851 0.0000 0.0000
# 5 0.0000 0.0000 0.0000 0.0000 14.0205 0.0000
# 6 0.0000 0.0000 0.0000 0.0000 0.0000 31.7363
#
#
#
# Elastic Compliance Matrix: (Units=1/GPa)
#
#
# Indices 1 2 3 4 5 6 
#
# 1 0.012400 -0.003712 -0.000680 0.000000 0.000000 0.000000
# 2 -0.003712 0.015311 -0.010469 0.000000 0.000000 0.000000
# 3 -0.000680 -0.010469 0.024539 0.000000 0.000000 0.000000
# 4 0.000000 0.000000 0.000000 0.027185 0.000000 0.000000
# 5 0.000000 0.000000 0.000000 0.000000 0.071324 0.000000
# 6 0.000000 0.000000 0.000000 0.000000 0.000000 0.031510
#
#
# Mechanical properties :
#
#
# Convention : Reuss Voigt Hill
#
# Bulk Modulus (GPa) = 44.38445 49.98811 47.18628
# Shear Modulus (GPa) = 22.77911 27.21892 24.99902
#
# Velocity S-wave (km/s) = 3.42046 3.73897 3.58325
# Velocity P-wave (km/s) = 6.19642 6.65689 6.43078
#
# Compressibility (1/GPa) = 0.02253042
#
# Stress axis : x y z
#
# Youngs Moduli (GPa) = 80.64217 65.31172 40.75174
#
# Poissons Ratio (x) = 0.24242 0.02769
# Poissons Ratio (y) = 0.29932 0.42662
# Poissons Ratio (z) = 0.05480 0.68373
#
# Static dielectric constant tensor:
#      x y z
#    x 3.800030 0.000000 0.000000 
#    y 0.000000 3.362390 0.000000 
#    z 0.000000 0.000000 3.341900 
# 
# 
# High freq. dielectric constant tensor:
#      x y z
#    x 1.775910 0.000000 0.000000 
#    y 0.000000 1.744420 0.000000 
#    z 0.000000 0.000000 1.736970 
# 
# From -- ./inp_files/6964.got.cif
#   From: 2010.06.25/outbox.cif.g09.slc.cpg/sg58_4_cif.got.tgz:6964.got - 2010.06.26 21:38:00.
