data_PCOD8236880
_publ_section_title
;
Structure prediction by ZEFSAII (Michael W. Deem and Ramdas Pophale) SiO2 
 PCOD8236880
Probable space group: P N N M
;
_chemical_formula_sum "Si O2"
_cell_formula_units_Z 36
_cell_length_a 13.964236
_cell_length_b 4.963514
_cell_length_c 25.147932
_cell_angle_alpha 90.000000
_cell_angle_beta 90.000000
_cell_angle_gamma 90.000000
_cell_volume 1743.045438
_symmetry_space_group_name_H-M "P N N M"
_symmetry_group_IT_number 58
_symmetry_cell_setting 'orthorhombic'
loop_
_space_group_symop_operation_xyz
x,y,z
-x,-y,z
1/2+x,1/2-y,1/2-z
1/2-x,1/2+y,1/2-z
-x,-y,-z
x,y,-z
1/2-x,1/2+y,1/2+z
1/2+x,1/2-y,1/2+z
loop_
_atom_site_type_symbol
_atom_site_label
_atom_site_fract_x
_atom_site_fract_y
_atom_site_fract_z
Si Si1 0.562192 0.763976 0.180513
Si Si2 0.307553 0.991278 0.735255
Si Si3 0.568315 0.246031 0.000000
Si Si4 0.252207 0.287443 0.441504
Si Si5 0.238012 0.295625 0.874075
O O1 0.500000 0.500000 0.192500
O O2 0.598089 0.892164 0.236604
O O3 0.651196 0.685825 0.143482
O O4 0.500000 0.000000 0.152422
O O5 0.232970 0.241599 0.729411
O O6 0.328215 0.867303 0.676763
O O7 0.500000 0.500000 0.000000
O O8 0.500000 0.000000 0.000000
O O9 0.636295 0.231249 0.947757
O O10 0.298122 0.346272 0.500000
O O11 0.284795 0.502779 0.397589
O O12 0.287031 0.999031 0.421276
#
# Coordination Sequence:
#
# PCOD8236880 Si02
#       5
#     8   8   4   8   8
#     4  11  22  34  52  79 107 134 174 220 261 322
#     4  10  20  36  55  75 103 137 175 219 273 314
#     4  10  20  32  44  62  98 138 166 210 258 278
#     4  10  22  33  49  71 100 135 184 224 238 294
#     4  11  20  36  53  73 102 144 178 214 259 314
#
# _framework density 20.653507000000001
#
# number of rings (size 3 to 8) (size 9 to 14) (size 15 to 20)
#    0.667    0.889    0.000    8.667    0.000    5.333 
#    0.000    0.000    0.000    0.000    0.000    0.000 
#    0.000   17.778    0.000    0.000    0.000    0.000 
#
# Total GULP energy -446089.498397 kJ/mol
# GULP energy per Si atom -12391.374955 kJ/mol
# Density = 2.060650 g / cm^3
# Si number density = 20.653507 Si / 1000 Ang^3
#
#
#
# Elastic Constant Matrix: (Units=GPa)
#
#
# Indices 1 2 3 4 5 6 
#
# 1 13.1012 8.4564 3.9074 0.0000 0.0000 0.0000
# 2 8.4564 134.3411 28.8891 0.0000 0.0000 0.0000
# 3 3.9074 28.8891 104.2414 0.0000 0.0000 0.0000
# 4 0.0000 0.0000 0.0000 44.9358 0.0000 0.0000
# 5 0.0000 0.0000 0.0000 0.0000 20.5017 0.0000
# 6 0.0000 0.0000 0.0000 0.0000 0.0000 26.8128
#
#
#
# Elastic Compliance Matrix: (Units=1/GPa)
#
#
# Indices 1 2 3 4 5 6 
#
# 1 0.079845 -0.004660 -0.001701 0.000000 0.000000 0.000000
# 2 -0.004660 0.008187 -0.002094 0.000000 0.000000 0.000000
# 3 -0.001701 -0.002094 0.010237 0.000000 0.000000 0.000000
# 4 0.000000 0.000000 0.000000 0.022254 0.000000 0.000000
# 5 0.000000 0.000000 0.000000 0.000000 0.048777 0.000000
# 6 0.000000 0.000000 0.000000 0.000000 0.000000 0.037296
#
#
# Mechanical properties :
#
#
# Convention : Reuss Voigt Hill
#
# Bulk Modulus (GPa) = 12.29142 37.13215 24.71178
# Shear Modulus (GPa) = 19.95002 32.47876 26.21439
#
# Velocity S-wave (km/s) = 3.11133 3.96985 3.56651
# Velocity P-wave (km/s) = 4.34411 6.24744 5.38061
#
# Compressibility (1/GPa) = 0.08135758
#
# Stress axis : x y z
#
# Youngs Moduli (GPa) = 12.52434 122.13800 97.68178
#
# Poissons Ratio (x) = 0.56918 0.16619
# Poissons Ratio (y) = 0.05836 0.20458
# Poissons Ratio (z) = 0.02131 0.25580
#
# Static dielectric constant tensor:
#      x y z
#    x 3.231520 0.000000 0.000000 
#    y 0.000000 3.940770 0.000000 
#    z 0.000000 0.000000 3.589190 
# 
# 
# High freq. dielectric constant tensor:
#      x y z
#    x 1.738610 0.000000 0.000000 
#    y 0.000000 1.837610 0.000000 
#    z 0.000000 0.000000 1.807020 
# 
# From -- ./inp_files/31797.got.cif
#   From: 2010.06.25/outbox.cif.g09.slc.cpg/sg58_16_cif.got.tgz:31797.got - 2010.06.26 21:38:00.
