data_PCOD8236879
_publ_section_title
;
Structure prediction by ZEFSAII (Michael W. Deem and Ramdas Pophale) SiO2 
 PCOD8236879
Probable space group: P N N M
;
_chemical_formula_sum "Si O2"
_cell_formula_units_Z 48
_cell_length_a 9.646788
_cell_length_b 8.614474
_cell_length_c 27.623892
_cell_angle_alpha 90.000000
_cell_angle_beta 90.000000
_cell_angle_gamma 90.000000
_cell_volume 2295.600795
_symmetry_space_group_name_H-M "P N N M"
_symmetry_group_IT_number 58
_symmetry_cell_setting 'orthorhombic'
loop_
_space_group_symop_operation_xyz
x,y,z
-x,-y,z
1/2+x,1/2-y,1/2-z
1/2-x,1/2+y,1/2-z
-x,-y,-z
x,y,-z
1/2-x,1/2+y,1/2+z
1/2+x,1/2-y,1/2+z
loop_
_atom_site_type_symbol
_atom_site_label
_atom_site_fract_x
_atom_site_fract_y
_atom_site_fract_z
Si Si1 0.867242 0.893258 0.552293
Si Si2 0.200606 0.317133 0.056064
Si Si3 0.873143 0.108727 0.211913
Si Si4 0.206176 0.688004 0.301500
Si Si5 0.040691 0.672348 0.394447
Si Si6 0.032942 0.320591 0.853815
O O1 0.838160 0.812823 0.500000
O O2 0.900891 0.769803 0.594036
O O3 0.736846 0.001321 0.566558
O O4 0.000000 0.000000 0.546070
O O5 0.332080 0.212056 0.069907
O O6 0.068812 0.279738 0.090135
O O7 0.161467 0.288816 0.000000
O O8 0.842441 0.240390 0.251180
O O9 0.910002 0.203955 0.162722
O O10 0.742181 0.995629 0.203200
O O11 0.000000 0.000000 0.229313
O O12 0.079205 0.702831 0.338813
O O13 0.335135 0.786653 0.320278
O O14 0.000000 0.500000 0.405780
O O15 0.000000 0.500000 0.845958
#
# Coordination Sequence:
#
# PCOD8236879 Si02
#       6
#     8   8   8   8   8   8
#     4   8  15  30  51  76 109 143 175 217 266 320
#     4   9  19  36  56  80 111 148 188 226 268 325
#     4  10  22  39  58  81 112 146 186 231 282 337
#     4  10  22  38  57  81 111 146 185 231 281 339
#     4  10  20  31  52  84 114 141 178 227 280 332
#     4  10  21  37  59  82 109 145 188 235 278 323
#
# _framework density 20.909559000000002
#
# number of rings (size 3 to 8) (size 9 to 14) (size 15 to 20)
#    0.000    2.500    0.000    2.500    0.000    9.667 
#    0.000    0.000    0.000   13.500    0.000    0.000 
#    0.000    0.000    0.000    0.000    0.000    0.000 
#
# Total GULP energy -594978.336070 kJ/mol
# GULP energy per Si atom -12395.382001 kJ/mol
# Density = 2.086197 g / cm^3
# Si number density = 20.909559 Si / 1000 Ang^3
#
#
#
# Elastic Constant Matrix: (Units=GPa)
#
#
# Indices 1 2 3 4 5 6 
#
# 1 42.4802 39.0720 54.3849 0.0000 0.0000 0.0000
# 2 39.0720 131.8828 71.2638 0.0000 0.0000 0.0000
# 3 54.3849 71.2638 163.6013 0.0000 0.0000 0.0000
# 4 0.0000 0.0000 0.0000 -48.0335 0.0000 0.0000
# 5 0.0000 0.0000 0.0000 0.0000 16.4130 0.0000
# 6 0.0000 0.0000 0.0000 0.0000 0.0000 28.5290
#
#
#
# Elastic Compliance Matrix: (Units=1/GPa)
#
#
# Indices 1 2 3 4 5 6 
#
# 1 0.045341 -0.006916 -0.012060 0.000000 0.000000 0.000000
# 2 -0.006916 0.010972 -0.002480 0.000000 0.000000 0.000000
# 3 -0.012060 -0.002480 0.011202 0.000000 0.000000 0.000000
# 4 0.000000 0.000000 0.000000 -0.020819 0.000000 0.000000
# 5 0.000000 0.000000 0.000000 0.000000 0.060927 0.000000
# 6 0.000000 0.000000 0.000000 0.000000 0.000000 0.035052
#
#
# Mechanical properties :
#
#
# Convention : Reuss Voigt Hill
#
# Bulk Modulus (GPa) = 40.64668 74.15618 57.40143
# Shear Modulus (GPa) = 25.80137 10.93128 18.36632
#
# Velocity S-wave (km/s) = 3.51657 2.28894 2.96695
# Velocity P-wave (km/s) = 5.99749 6.52134 6.26489
#
# Compressibility (1/GPa) = 0.02460225
#
# Stress axis : x y z
#
# Youngs Moduli (GPa) = 22.05496 91.14388 89.27252
#
# Poissons Ratio (x) = 0.63039 1.07661
# Poissons Ratio (y) = 0.15254 0.22140
# Poissons Ratio (z) = 0.26598 0.22604
#
# Static dielectric constant tensor:
#      x y z
#    x 3.802100 0.000000 0.000000 
#    y 0.000000 3.891700 0.000000 
#    z 0.000000 0.000000 3.839720 
# 
# 
# High freq. dielectric constant tensor:
#      x y z
#    x 1.799060 0.000000 0.000000 
#    y 0.000000 1.815310 0.000000 
#    z 0.000000 0.000000 1.818790 
# 
# From -- ./inp_files/31900.got.cif
#   From: 2010.06.25/outbox.cif.g09.slc.cpg/sg58_16_cif.got.tgz:31900.got - 2010.06.26 21:38:00.
