data_PCOD8236521
_publ_section_title
;
Structure prediction by ZEFSAII (Michael W. Deem and Ramdas Pophale) SiO2 
 PCOD8236521
Probable space group: P N N M
;
_chemical_formula_sum "Si O2"
_cell_formula_units_Z 56
_cell_length_a 14.295225
_cell_length_b 22.640616
_cell_length_c 8.919935
_cell_angle_alpha 90.000000
_cell_angle_beta 90.000000
_cell_angle_gamma 90.000000
_cell_volume 2886.961045
_symmetry_space_group_name_H-M "P N N M"
_symmetry_group_IT_number 58
_symmetry_cell_setting 'orthorhombic'
loop_
_space_group_symop_operation_xyz
x,y,z
-x,-y,z
1/2+x,1/2-y,1/2-z
1/2-x,1/2+y,1/2-z
-x,-y,-z
x,y,-z
1/2-x,1/2+y,1/2+z
1/2+x,1/2-y,1/2+z
loop_
_atom_site_type_symbol
_atom_site_label
_atom_site_fract_x
_atom_site_fract_y
_atom_site_fract_z
Si Si1 0.105306 0.498895 0.822039
Si Si2 0.712853 0.117738 0.676515
Si Si3 0.902380 0.719024 0.676968
Si Si4 0.726751 0.891717 0.675149
Si Si5 0.109631 0.849692 0.828041
Si Si6 0.407556 0.214151 0.327656
Si Si7 0.101673 0.155647 0.175536
O O1 0.157862 0.440112 0.767805
O O2 0.162379 0.555448 0.762011
O O3 0.000000 0.500000 0.755463
O O4 0.100356 0.501725 0.000000
O O5 0.702258 0.126444 0.500000
O O6 0.674184 0.173994 0.763123
O O7 0.822125 0.112221 0.721816
O O8 0.894779 0.722647 0.500000
O O9 0.879562 0.782906 0.742432
O O10 0.004626 0.696569 0.725490
O O11 0.747282 0.900098 0.500000
O O12 0.676605 0.829707 0.709753
O O13 0.825101 0.892593 0.763084
O O14 0.125627 0.780373 0.794123
O O15 0.002934 0.867493 0.789877
O O16 0.133248 0.864102 0.000000
O O17 0.440350 0.207664 0.500000
O O18 0.115204 0.166105 0.000000
#
# Coordination Sequence:
#
# PCOD8236521 Si02
#       7
#     8   8   8   8   8   8   8
#     4   9  19  36  57  81 109 142 179 218 263 316
#     4  11  21  34  55  80 107 143 185 226 268 316
#     4  11  21  33  53  81 112 144 178 220 270 323
#     4  10  19  34  58  83 109 143 182 224 268 316
#     4   9  19  35  53  77 109 141 176 221 272 324
#     4   9  18  33  54  80 109 141 176 217 269 325
#     4  10  21  37  56  79 109 142 177 220 270 325
#
# _framework density 19.397561
#
# number of rings (size 3 to 8) (size 9 to 14) (size 15 to 20)
#    0.000    2.143    0.000    4.714    0.000    6.857 
#    0.000    2.143    0.000    7.286    0.000    0.000 
#    0.000    0.000    0.000    0.000    0.000    0.000 
#
# Total GULP energy -694538.540892 kJ/mol
# GULP energy per Si atom -12402.473944 kJ/mol
# Density = 1.935341 g / cm^3
# Si number density = 19.397561 Si / 1000 Ang^3
#
#
#
# Elastic Constant Matrix: (Units=GPa)
#
#
# Indices 1 2 3 4 5 6 
#
# 1 157.5764 69.5010 57.7668 0.0000 0.0000 0.0000
# 2 69.5010 66.6969 33.8556 0.0000 0.0000 0.0000
# 3 57.7668 33.8556 83.2907 0.0000 0.0000 0.0000
# 4 0.0000 0.0000 0.0000 16.8613 0.0000 0.0000
# 5 0.0000 0.0000 0.0000 0.0000 38.0801 0.0000
# 6 0.0000 0.0000 0.0000 0.0000 0.0000 31.9277
#
#
#
# Elastic Compliance Matrix: (Units=1/GPa)
#
#
# Indices 1 2 3 4 5 6 
#
# 1 0.012903 -0.011217 -0.004389 0.000000 0.000000 0.000000
# 2 -0.011217 0.028643 -0.003863 0.000000 0.000000 0.000000
# 3 -0.004389 -0.003863 0.016620 0.000000 0.000000 0.000000
# 4 0.000000 0.000000 0.000000 0.059308 0.000000 0.000000
# 5 0.000000 0.000000 0.000000 0.000000 0.026260 0.000000
# 6 0.000000 0.000000 0.000000 0.000000 0.000000 0.031321
#
#
# Mechanical properties :
#
#
# Convention : Reuss Voigt Hill
#
# Bulk Modulus (GPa) = 52.00899 69.97895 60.99397
# Shear Modulus (GPa) = 22.68582 27.13653 24.91117
#
# Velocity S-wave (km/s) = 3.42353 3.74433 3.58752
# Velocity P-wave (km/s) = 6.51903 7.40593 6.97659
#
# Compressibility (1/GPa) = 0.01922745
#
# Stress axis : x y z
#
# Youngs Moduli (GPa) = 77.50344 34.91292 60.16677
#
# Poissons Ratio (x) = 0.39162 0.26409
# Poissons Ratio (y) = 0.86937 0.23241
# Poissons Ratio (z) = 0.34018 0.13486
#
# Static dielectric constant tensor:
#      x y z
#    x 3.753730 0.000000 0.000000 
#    y 0.000000 3.423280 0.000000 
#    z 0.000000 0.000000 3.344490 
# 
# 
# High freq. dielectric constant tensor:
#      x y z
#    x 1.771150 0.000000 0.000000 
#    y 0.000000 1.734890 0.000000 
#    z 0.000000 0.000000 1.737930 
# 
# From -- ./inp_files/6423.got.cif
#   From: 2010.06.25/outbox.cif.g09.slc.cpg/sg58_4_cif.got.tgz:6423.got - 2010.06.26 21:38:00.
