data_PCOD8236263
_publ_section_title
;
Structure prediction by ZEFSAII (Michael W. Deem and Ramdas Pophale) SiO2 
 PCOD8236263
Probable space group: P N N M
;
_chemical_formula_sum "Si O2"
_cell_formula_units_Z 64
_cell_length_a 8.239378
_cell_length_b 27.702431
_cell_length_c 13.364688
_cell_angle_alpha 90.000000
_cell_angle_beta 90.000000
_cell_angle_gamma 90.000000
_cell_volume 3050.500735
_symmetry_space_group_name_H-M "P N N M"
_symmetry_group_IT_number 58
_symmetry_cell_setting 'orthorhombic'
loop_
_space_group_symop_operation_xyz
x,y,z
-x,-y,z
1/2+x,1/2-y,1/2-z
1/2-x,1/2+y,1/2-z
-x,-y,-z
x,y,-z
1/2-x,1/2+y,1/2+z
1/2+x,1/2-y,1/2+z
loop_
_atom_site_type_symbol
_atom_site_label
_atom_site_fract_x
_atom_site_fract_y
_atom_site_fract_z
Si Si1 0.693201 0.879256 0.387690
Si Si2 0.909307 0.547762 0.109585
Si Si3 0.145480 0.065200 0.224977
Si Si4 0.783280 0.752885 0.882715
Si Si5 0.779137 0.037637 0.793749
Si Si6 0.534896 0.351589 0.389212
Si Si7 0.533559 0.805968 0.251871
Si Si8 0.179718 0.371140 0.384733
O O1 0.753793 0.866633 0.500000
O O2 0.520302 0.905144 0.390957
O O3 0.821177 0.917021 0.338528
O O4 0.670599 0.829976 0.323921
O O5 0.761844 0.557042 0.183370
O O6 0.000000 0.500000 0.147976
O O7 0.836513 0.538044 0.000000
O O8 0.968156 0.046802 0.199651
O O9 0.170657 0.113463 0.159724
O O10 0.260709 0.019838 0.194189
O O11 0.619383 0.765114 0.818810
O O12 0.900226 0.798262 0.885826
O O13 0.887788 0.713306 0.822382
O O14 0.744072 0.737628 0.000000
O O15 0.677694 0.070162 0.872577
O O16 0.511171 0.371611 0.500000
O O17 0.354119 0.352652 0.341297
O O18 0.462517 0.846868 0.178753
O O19 0.151025 0.357086 0.500000
#
# Coordination Sequence:
#
# PCOD8236263 Si02
#       8
#     8   8   8   8   8   8   8   8
#     4  11  22  37  58  84 117 158 202 245 299 364
#     4  10  19  33  54  79 113 160 201 239 293 350
#     4  10  20  35  57  87 122 162 200 246 301 352
#     4  11  24  42  67  96 122 158 207 258 316 378
#     4  10  20  34  57  88 123 158 203 252 291 353
#     4   9  19  38  61  85 119 160 199 243 304 365
#     4  12  23  42  67  88 125 158 200 259 315 372
#     4  10  21  38  61  88 122 164 203 247 306 367
#
# _framework density 20.980162
#
# number of rings (size 3 to 8) (size 9 to 14) (size 15 to 20)
#    0.000    1.625    3.750    1.500    0.000    1.000 
#    0.000    5.625    0.000    1.125    0.000    0.000 
#    0.000    0.000    0.000    0.000    0.000    0.000 
#
# Total GULP energy -792924.294411 kJ/mol
# GULP energy per Si atom -12389.442100 kJ/mol
# Density = 2.093241 g / cm^3
# Si number density = 20.980162 Si / 1000 Ang^3
#
#
#
# Elastic Constant Matrix: (Units=GPa)
#
#
# Indices 1 2 3 4 5 6 
#
# 1 27.8495 11.7020 19.9323 0.0000 0.0000 0.0000
# 2 11.7020 74.5549 37.2186 0.0000 0.0000 0.0000
# 3 19.9323 37.2186 100.1980 0.0000 0.0000 0.0000
# 4 0.0000 0.0000 0.0000 29.1204 0.0000 0.0000
# 5 0.0000 0.0000 0.0000 0.0000 32.7931 0.0000
# 6 0.0000 0.0000 0.0000 0.0000 0.0000 29.1172
#
#
#
# Elastic Compliance Matrix: (Units=1/GPa)
#
#
# Indices 1 2 3 4 5 6 
#
# 1 0.042408 -0.003001 -0.007321 0.000000 0.000000 0.000000
# 2 -0.003001 0.016679 -0.005598 0.000000 0.000000 0.000000
# 3 -0.007321 -0.005598 0.013516 0.000000 0.000000 0.000000
# 4 0.000000 0.000000 0.000000 0.034340 0.000000 0.000000
# 5 0.000000 0.000000 0.000000 0.000000 0.030494 0.000000
# 6 0.000000 0.000000 0.000000 0.000000 0.000000 0.034344
#
#
# Mechanical properties :
#
#
# Convention : Reuss Voigt Hill
#
# Bulk Modulus (GPa) = 24.53314 37.81202 31.17258
# Shear Modulus (GPa) = 23.01911 27.12280 25.07096
#
# Velocity S-wave (km/s) = 3.31597 3.59943 3.46060
# Velocity P-wave (km/s) = 5.13612 5.94444 5.55501
#
# Compressibility (1/GPa) = 0.04076120
#
# Stress axis : x y z
#
# Youngs Moduli (GPa) = 23.58020 59.95661 73.98566
#
# Poissons Ratio (x) = 0.17996 0.54168
# Poissons Ratio (y) = 0.07077 0.41419
# Poissons Ratio (z) = 0.17264 0.33565
#
# Static dielectric constant tensor:
#      x y z
#    x 3.619010 0.000000 0.000000 
#    y 0.000000 4.138610 0.000000 
#    z 0.000000 0.000000 4.063350 
# 
# 
# High freq. dielectric constant tensor:
#      x y z
#    x 1.800860 0.000000 0.000000 
#    y 0.000000 1.822740 0.000000 
#    z 0.000000 0.000000 1.822520 
# 
# From -- ./inp_files/13406.got.cif
#   From: 2010.06.25/outbox.cif.g09.slc.cpg/sg58_7_cif.got.tgz:13406.got - 2010.06.26 21:38:00.
