data_PCOD8236362
_publ_section_title
;
Structure prediction by ZEFSAII (Michael W. Deem and Ramdas Pophale) SiO2 
 PCOD8236362
Probable space group: P N N M
;
_chemical_formula_sum "Si O2"
_cell_formula_units_Z 64
_cell_length_a 20.594684
_cell_length_b 18.280819
_cell_length_c 9.115073
_cell_angle_alpha 90.000000
_cell_angle_beta 90.000000
_cell_angle_gamma 90.000000
_cell_volume 3431.712783
_symmetry_space_group_name_H-M "P N N M"
_symmetry_group_IT_number 58
_symmetry_cell_setting 'orthorhombic'
loop_
_space_group_symop_operation_xyz
x,y,z
-x,-y,z
1/2+x,1/2-y,1/2-z
1/2-x,1/2+y,1/2-z
-x,-y,-z
x,y,-z
1/2-x,1/2+y,1/2+z
1/2+x,1/2-y,1/2+z
loop_
_atom_site_type_symbol
_atom_site_label
_atom_site_fract_x
_atom_site_fract_y
_atom_site_fract_z
Si Si1 0.258840 0.090280 0.169394
Si Si2 0.869053 0.673944 0.669545
Si Si3 0.506283 0.183933 0.668452
Si Si4 0.639940 0.657076 0.831452
Si Si5 0.997808 0.829076 0.335160
Si Si6 0.750005 0.578943 0.669723
Si Si7 0.362332 0.188323 0.327731
Si Si8 0.642098 0.345863 0.834324
O O1 0.310894 0.130832 0.268898
O O2 0.186653 0.112238 0.219303
O O3 0.269160 0.004676 0.194118
O O4 0.267893 0.112114 0.000000
O O5 0.876204 0.656231 0.500000
O O6 0.935993 0.644603 0.742311
O O7 0.808193 0.628907 0.733454
O O8 0.857606 0.759378 0.701453
O O9 0.524519 0.175538 0.500000
O O10 0.503493 0.268733 0.709789
O O11 0.433864 0.153388 0.702038
O O12 0.565439 0.626981 0.818265
O O13 0.684722 0.596174 0.758102
O O14 0.648179 0.735022 0.753433
O O15 0.660238 0.667051 0.000000
O O16 0.995370 0.793045 0.500000
O O17 0.931982 0.876973 0.316867
O O18 0.736785 0.596687 0.500000
O O19 0.351160 0.201958 0.500000
O O20 0.667571 0.359182 0.000000
#
# Coordination Sequence:
#
# PCOD8236362 Si02
#       8
#     8   8   8   8   8   8   8   8
#     4  11  23  36  51  74 104 139 181 221 252 297
#     4   9  18  34  55  75  99 134 170 206 255 312
#     4   9  17  29  50  80 105 126 161 210 258 303
#     4  10  19  33  57  84 104 129 171 216 255 304
#     4   8  16  31  51  77 105 131 163 205 254 308
#     4  10  22  38  52  72 106 143 176 213 260 307
#     4  10  20  35  55  78 106 138 168 206 261 313
#     4   9  17  32  55  78 101 132 168 209 261 314
#
# _framework density 18.64958
#
# number of rings (size 3 to 8) (size 9 to 14) (size 15 to 20)
#    0.000    2.500    0.000    3.000    0.000    6.500 
#    0.000    1.250    0.000    7.500    0.000    0.000 
#    0.000    0.000    0.000    0.000    0.000    0.000 
#
# Total GULP energy -793273.853837 kJ/mol
# GULP energy per Si atom -12394.903966 kJ/mol
# Density = 1.860713 g / cm^3
# Si number density = 18.649580 Si / 1000 Ang^3
#
#
#
# Elastic Constant Matrix: (Units=GPa)
#
#
# Indices 1 2 3 4 5 6 
#
# 1 111.2055 13.6620 42.5662 0.0000 0.0000 0.0000
# 2 13.6620 30.4180 21.5967 0.0000 0.0000 0.0000
# 3 42.5662 21.5967 73.9210 0.0000 0.0000 0.0000
# 4 0.0000 0.0000 0.0000 22.4352 0.0000 0.0000
# 5 0.0000 0.0000 0.0000 0.0000 35.2499 0.0000
# 6 0.0000 0.0000 0.0000 0.0000 0.0000 3.6865
#
#
#
# Elastic Compliance Matrix: (Units=1/GPa)
#
#
# Indices 1 2 3 4 5 6 
#
# 1 0.011543 -0.000587 -0.006475 0.000000 0.000000 0.000000
# 2 -0.000587 0.041509 -0.011789 0.000000 0.000000 0.000000
# 3 -0.006475 -0.011789 0.020701 0.000000 0.000000 0.000000
# 4 0.000000 0.000000 0.000000 0.044573 0.000000 0.000000
# 5 0.000000 0.000000 0.000000 0.000000 0.028369 0.000000
# 6 0.000000 0.000000 0.000000 0.000000 0.000000 0.271257
#
#
# Mechanical properties :
#
#
# Convention : Reuss Voigt Hill
#
# Bulk Modulus (GPa) = 27.73925 41.24382 34.49154
# Shear Modulus (GPa) = 10.69125 21.45563 16.07344
#
# Velocity S-wave (km/s) = 2.39690 3.39553 2.93894
# Velocity P-wave (km/s) = 4.75041 6.12666 5.48190
#
# Compressibility (1/GPa) = 0.03605001
#
# Stress axis : x y z
#
# Youngs Moduli (GPa) = 86.63213 24.09101 48.30671
#
# Poissons Ratio (x) = 0.01414 0.31280
# Poissons Ratio (y) = 0.05085 0.56950
# Poissons Ratio (z) = 0.56098 0.28402
#
# Static dielectric constant tensor:
#      x y z
#    x 3.888430 0.000000 0.000000 
#    y 0.000000 2.985380 0.000000 
#    z 0.000000 0.000000 3.474180 
# 
# 
# High freq. dielectric constant tensor:
#      x y z
#    x 1.747870 0.000000 0.000000 
#    y 0.000000 1.673720 0.000000 
#    z 0.000000 0.000000 1.729220 
# 
# From -- ./inp_files/8394.got.cif
#   From: 2010.06.25/outbox.cif.g09.slc.cpg/sg58_5_cif.got.tgz:8394.got - 2010.06.26 21:38:00.
