data_PCOD8236196
_publ_section_title
;
Structure prediction by ZEFSAII (Michael W. Deem and Ramdas Pophale) SiO2 
 PCOD8236196
Probable space group: P N N M
;
_chemical_formula_sum "Si O2"
_cell_formula_units_Z 56
_cell_length_a 14.564982
_cell_length_b 22.021395
_cell_length_c 8.988239
_cell_angle_alpha 90.000000
_cell_angle_beta 90.000000
_cell_angle_gamma 90.000000
_cell_volume 2882.898759
_symmetry_space_group_name_H-M "P N N M"
_symmetry_group_IT_number 58
_symmetry_cell_setting 'orthorhombic'
loop_
_space_group_symop_operation_xyz
x,y,z
-x,-y,z
1/2+x,1/2-y,1/2-z
1/2-x,1/2+y,1/2-z
-x,-y,-z
x,y,-z
1/2-x,1/2+y,1/2+z
1/2+x,1/2-y,1/2+z
loop_
_atom_site_type_symbol
_atom_site_label
_atom_site_fract_x
_atom_site_fract_y
_atom_site_fract_z
Si Si1 0.682037 0.280108 0.823212
Si Si2 0.651289 0.464122 0.168543
Si Si3 0.512135 0.358508 0.166821
Si Si4 0.492255 0.068906 0.176852
Si Si5 0.795144 0.381800 0.323847
Si Si6 0.855489 0.087048 0.827290
Si Si7 0.336708 0.855352 0.826065
O O1 0.583758 0.307951 0.777598
O O2 0.764921 0.317780 0.748254
O O3 0.679927 0.211803 0.759254
O O4 0.697410 0.284520 0.000000
O O5 0.560959 0.423461 0.172680
O O6 0.731191 0.436554 0.270105
O O7 0.620627 0.528369 0.231933
O O8 0.687999 0.470179 0.000000
O O9 0.424233 0.359248 0.275539
O O10 0.478425 0.343550 0.000000
O O11 0.398191 0.101325 0.226530
O O12 0.575469 0.109827 0.242981
O O13 0.500000 0.000000 0.240201
O O14 0.499713 0.065897 0.000000
O O15 0.787261 0.376167 0.500000
O O16 0.751715 0.104696 0.791282
O O17 0.870703 0.073859 0.000000
O O18 0.352918 0.846495 0.000000
#
# Coordination Sequence:
#
# PCOD8236196 Si02
#       7
#     8   8   8   8   8   8   8
#     4   9  19  37  56  73 102 144 180 210 256 322
#     4  10  20  35  54  76 107 143 172 203 253 321
#     4   9  19  34  52  73 100 138 176 208 252 314
#     4   9  17  31  53  80 107 136 175 221 265 314
#     4  10  19  32  56  84 105 131 172 223 267 303
#     4  11  21  32  52  80 106 134 171 219 265 301
#     4   9  19  35  53  75 105 142 180 215 260 318
#
# _framework density 19.424893000000001
#
# number of rings (size 3 to 8) (size 9 to 14) (size 15 to 20)
#    0.000    2.429    0.000    3.429    0.000    8.000 
#    0.000    2.857    0.000   11.143    0.000    0.000 
#    0.000    0.000    0.000    0.000    0.000    0.000 
#
# Total GULP energy -694361.650570 kJ/mol
# GULP energy per Si atom -12399.315189 kJ/mol
# Density = 1.938068 g / cm^3
# Si number density = 19.424893 Si / 1000 Ang^3
#
#
#
# Elastic Constant Matrix: (Units=GPa)
#
#
# Indices 1 2 3 4 5 6 
#
# 1 104.3758 26.0380 37.2509 0.0000 0.0000 0.0000
# 2 26.0380 103.7759 25.6965 0.0000 0.0000 0.0000
# 3 37.2509 25.6965 49.4981 0.0000 0.0000 0.0000
# 4 0.0000 0.0000 0.0000 17.2007 0.0000 0.0000
# 5 0.0000 0.0000 0.0000 0.0000 22.5390 0.0000
# 6 0.0000 0.0000 0.0000 0.0000 0.0000 18.0329
#
#
#
# Elastic Compliance Matrix: (Units=1/GPa)
#
#
# Indices 1 2 3 4 5 6 
#
# 1 0.013185 -0.000977 -0.009415 0.000000 0.000000 0.000000
# 2 -0.000977 0.011130 -0.005043 0.000000 0.000000 0.000000
# 3 -0.009415 -0.005043 0.029907 0.000000 0.000000 0.000000
# 4 0.000000 0.000000 0.000000 0.058137 0.000000 0.000000
# 5 0.000000 0.000000 0.000000 0.000000 0.044367 0.000000
# 6 0.000000 0.000000 0.000000 0.000000 0.000000 0.055454
#
#
# Mechanical properties :
#
#
# Convention : Reuss Voigt Hill
#
# Bulk Modulus (GPa) = 42.82459 48.40229 45.61344
# Shear Modulus (GPa) = 19.93351 22.79881 21.36616
#
# Velocity S-wave (km/s) = 3.20689 3.42963 3.32013
# Velocity P-wave (km/s) = 5.98383 6.37612 6.18309
#
# Compressibility (1/GPa) = 0.02335107
#
# Stress axis : x y z
#
# Youngs Moduli (GPa) = 75.84542 89.84778 33.43743
#
# Poissons Ratio (x) = 0.08776 0.31483
# Poissons Ratio (y) = 0.07408 0.16862
# Poissons Ratio (z) = 0.71412 0.45310
#
# Static dielectric constant tensor:
#      x y z
#    x 3.562680 0.000000 0.000000 
#    y 0.000000 3.636310 0.000000 
#    z 0.000000 0.000000 3.272090 
# 
# 
# High freq. dielectric constant tensor:
#      x y z
#    x 1.761870 0.000000 0.000000 
#    y 0.000000 1.758380 0.000000 
#    z 0.000000 0.000000 1.726300 
# 
# From -- ./inp_files/6445.got.cif
#   From: 2010.06.25/outbox.cif.g09.slc.cpg/sg58_4_cif.got.tgz:6445.got - 2010.06.26 21:38:00.
