data_PCOD8236721
_publ_section_title
;
Structure prediction by ZEFSAII (Michael W. Deem and Ramdas Pophale) SiO2 
 PCOD8236721
Probable space group: P N N M
;
_chemical_formula_sum "Si O2"
_cell_formula_units_Z 64
_cell_length_a 9.275160
_cell_length_b 24.465572
_cell_length_c 13.842762
_cell_angle_alpha 90.000000
_cell_angle_beta 90.000000
_cell_angle_gamma 90.000000
_cell_volume 3141.228551
_symmetry_space_group_name_H-M "P N N M"
_symmetry_group_IT_number 58
_symmetry_cell_setting 'orthorhombic'
loop_
_space_group_symop_operation_xyz
x,y,z
-x,-y,z
1/2+x,1/2-y,1/2-z
1/2-x,1/2+y,1/2-z
-x,-y,-z
x,y,-z
1/2-x,1/2+y,1/2+z
1/2+x,1/2-y,1/2+z
loop_
_atom_site_type_symbol
_atom_site_label
_atom_site_fract_x
_atom_site_fract_y
_atom_site_fract_z
Si Si1 0.638724 0.965193 0.256102
Si Si2 0.048934 0.718005 0.399295
Si Si3 0.168376 0.204473 0.662696
Si Si4 0.048638 0.655060 0.799537
Si Si5 0.651150 0.530229 0.887959
Si Si6 0.769293 0.709977 0.187903
Si Si7 0.099838 0.052604 0.887544
Si Si8 0.947200 0.126818 0.740245
O O1 0.577182 0.908866 0.298349
O O2 0.747297 0.956682 0.165876
O O3 0.500000 0.000000 0.221068
O O4 0.720708 0.993476 0.345102
O O5 0.068402 0.684947 0.500000
O O6 0.050262 0.675898 0.311573
O O7 0.171901 0.765071 0.396548
O O8 0.900610 0.752904 0.412010
O O9 0.331119 0.186936 0.637323
O O10 0.158835 0.237397 0.763298
O O11 0.080467 0.148266 0.676082
O O12 0.895818 0.669435 0.849105
O O13 0.500000 0.500000 0.875460
O O14 0.642592 0.584945 0.825399
O O15 0.684673 0.543094 0.000000
O O16 0.664360 0.676351 0.262108
O O17 0.009968 0.102123 0.839460
O O18 0.129045 0.066106 0.000000
O O19 0.000000 0.000000 0.875472
#
# Coordination Sequence:
#
# PCOD8236721 Si02
#       8
#     8   8   8   8   8   8   8   8
#     4  12  23  40  62  88 129 163 197 259 320 364
#     4   9  19  36  58  85 115 151 202 250 287 358
#     4   9  18  35  59  82 113 152 194 240 295 355
#     4  10  19  36  58  84 115 161 191 234 307 367
#     4  11  22  39  64  92 119 159 214 256 303 375
#     4   9  20  34  58  86 114 155 196 233 298 364
#     4  11  23  41  64  89 117 156 213 260 294 361
#     4  11  18  39  63  85 120 163 203 248 308 360
#
# _framework density 20.374196000000001
#
# number of rings (size 3 to 8) (size 9 to 14) (size 15 to 20)
#    0.000    1.750    3.750    1.500    0.000    3.000 
#    0.000    4.375    0.000    0.000    0.000    0.000 
#    0.000    0.000    0.000    0.000    0.000    0.000 
#
# Total GULP energy -792954.828828 kJ/mol
# GULP energy per Si atom -12389.919200 kJ/mol
# Density = 2.032782 g / cm^3
# Si number density = 20.374196 Si / 1000 Ang^3
#
#
#
# Elastic Constant Matrix: (Units=GPa)
#
#
# Indices 1 2 3 4 5 6 
#
# 1 114.5644 23.3459 11.1960 0.0000 0.0000 0.0000
# 2 23.3459 79.9530 13.4653 0.0000 0.0000 0.0000
# 3 11.1960 13.4653 80.9128 0.0000 0.0000 0.0000
# 4 0.0000 0.0000 0.0000 14.3626 0.0000 0.0000
# 5 0.0000 0.0000 0.0000 0.0000 8.8882 0.0000
# 6 0.0000 0.0000 0.0000 0.0000 0.0000 39.9942
#
#
#
# Elastic Compliance Matrix: (Units=1/GPa)
#
#
# Indices 1 2 3 4 5 6 
#
# 1 0.009339 -0.002582 -0.000863 0.000000 0.000000 0.000000
# 2 -0.002582 0.013582 -0.001903 0.000000 0.000000 0.000000
# 3 -0.000863 -0.001903 0.012795 0.000000 0.000000 0.000000
# 4 0.000000 0.000000 0.000000 0.069625 0.000000 0.000000
# 5 0.000000 0.000000 0.000000 0.000000 0.112508 0.000000
# 6 0.000000 0.000000 0.000000 0.000000 0.000000 0.025004
#
#
# Mechanical properties :
#
#
# Convention : Reuss Voigt Hill
#
# Bulk Modulus (GPa) = 39.96613 41.27164 40.61888
# Shear Modulus (GPa) = 19.09212 27.81053 23.45133
#
# Velocity S-wave (km/s) = 3.06449 3.69858 3.39637
# Velocity P-wave (km/s) = 5.67275 6.20807 5.94644
#
# Compressibility (1/GPa) = 0.02502119
#
# Stress axis : x y z
#
# Youngs Moduli (GPa) = 107.07654 73.62857 78.15530
#
# Poissons Ratio (x) = 0.19009 0.06742
# Poissons Ratio (y) = 0.27644 0.14873
# Poissons Ratio (z) = 0.09237 0.14012
#
# Static dielectric constant tensor:
#      x y z
#    x 4.083380 0.000000 0.000000 
#    y 0.000000 3.799010 0.000000 
#    z 0.000000 0.000000 3.364930 
# 
# 
# High freq. dielectric constant tensor:
#      x y z
#    x 1.813760 0.000000 0.000000 
#    y 0.000000 1.804750 0.000000 
#    z 0.000000 0.000000 1.756370 
# 
# From -- ./inp_files/20305.got.cif
#   From: 2010.06.25/outbox.cif.g09.slc.cpg/sg58_11_cif.got.tgz:20305.got - 2010.06.26 21:38:00.
