data_PCOD8236934
_publ_section_title
;
Structure prediction by ZEFSAII (Michael W. Deem and Ramdas Pophale) SiO2 
 PCOD8236934
Probable space group: P N N M
;
_chemical_formula_sum "Si O2"
_cell_formula_units_Z 32
_cell_length_a 10.099267
_cell_length_b 20.075553
_cell_length_c 8.902830
_cell_angle_alpha 90.000000
_cell_angle_beta 90.000000
_cell_angle_gamma 90.000000
_cell_volume 1805.034270
_symmetry_space_group_name_H-M "P N N M"
_symmetry_group_IT_number 58
_symmetry_cell_setting 'orthorhombic'
loop_
_space_group_symop_operation_xyz
x,y,z
-x,-y,z
1/2+x,1/2-y,1/2-z
1/2-x,1/2+y,1/2-z
-x,-y,-z
x,y,-z
1/2-x,1/2+y,1/2+z
1/2+x,1/2-y,1/2+z
loop_
_atom_site_type_symbol
_atom_site_label
_atom_site_fract_x
_atom_site_fract_y
_atom_site_fract_z
Si Si1 0.115033 0.298725 0.822189
Si Si2 0.110015 0.803765 0.822520
Si Si3 0.100211 0.943476 0.323871
Si Si4 0.101128 0.447190 0.176034
O O1 0.253099 0.277709 0.747089
O O2 0.074283 0.372487 0.763718
O O3 0.002859 0.247641 0.771126
O O4 0.137430 0.299240 0.000000
O O5 0.067419 0.875929 0.763089
O O6 0.124568 0.806245 0.000000
O O7 0.083379 0.929007 0.500000
O O8 0.248480 0.968403 0.286465
O O9 0.000000 0.000000 0.267203
O O10 0.000000 0.500000 0.252934
O O11 0.075450 0.447279 0.000000
#
# Coordination Sequence:
#
# PCOD8236934 Si02
#       4
#     8   8   8   8
#     4   9  19  34  50  72 101 131 166 206 248 297
#     4  10  20  33  51  74 101 134 168 207 253 296
#     4   9  18  32  50  71  96 128 165 205 248 296
#     4   8  14  27  47  68  90 118 157 202 239 278
#
# _framework density 17.728194999999999
#
# number of rings (size 3 to 8) (size 9 to 14) (size 15 to 20)
#    0.000    3.000    0.000    2.250    0.000    4.500 
#    0.000    5.000    0.000   12.000    0.000    0.000 
#    0.000    0.000    0.000    0.000    0.000    0.000 
#
# Total GULP energy -396727.816489 kJ/mol
# GULP energy per Si atom -12397.744265 kJ/mol
# Density = 1.768784 g / cm^3
# Si number density = 17.728195 Si / 1000 Ang^3
#
#
#
# Elastic Constant Matrix: (Units=GPa)
#
#
# Indices 1 2 3 4 5 6 
#
# 1 156.4565 110.9177 39.7773 0.0000 0.0000 0.0000
# 2 110.9177 120.5340 34.4927 0.0000 0.0000 0.0000
# 3 39.7773 34.4927 34.5480 0.0000 0.0000 0.0000
# 4 0.0000 0.0000 0.0000 24.1340 0.0000 0.0000
# 5 0.0000 0.0000 0.0000 0.0000 22.1725 0.0000
# 6 0.0000 0.0000 0.0000 0.0000 0.0000 45.2868
#
#
#
# Elastic Compliance Matrix: (Units=1/GPa)
#
#
# Indices 1 2 3 4 5 6 
#
# 1 0.019316 -0.015975 -0.006290 0.000000 0.000000 0.000000
# 2 -0.015975 0.024826 -0.006394 0.000000 0.000000 0.000000
# 3 -0.006290 -0.006394 0.042572 0.000000 0.000000 0.000000
# 4 0.000000 0.000000 0.000000 0.041435 0.000000 0.000000
# 5 0.000000 0.000000 0.000000 0.000000 0.045101 0.000000
# 6 0.000000 0.000000 0.000000 0.000000 0.000000 0.022081
#
#
# Mechanical properties :
#
#
# Convention : Reuss Voigt Hill
#
# Bulk Modulus (GPa) = 34.01868 75.76822 54.89345
# Shear Modulus (GPa) = 19.05134 26.74204 22.89669
#
# Velocity S-wave (km/s) = 3.28172 3.88809 3.59770
# Velocity P-wave (km/s) = 5.79571 7.93649 6.94903
#
# Compressibility (1/GPa) = 0.02939561
#
# Stress axis : x y z
#
# Youngs Moduli (GPa) = 51.77065 40.27958 23.48986
#
# Poissons Ratio (x) = 0.64346 0.14776
# Poissons Ratio (y) = 0.82703 0.15019
# Poissons Ratio (z) = 0.32566 0.25754
#
# Static dielectric constant tensor:
#      x y z
#    x 3.447520 0.000000 0.000000 
#    y 0.000000 3.524490 0.000000 
#    z 0.000000 0.000000 2.998060 
# 
# 
# High freq. dielectric constant tensor:
#      x y z
#    x 1.691570 0.000000 0.000000 
#    y 0.000000 1.689820 0.000000 
#    z 0.000000 0.000000 1.657680 
# 
# From -- ./inp_files/2157.got.cif
#   From: 2010.06.25/outbox.cif.g09.slc.cpg/sg58_2_cif.got.tgz:2157.got - 2010.06.26 21:38:00.
