data_PCOD8236419
_publ_section_title
;
Structure prediction by ZEFSAII (Michael W. Deem and Ramdas Pophale) SiO2 
 PCOD8236419
Probable space group: P N N M
;
_chemical_formula_sum "Si O2"
_cell_formula_units_Z 40
_cell_length_a 12.093899
_cell_length_b 13.509162
_cell_length_c 13.736748
_cell_angle_alpha 90.000000
_cell_angle_beta 90.000000
_cell_angle_gamma 90.000000
_cell_volume 2244.288470
_symmetry_space_group_name_H-M "P N N M"
_symmetry_group_IT_number 58
_symmetry_cell_setting 'orthorhombic'
loop_
_space_group_symop_operation_xyz
x,y,z
-x,-y,z
1/2+x,1/2-y,1/2-z
1/2-x,1/2+y,1/2-z
-x,-y,-z
x,y,-z
1/2-x,1/2+y,1/2+z
1/2+x,1/2-y,1/2+z
loop_
_atom_site_type_symbol
_atom_site_label
_atom_site_fract_x
_atom_site_fract_y
_atom_site_fract_z
Si Si1 0.022192 0.889627 0.715820
Si Si2 0.749128 0.601946 0.887836
Si Si3 0.849782 0.392596 0.888152
Si Si4 0.945557 0.700017 0.202596
Si Si5 0.861979 0.768802 0.391217
O O1 0.146956 0.872219 0.681189
O O2 0.992612 0.813050 0.803939
O O3 0.059698 0.134327 0.624799
O O4 0.000000 0.000000 0.753785
O O5 0.795689 0.495461 0.855797
O O6 0.844660 0.684042 0.871969
O O7 0.711892 0.602803 0.000000
O O8 0.956052 0.376004 0.820157
O O9 0.763878 0.302910 0.874012
O O10 0.889588 0.398147 0.000000
O O11 0.898248 0.684139 0.313357
O O12 0.878148 0.727061 0.500000
#
# Coordination Sequence:
#
# PCOD8236419 Si02
#       5
#     8   8   8   8   8
#     4  10  20  33  55  78 106 135 173 213 258 307
#     4  11  20  33  56  81 105 135 172 218 267 307
#     4  10  19  34  55  79 106 134 170 218 266 308
#     4  10  21  32  49  80 112 135 167 216 263 313
#     4   9  19  33  52  75 102 134 168 209 258 305
#
# _framework density 17.823021000000001
#
# number of rings (size 3 to 8) (size 9 to 14) (size 15 to 20)
#    1.200    0.800    2.000    3.000    0.000    2.400 
#    0.000    0.000    0.000    4.800    0.000   11.200 
#    0.000    0.000    0.000    0.000    0.000    0.000 
#
# Total GULP energy -495655.149309 kJ/mol
# GULP energy per Si atom -12391.378733 kJ/mol
# Density = 1.778246 g / cm^3
# Si number density = 17.823021 Si / 1000 Ang^3
#
#
#
# Elastic Constant Matrix: (Units=GPa)
#
#
# Indices 1 2 3 4 5 6 
#
# 1 108.0557 31.8570 22.6821 0.0000 0.0000 0.0000
# 2 31.8570 53.7529 25.1394 0.0000 0.0000 0.0000
# 3 22.6821 25.1394 52.0772 0.0000 0.0000 0.0000
# 4 0.0000 0.0000 0.0000 29.5204 0.0000 0.0000
# 5 0.0000 0.0000 0.0000 0.0000 19.6845 0.0000
# 6 0.0000 0.0000 0.0000 0.0000 0.0000 31.3957
#
#
#
# Elastic Compliance Matrix: (Units=1/GPa)
#
#
# Indices 1 2 3 4 5 6 
#
# 1 0.011406 -0.005730 -0.002202 0.000000 0.000000 0.000000
# 2 -0.005730 0.026907 -0.010493 0.000000 0.000000 0.000000
# 3 -0.002202 -0.010493 0.025227 0.000000 0.000000 0.000000
# 4 0.000000 0.000000 0.000000 0.033875 0.000000 0.000000
# 5 0.000000 0.000000 0.000000 0.000000 0.050801 0.000000
# 6 0.000000 0.000000 0.000000 0.000000 0.000000 0.031852
#
#
# Mechanical properties :
#
#
# Convention : Reuss Voigt Hill
#
# Bulk Modulus (GPa) = 37.46774 41.47141 39.46957
# Shear Modulus (GPa) = 22.14209 25.06728 23.60469
#
# Velocity S-wave (km/s) = 3.52850 3.75434 3.64317
# Velocity P-wave (km/s) = 6.13744 6.48941 6.31587
#
# Compressibility (1/GPa) = 0.02668963
#
# Stress axis : x y z
#
# Youngs Moduli (GPa) = 87.67312 37.16487 39.64064
#
# Poissons Ratio (x) = 0.21296 0.08728
# Poissons Ratio (y) = 0.50238 0.41596
# Poissons Ratio (z) = 0.19303 0.38998
#
# Static dielectric constant tensor:
#      x y z
#    x 3.402360 0.000000 0.000000 
#    y 0.000000 3.044630 0.000000 
#    z 0.000000 0.000000 3.042100 
# 
# 
# High freq. dielectric constant tensor:
#      x y z
#    x 1.712180 0.000000 0.000000 
#    y 0.000000 1.661270 0.000000 
#    z 0.000000 0.000000 1.661140 
# 
# From -- ./inp_files/15367.got.cif
#   From: 2010.06.25/outbox.cif.g09.slc.cpg/sg58_8_cif.got.tgz:15367.got - 2010.06.26 21:38:00.
