data_PCOD8236788
_publ_section_title
;
Structure prediction by ZEFSAII (Michael W. Deem and Ramdas Pophale) SiO2 
 PCOD8236788
Probable space group: P N N M
;
_chemical_formula_sum "Si O2"
_cell_formula_units_Z 64
_cell_length_a 30.206512
_cell_length_b 11.764048
_cell_length_c 8.630058
_cell_angle_alpha 90.000000
_cell_angle_beta 90.000000
_cell_angle_gamma 90.000000
_cell_volume 3066.698507
_symmetry_space_group_name_H-M "P N N M"
_symmetry_group_IT_number 58
_symmetry_cell_setting 'orthorhombic'
loop_
_space_group_symop_operation_xyz
x,y,z
-x,-y,z
1/2+x,1/2-y,1/2-z
1/2-x,1/2+y,1/2-z
-x,-y,-z
x,y,-z
1/2-x,1/2+y,1/2+z
1/2+x,1/2-y,1/2+z
loop_
_atom_site_type_symbol
_atom_site_label
_atom_site_fract_x
_atom_site_fract_y
_atom_site_fract_z
Si Si1 0.942938 0.740644 0.180031
Si Si2 0.374642 0.359008 0.180041
Si Si3 0.794190 0.274342 0.179854
Si Si4 0.364265 0.619837 0.819467
Si Si5 0.042298 0.749064 0.823027
Si Si6 0.328116 0.009925 0.821223
Si Si7 0.919108 0.487856 0.823239
Si Si8 0.296749 0.781589 0.680415
O O1 0.908498 0.810653 0.281540
O O2 0.940829 0.607443 0.222478
O O3 0.992236 0.784367 0.220183
O O4 0.931699 0.760041 0.000000
O O5 0.340065 0.286745 0.279639
O O6 0.371076 0.489864 0.229840
O O7 0.424302 0.317066 0.213501
O O8 0.363856 0.341376 0.000000
O O9 0.796652 0.407423 0.222003
O O10 0.754713 0.218813 0.277057
O O11 0.783575 0.260032 0.000000
O O12 0.321544 0.665393 0.726698
O O13 0.354006 0.631838 0.000000
O O14 0.045460 0.612662 0.801905
O O15 0.053119 0.782295 0.000000
O O16 0.378890 0.041691 0.790694
O O17 0.321032 0.880738 0.773096
O O18 0.316624 0.028308 0.000000
O O19 0.901240 0.491528 0.000000
O O20 0.302302 0.804508 0.500000
#
# Coordination Sequence:
#
# PCOD8236788 Si02
#       8
#     8   8   8   8   8   8   8   8
#     4  10  21  38  63  94 128 167 213 264 320 383
#     4  11  25  44  64  90 128 170 214 266 323 382
#     4  12  26  45  69  97 130 168 213 265 321 379
#     4  11  25  44  64  90 128 170 214 266 323 382
#     4  10  21  38  63  94 128 167 213 264 320 383
#     4  12  24  41  67  99 133 169 211 259 318 382
#     4  10  19  36  62  94 129 167 208 259 321 379
#     4  12  26  45  69  97 130 168 213 265 321 379
#
# _framework density 20.869346
#
# number of rings (size 3 to 8) (size 9 to 14) (size 15 to 20)
#    0.000    1.000    2.500    4.500    1.750    4.500 
#    0.000    2.500    0.000    2.250    0.000    0.000 
#    0.000    0.000    0.000    0.000    0.000    0.000 
#
# Total GULP energy -794007.903019 kJ/mol
# GULP energy per Si atom -12406.373485 kJ/mol
# Density = 2.082185 g / cm^3
# Si number density = 20.869346 Si / 1000 Ang^3
#
#
#
# Elastic Constant Matrix: (Units=GPa)
#
#
# Indices 1 2 3 4 5 6 
#
# 1 92.2772 12.0791 25.1745 0.0000 0.0000 0.0000
# 2 12.0791 92.3737 27.2635 0.0000 0.0000 0.0000
# 3 25.1745 27.2635 57.7909 0.0000 0.0000 0.0000
# 4 0.0000 0.0000 0.0000 27.6262 0.0000 0.0000
# 5 0.0000 0.0000 0.0000 0.0000 29.4550 0.0000
# 6 0.0000 0.0000 0.0000 0.0000 0.0000 27.4422
#
#
#
# Elastic Compliance Matrix: (Units=1/GPa)
#
#
# Indices 1 2 3 4 5 6 
#
# 1 0.012299 -0.000031 -0.005343 0.000000 0.000000 0.000000
# 2 -0.000031 0.012577 -0.005920 0.000000 0.000000 0.000000
# 3 -0.005343 -0.005920 0.022424 0.000000 0.000000 0.000000
# 4 0.000000 0.000000 0.000000 0.036198 0.000000 0.000000
# 5 0.000000 0.000000 0.000000 0.000000 0.033950 0.000000
# 6 0.000000 0.000000 0.000000 0.000000 0.000000 0.036440
#
#
# Mechanical properties :
#
#
# Convention : Reuss Voigt Hill
#
# Bulk Modulus (GPa) = 40.46626 41.27510 40.87068
# Shear Modulus (GPa) = 27.06925 28.76633 27.91779
#
# Velocity S-wave (km/s) = 3.60541 3.71671 3.66148
# Velocity P-wave (km/s) = 6.06336 6.18380 6.12388
#
# Compressibility (1/GPa) = 0.02471195
#
# Stress axis : x y z
#
# Youngs Moduli (GPa) = 81.31030 79.51134 44.59564
#
# Poissons Ratio (x) = 0.00249 0.23826
# Poissons Ratio (y) = 0.00255 0.26399
# Poissons Ratio (z) = 0.43441 0.47067
#
# Static dielectric constant tensor:
#      x y z
#    x 3.766620 0.000000 0.000000 
#    y 0.000000 3.857770 0.000000 
#    z 0.000000 0.000000 3.703070 
# 
# 
# High freq. dielectric constant tensor:
#      x y z
#    x 1.822280 0.000000 0.000000 
#    y 0.000000 1.821840 0.000000 
#    z 0.000000 0.000000 1.814730 
# 
# From -- ./inp_files/10994.got.cif
#   From: 2010.06.25/outbox.cif.g09.slc.cpg/sg58_6_cif.got.tgz:10994.got - 2010.06.26 21:38:00.
