data_PCOD8236599
_publ_section_title
;
Structure prediction by ZEFSAII (Michael W. Deem and Ramdas Pophale) SiO2 
 PCOD8236599
Probable space group: P N N M
;
_chemical_formula_sum "Si O2"
_cell_formula_units_Z 56
_cell_length_a 21.898600
_cell_length_b 14.731232
_cell_length_c 8.968358
_cell_angle_alpha 90.000000
_cell_angle_beta 90.000000
_cell_angle_gamma 90.000000
_cell_volume 2893.132715
_symmetry_space_group_name_H-M "P N N M"
_symmetry_group_IT_number 58
_symmetry_cell_setting 'orthorhombic'
loop_
_space_group_symop_operation_xyz
x,y,z
-x,-y,z
1/2+x,1/2-y,1/2-z
1/2-x,1/2+y,1/2-z
-x,-y,-z
x,y,-z
1/2-x,1/2+y,1/2+z
1/2+x,1/2-y,1/2+z
loop_
_atom_site_type_symbol
_atom_site_label
_atom_site_fract_x
_atom_site_fract_y
_atom_site_fract_z
Si Si1 0.982359 0.782163 0.174140
Si Si2 0.773721 0.189105 0.823733
Si Si3 0.457395 0.920703 0.323307
Si Si4 0.099483 0.897612 0.825785
Si Si5 0.890476 0.916156 0.323107
Si Si6 0.746530 0.389125 0.176308
Si Si7 0.179935 0.439074 0.177493
O O1 0.983308 0.677279 0.225095
O O2 0.930521 0.833044 0.266085
O O3 0.048435 0.823070 0.211369
O O4 0.966521 0.791463 0.000000
O O5 0.836032 0.141942 0.769529
O O6 0.775281 0.293841 0.772848
O O7 0.716029 0.145629 0.743420
O O8 0.765376 0.180171 0.000000
O O9 0.456844 0.929263 0.500000
O O10 0.388985 0.934241 0.261890
O O11 0.500000 0.000000 0.254742
O O12 0.083133 0.989365 0.738937
O O13 0.101076 0.920328 0.000000
O O14 0.893042 0.918669 0.500000
O O15 0.821891 0.902029 0.261131
O O16 0.789874 0.468364 0.239182
O O17 0.743935 0.395175 0.000000
O O18 0.182546 0.433397 0.000000
#
# Coordination Sequence:
#
# PCOD8236599 Si02
#       7
#     8   8   8   8   8   8   8
#     4  10  21  36  54  80 111 142 180 225 272 318
#     4  10  20  35  55  79 107 143 182 218 267 325
#     4   9  19  34  57  86 111 140 181 227 272 321
#     4  10  21  35  54  79 109 141 178 226 270 317
#     4  11  21  36  56  80 110 144 181 220 268 325
#     4   9  19  33  53  79 107 139 173 215 267 320
#     4  10  19  35  57  81 110 140 175 223 270 315
#
# _framework density 19.356180999999999
#
# number of rings (size 3 to 8) (size 9 to 14) (size 15 to 20)
#    0.000    2.143    1.429    1.714    2.000    2.286 
#    0.000    1.429    0.000    1.714    0.000    0.000 
#    0.000    0.000    0.000    0.000    0.000    0.000 
#
# Total GULP energy -694543.270254 kJ/mol
# GULP energy per Si atom -12402.558397 kJ/mol
# Density = 1.931213 g / cm^3
# Si number density = 19.356181 Si / 1000 Ang^3
#
#
#
# Elastic Constant Matrix: (Units=GPa)
#
#
# Indices 1 2 3 4 5 6 
#
# 1 129.6478 58.7373 23.3441 0.0000 0.0000 0.0000
# 2 58.7373 147.8013 27.1504 0.0000 0.0000 0.0000
# 3 23.3441 27.1504 27.6611 0.0000 0.0000 0.0000
# 4 0.0000 0.0000 0.0000 19.2554 0.0000 0.0000
# 5 0.0000 0.0000 0.0000 0.0000 21.3600 0.0000
# 6 0.0000 0.0000 0.0000 0.0000 0.0000 38.5061
#
#
#
# Elastic Compliance Matrix: (Units=1/GPa)
#
#
# Indices 1 2 3 4 5 6 
#
# 1 0.010065 -0.002976 -0.005573 0.000000 0.000000 0.000000
# 2 -0.002976 0.009134 -0.006454 0.000000 0.000000 0.000000
# 3 -0.005573 -0.006454 0.047190 0.000000 0.000000 0.000000
# 4 0.000000 0.000000 0.000000 0.051934 0.000000 0.000000
# 5 0.000000 0.000000 0.000000 0.000000 0.046816 0.000000
# 6 0.000000 0.000000 0.000000 0.000000 0.000000 0.025970
#
#
# Mechanical properties :
#
#
# Convention : Reuss Voigt Hill
#
# Bulk Modulus (GPa) = 27.48542 58.17486 42.83014
# Shear Modulus (GPa) = 21.43697 28.88287 25.15992
#
# Velocity S-wave (km/s) = 3.33152 3.86706 3.60924
# Velocity P-wave (km/s) = 5.38789 7.07524 6.28842
#
# Compressibility (1/GPa) = 0.03638292
#
# Stress axis : x y z
#
# Youngs Moduli (GPa) = 99.35393 109.47960 21.19113
#
# Poissons Ratio (x) = 0.32583 0.11810
# Poissons Ratio (y) = 0.29570 0.13676
# Poissons Ratio (z) = 0.55369 0.70656
#
# Static dielectric constant tensor:
#      x y z
#    x 3.751410 0.000000 0.000000 
#    y 0.000000 3.762770 0.000000 
#    z 0.000000 0.000000 3.141130 
# 
# 
# High freq. dielectric constant tensor:
#      x y z
#    x 1.765350 0.000000 0.000000 
#    y 0.000000 1.769340 0.000000 
#    z 0.000000 0.000000 1.713000 
# 
# From -- ./inp_files/8999.got.cif
#   From: 2010.06.25/outbox.cif.g09.slc.cpg/sg58_5_cif.got.tgz:8999.got - 2010.06.26 21:38:00.
