data_PCOD8236159
_publ_section_title
;
Structure prediction by ZEFSAII (Michael W. Deem and Ramdas Pophale) SiO2 
 PCOD8236159
Probable space group: P N N M
;
_chemical_formula_sum "Si O2"
_cell_formula_units_Z 48
_cell_length_a 15.312197
_cell_length_b 19.009713
_cell_length_c 8.869050
_cell_angle_alpha 90.000000
_cell_angle_beta 90.000000
_cell_angle_gamma 90.000000
_cell_volume 2581.607246
_symmetry_space_group_name_H-M "P N N M"
_symmetry_group_IT_number 58
_symmetry_cell_setting 'orthorhombic'
loop_
_space_group_symop_operation_xyz
x,y,z
-x,-y,z
1/2+x,1/2-y,1/2-z
1/2-x,1/2+y,1/2-z
-x,-y,-z
x,y,-z
1/2-x,1/2+y,1/2+z
1/2+x,1/2-y,1/2+z
loop_
_atom_site_type_symbol
_atom_site_label
_atom_site_fract_x
_atom_site_fract_y
_atom_site_fract_z
Si Si1 0.352169 0.824811 0.678110
Si Si2 0.502214 0.578576 0.820703
Si Si3 0.844428 0.823816 0.321923
Si Si4 0.336784 0.169880 0.822531
Si Si5 0.656655 0.672227 0.177571
Si Si6 0.496376 0.918411 0.823898
O O1 0.358358 0.815220 0.500000
O O2 0.374466 0.750285 0.752725
O O3 0.254638 0.848527 0.727658
O O4 0.417724 0.884551 0.731938
O O5 0.500000 0.500000 0.753130
O O6 0.414753 0.618457 0.771170
O O7 0.586284 0.618991 0.750209
O O8 0.509617 0.575930 0.000000
O O9 0.840510 0.814729 0.500000
O O10 0.751768 0.851568 0.261832
O O11 0.364902 0.248136 0.770819
O O12 0.412404 0.116313 0.773803
O O13 0.317881 0.167341 0.000000
O O14 0.647577 0.667870 0.000000
O O15 0.500000 0.000000 0.781997
O O16 0.479107 0.905801 0.000000
#
# Coordination Sequence:
#
# PCOD8236159 Si02
#       6
#     8   8   8   8   8   8
#     4  10  20  34  54  77 103 137 175 217 263 312
#     4   9  17  29  47  73 103 133 165 203 251 307
#     4  10  19  32  54  80 103 132 175 221 258 304
#     4   9  18  34  53  72 101 139 174 212 261 312
#     4   8  15  29  48  69  95 131 169 204 249 301
#     4  10  21  36  54  77 107 143 178 215 266 324
#
# _framework density 18.593069
#
# number of rings (size 3 to 8) (size 9 to 14) (size 15 to 20)
#    0.000    2.667    0.000    3.000    0.000    5.000 
#    0.000    1.667    0.000    5.000    0.000    0.000 
#    0.000    0.000    0.000    0.000    0.000    0.000 
#
# Total GULP energy -595168.567300 kJ/mol
# GULP energy per Si atom -12399.345152 kJ/mol
# Density = 1.855075 g / cm^3
# Si number density = 18.593069 Si / 1000 Ang^3
#
#
#
# Elastic Constant Matrix: (Units=GPa)
#
#
# Indices 1 2 3 4 5 6 
#
# 1 161.1571 114.2163 42.6051 0.0000 0.0000 0.0000
# 2 114.2163 154.1369 37.6261 0.0000 0.0000 0.0000
# 3 42.6051 37.6261 44.3253 0.0000 0.0000 0.0000
# 4 0.0000 0.0000 0.0000 19.1574 0.0000 0.0000
# 5 0.0000 0.0000 0.0000 0.0000 28.3029 0.0000
# 6 0.0000 0.0000 0.0000 0.0000 0.0000 17.9774
#
#
#
# Elastic Compliance Matrix: (Units=1/GPa)
#
#
# Indices 1 2 3 4 5 6 
#
# 1 0.014214 -0.009079 -0.005956 0.000000 0.000000 0.000000
# 2 -0.009079 0.013982 -0.003143 0.000000 0.000000 0.000000
# 3 -0.005956 -0.003143 0.030953 0.000000 0.000000 0.000000
# 4 0.000000 0.000000 0.000000 0.052199 0.000000 0.000000
# 5 0.000000 0.000000 0.000000 0.000000 0.035332 0.000000
# 6 0.000000 0.000000 0.000000 0.000000 0.000000 0.055625
#
#
# Mechanical properties :
#
#
# Convention : Reuss Voigt Hill
#
# Bulk Modulus (GPa) = 43.86967 83.16825 63.51896
# Shear Modulus (GPa) = 20.30388 24.09900 22.20144
#
# Velocity S-wave (km/s) = 3.30815 3.60408 3.45928
# Velocity P-wave (km/s) = 6.18366 7.88334 7.08466
#
# Compressibility (1/GPa) = 0.02279479
#
# Stress axis : x y z
#
# Youngs Moduli (GPa) = 70.35280 71.51878 32.30733
#
# Poissons Ratio (x) = 0.64931 0.19241
# Poissons Ratio (y) = 0.63872 0.10153
# Poissons Ratio (z) = 0.41900 0.22475
#
# Static dielectric constant tensor:
#      x y z
#    x 3.627190 0.000000 0.000000 
#    y 0.000000 3.614820 0.000000 
#    z 0.000000 0.000000 3.096830 
# 
# 
# High freq. dielectric constant tensor:
#      x y z
#    x 1.735780 0.000000 0.000000 
#    y 0.000000 1.720520 0.000000 
#    z 0.000000 0.000000 1.689600 
# 
# From -- ./inp_files/5836.got.cif
#   From: 2010.06.25/outbox.cif.g09.slc.cpg/sg58_3_cif.got.tgz:5836.got - 2010.06.26 21:38:00.
