data_PCOD8236475
_publ_section_title
;
Structure prediction by ZEFSAII (Michael W. Deem and Ramdas Pophale) SiO2 
 PCOD8236475
Probable space group: P N N M
;
_chemical_formula_sum "Si O2"
_cell_formula_units_Z 48
_cell_length_a 30.774882
_cell_length_b 9.395459
_cell_length_c 8.515755
_cell_angle_alpha 90.000000
_cell_angle_beta 90.000000
_cell_angle_gamma 90.000000
_cell_volume 2462.280673
_symmetry_space_group_name_H-M "P N N M"
_symmetry_group_IT_number 58
_symmetry_cell_setting 'orthorhombic'
loop_
_space_group_symop_operation_xyz
x,y,z
-x,-y,z
1/2+x,1/2-y,1/2-z
1/2-x,1/2+y,1/2-z
-x,-y,-z
x,y,-z
1/2-x,1/2+y,1/2+z
1/2+x,1/2-y,1/2+z
loop_
_atom_site_type_symbol
_atom_site_label
_atom_site_fract_x
_atom_site_fract_y
_atom_site_fract_z
Si Si1 0.878742 0.589720 0.183150
Si Si2 0.040136 0.909444 0.686212
Si Si3 0.956896 0.413828 0.684919
Si Si4 0.788315 0.600644 0.683857
Si Si5 0.709505 0.404568 0.317613
Si Si6 0.618814 0.398251 0.816066
O O1 0.917033 0.482975 0.224562
O O2 0.835662 0.537663 0.275146
O O3 0.891401 0.750405 0.229576
O O4 0.868764 0.584215 0.000000
O O5 0.036912 0.907787 0.500000
O O6 0.038020 0.747558 0.747506
O O7 0.084778 0.983121 0.742083
O O8 0.000000 0.000000 0.756576
O O9 0.947526 0.419591 0.500000
O O10 0.000000 0.500000 0.729024
O O11 0.785995 0.635599 0.500000
O O12 0.751292 0.492017 0.737983
O O13 0.780139 0.741482 0.783579
O O14 0.699864 0.426860 0.500000
O O15 0.666953 0.455617 0.222809
O O16 0.614095 0.369084 0.000000
#
# Coordination Sequence:
#
# PCOD8236475 Si02
#       6
#     8   8   8   8   8   8
#     4  11  22  36  55  79 110 144 181 225 270 318
#     4   9  18  33  55  83 108 135 177 222 263 313
#     4  10  20  36  59  83 109 142 180 222 268 323
#     4  10  21  37  57  80 108 144 184 222 268 326
#     4  10  21  36  55  80 109 140 178 224 270 319
#     4  10  19  34  57  80 106 141 180 222 269 321
#
# _framework density 19.494119999999999
#
# number of rings (size 3 to 8) (size 9 to 14) (size 15 to 20)
#    0.000    2.000    0.000    6.000    0.000    7.000 
#    0.000    6.667    0.000    3.500    0.000    0.000 
#    0.000    0.000    0.000    0.000    0.000    0.000 
#
# Total GULP energy -595306.755754 kJ/mol
# GULP energy per Si atom -12402.224078 kJ/mol
# Density = 1.944975 g / cm^3
# Si number density = 19.494120 Si / 1000 Ang^3
#
#
#
# Elastic Constant Matrix: (Units=GPa)
#
#
# Indices 1 2 3 4 5 6 
#
# 1 149.7887 89.7654 20.4897 0.0000 0.0000 0.0000
# 2 89.7654 123.7761 16.8766 0.0000 0.0000 0.0000
# 3 20.4897 16.8766 41.9599 0.0000 0.0000 0.0000
# 4 0.0000 0.0000 0.0000 8.1609 0.0000 0.0000
# 5 0.0000 0.0000 0.0000 0.0000 25.8342 0.0000
# 6 0.0000 0.0000 0.0000 0.0000 0.0000 46.4733
#
#
#
# Elastic Compliance Matrix: (Units=1/GPa)
#
#
# Indices 1 2 3 4 5 6 
#
# 1 0.012052 -0.008399 -0.002507 0.000000 0.000000 0.000000
# 2 -0.008399 0.014401 -0.001691 0.000000 0.000000 0.000000
# 3 -0.002507 -0.001691 0.025737 0.000000 0.000000 0.000000
# 4 0.000000 0.000000 0.000000 0.122535 0.000000 0.000000
# 5 0.000000 0.000000 0.000000 0.000000 0.038708 0.000000
# 6 0.000000 0.000000 0.000000 0.000000 0.000000 0.021518
#
#
# Mechanical properties :
#
#
# Convention : Reuss Voigt Hill
#
# Bulk Modulus (GPa) = 37.04263 63.30977 50.17620
# Shear Modulus (GPa) = 18.57752 28.65324 23.61538
#
# Velocity S-wave (km/s) = 3.09039 3.83801 3.48431
# Velocity P-wave (km/s) = 5.63713 7.22407 6.47937
#
# Compressibility (1/GPa) = 0.02699592
#
# Stress axis : x y z
#
# Youngs Moduli (GPa) = 82.97227 69.44161 38.85510
#
# Poissons Ratio (x) = 0.58322 0.09742
# Poissons Ratio (y) = 0.69686 0.06570
# Poissons Ratio (z) = 0.20803 0.11741
#
# Static dielectric constant tensor:
#      x y z
#    x 3.800150 0.000000 0.000000 
#    y 0.000000 3.624470 0.000000 
#    z 0.000000 0.000000 3.399350 
# 
# 
# High freq. dielectric constant tensor:
#      x y z
#    x 1.774100 0.000000 0.000000 
#    y 0.000000 1.755680 0.000000 
#    z 0.000000 0.000000 1.746670 
# 
# From -- ./inp_files/10761.got.cif
#   From: 2010.06.25/outbox.cif.g09.slc.cpg/sg58_6_cif.got.tgz:10761.got - 2010.06.26 21:38:00.
