data_PCOD8236022
_publ_section_title
;
Structure prediction by ZEFSAII (Michael W. Deem and Ramdas Pophale) SiO2 
 PCOD8236022
Probable space group: P N N M
;
_chemical_formula_sum "Si O2"
_cell_formula_units_Z 64
_cell_length_a 19.255733
_cell_length_b 19.286415
_cell_length_c 9.271318
_cell_angle_alpha 90.000000
_cell_angle_beta 90.000000
_cell_angle_gamma 90.000000
_cell_volume 3443.126987
_symmetry_space_group_name_H-M "P N N M"
_symmetry_group_IT_number 58
_symmetry_cell_setting 'orthorhombic'
loop_
_space_group_symop_operation_xyz
x,y,z
-x,-y,z
1/2+x,1/2-y,1/2-z
1/2-x,1/2+y,1/2-z
-x,-y,-z
x,y,-z
1/2-x,1/2+y,1/2+z
1/2+x,1/2-y,1/2+z
loop_
_atom_site_type_symbol
_atom_site_label
_atom_site_fract_x
_atom_site_fract_y
_atom_site_fract_z
Si Si1 0.028954 0.637056 0.667275
Si Si2 0.962236 0.100189 0.329138
Si Si3 0.397538 0.538751 0.828420
Si Si4 0.761235 0.891050 0.332562
Si Si5 0.625452 0.122465 0.171700
Si Si6 0.115757 0.765763 0.328566
Si Si7 0.142980 0.532920 0.332771
Si Si8 0.758093 0.731389 0.667439
O O1 0.020860 0.654956 0.500000
O O2 0.080183 0.695843 0.732739
O O3 0.064581 0.561904 0.690580
O O4 0.951541 0.638727 0.736180
O O5 0.964868 0.096482 0.500000
O O6 0.935853 0.173949 0.276075
O O7 0.039620 0.086645 0.268891
O O8 0.909780 0.039922 0.275538
O O9 0.325055 0.565670 0.765299
O O10 0.394831 0.544441 0.000000
O O11 0.748749 0.906875 0.500000
O O12 0.693088 0.914558 0.249534
O O13 0.780172 0.810707 0.307823
O O14 0.680443 0.180450 0.224168
O O15 0.648102 0.045780 0.226562
O O16 0.620545 0.120821 0.000000
O O17 0.126988 0.764021 0.500000
O O18 0.189197 0.782516 0.257472
O O19 0.163426 0.536017 0.500000
O O20 0.743053 0.716086 0.500000
#
# Coordination Sequence:
#
# PCOD8236022 Si02
#       8
#     8   8   8   8   8   8   8   8
#     4   9  17  31  52  77  99 125 168 216 252 283
#     4   8  15  27  46  72  98 123 159 207 248 284
#     4   8  15  28  45  70  99 126 160 203 247 287
#     4  10  20  32  50  73 102 136 165 199 248 303
#     4   9  19  33  53  77 101 131 171 212 248 293
#     4  10  19  31  52  77 100 129 165 207 250 293
#     4  10  19  34  54  76 100 131 169 211 255 294
#     4  10  21  35  49  72 104 136 165 198 245 304
#
# _framework density 18.587755000000001
#
# number of rings (size 3 to 8) (size 9 to 14) (size 15 to 20)
#    0.000    2.750    1.250    1.125    3.500    1.500 
#    0.000    0.000    0.000    4.500    0.000    1.750 
#    0.000    0.000    0.000    0.000    0.000    0.000 
#
# Total GULP energy -793221.231196 kJ/mol
# GULP energy per Si atom -12394.081737 kJ/mol
# Density = 1.854545 g / cm^3
# Si number density = 18.587755 Si / 1000 Ang^3
#
#
#
# Elastic Constant Matrix: (Units=GPa)
#
#
# Indices 1 2 3 4 5 6 
#
# 1 119.3752 64.0655 25.9717 0.0000 0.0000 0.0000
# 2 64.0655 122.8290 23.7343 0.0000 0.0000 0.0000
# 3 25.9717 23.7343 21.9856 0.0000 0.0000 0.0000
# 4 0.0000 0.0000 0.0000 -7.6811 0.0000 0.0000
# 5 0.0000 0.0000 0.0000 0.0000 20.3528 0.0000
# 6 0.0000 0.0000 0.0000 0.0000 0.0000 35.6671
#
#
#
# Elastic Compliance Matrix: (Units=1/GPa)
#
#
# Indices 1 2 3 4 5 6 
#
# 1 0.013273 -0.004919 -0.010369 0.000000 0.000000 0.000000
# 2 -0.004919 0.012111 -0.007263 0.000000 0.000000 0.000000
# 3 -0.010369 -0.007263 0.065573 0.000000 0.000000 0.000000
# 4 0.000000 0.000000 0.000000 -0.130189 0.000000 0.000000
# 5 0.000000 0.000000 0.000000 0.000000 0.049133 0.000000
# 6 0.000000 0.000000 0.000000 0.000000 0.000000 0.028037
#
#
# Mechanical properties :
#
#
# Convention : Reuss Voigt Hill
#
# Bulk Modulus (GPa) = 21.80775 54.63697 38.22236
# Shear Modulus (GPa) = 50.85221 19.69564 35.27393
#
# Velocity S-wave (km/s) = 5.23615 3.25869 4.36098
# Velocity P-wave (km/s) = 6.95084 6.60429 6.77978
#
# Compressibility (1/GPa) = 0.04585526
#
# Stress axis : x y z
#
# Youngs Moduli (GPa) = 75.34159 82.57226 15.25019
#
# Poissons Ratio (x) = 0.40620 0.15812
# Poissons Ratio (y) = 0.37063 0.11076
# Poissons Ratio (z) = 0.78119 0.59969
#
# Static dielectric constant tensor:
#      x y z
#    x 3.649220 0.000000 0.000000 
#    y 0.000000 3.719740 0.000000 
#    z 0.000000 0.000000 2.832050 
# 
# 
# High freq. dielectric constant tensor:
#      x y z
#    x 1.732070 0.000000 0.000000 
#    y 0.000000 1.736300 0.000000 
#    z 0.000000 0.000000 1.653130 
# 
# From -- ./inp_files/9239.got.cif
#   From: 2010.06.25/outbox.cif.g09.slc.cpg/sg58_5_cif.got.tgz:9239.got - 2010.06.26 21:38:00.
