data_PCOD8236666
_publ_section_title
;
Structure prediction by ZEFSAII (Michael W. Deem and Ramdas Pophale) SiO2 
 PCOD8236666
Probable space group: P N N M
;
_chemical_formula_sum "Si O2"
_cell_formula_units_Z 64
_cell_length_a 15.335103
_cell_length_b 24.184787
_cell_length_c 8.989556
_cell_angle_alpha 90.000000
_cell_angle_beta 90.000000
_cell_angle_gamma 90.000000
_cell_volume 3334.012366
_symmetry_space_group_name_H-M "P N N M"
_symmetry_group_IT_number 58
_symmetry_cell_setting 'orthorhombic'
loop_
_space_group_symop_operation_xyz
x,y,z
-x,-y,z
1/2+x,1/2-y,1/2-z
1/2-x,1/2+y,1/2-z
-x,-y,-z
x,y,-z
1/2-x,1/2+y,1/2+z
1/2+x,1/2-y,1/2+z
loop_
_atom_site_type_symbol
_atom_site_label
_atom_site_fract_x
_atom_site_fract_y
_atom_site_fract_z
Si Si1 0.745207 0.569632 0.323448
Si Si2 0.587353 0.266361 0.676103
Si Si3 0.601288 0.768549 0.324801
Si Si4 0.147192 0.115713 0.833393
Si Si5 0.902539 0.494000 0.323219
Si Si6 0.237731 0.303073 0.323496
Si Si7 0.399253 0.505069 0.175257
Si Si8 0.651586 0.875291 0.833965
O O1 0.735582 0.563137 0.500000
O O2 0.834266 0.540227 0.265531
O O3 0.751599 0.633304 0.273699
O O4 0.659237 0.541990 0.252784
O O5 0.600059 0.260192 0.500000
O O6 0.490649 0.253580 0.732312
O O7 0.598932 0.329825 0.726491
O O8 0.651701 0.223364 0.754028
O O9 0.606164 0.767612 0.500000
O O10 0.678553 0.730135 0.260828
O O11 0.607605 0.831103 0.271767
O O12 0.132792 0.065611 0.721687
O O13 0.246421 0.134182 0.837960
O O14 0.115962 0.098780 0.000000
O O15 0.905295 0.497144 0.500000
O O16 0.867864 0.435307 0.266673
O O17 0.000000 0.500000 0.256714
O O18 0.229850 0.298761 0.500000
O O19 0.500000 0.500000 0.224825
O O20 0.388532 0.498122 0.000000
O O21 0.611965 0.869569 0.000000
#
# Coordination Sequence:
#
# PCOD8236666 Si02
#       8
#     8   8   8   8   8   8   8   8
#     4  10  21  39  61  85 114 154 197 236 283 343
#     4  10  22  39  59  84 117 154 193 238 291 346
#     4  10  22  38  55  83 119 152 187 235 290 341
#     4  10  20  38  63  86 109 148 200 244 283 339
#     4   9  18  33  55  84 114 141 181 237 283 327
#     4  10  22  38  59  86 116 151 195 240 285 339
#     4  11  25  41  58  86 120 153 190 239 297 347
#     4  10  19  35  60  86 109 145 193 235 284 340
#
# _framework density 19.196089000000001
#
# number of rings (size 3 to 8) (size 9 to 14) (size 15 to 20)
#    0.000    2.000    2.500    0.375    3.500    3.000 
#    0.000    0.000    0.000    0.750    0.000    0.000 
#    0.000    0.000    0.000    0.000    0.000    0.000 
#
# Total GULP energy -793586.103089 kJ/mol
# GULP energy per Si atom -12399.782861 kJ/mol
# Density = 1.915240 g / cm^3
# Si number density = 19.196089 Si / 1000 Ang^3
#
#
#
# Elastic Constant Matrix: (Units=GPa)
#
#
# Indices 1 2 3 4 5 6 
#
# 1 101.7024 39.1814 30.5070 0.0000 0.0000 0.0000
# 2 39.1814 122.0280 24.1862 0.0000 0.0000 0.0000
# 3 30.5070 24.1862 24.0096 0.0000 0.0000 0.0000
# 4 0.0000 0.0000 0.0000 31.3080 0.0000 0.0000
# 5 0.0000 0.0000 0.0000 0.0000 16.4879 0.0000
# 6 0.0000 0.0000 0.0000 0.0000 0.0000 31.6628
#
#
#
# Elastic Compliance Matrix: (Units=1/GPa)
#
#
# Indices 1 2 3 4 5 6 
#
# 1 0.016075 -0.001391 -0.019024 0.000000 0.000000 0.000000
# 2 -0.001391 0.010360 -0.008668 0.000000 0.000000 0.000000
# 3 -0.019024 -0.008668 0.074555 0.000000 0.000000 0.000000
# 4 0.000000 0.000000 0.000000 0.031941 0.000000 0.000000
# 5 0.000000 0.000000 0.000000 0.000000 0.060651 0.000000
# 6 0.000000 0.000000 0.000000 0.000000 0.000000 0.031583
#
#
# Mechanical properties :
#
#
# Convention : Reuss Voigt Hill
#
# Bulk Modulus (GPa) = 23.35232 48.38768 35.87000
# Shear Modulus (GPa) = 16.80085 26.14944 21.47514
#
# Velocity S-wave (km/s) = 2.96163 3.69484 3.34836
# Velocity P-wave (km/s) = 4.88738 6.59274 5.80305
#
# Compressibility (1/GPa) = 0.04282229
#
# Stress axis : x y z
#
# Youngs Moduli (GPa) = 62.20853 96.52953 13.41299
#
# Poissons Ratio (x) = 0.13426 0.25517
# Poissons Ratio (y) = 0.08652 0.11627
# Poissons Ratio (z) = 1.18346 0.83677
#
# Static dielectric constant tensor:
#      x y z
#    x 3.757020 0.000000 0.000000 
#    y 0.000000 3.611100 0.000000 
#    z 0.000000 0.000000 3.253310 
# 
# 
# High freq. dielectric constant tensor:
#      x y z
#    x 1.758480 0.000000 0.000000 
#    y 0.000000 1.760070 0.000000 
#    z 0.000000 0.000000 1.717850 
# 
# From -- ./inp_files/6845.got.cif
#   From: 2010.06.25/outbox.cif.g09.slc.cpg/sg58_4_cif.got.tgz:6845.got - 2010.06.26 21:38:00.
