data_PCOD8236947
_publ_section_title
;
Structure prediction by ZEFSAII (Michael W. Deem and Ramdas Pophale) SiO2 
 PCOD8236947
Probable space group: P N N M
;
_chemical_formula_sum "Si O2"
_cell_formula_units_Z 64
_cell_length_a 9.608284
_cell_length_b 13.900066
_cell_length_c 23.392245
_cell_angle_alpha 90.000000
_cell_angle_beta 90.000000
_cell_angle_gamma 90.000000
_cell_volume 3124.169568
_symmetry_space_group_name_H-M "P N N M"
_symmetry_group_IT_number 58
_symmetry_cell_setting 'orthorhombic'
loop_
_space_group_symop_operation_xyz
x,y,z
-x,-y,z
1/2+x,1/2-y,1/2-z
1/2-x,1/2+y,1/2-z
-x,-y,-z
x,y,-z
1/2-x,1/2+y,1/2+z
1/2+x,1/2-y,1/2+z
loop_
_atom_site_type_symbol
_atom_site_label
_atom_site_fract_x
_atom_site_fract_y
_atom_site_fract_z
Si Si1 0.723576 0.864784 0.748423
Si Si2 0.254957 0.363231 0.564525
Si Si3 0.755129 0.937482 0.375155
Si Si4 0.468602 0.718059 0.899433
Si Si5 0.565305 0.206940 0.775936
Si Si6 0.753567 0.135083 0.435491
Si Si7 0.657295 0.023302 0.834816
Si Si8 0.548303 0.806106 0.434066
O O1 0.761731 0.927704 0.693155
O O2 0.569369 0.820323 0.738308
O O3 0.835680 0.780186 0.758429
O O4 0.727571 0.932161 0.804215
O O5 0.275339 0.402202 0.500000
O O6 0.112420 0.302517 0.567864
O O7 0.246787 0.452507 0.608433
O O8 0.383360 0.295467 0.584192
O O9 0.882546 0.880972 0.404625
O O10 0.610323 0.894181 0.397808
O O11 0.767457 0.048819 0.390615
O O12 0.490757 0.744760 0.833656
O O13 0.617290 0.706840 0.929074
O O14 0.656725 0.112823 0.790860
O O15 0.747766 0.093630 0.500000
O O16 0.616143 0.197526 0.422339
O O17 0.500000 0.000000 0.853660
O O18 0.584073 0.826237 0.500000
#
# Coordination Sequence:
#
# PCOD8236947 Si02
#       8
#     8   8   8   8   8   8   8   8
#     4  10  21  38  60  84 112 148 190 233 282 336
#     4   9  17  34  58  81 111 150 190 233 280 333
#     4  10  20  33  51  77 110 150 190 231 284 343
#     4   9  19  34  52  77 110 147 191 237 284 333
#     4   9  20  38  57  80 114 148 185 237 281 326
#     4  11  21  32  51  81 115 148 186 235 285 337
#     4   9  19  36  58  86 116 145 189 238 280 337
#     4   9  19  33  49  75 110 148 191 233 279 340
#
# _framework density 20.485443
#
# number of rings (size 3 to 8) (size 9 to 14) (size 15 to 20)
#    0.000    2.500    0.000    2.250    0.000    8.250 
#    0.000    1.875    0.000    6.000    0.000    1.750 
#    0.000   43.000    0.000    0.000    0.000    0.000 
#
# Total GULP energy -793720.534425 kJ/mol
# GULP energy per Si atom -12401.883350 kJ/mol
# Density = 2.043882 g / cm^3
# Si number density = 20.485443 Si / 1000 Ang^3
#
#
#
# Elastic Constant Matrix: (Units=GPa)
#
#
# Indices 1 2 3 4 5 6 
#
# 1 111.7597 43.7373 29.6658 0.0000 0.0000 0.0000
# 2 43.7373 101.1600 39.2197 0.0000 0.0000 0.0000
# 3 29.6658 39.2197 58.0139 0.0000 0.0000 0.0000
# 4 0.0000 0.0000 0.0000 33.6227 0.0000 0.0000
# 5 0.0000 0.0000 0.0000 0.0000 27.5022 0.0000
# 6 0.0000 0.0000 0.0000 0.0000 0.0000 24.0336
#
#
#
# Elastic Compliance Matrix: (Units=1/GPa)
#
#
# Indices 1 2 3 4 5 6 
#
# 1 0.011226 -0.003562 -0.003333 0.000000 0.000000 0.000000
# 2 -0.003562 0.014527 -0.007999 0.000000 0.000000 0.000000
# 3 -0.003333 -0.007999 0.024349 0.000000 0.000000 0.000000
# 4 0.000000 0.000000 0.000000 0.029742 0.000000 0.000000
# 5 0.000000 0.000000 0.000000 0.000000 0.036361 0.000000
# 6 0.000000 0.000000 0.000000 0.000000 0.000000 0.041608
#
#
# Mechanical properties :
#
#
# Convention : Reuss Voigt Hill
#
# Bulk Modulus (GPa) = 49.22538 55.13103 52.17821
# Shear Modulus (GPa) = 25.72386 27.58576 26.65481
#
# Velocity S-wave (km/s) = 3.54745 3.67359 3.61107
# Velocity P-wave (km/s) = 6.39225 6.70555 6.55077
#
# Compressibility (1/GPa) = 0.02031472
#
# Stress axis : x y z
#
# Youngs Moduli (GPa) = 89.07657 68.83953 41.06887
#
# Poissons Ratio (x) = 0.24518 0.13688
# Poissons Ratio (y) = 0.31726 0.32852
# Poissons Ratio (z) = 0.29688 0.55066
#
# Static dielectric constant tensor:
#      x y z
#    x 3.710300 0.000000 0.000000 
#    y 0.000000 3.603970 0.000000 
#    z 0.000000 0.000000 3.609890 
# 
# 
# High freq. dielectric constant tensor:
#      x y z
#    x 1.794870 0.000000 0.000000 
#    y 0.000000 1.785160 0.000000 
#    z 0.000000 0.000000 1.794800 
# 
# From -- ./inp_files/31620.got.cif
#   From: 2010.06.25/outbox.cif.g09.slc.cpg/sg58_16_cif.got.tgz:31620.got - 2010.06.26 21:38:00.
