data_PCOD8236553
_publ_section_title
;
Structure prediction by ZEFSAII (Michael W. Deem and Ramdas Pophale) SiO2 
 PCOD8236553
Probable space group: P N N M
;
_chemical_formula_sum "Si O2"
_cell_formula_units_Z 64
_cell_length_a 8.860337
_cell_length_b 10.719536
_cell_length_c 33.288709
_cell_angle_alpha 90.000000
_cell_angle_beta 90.000000
_cell_angle_gamma 90.000000
_cell_volume 3161.718354
_symmetry_space_group_name_H-M "P N N M"
_symmetry_group_IT_number 58
_symmetry_cell_setting 'orthorhombic'
loop_
_space_group_symop_operation_xyz
x,y,z
-x,-y,z
1/2+x,1/2-y,1/2-z
1/2-x,1/2+y,1/2-z
-x,-y,-z
x,y,-z
1/2-x,1/2+y,1/2+z
1/2+x,1/2-y,1/2+z
loop_
_atom_site_type_symbol
_atom_site_label
_atom_site_fract_x
_atom_site_fract_y
_atom_site_fract_z
Si Si1 0.677179 0.239536 0.700288
Si Si2 0.221493 0.548819 0.886489
Si Si3 0.413533 0.629651 0.045866
Si Si4 0.434690 0.802995 0.382541
Si Si5 0.412298 0.129786 0.252440
Si Si6 0.078665 0.132089 0.045541
Si Si7 0.423625 0.122561 0.952873
Si Si8 0.333027 0.521786 0.805578
O O1 0.621018 0.280960 0.655529
O O2 0.532917 0.233261 0.731231
O O3 0.822673 0.322820 0.712621
O O4 0.731354 0.099584 0.696138
O O5 0.265147 0.619672 0.927242
O O6 0.191519 0.403039 0.896601
O O7 0.350694 0.561714 0.852294
O O8 0.076906 0.617115 0.867604
O O9 0.500000 0.500000 0.051089
O O10 0.508773 0.746712 0.062853
O O11 0.363663 0.651246 0.000000
O O12 0.489473 0.722762 0.420904
O O13 0.267718 0.122185 0.282048
O O14 0.500000 0.000000 0.243155
O O15 0.250425 0.115480 0.058635
O O16 0.063000 0.186848 0.000000
O O17 0.000000 0.000000 0.047879
O O18 0.500000 0.000000 0.932949
O O19 0.449774 0.118078 0.000000
O O20 0.500000 0.500000 0.786867
#
# Coordination Sequence:
#
# PCOD8236553 Si02
#       8
#     8   8   8   8   8   8   8   8
#     4  10  20  38  60  85 123 157 192 248 301 354
#     4  10  20  35  58  87 119 156 194 242 306 363
#     4  10  20  33  54  86 121 154 199 257 305 348
#     4  10  21  38  58  84 123 157 191 254 306 349
#     4  10  20  37  61  89 119 155 198 240 294 366
#     4  10  22  39  60  82 112 161 210 243 290 361
#     4   9  19  36  56  79 110 149 196 249 300 354
#     4  10  19  34  59  90 115 154 199 233 293 366
#
# _framework density 20.242156000000001
#
# number of rings (size 3 to 8) (size 9 to 14) (size 15 to 20)
#    0.000    2.125    1.250    1.875    1.750    3.000 
#    0.000    5.000    0.000    0.000    0.000    0.000 
#    0.000    0.000    0.000    0.000    0.000    0.000 
#
# Total GULP energy -792953.983512 kJ/mol
# GULP energy per Si atom -12389.905992 kJ/mol
# Density = 2.019608 g / cm^3
# Si number density = 20.242156 Si / 1000 Ang^3
#
#
#
# Elastic Constant Matrix: (Units=GPa)
#
#
# Indices 1 2 3 4 5 6 
#
# 1 101.7938 27.5145 38.7979 0.0000 0.0000 0.0000
# 2 27.5145 75.7840 32.9655 0.0000 0.0000 0.0000
# 3 38.7979 32.9655 100.7226 0.0000 0.0000 0.0000
# 4 0.0000 0.0000 0.0000 19.2147 0.0000 0.0000
# 5 0.0000 0.0000 0.0000 0.0000 32.3549 0.0000
# 6 0.0000 0.0000 0.0000 0.0000 0.0000 35.7710
#
#
#
# Elastic Compliance Matrix: (Units=1/GPa)
#
#
# Indices 1 2 3 4 5 6 
#
# 1 0.011980 -0.002731 -0.003721 0.000000 0.000000 0.000000
# 2 -0.002731 0.016008 -0.004187 0.000000 0.000000 0.000000
# 3 -0.003721 -0.004187 0.012732 0.000000 0.000000 0.000000
# 4 0.000000 0.000000 0.000000 0.052044 0.000000 0.000000
# 5 0.000000 0.000000 0.000000 0.000000 0.030907 0.000000
# 6 0.000000 0.000000 0.000000 0.000000 0.000000 0.027956
#
#
# Mechanical properties :
#
#
# Convention : Reuss Voigt Hill
#
# Bulk Modulus (GPa) = 51.43508 52.98402 52.20955
# Shear Modulus (GPa) = 27.87281 29.40295 28.63788
#
# Velocity S-wave (km/s) = 3.71478 3.81538 3.76542
# Velocity P-wave (km/s) = 6.62303 6.75584 6.68976
#
# Compressibility (1/GPa) = 0.01944199
#
# Stress axis : x y z
#
# Youngs Moduli (GPa) = 83.47145 62.46708 78.54211
#
# Poissons Ratio (x) = 0.17060 0.29224
# Poissons Ratio (y) = 0.22796 0.32889
# Poissons Ratio (z) = 0.31059 0.26158
#
# Static dielectric constant tensor:
#      x y z
#    x 3.710910 0.000000 0.000000 
#    y 0.000000 3.678620 0.000000 
#    z 0.000000 0.000000 3.607880 
# 
# 
# High freq. dielectric constant tensor:
#      x y z
#    x 1.797820 0.000000 0.000000 
#    y 0.000000 1.773060 0.000000 
#    z 0.000000 0.000000 1.776240 
# 
# From -- ./inp_files/34741.got.cif
#   From: 2010.06.25/outbox.cif.g09.slc.cpg/sg58_18_cif.got.tgz:34741.got - 2010.06.26 21:38:00.
