data_PCOD8236635
_publ_section_title
;
Structure prediction by ZEFSAII (Michael W. Deem and Ramdas Pophale) SiO2 
 PCOD8236635
Probable space group: P N N M
;
_chemical_formula_sum "Si O2"
_cell_formula_units_Z 64
_cell_length_a 15.123762
_cell_length_b 24.460019
_cell_length_c 8.649455
_cell_angle_alpha 90.000000
_cell_angle_beta 90.000000
_cell_angle_gamma 90.000000
_cell_volume 3199.671315
_symmetry_space_group_name_H-M "P N N M"
_symmetry_group_IT_number 58
_symmetry_cell_setting 'orthorhombic'
loop_
_space_group_symop_operation_xyz
x,y,z
-x,-y,z
1/2+x,1/2-y,1/2-z
1/2-x,1/2+y,1/2-z
-x,-y,-z
x,y,-z
1/2-x,1/2+y,1/2+z
1/2+x,1/2-y,1/2+z
loop_
_atom_site_type_symbol
_atom_site_label
_atom_site_fract_x
_atom_site_fract_y
_atom_site_fract_z
Si Si1 0.962233 0.216130 0.680398
Si Si2 0.170105 0.050593 0.318565
Si Si3 0.810147 0.358506 0.179407
Si Si4 0.007095 0.660252 0.318974
Si Si5 0.828339 0.646161 0.819483
Si Si6 0.688459 0.565770 0.680501
Si Si7 0.994525 0.892716 0.819715
Si Si8 0.780447 0.235517 0.820574
O O1 0.977145 0.206275 0.500000
O O2 0.859270 0.209401 0.721081
O O3 0.992985 0.276189 0.732568
O O4 0.018275 0.170684 0.772409
O O5 0.174790 0.038229 0.500000
O O6 0.239374 0.096981 0.267301
O O7 0.072013 0.069614 0.275723
O O8 0.196168 0.997445 0.222892
O O9 0.767321 0.299389 0.216118
O O10 0.900332 0.367637 0.273578
O O11 0.833659 0.363823 0.000000
O O12 0.992706 0.653684 0.500000
O O13 0.927889 0.629849 0.229650
O O14 0.762742 0.597629 0.775092
O O15 0.806651 0.702493 0.728503
O O16 0.823201 0.657097 0.000000
O O17 0.706349 0.574486 0.500000
O O18 0.592276 0.587975 0.727130
O O19 0.975182 0.900534 0.000000
O O20 0.801786 0.225543 0.000000
#
# Coordination Sequence:
#
# PCOD8236635 Si02
#       8
#     8   8   8   8   8   8   8   8
#     4  10  20  35  57  87 122 159 200 244 297 360
#     4  11  24  41  63  90 121 161 206 256 306 365
#     4   9  21  41  62  87 122 160 200 250 307 359
#     4  10  22  39  61  89 124 161 200 252 306 362
#     4  12  24  38  61  91 122 161 206 252 302 364
#     4  11  24  43  63  87 122 162 206 258 307 360
#     4  11  23  38  59  88 123 163 204 250 302 362
#     4  10  19  35  58  85 121 160 196 244 300 359
#
# _framework density 20.002054000000001
#
# number of rings (size 3 to 8) (size 9 to 14) (size 15 to 20)
#    0.000    1.500    1.250    3.750    1.750    6.000 
#    0.000    0.625    0.000    3.750    0.000    0.000 
#    0.000    0.000    0.000    0.000    0.000    0.000 
#
# Total GULP energy -793958.765977 kJ/mol
# GULP energy per Si atom -12405.605718 kJ/mol
# Density = 1.995653 g / cm^3
# Si number density = 20.002054 Si / 1000 Ang^3
#
#
#
# Elastic Constant Matrix: (Units=GPa)
#
#
# Indices 1 2 3 4 5 6 
#
# 1 91.7627 47.0240 29.9090 0.0000 0.0000 0.0000
# 2 47.0240 90.4509 26.0962 0.0000 0.0000 0.0000
# 3 29.9090 26.0962 54.5117 0.0000 0.0000 0.0000
# 4 0.0000 0.0000 0.0000 32.7177 0.0000 0.0000
# 5 0.0000 0.0000 0.0000 0.0000 34.2923 0.0000
# 6 0.0000 0.0000 0.0000 0.0000 0.0000 25.3872
#
#
#
# Elastic Compliance Matrix: (Units=1/GPa)
#
#
# Indices 1 2 3 4 5 6 
#
# 1 0.016225 -0.006807 -0.005644 0.000000 0.000000 0.000000
# 2 -0.006807 0.015683 -0.003773 0.000000 0.000000 0.000000
# 3 -0.005644 -0.003773 0.023248 0.000000 0.000000 0.000000
# 4 0.000000 0.000000 0.000000 0.030564 0.000000 0.000000
# 5 0.000000 0.000000 0.000000 0.000000 0.029161 0.000000
# 6 0.000000 0.000000 0.000000 0.000000 0.000000 0.039390
#
#
# Mechanical properties :
#
#
# Convention : Reuss Voigt Hill
#
# Bulk Modulus (GPa) = 44.03665 49.19819 46.61742
# Shear Modulus (GPa) = 25.73486 27.39252 26.56369
#
# Velocity S-wave (km/s) = 3.59083 3.70467 3.64819
# Velocity P-wave (km/s) = 6.26545 6.55358 6.41114
#
# Compressibility (1/GPa) = 0.02270836
#
# Stress axis : x y z
#
# Youngs Moduli (GPa) = 61.63142 63.76239 43.01533
#
# Poissons Ratio (x) = 0.43404 0.24277
# Poissons Ratio (y) = 0.41953 0.16230
# Poissons Ratio (z) = 0.34783 0.24058
#
# Static dielectric constant tensor:
#      x y z
#    x 3.602420 0.000000 0.000000 
#    y 0.000000 3.635940 0.000000 
#    z 0.000000 0.000000 3.590970 
# 
# 
# High freq. dielectric constant tensor:
#      x y z
#    x 1.779840 0.000000 0.000000 
#    y 0.000000 1.773310 0.000000 
#    z 0.000000 0.000000 1.787780 
# 
# From -- ./inp_files/6840.got.cif
#   From: 2010.06.25/outbox.cif.g09.slc.cpg/sg58_4_cif.got.tgz:6840.got - 2010.06.26 21:38:00.
