data_PCOD8236780
_publ_section_title
;
Structure prediction by ZEFSAII (Michael W. Deem and Ramdas Pophale) SiO2 
 PCOD8236780
Probable space group: P N N M
;
_chemical_formula_sum "Si O2"
_cell_formula_units_Z 64
_cell_length_a 15.311140
_cell_length_b 24.239884
_cell_length_c 8.588454
_cell_angle_alpha 90.000000
_cell_angle_beta 90.000000
_cell_angle_gamma 90.000000
_cell_volume 3187.521029
_symmetry_space_group_name_H-M "P N N M"
_symmetry_group_IT_number 58
_symmetry_cell_setting 'orthorhombic'
loop_
_space_group_symop_operation_xyz
x,y,z
-x,-y,z
1/2+x,1/2-y,1/2-z
1/2-x,1/2+y,1/2-z
-x,-y,-z
x,y,-z
1/2-x,1/2+y,1/2+z
1/2+x,1/2-y,1/2+z
loop_
_atom_site_type_symbol
_atom_site_label
_atom_site_fract_x
_atom_site_fract_y
_atom_site_fract_z
Si Si1 0.587270 0.742071 0.313745
Si Si2 0.731402 0.820525 0.815494
Si Si3 0.599607 0.511670 0.683766
Si Si4 0.891597 0.748441 0.180326
Si Si5 0.646475 0.136591 0.827542
Si Si6 0.246365 0.557997 0.817404
Si Si7 0.596003 0.017595 0.182955
Si Si8 0.151844 0.872447 0.172776
O O1 0.592618 0.745723 0.500000
O O2 0.642825 0.792934 0.247797
O O3 0.488151 0.743001 0.248868
O O4 0.626418 0.684928 0.244385
O O5 0.817330 0.788649 0.746239
O O6 0.732993 0.883917 0.767300
O O7 0.730307 0.815968 0.000000
O O8 0.500000 0.500000 0.722063
O O9 0.620666 0.509970 0.500000
O O10 0.660930 0.467173 0.766716
O O11 0.615551 0.572697 0.756028
O O12 0.866841 0.685022 0.205313
O O13 0.896196 0.761674 0.000000
O O14 0.597318 0.081930 0.770322
O O15 0.746064 0.119743 0.835005
O O16 0.614293 0.155181 0.000000
O O17 0.167735 0.517028 0.775550
O O18 0.246950 0.568580 0.000000
O O19 0.500000 0.000000 0.233792
O O20 0.614050 0.009312 0.000000
O O21 0.110378 0.869926 0.000000
#
# Coordination Sequence:
#
# PCOD8236780 Si02
#       8
#     8   8   8   8   8   8   8   8
#     4  10  21  39  61  88 121 156 196 248 306 358
#     4  11  24  42  62  86 120 162 208 250 297 362
#     4  10  21  39  67  94 120 161 208 250 298 362
#     4  10  23  39  60  89 121 155 198 249 300 357
#     4  10  19  36  62  87 117 155 197 245 296 354
#     4  12  26  42  61  88 127 166 201 253 311 362
#     4  10  22  41  64  91 122 159 205 252 299 363
#     4   9  17  34  61  88 115 150 196 245 295 353
#
# _framework density 20.078299000000001
#
# number of rings (size 3 to 8) (size 9 to 14) (size 15 to 20)
#    0.000    1.750    2.500    1.500    3.500    2.000 
#    0.000    0.625    0.000    0.000    0.000    0.000 
#    0.000    0.000    0.000    0.000    0.000    0.000 
#
# Total GULP energy -793482.655191 kJ/mol
# GULP energy per Si atom -12398.166487 kJ/mol
# Density = 2.003260 g / cm^3
# Si number density = 20.078299 Si / 1000 Ang^3
#
#
#
# Elastic Constant Matrix: (Units=GPa)
#
#
# Indices 1 2 3 4 5 6 
#
# 1 97.0099 8.3883 19.6532 0.0000 0.0000 0.0000
# 2 8.3883 80.6504 7.0753 0.0000 0.0000 0.0000
# 3 19.6532 7.0753 37.6601 0.0000 0.0000 0.0000
# 4 0.0000 0.0000 0.0000 25.6030 0.0000 0.0000
# 5 0.0000 0.0000 0.0000 0.0000 18.3534 0.0000
# 6 0.0000 0.0000 0.0000 0.0000 0.0000 37.0265
#
#
#
# Elastic Compliance Matrix: (Units=1/GPa)
#
#
# Indices 1 2 3 4 5 6 
#
# 1 0.011564 -0.000685 -0.005906 0.000000 0.000000 0.000000
# 2 -0.000685 0.012648 -0.002019 0.000000 0.000000 0.000000
# 3 -0.005906 -0.002019 0.030015 0.000000 0.000000 0.000000
# 4 0.000000 0.000000 0.000000 0.039058 0.000000 0.000000
# 5 0.000000 0.000000 0.000000 0.000000 0.054486 0.000000
# 6 0.000000 0.000000 0.000000 0.000000 0.000000 0.027008
#
#
# Mechanical properties :
#
#
# Convention : Reuss Voigt Hill
#
# Bulk Modulus (GPa) = 27.02189 31.72822 29.37505
# Shear Modulus (GPa) = 24.46995 28.21016 26.34006
#
# Velocity S-wave (km/s) = 3.49481 3.75241 3.62590
# Velocity P-wave (km/s) = 5.45641 5.88308 5.67376
#
# Compressibility (1/GPa) = 0.03700703
#
# Stress axis : x y z
#
# Youngs Moduli (GPa) = 86.47573 79.06698 33.31702
#
# Poissons Ratio (x) = 0.05413 0.19677
# Poissons Ratio (y) = 0.05920 0.06726
# Poissons Ratio (z) = 0.51073 0.15962
#
# Static dielectric constant tensor:
#      x y z
#    x 3.830760 0.000000 0.000000 
#    y 0.000000 3.821140 0.000000 
#    z 0.000000 0.000000 3.429490 
# 
# 
# High freq. dielectric constant tensor:
#      x y z
#    x 1.795280 0.000000 0.000000 
#    y 0.000000 1.800090 0.000000 
#    z 0.000000 0.000000 1.751640 
# 
# From -- ./inp_files/6856.got.cif
#   From: 2010.06.25/outbox.cif.g09.slc.cpg/sg58_4_cif.got.tgz:6856.got - 2010.06.26 21:38:00.
