data_PCOD8236726
_publ_section_title
;
Structure prediction by ZEFSAII (Michael W. Deem and Ramdas Pophale) SiO2 
 PCOD8236726
Probable space group: P N N M
;
_chemical_formula_sum "Si O2"
_cell_formula_units_Z 64
_cell_length_a 21.765369
_cell_length_b 16.751930
_cell_length_c 9.140627
_cell_angle_alpha 90.000000
_cell_angle_beta 90.000000
_cell_angle_gamma 90.000000
_cell_volume 3332.781724
_symmetry_space_group_name_H-M "P N N M"
_symmetry_group_IT_number 58
_symmetry_cell_setting 'orthorhombic'
loop_
_space_group_symop_operation_xyz
x,y,z
-x,-y,z
1/2+x,1/2-y,1/2-z
1/2-x,1/2+y,1/2-z
-x,-y,-z
x,y,-z
1/2-x,1/2+y,1/2+z
1/2+x,1/2-y,1/2+z
loop_
_atom_site_type_symbol
_atom_site_label
_atom_site_fract_x
_atom_site_fract_y
_atom_site_fract_z
Si Si1 0.826104 0.080374 0.170941
Si Si2 0.386378 0.558244 0.831075
Si Si3 0.721462 0.320462 0.838380
Si Si4 0.879868 0.693263 0.667039
Si Si5 0.335577 0.135018 0.171653
Si Si6 0.310403 0.958422 0.173690
Si Si7 0.536283 0.313175 0.328130
Si Si8 0.900578 0.234353 0.167617
O O1 0.757415 0.065031 0.233797
O O2 0.845270 0.172144 0.198550
O O3 0.876251 0.026773 0.255269
O O4 0.830442 0.058694 0.000000
O O5 0.323096 0.605356 0.813235
O O6 0.440382 0.607252 0.752064
O O7 0.404951 0.547142 0.000000
O O8 0.684609 0.238854 0.824508
O O9 0.772792 0.320681 0.714430
O O10 0.752073 0.325424 0.000000
O O11 0.904813 0.694464 0.500000
O O12 0.863146 0.604246 0.722539
O O13 0.930108 0.733204 0.771120
O O14 0.391760 0.184405 0.240531
O O15 0.332263 0.044522 0.233323
O O16 0.344173 0.135212 0.000000
O O17 0.305602 0.958651 0.000000
O O18 0.548930 0.321588 0.500000
O O19 0.464816 0.306015 0.289367
O O20 0.901615 0.260521 0.000000
#
# Coordination Sequence:
#
# PCOD8236726 Si02
#       8
#     8   8   8   8   8   8   8   8
#     4  10  19  36  59  81 111 145 182 224 270 330
#     4  10  20  34  55  84 114 146 178 219 275 325
#     4   9  17  31  52  77 108 142 174 211 268 335
#     4   9  18  35  58  80 106 144 186 227 275 326
#     4  11  21  33  54  82 110 140 178 229 278 325
#     4   9  18  33  55  84 112 138 175 224 277 332
#     4  10  21  38  57  79 108 145 195 234 267 322
#     4  10  23  40  57  77 107 152 190 226 277 330
#
# _framework density 19.203177
#
# number of rings (size 3 to 8) (size 9 to 14) (size 15 to 20)
#    0.000    2.250    1.250    2.625    0.000    6.000 
#    0.000    5.000    0.000    3.750    0.000    0.000 
#    0.000    0.000    0.000    0.000    0.000    0.000 
#
# Total GULP energy -793566.930030 kJ/mol
# GULP energy per Si atom -12399.483282 kJ/mol
# Density = 1.915947 g / cm^3
# Si number density = 19.203177 Si / 1000 Ang^3
#
#
#
# Elastic Constant Matrix: (Units=GPa)
#
#
# Indices 1 2 3 4 5 6 
#
# 1 44.6243 19.8823 22.1572 0.0000 0.0000 0.0000
# 2 19.8823 95.4689 31.6432 0.0000 0.0000 0.0000
# 3 22.1572 31.6432 65.3065 0.0000 0.0000 0.0000
# 4 0.0000 0.0000 0.0000 29.2082 0.0000 0.0000
# 5 0.0000 0.0000 0.0000 0.0000 28.8191 0.0000
# 6 0.0000 0.0000 0.0000 0.0000 0.0000 19.5930
#
#
#
# Elastic Compliance Matrix: (Units=1/GPa)
#
#
# Indices 1 2 3 4 5 6 
#
# 1 0.027729 -0.003165 -0.007875 0.000000 0.000000 0.000000
# 2 -0.003165 0.012840 -0.005148 0.000000 0.000000 0.000000
# 3 -0.007875 -0.005148 0.020478 0.000000 0.000000 0.000000
# 4 0.000000 0.000000 0.000000 0.034237 0.000000 0.000000
# 5 0.000000 0.000000 0.000000 0.000000 0.034699 0.000000
# 6 0.000000 0.000000 0.000000 0.000000 0.000000 0.051039
#
#
# Mechanical properties :
#
#
# Convention : Reuss Voigt Hill
#
# Bulk Modulus (GPa) = 34.87539 39.19612 37.03575
# Shear Modulus (GPa) = 22.42613 24.30519 23.36566
#
# Velocity S-wave (km/s) = 3.42107 3.56151 3.49199
# Velocity P-wave (km/s) = 5.81426 6.11294 5.96547
#
# Compressibility (1/GPa) = 0.02867352
#
# Stress axis : x y z
#
# Youngs Moduli (GPa) = 36.06289 77.88229 48.83224
#
# Poissons Ratio (x) = 0.24649 0.38453
# Poissons Ratio (y) = 0.11413 0.25137
# Poissons Ratio (z) = 0.28398 0.40091
#
# Static dielectric constant tensor:
#      x y z
#    x 3.353580 0.000000 0.000000 
#    y 0.000000 3.668670 0.000000 
#    z 0.000000 0.000000 3.392930 
# 
# 
# High freq. dielectric constant tensor:
#      x y z
#    x 1.731040 0.000000 0.000000 
#    y 0.000000 1.752800 0.000000 
#    z 0.000000 0.000000 1.732070 
# 
# From -- ./inp_files/8336.got.cif
#   From: 2010.06.25/outbox.cif.g09.slc.cpg/sg58_5_cif.got.tgz:8336.got - 2010.06.26 21:38:00.
