data_PCOD8236542
_publ_section_title
;
Structure prediction by ZEFSAII (Michael W. Deem and Ramdas Pophale) SiO2 
 PCOD8236542
Probable space group: P N N M
;
_chemical_formula_sum "Si O2"
_cell_formula_units_Z 48
_cell_length_a 18.969528
_cell_length_b 16.559907
_cell_length_c 7.611170
_cell_angle_alpha 90.000000
_cell_angle_beta 90.000000
_cell_angle_gamma 90.000000
_cell_volume 2390.924381
_symmetry_space_group_name_H-M "P N N M"
_symmetry_group_IT_number 58
_symmetry_cell_setting 'orthorhombic'
loop_
_space_group_symop_operation_xyz
x,y,z
-x,-y,z
1/2+x,1/2-y,1/2-z
1/2-x,1/2+y,1/2-z
-x,-y,-z
x,y,-z
1/2-x,1/2+y,1/2+z
1/2+x,1/2-y,1/2+z
loop_
_atom_site_type_symbol
_atom_site_label
_atom_site_fract_x
_atom_site_fract_y
_atom_site_fract_z
Si Si1 0.843375 0.638718 0.301347
Si Si2 0.420299 0.017874 0.707779
Si Si3 0.060572 0.112135 0.500000
Si Si4 0.552767 0.269458 0.697551
Si Si5 0.908778 0.303720 0.204623
Si Si6 0.183462 0.844188 0.205913
Si Si7 0.398581 0.435324 0.000000
O O1 0.847597 0.670218 0.500000
O O2 0.867020 0.545797 0.292768
O O3 0.893565 0.694518 0.184490
O O4 0.763761 0.647349 0.232449
O O5 0.412726 0.011446 0.500000
O O6 0.398162 0.106342 0.782098
O O7 0.500000 0.000000 0.768160
O O8 0.081902 0.160934 0.675525
O O9 0.978579 0.092441 0.500000
O O10 0.107537 0.031888 0.500000
O O11 0.543015 0.304294 0.500000
O O12 0.479029 0.238380 0.781264
O O13 0.841199 0.247965 0.244997
O O14 0.923384 0.314350 0.000000
O O15 0.137607 0.904827 0.321725
O O16 0.172693 0.865718 0.000000
#
# Coordination Sequence:
#
# PCOD8236542 Si02
#       7
#     8   8   4   8   8   8   4
#     4  11  23  39  59  91 129 166 212 261 307 380
#     4  10  19  34  58  90 123 157 206 256 313 375
#     4  11  24  42  64 102 119 150 227 270 302 379
#     4  11  21  39  65  91 128 163 203 260 318 371
#     4   9  18  37  62  86 120 166 205 249 310 378
#     4  10  23  43  62  88 128 172 211 254 319 379
#     4  11  24  42  70  89 123 169 206 266 324 366
#
# _framework density 20.075918000000001
#
# number of rings (size 3 to 8) (size 9 to 14) (size 15 to 20)
#    0.000    1.667    4.167    0.500    2.333    1.000 
#    6.000    1.667    0.000    0.000    0.000    0.000 
#    0.000    0.000    0.000    0.000    0.000    0.000 
#
# Total GULP energy -595275.335358 kJ/mol
# GULP energy per Si atom -12401.569487 kJ/mol
# Density = 2.003022 g / cm^3
# Si number density = 20.075918 Si / 1000 Ang^3
#
#
#
# Elastic Constant Matrix: (Units=GPa)
#
#
# Indices 1 2 3 4 5 6 
#
# 1 117.5446 56.1773 19.5678 0.0000 0.0000 0.0000
# 2 56.1773 158.8374 37.3517 0.0000 0.0000 0.0000
# 3 19.5678 37.3517 73.3241 0.0000 0.0000 0.0000
# 4 0.0000 0.0000 0.0000 21.3160 0.0000 0.0000
# 5 0.0000 0.0000 0.0000 0.0000 19.8314 0.0000
# 6 0.0000 0.0000 0.0000 0.0000 0.0000 33.9655
#
#
#
# Elastic Compliance Matrix: (Units=1/GPa)
#
#
# Indices 1 2 3 4 5 6 
#
# 1 0.010304 -0.003406 -0.001015 0.000000 0.000000 0.000000
# 2 -0.003406 0.008278 -0.003308 0.000000 0.000000 0.000000
# 3 -0.001015 -0.003308 0.015594 0.000000 0.000000 0.000000
# 4 0.000000 0.000000 0.000000 0.046913 0.000000 0.000000
# 5 0.000000 0.000000 0.000000 0.000000 0.050425 0.000000
# 6 0.000000 0.000000 0.000000 0.000000 0.000000 0.029442
#
#
# Mechanical properties :
#
#
# Convention : Reuss Voigt Hill
#
# Bulk Modulus (GPa) = 53.42188 63.98886 58.70537
# Shear Modulus (GPa) = 27.37429 30.79653 29.08541
#
# Velocity S-wave (km/s) = 3.69662 3.92088 3.81040
# Velocity P-wave (km/s) = 6.69983 7.24158 6.97596
#
# Compressibility (1/GPa) = 0.01871892
#
# Stress axis : x y z
#
# Youngs Moduli (GPa) = 97.04969 120.79972 64.12679
#
# Poissons Ratio (x) = 0.41140 0.06509
# Poissons Ratio (y) = 0.33052 0.21214
# Poissons Ratio (z) = 0.09850 0.39962
#
# Static dielectric constant tensor:
#      x y z
#    x 3.556340 0.000000 0.000000 
#    y 0.000000 3.784990 0.000000 
#    z 0.000000 0.000000 3.507010 
# 
# 
# High freq. dielectric constant tensor:
#      x y z
#    x 1.771270 0.000000 0.000000 
#    y 0.000000 1.782850 0.000000 
#    z 0.000000 0.000000 1.782600 
# 
# From -- ./inp_files/7754.got.cif
#   From: 2010.06.25/outbox.cif.g09.slc.cpg/sg58_4_cif.got.tgz:7754.got - 2010.06.26 21:38:00.
