data_PCOD8236375
_publ_section_title
;
Structure prediction by ZEFSAII (Michael W. Deem and Ramdas Pophale) SiO2 
 PCOD8236375
Probable space group: P N N M
;
_chemical_formula_sum "Si O2"
_cell_formula_units_Z 64
_cell_length_a 23.956947
_cell_length_b 15.436053
_cell_length_c 8.932128
_cell_angle_alpha 90.000000
_cell_angle_beta 90.000000
_cell_angle_gamma 90.000000
_cell_volume 3303.107219
_symmetry_space_group_name_H-M "P N N M"
_symmetry_group_IT_number 58
_symmetry_cell_setting 'orthorhombic'
loop_
_space_group_symop_operation_xyz
x,y,z
-x,-y,z
1/2+x,1/2-y,1/2-z
1/2-x,1/2+y,1/2-z
-x,-y,-z
x,y,-z
1/2-x,1/2+y,1/2+z
1/2+x,1/2-y,1/2+z
loop_
_atom_site_type_symbol
_atom_site_label
_atom_site_fract_x
_atom_site_fract_y
_atom_site_fract_z
Si Si1 0.496683 0.158385 0.177152
Si Si2 0.503897 0.355944 0.823010
Si Si3 0.118809 0.097593 0.827535
Si Si4 0.188207 0.244156 0.677104
Si Si5 0.393134 0.404166 0.672458
Si Si6 0.621031 0.905996 0.177362
Si Si7 0.385883 0.901886 0.822235
Si Si8 0.684393 0.752575 0.323759
O O1 0.496573 0.257356 0.228928
O O2 0.441096 0.113103 0.239874
O O3 0.551651 0.111539 0.242761
O O4 0.497264 0.151061 0.000000
O O5 0.558724 0.393294 0.747353
O O6 0.449584 0.407585 0.768873
O O7 0.510175 0.365705 0.000000
O O8 0.165474 0.156094 0.749179
O O9 0.137306 0.997098 0.810917
O O10 0.114387 0.125009 0.000000
O O11 0.181076 0.235100 0.500000
O O12 0.153984 0.326498 0.740558
O O13 0.251762 0.260740 0.724618
O O14 0.408975 0.386363 0.500000
O O15 0.351504 0.329617 0.733753
O O16 0.664742 0.841324 0.249796
O O17 0.636885 0.003846 0.225959
O O18 0.623346 0.893501 0.000000
O O19 0.387912 0.895445 0.000000
O O20 0.678690 0.762069 0.500000
#
# Coordination Sequence:
#
# PCOD8236375 Si02
#       8
#     8   8   8   8   8   8   8   8
#     4   9  16  29  53  85 112 136 173 221 271 323
#     4  11  20  34  59  87 115 148 187 229 276 334
#     4  11  23  38  58  85 115 148 186 230 281 334
#     4  10  21  39  59  80 107 147 193 231 275 329
#     4  10  22  39  57  81 116 153 187 228 282 338
#     4  10  19  33  58  87 111 139 180 229 278 331
#     4   9  17  32  57  84 110 139 178 228 274 326
#     4  10  22  39  57  77 110 150 187 232 280 326
#
# _framework density 19.375696000000001
#
# number of rings (size 3 to 8) (size 9 to 14) (size 15 to 20)
#    0.000    2.000    2.500    1.500    0.000    5.500 
#    0.000    3.125    0.000    0.750    0.000    0.000 
#    0.000    0.000    0.000    0.000    0.000    0.000 
#
# Total GULP energy -793619.372582 kJ/mol
# GULP energy per Si atom -12400.302697 kJ/mol
# Density = 1.933160 g / cm^3
# Si number density = 19.375696 Si / 1000 Ang^3
#
#
#
# Elastic Constant Matrix: (Units=GPa)
#
#
# Indices 1 2 3 4 5 6 
#
# 1 108.7852 45.9923 37.1437 0.0000 0.0000 0.0000
# 2 45.9923 111.8475 29.1463 0.0000 0.0000 0.0000
# 3 37.1437 29.1463 32.5130 0.0000 0.0000 0.0000
# 4 0.0000 0.0000 0.0000 25.3487 0.0000 0.0000
# 5 0.0000 0.0000 0.0000 0.0000 25.5604 0.0000
# 6 0.0000 0.0000 0.0000 0.0000 0.0000 19.3563
#
#
#
# Elastic Compliance Matrix: (Units=1/GPa)
#
#
# Indices 1 2 3 4 5 6 
#
# 1 0.015511 -0.002297 -0.015661 0.000000 0.000000 0.000000
# 2 -0.002297 0.012006 -0.008139 0.000000 0.000000 0.000000
# 3 -0.015661 -0.008139 0.055944 0.000000 0.000000 0.000000
# 4 0.000000 0.000000 0.000000 0.039450 0.000000 0.000000
# 5 0.000000 0.000000 0.000000 0.000000 0.039123 0.000000
# 6 0.000000 0.000000 0.000000 0.000000 0.000000 0.051663
#
#
# Mechanical properties :
#
#
# Convention : Reuss Voigt Hill
#
# Bulk Modulus (GPa) = 31.98156 53.07894 42.53025
# Shear Modulus (GPa) = 18.09549 23.44398 20.76974
#
# Velocity S-wave (km/s) = 3.05934 3.48223 3.27761
# Velocity P-wave (km/s) = 5.38714 6.60470 6.02674
#
# Compressibility (1/GPa) = 0.03126802
#
# Stress axis : x y z
#
# Youngs Moduli (GPa) = 64.47128 83.29048 17.87506
#
# Poissons Ratio (x) = 0.19133 0.27993
# Poissons Ratio (y) = 0.14810 0.14548
# Poissons Ratio (z) = 1.00966 0.67787
#
# Static dielectric constant tensor:
#      x y z
#    x 3.613440 0.000000 0.000000 
#    y 0.000000 3.790380 0.000000 
#    z 0.000000 0.000000 3.233520 
# 
# 
# High freq. dielectric constant tensor:
#      x y z
#    x 1.752870 0.000000 0.000000 
#    y 0.000000 1.770690 0.000000 
#    z 0.000000 0.000000 1.721150 
# 
# From -- ./inp_files/10069.got.cif
#   From: 2010.06.25/outbox.cif.g09.slc.cpg/sg58_6_cif.got.tgz:10069.got - 2010.06.26 21:38:00.
