data_PCOD8236439
_publ_section_title
;
Structure prediction by ZEFSAII (Michael W. Deem and Ramdas Pophale) SiO2 
 PCOD8236439
Probable space group: P N N M
;
_chemical_formula_sum "Si O2"
_cell_formula_units_Z 64
_cell_length_a 19.830341
_cell_length_b 19.147682
_cell_length_c 9.168570
_cell_angle_alpha 90.000000
_cell_angle_beta 90.000000
_cell_angle_gamma 90.000000
_cell_volume 3481.352453
_symmetry_space_group_name_H-M "P N N M"
_symmetry_group_IT_number 58
_symmetry_cell_setting 'orthorhombic'
loop_
_space_group_symop_operation_xyz
x,y,z
-x,-y,z
1/2+x,1/2-y,1/2-z
1/2-x,1/2+y,1/2-z
-x,-y,-z
x,y,-z
1/2-x,1/2+y,1/2+z
1/2+x,1/2-y,1/2+z
loop_
_atom_site_type_symbol
_atom_site_label
_atom_site_fract_x
_atom_site_fract_y
_atom_site_fract_z
Si Si1 0.005183 0.717227 0.670716
Si Si2 0.960118 0.566043 0.672673
Si Si3 0.189017 0.406168 0.331287
Si Si4 0.649887 0.722423 0.168793
Si Si5 0.399771 0.686579 0.331831
Si Si6 0.927944 0.973325 0.832467
Si Si7 0.280226 0.745933 0.168268
Si Si8 0.321352 0.435415 0.170445
O O1 0.988889 0.727522 0.500000
O O2 0.079355 0.743215 0.711151
O O3 0.999045 0.636511 0.717898
O O4 0.952387 0.761131 0.761317
O O5 0.958090 0.559824 0.500000
O O6 0.882890 0.566687 0.728874
O O7 0.000000 0.500000 0.740957
O O8 0.200194 0.425480 0.500000
O O9 0.190077 0.323118 0.308861
O O10 0.247272 0.443469 0.239327
O O11 0.705811 0.760737 0.265305
O O12 0.647346 0.640328 0.206429
O O13 0.667942 0.734091 0.000000
O O14 0.389962 0.706632 0.500000
O O15 0.427828 0.609241 0.312233
O O16 0.328031 0.691822 0.251762
O O17 0.869319 0.006251 0.736530
O O18 0.916481 0.995574 0.000000
O O19 0.000000 0.000000 0.775107
O O20 0.276943 0.724737 0.000000
O O21 0.314734 0.448647 0.000000
#
# Coordination Sequence:
#
# PCOD8236439 Si02
#       8
#     8   8   8   8   8   8   8   8
#     4  10  19  35  57  82 111 142 181 225 275 330
#     4   9  17  32  55  81 106 138 183 228 268 320
#     4   9  17  33  56  79 105 142 185 223 264 320
#     4   9  19  34  54  82 114 144 179 227 275 324
#     4  11  22  35  56  82 109 142 183 231 278 326
#     4  10  22  39  56  78 109 144 184 227 273 331
#     4  10  19  34  56  79 106 142 184 225 269 327
#     4  10  20  34  54  81 111 146 183 223 275 325
#
# _framework density 18.383659999999999
#
# number of rings (size 3 to 8) (size 9 to 14) (size 15 to 20)
#    0.000    2.250    1.250    1.875    0.000    2.750 
#    2.250    0.000    0.000    1.500    0.000    0.000 
#    0.000    0.000    0.000    0.000    0.000    0.000 
#
# Total GULP energy -793805.399369 kJ/mol
# GULP energy per Si atom -12403.209365 kJ/mol
# Density = 1.834182 g / cm^3
# Si number density = 18.383660 Si / 1000 Ang^3
#
#
#
# Elastic Constant Matrix: (Units=GPa)
#
#
# Indices 1 2 3 4 5 6 
#
# 1 120.3332 45.6900 42.2000 0.0000 0.0000 0.0000
# 2 45.6900 72.1294 27.0947 0.0000 0.0000 0.0000
# 3 42.2000 27.0947 67.5040 0.0000 0.0000 0.0000
# 4 0.0000 0.0000 0.0000 -20.7159 0.0000 0.0000
# 5 0.0000 0.0000 0.0000 0.0000 29.7904 0.0000
# 6 0.0000 0.0000 0.0000 0.0000 0.0000 33.0997
#
#
#
# Elastic Compliance Matrix: (Units=1/GPa)
#
#
# Indices 1 2 3 4 5 6 
#
# 1 0.012429 -0.005834 -0.005428 0.000000 0.000000 0.000000
# 2 -0.005834 0.019064 -0.004005 0.000000 0.000000 0.000000
# 3 -0.005428 -0.004005 0.019815 0.000000 0.000000 0.000000
# 4 0.000000 0.000000 0.000000 -0.048272 0.000000 0.000000
# 5 0.000000 0.000000 0.000000 0.000000 0.033568 0.000000
# 6 0.000000 0.000000 0.000000 0.000000 0.000000 0.030212
#
#
# Mechanical properties :
#
#
# Convention : Reuss Voigt Hill
#
# Bulk Modulus (GPa) = 48.13796 54.43732 51.28764
# Shear Modulus (GPa) = 47.95052 18.10029 33.02541
#
# Velocity S-wave (km/s) = 5.11272 3.14122 4.24306
# Velocity P-wave (km/s) = 7.81634 6.54465 7.20859
#
# Compressibility (1/GPa) = 0.02077363
#
# Stress axis : x y z
#
# Youngs Moduli (GPa) = 80.45629 52.45531 50.46715
#
# Poissons Ratio (x) = 0.30603 0.27395
# Poissons Ratio (y) = 0.46939 0.20210
# Poissons Ratio (z) = 0.43675 0.21007
#
# Static dielectric constant tensor:
#      x y z
#    x 3.667580 0.000000 0.000000 
#    y 0.000000 3.350820 0.000000 
#    z 0.000000 0.000000 3.314200 
# 
# 
# High freq. dielectric constant tensor:
#      x y z
#    x 1.725480 0.000000 0.000000 
#    y 0.000000 1.701330 0.000000 
#    z 0.000000 0.000000 1.702200 
# 
# From -- ./inp_files/9274.got.cif
#   From: 2010.06.25/outbox.cif.g09.slc.cpg/sg58_5_cif.got.tgz:9274.got - 2010.06.26 21:38:00.
