data_PCOD8236146
_publ_section_title
;
Structure prediction by ZEFSAII (Michael W. Deem and Ramdas Pophale) SiO2 
 PCOD8236146
Probable space group: P N N M
;
_chemical_formula_sum "Si O2"
_cell_formula_units_Z 48
_cell_length_a 14.637339
_cell_length_b 20.012526
_cell_length_c 9.139243
_cell_angle_alpha 90.000000
_cell_angle_beta 90.000000
_cell_angle_gamma 90.000000
_cell_volume 2677.159615
_symmetry_space_group_name_H-M "P N N M"
_symmetry_group_IT_number 58
_symmetry_cell_setting 'orthorhombic'
loop_
_space_group_symop_operation_xyz
x,y,z
-x,-y,z
1/2+x,1/2-y,1/2-z
1/2-x,1/2+y,1/2-z
-x,-y,-z
x,y,-z
1/2-x,1/2+y,1/2+z
1/2+x,1/2-y,1/2+z
loop_
_atom_site_type_symbol
_atom_site_label
_atom_site_fract_x
_atom_site_fract_y
_atom_site_fract_z
Si Si1 0.573225 0.443607 0.828536
Si Si2 0.910678 0.543925 0.831165
Si Si3 0.189993 0.836659 0.167557
Si Si4 0.013616 0.805269 0.672153
Si Si5 0.768503 0.012201 0.828279
Si Si6 0.395586 0.820781 0.171488
O O1 0.500000 0.500000 0.789105
O O2 0.534761 0.372865 0.773180
O O3 0.665733 0.456453 0.739587
O O4 0.596379 0.443131 0.000000
O O5 0.829836 0.505822 0.747082
O O6 0.931016 0.616027 0.761742
O O7 0.000000 0.500000 0.812715
O O8 0.882955 0.553106 0.000000
O O9 0.114673 0.798409 0.262203
O O10 0.289145 0.806111 0.204939
O O11 0.189550 0.915127 0.205601
O O12 0.164492 0.824680 0.000000
O O13 0.024750 0.806803 0.500000
O O14 0.953027 0.742937 0.723824
O O15 0.756488 0.999935 0.000000
O O16 0.408312 0.836629 0.000000
#
# Coordination Sequence:
#
# PCOD8236146 Si02
#       6
#     8   8   8   8   8   8
#     4  10  19  32  53  82 113 144 180 223 270 319
#     4  10  21  38  60  83 106 138 182 227 274 328
#     4   9  18  33  53  75 102 140 180 219 267 319
#     4  10  20  35  55  78 109 146 181 223 270 321
#     4  10  20  34  55  81 110 143 179 223 270 324
#     4   9  20  38  56  78 109 145 181 221 274 326
#
# _framework density 17.929449999999999
#
# number of rings (size 3 to 8) (size 9 to 14) (size 15 to 20)
#    0.000    2.333    1.667    2.000    0.000    5.667 
#    3.000    0.000    0.000    0.000    0.000    0.000 
#    0.000    0.000    0.000    0.000    0.000    0.000 
#
# Total GULP energy -595342.008358 kJ/mol
# GULP energy per Si atom -12402.958507 kJ/mol
# Density = 1.788864 g / cm^3
# Si number density = 17.929450 Si / 1000 Ang^3
#
#
#
# Elastic Constant Matrix: (Units=GPa)
#
#
# Indices 1 2 3 4 5 6 
#
# 1 122.1437 63.4093 58.1982 0.0000 0.0000 0.0000
# 2 63.4093 89.9706 41.2681 0.0000 0.0000 0.0000
# 3 58.1982 41.2681 69.9676 0.0000 0.0000 0.0000
# 4 0.0000 0.0000 0.0000 21.8928 0.0000 0.0000
# 5 0.0000 0.0000 0.0000 0.0000 34.8410 0.0000
# 6 0.0000 0.0000 0.0000 0.0000 0.0000 31.1770
#
#
#
# Elastic Compliance Matrix: (Units=1/GPa)
#
#
# Indices 1 2 3 4 5 6 
#
# 1 0.016435 -0.007283 -0.009375 0.000000 0.000000 0.000000
# 2 -0.007283 0.018464 -0.004833 0.000000 0.000000 0.000000
# 3 -0.009375 -0.004833 0.024940 0.000000 0.000000 0.000000
# 4 0.000000 0.000000 0.000000 0.045677 0.000000 0.000000
# 5 0.000000 0.000000 0.000000 0.000000 0.028702 0.000000
# 6 0.000000 0.000000 0.000000 0.000000 0.000000 0.032075
#
#
# Mechanical properties :
#
#
# Convention : Reuss Voigt Hill
#
# Bulk Modulus (GPa) = 59.31562 67.53700 63.42631
# Shear Modulus (GPa) = 23.26740 25.52925 24.39833
#
# Velocity S-wave (km/s) = 3.60630 3.77752 3.69290
# Velocity P-wave (km/s) = 7.10599 7.53499 7.32363
#
# Compressibility (1/GPa) = 0.01685897
#
# Stress axis : x y z
#
# Youngs Moduli (GPa) = 60.84735 54.15892 40.09552
#
# Poissons Ratio (x) = 0.39443 0.37588
# Poissons Ratio (y) = 0.44314 0.19377
# Poissons Ratio (z) = 0.57042 0.26174
#
# Static dielectric constant tensor:
#      x y z
#    x 3.335210 0.000000 0.000000 
#    y 0.000000 3.300270 0.000000 
#    z 0.000000 0.000000 3.286890 
# 
# 
# High freq. dielectric constant tensor:
#      x y z
#    x 1.700320 0.000000 0.000000 
#    y 0.000000 1.678710 0.000000 
#    z 0.000000 0.000000 1.695080 
# 
# From -- ./inp_files/4233.got.cif
#   From: 2010.06.25/outbox.cif.g09.slc.cpg/sg58_3_cif.got.tgz:4233.got - 2010.06.26 21:38:00.
