data_PCOD8236041
_publ_section_title
;
Structure prediction by ZEFSAII (Michael W. Deem and Ramdas Pophale) SiO2 
 PCOD8236041
Probable space group: P N N M
;
_chemical_formula_sum "Si O2"
_cell_formula_units_Z 64
_cell_length_a 36.534992
_cell_length_b 10.253902
_cell_length_c 9.510402
_cell_angle_alpha 90.000000
_cell_angle_beta 90.000000
_cell_angle_gamma 90.000000
_cell_volume 3562.846024
_symmetry_space_group_name_H-M "P N N M"
_symmetry_group_IT_number 58
_symmetry_cell_setting 'orthorhombic'
loop_
_space_group_symop_operation_xyz
x,y,z
-x,-y,z
1/2+x,1/2-y,1/2-z
1/2-x,1/2+y,1/2-z
-x,-y,-z
x,y,-z
1/2-x,1/2+y,1/2+z
1/2+x,1/2-y,1/2+z
loop_
_atom_site_type_symbol
_atom_site_label
_atom_site_fract_x
_atom_site_fract_y
_atom_site_fract_z
Si Si1 0.398018 0.515418 0.665004
Si Si2 0.830681 0.888258 0.339398
Si Si3 0.708535 0.121825 0.162263
Si Si4 0.024737 0.115622 0.167317
Si Si5 0.333875 0.137523 0.834973
Si Si6 0.902901 0.286865 0.165664
Si Si7 0.983455 0.366396 0.167265
Si Si8 0.281109 0.372740 0.837564
O O1 0.391825 0.529479 0.500000
O O2 0.364213 0.581089 0.740234
O O3 0.433663 0.594573 0.716052
O O4 0.402412 0.364856 0.707256
O O5 0.843137 0.908985 0.500000
O O6 0.818794 0.740957 0.309891
O O7 0.797144 0.984711 0.304715
O O8 0.744840 0.147050 0.249314
O O9 0.688730 0.989851 0.211090
O O10 0.720069 0.113370 0.000000
O O11 0.009134 0.251248 0.227219
O O12 0.022241 0.112809 0.000000
O O13 0.000000 0.000000 0.229931
O O14 0.371519 0.136819 0.749042
O O15 0.310719 0.264648 0.792218
O O16 0.343102 0.135692 0.000000
O O17 0.941574 0.347028 0.215296
O O18 0.896610 0.306368 0.000000
O O19 0.000000 0.500000 0.229026
O O20 0.984963 0.365664 0.000000
O O21 0.270664 0.355405 0.000000
#
# Coordination Sequence:
#
# PCOD8236041 Si02
#       8
#     8   8   8   8   8   8   8   8
#     4  10  19  31  53  81 103 133 178 219 255 302
#     4  10  21  37  54  76 107 139 170 210 261 309
#     4  10  22  37  54  77 106 138 172 212 261 311
#     4   9  15  27  47  70  99 132 165 206 254 298
#     4  10  21  37  55  77 106 142 175 207 260 319
#     4  10  19  32  53  80 105 134 177 220 256 303
#     4   9  17  29  47  74 106 135 166 211 262 305
#     4  10  20  35  56  78 102 136 176 213 255 308
#
# _framework density 17.963168
#
# number of rings (size 3 to 8) (size 9 to 14) (size 15 to 20)
#    0.000    2.250    2.500    0.750    0.000    3.000 
#    0.000    1.250    0.000    1.500    0.000    0.000 
#    0.000    0.000    0.000    0.000    0.000    0.000 
#
# Total GULP energy -793718.878444 kJ/mol
# GULP energy per Si atom -12401.857476 kJ/mol
# Density = 1.792228 g / cm^3
# Si number density = 17.963168 Si / 1000 Ang^3
#
#
#
# Elastic Constant Matrix: (Units=GPa)
#
#
# Indices 1 2 3 4 5 6 
#
# 1 126.9839 40.4582 47.0079 0.0000 0.0000 0.0000
# 2 40.4582 105.1953 22.8470 0.0000 0.0000 0.0000
# 3 47.0079 22.8470 35.2862 0.0000 0.0000 0.0000
# 4 0.0000 0.0000 0.0000 16.2402 0.0000 0.0000
# 5 0.0000 0.0000 0.0000 0.0000 23.5533 0.0000
# 6 0.0000 0.0000 0.0000 0.0000 0.0000 25.1759
#
#
#
# Elastic Compliance Matrix: (Units=1/GPa)
#
#
# Indices 1 2 3 4 5 6 
#
# 1 0.015810 -0.001753 -0.019928 0.000000 0.000000 0.000000
# 2 -0.001753 0.011256 -0.004953 0.000000 0.000000 0.000000
# 3 -0.019928 -0.004953 0.058094 0.000000 0.000000 0.000000
# 4 0.000000 0.000000 0.000000 0.061575 0.000000 0.000000
# 5 0.000000 0.000000 0.000000 0.000000 0.042457 0.000000
# 6 0.000000 0.000000 0.000000 0.000000 0.000000 0.039721
#
#
# Mechanical properties :
#
#
# Convention : Reuss Voigt Hill
#
# Bulk Modulus (GPa) = 31.35414 54.23241 42.79328
# Shear Modulus (GPa) = 17.07582 23.47069 20.27326
#
# Velocity S-wave (km/s) = 3.08653 3.61862 3.36311
# Velocity P-wave (km/s) = 5.49498 6.90765 6.24141
#
# Compressibility (1/GPa) = 0.03189371
#
# Stress axis : x y z
#
# Youngs Moduli (GPa) = 63.24941 88.84191 17.21340
#
# Poissons Ratio (x) = 0.15571 0.34302
# Poissons Ratio (y) = 0.11086 0.08526
# Poissons Ratio (z) = 1.26042 0.44004
#
# Static dielectric constant tensor:
#      x y z
#    x 3.311340 0.000000 0.000000 
#    y 0.000000 3.586950 0.000000 
#    z 0.000000 0.000000 3.005840 
# 
# 
# High freq. dielectric constant tensor:
#      x y z
#    x 1.703510 0.000000 0.000000 
#    y 0.000000 1.707050 0.000000 
#    z 0.000000 0.000000 1.660640 
# 
# From -- ./inp_files/17985.got.cif
#   From: 2010.06.25/outbox.cif.g09.slc.cpg/sg58_9_cif.got.tgz:17985.got - 2010.06.26 21:38:00.
