data_PCOD8236592
_publ_section_title
;
Structure prediction by ZEFSAII (Michael W. Deem and Ramdas Pophale) SiO2 
 PCOD8236592
Probable space group: P N N M
;
_chemical_formula_sum "Si O2"
_cell_formula_units_Z 48
_cell_length_a 10.093779
_cell_length_b 29.828713
_cell_length_c 8.463071
_cell_angle_alpha 90.000000
_cell_angle_beta 90.000000
_cell_angle_gamma 90.000000
_cell_volume 2548.098966
_symmetry_space_group_name_H-M "P N N M"
_symmetry_group_IT_number 58
_symmetry_cell_setting 'orthorhombic'
loop_
_space_group_symop_operation_xyz
x,y,z
-x,-y,z
1/2+x,1/2-y,1/2-z
1/2-x,1/2+y,1/2-z
-x,-y,-z
x,y,-z
1/2-x,1/2+y,1/2+z
1/2+x,1/2-y,1/2+z
loop_
_atom_site_type_symbol
_atom_site_label
_atom_site_fract_x
_atom_site_fract_y
_atom_site_fract_z
Si Si1 0.359200 0.617001 0.313522
Si Si2 0.126985 0.217330 0.813584
Si Si3 0.156371 0.885189 0.184371
Si Si4 0.153354 0.788589 0.684823
Si Si5 0.639721 0.950167 0.814235
Si Si6 0.642865 0.045391 0.317415
O O1 0.352147 0.613942 0.500000
O O2 0.327706 0.667667 0.258123
O O3 0.507065 0.603266 0.259357
O O4 0.251942 0.582676 0.241802
O O5 0.240276 0.251624 0.762155
O O6 0.991271 0.230755 0.726330
O O7 0.099833 0.217873 0.000000
O O8 0.186022 0.833204 0.217365
O O9 0.253790 0.915462 0.285719
O O10 0.177880 0.894931 0.000000
O O11 0.163304 0.799149 0.500000
O O12 0.502683 0.937555 0.729883
O O13 0.681976 0.001316 0.781592
O O14 0.621333 0.943128 0.000000
O O15 0.643960 0.032303 0.500000
#
# Coordination Sequence:
#
# PCOD8236592 Si02
#       6
#     8   8   8   8   8   8
#     4   8  17  34  56  78 101 133 176 219 255 304
#     4   9  19  36  54  76 108 141 173 212 259 309
#     4  10  20  37  57  77 104 139 176 216 265 317
#     4  10  20  34  54  81 109 138 177 221 261 306
#     4  10  19  35  57  79 103 138 180 217 260 313
#     4  11  22  36  52  77 110 139 172 217 265 313
#
# _framework density 18.837572999999999
#
# number of rings (size 3 to 8) (size 9 to 14) (size 15 to 20)
#    0.000    2.333    0.000    5.000    0.000    3.333 
#    0.000   13.333    0.000    0.000    0.000    0.000 
#    0.000    0.000    0.000    0.000    0.000    0.000 
#
# Total GULP energy -595256.216544 kJ/mol
# GULP energy per Si atom -12401.171178 kJ/mol
# Density = 1.879470 g / cm^3
# Si number density = 18.837573 Si / 1000 Ang^3
#
#
#
# Elastic Constant Matrix: (Units=GPa)
#
#
# Indices 1 2 3 4 5 6 
#
# 1 134.8957 88.9718 17.1290 0.0000 0.0000 0.0000
# 2 88.9718 95.9719 8.3647 0.0000 0.0000 0.0000
# 3 17.1290 8.3647 42.9051 0.0000 0.0000 0.0000
# 4 0.0000 0.0000 0.0000 25.9997 0.0000 0.0000
# 5 0.0000 0.0000 0.0000 0.0000 23.1291 0.0000
# 6 0.0000 0.0000 0.0000 0.0000 0.0000 45.3161
#
#
#
# Elastic Compliance Matrix: (Units=1/GPa)
#
#
# Indices 1 2 3 4 5 6 
#
# 1 0.019869 -0.018035 -0.004416 0.000000 0.000000 0.000000
# 2 -0.018035 0.026970 0.001942 0.000000 0.000000 0.000000
# 3 -0.004416 0.001942 0.024692 0.000000 0.000000 0.000000
# 4 0.000000 0.000000 0.000000 0.038462 0.000000 0.000000
# 5 0.000000 0.000000 0.000000 0.000000 0.043236 0.000000
# 6 0.000000 0.000000 0.000000 0.000000 0.000000 0.022067
#
#
# Mechanical properties :
#
#
# Convention : Reuss Voigt Hill
#
# Bulk Modulus (GPa) = 32.77347 55.85595 44.31471
# Shear Modulus (GPa) = 22.07660 29.50945 25.79303
#
# Velocity S-wave (km/s) = 3.42708 3.96222 3.70433
# Velocity P-wave (km/s) = 5.75287 7.11674 6.47084
#
# Compressibility (1/GPa) = 0.03051249
#
# Stress axis : x y z
#
# Youngs Moduli (GPa) = 50.32984 37.07851 40.49942
#
# Poissons Ratio (x) = 0.66870 0.17886
# Poissons Ratio (y) = 0.90769 -0.07865
# Poissons Ratio (z) = 0.22227 -0.07201
#
# Static dielectric constant tensor:
#      x y z
#    x 3.628930 0.000000 0.000000 
#    y 0.000000 3.540790 0.000000 
#    z 0.000000 0.000000 3.309370 
# 
# 
# High freq. dielectric constant tensor:
#      x y z
#    x 1.736500 0.000000 0.000000 
#    y 0.000000 1.731030 0.000000 
#    z 0.000000 0.000000 1.724100 
# 
# From -- ./inp_files/3008.got.cif
#   From: 2010.06.25/outbox.cif.g09.slc.cpg/sg58_2_cif.got.tgz:3008.got - 2010.06.26 21:38:00.
