data_PCOD8236733
_publ_section_title
;
Structure prediction by ZEFSAII (Michael W. Deem and Ramdas Pophale) SiO2 
 PCOD8236733
Probable space group: P N N M
;
_chemical_formula_sum "Si O2"
_cell_formula_units_Z 64
_cell_length_a 11.963002
_cell_length_b 14.183762
_cell_length_c 19.025488
_cell_angle_alpha 90.000000
_cell_angle_beta 90.000000
_cell_angle_gamma 90.000000
_cell_volume 3228.251904
_symmetry_space_group_name_H-M "P N N M"
_symmetry_group_IT_number 58
_symmetry_cell_setting 'orthorhombic'
loop_
_space_group_symop_operation_xyz
x,y,z
-x,-y,z
1/2+x,1/2-y,1/2-z
1/2-x,1/2+y,1/2-z
-x,-y,-z
x,y,-z
1/2-x,1/2+y,1/2+z
1/2+x,1/2-y,1/2+z
loop_
_atom_site_type_symbol
_atom_site_label
_atom_site_fract_x
_atom_site_fract_y
_atom_site_fract_z
Si Si1 0.632442 0.281818 0.420419
Si Si2 0.008129 0.112026 0.578867
Si Si3 0.737566 0.129121 0.198714
Si Si4 0.751673 0.414946 0.311068
Si Si5 0.730945 0.409750 0.852983
Si Si6 0.008334 0.608517 0.724344
Si Si7 0.719964 0.628122 0.140588
Si Si8 0.912517 0.277250 0.145755
O O1 0.649458 0.318334 0.500000
O O2 0.674889 0.359335 0.365316
O O3 0.698202 0.184082 0.410971
O O4 0.500931 0.264083 0.408872
O O5 0.002344 0.151844 0.500000
O O6 0.123967 0.142371 0.614284
O O7 0.907704 0.156980 0.623920
O O8 0.000000 0.000000 0.579691
O O9 0.604279 0.136253 0.181634
O O10 0.752581 0.154593 0.280205
O O11 0.816251 0.199296 0.156990
O O12 0.778000 0.024391 0.179383
O O13 0.725707 0.387898 0.230348
O O14 0.882361 0.390056 0.326213
O O15 0.737560 0.518293 0.873449
O O16 0.843649 0.365471 0.885813
O O17 0.021434 0.685947 0.785622
O O18 0.000000 0.500000 0.754655
#
# Coordination Sequence:
#
# PCOD8236733 Si02
#       8
#     8   8   8   8   8   8   8   8
#     4  12  26  41  57  84 126 169 209 246 300 370
#     4   9  18  32  52  82 119 154 191 237 296 363
#     4  10  20  37  63  90 114 150 199 262 309 348
#     4   9  21  40  61  87 115 156 210 259 301 353
#     4   9  20  35  60  88 121 155 198 254 312 364
#     4   9  18  36  63  91 122 147 190 264 323 360
#     4  10  19  36  59  86 119 157 198 247 311 372
#     4  11  23  34  56  87 121 157 202 248 301 368
#
# _framework density 19.824971999999999
#
# number of rings (size 3 to 8) (size 9 to 14) (size 15 to 20)
#    0.000    2.125    1.250    2.625    1.750    2.500 
#    0.000    1.875    0.000    4.125    0.000    0.000 
#    0.000    0.000    0.000    0.000    0.000    0.000 
#
# Total GULP energy -793333.457614 kJ/mol
# GULP energy per Si atom -12395.835275 kJ/mol
# Density = 1.977985 g / cm^3
# Si number density = 19.824972 Si / 1000 Ang^3
#
#
#
# Elastic Constant Matrix: (Units=GPa)
#
#
# Indices 1 2 3 4 5 6 
#
# 1 132.7162 29.6325 25.0391 0.0000 0.0000 0.0000
# 2 29.6325 56.6927 26.9415 0.0000 0.0000 0.0000
# 3 25.0391 26.9415 53.1486 0.0000 0.0000 0.0000
# 4 0.0000 0.0000 0.0000 17.1465 0.0000 0.0000
# 5 0.0000 0.0000 0.0000 0.0000 19.6418 0.0000
# 6 0.0000 0.0000 0.0000 0.0000 0.0000 35.8330
#
#
#
# Elastic Compliance Matrix: (Units=1/GPa)
#
#
# Indices 1 2 3 4 5 6 
#
# 1 0.008753 -0.003445 -0.002377 0.000000 0.000000 0.000000
# 2 -0.003445 0.024593 -0.010843 0.000000 0.000000 0.000000
# 3 -0.002377 -0.010843 0.025432 0.000000 0.000000 0.000000
# 4 0.000000 0.000000 0.000000 0.058321 0.000000 0.000000
# 5 0.000000 0.000000 0.000000 0.000000 0.050912 0.000000
# 6 0.000000 0.000000 0.000000 0.000000 0.000000 0.027907
#
#
# Mechanical properties :
#
#
# Convention : Reuss Voigt Hill
#
# Bulk Modulus (GPa) = 39.29907 45.08707 42.19307
# Shear Modulus (GPa) = 21.03230 25.25388 23.14309
#
# Velocity S-wave (km/s) = 3.26068 3.57296 3.42039
# Velocity P-wave (km/s) = 5.83456 6.30978 6.07682
#
# Compressibility (1/GPa) = 0.02544590
#
# Stress axis : x y z
#
# Youngs Moduli (GPa) = 114.25196 40.66264 39.32125
#
# Poissons Ratio (x) = 0.14009 0.09347
# Poissons Ratio (y) = 0.39362 0.42637
# Poissons Ratio (z) = 0.27158 0.44091
#
# Static dielectric constant tensor:
#      x y z
#    x 3.987630 0.000000 0.000000 
#    y 0.000000 3.622510 0.000000 
#    z 0.000000 0.000000 3.211740 
# 
# 
# High freq. dielectric constant tensor:
#      x y z
#    x 1.794110 0.000000 0.000000 
#    y 0.000000 1.771380 0.000000 
#    z 0.000000 0.000000 1.723890 
# 
# From -- ./inp_files/26412.got.cif
#   From: 2010.06.25/outbox.cif.g09.slc.cpg/sg58_14_cif.got.tgz:26412.got - 2010.06.26 21:38:00.
