data_PCOD8236735
_publ_section_title
;
Structure prediction by ZEFSAII (Michael W. Deem and Ramdas Pophale) SiO2 
 PCOD8236735
Probable space group: P N N M
;
_chemical_formula_sum "Si O2"
_cell_formula_units_Z 48
_cell_length_a 9.675428
_cell_length_b 13.482714
_cell_length_c 19.925682
_cell_angle_alpha 90.000000
_cell_angle_beta 90.000000
_cell_angle_gamma 90.000000
_cell_volume 2599.325711
_symmetry_space_group_name_H-M "P N N M"
_symmetry_group_IT_number 58
_symmetry_cell_setting 'orthorhombic'
loop_
_space_group_symop_operation_xyz
x,y,z
-x,-y,z
1/2+x,1/2-y,1/2-z
1/2-x,1/2+y,1/2-z
-x,-y,-z
x,y,-z
1/2-x,1/2+y,1/2+z
1/2+x,1/2-y,1/2+z
loop_
_atom_site_type_symbol
_atom_site_label
_atom_site_fract_x
_atom_site_fract_y
_atom_site_fract_z
Si Si1 0.777082 0.732276 0.423663
Si Si2 0.951623 0.390973 0.577618
Si Si3 0.773645 0.808957 0.176663
Si Si4 0.359526 0.392074 0.206349
Si Si5 0.942455 0.105783 0.855359
Si Si6 0.325042 0.610596 0.817477
O O1 0.765360 0.767594 0.500000
O O2 0.660265 0.649723 0.410583
O O3 0.754115 0.829029 0.377728
O O4 0.925706 0.685606 0.408358
O O5 0.905582 0.388851 0.500000
O O6 0.821221 0.362086 0.622125
O O7 0.000000 0.500000 0.598838
O O8 0.744534 0.692340 0.182594
O O9 0.748352 0.859231 0.248831
O O10 0.932081 0.817903 0.154389
O O11 0.357636 0.409700 0.286383
O O12 0.513372 0.362049 0.184581
O O13 0.308373 0.493030 0.170695
O O14 0.000000 0.000000 0.880398
#
# Coordination Sequence:
#
# PCOD8236735 Si02
#       6
#     8   8   8   8   8   8
#     4  11  23  39  58  83 121 161 195 236 291 352
#     4  10  22  37  56  86 120 152 192 242 290 344
#     4  11  20  35  62  83 113 152 191 242 290 340
#     4  10  19  36  59  89 114 144 193 249 285 342
#     4  11  21  36  58  87 117 153 189 236 298 347
#     4  10  20  37  60  85 116 149 195 241 289 341
#
# _framework density 18.466327
#
# number of rings (size 3 to 8) (size 9 to 14) (size 15 to 20)
#    0.000    1.500    6.667    1.000    0.000    1.000 
#    0.000    3.333    0.000    1.000    0.000    0.000 
#    0.000    0.000    0.000    0.000    0.000    0.000 
#
# Total GULP energy -595352.518616 kJ/mol
# GULP energy per Si atom -12403.177471 kJ/mol
# Density = 1.842430 g / cm^3
# Si number density = 18.466327 Si / 1000 Ang^3
#
#
#
# Elastic Constant Matrix: (Units=GPa)
#
#
# Indices 1 2 3 4 5 6 
#
# 1 49.4353 31.8001 38.0844 0.0000 0.0000 0.0000
# 2 31.8001 117.2970 43.2997 0.0000 0.0000 0.0000
# 3 38.0844 43.2997 97.1546 0.0000 0.0000 0.0000
# 4 0.0000 0.0000 0.0000 20.1248 0.0000 0.0000
# 5 0.0000 0.0000 0.0000 0.0000 24.1467 0.0000
# 6 0.0000 0.0000 0.0000 0.0000 0.0000 32.0780
#
#
#
# Elastic Compliance Matrix: (Units=1/GPa)
#
#
# Indices 1 2 3 4 5 6 
#
# 1 0.030995 -0.004689 -0.010060 0.000000 0.000000 0.000000
# 2 -0.004689 0.010914 -0.003026 0.000000 0.000000 0.000000
# 3 -0.010060 -0.003026 0.015585 0.000000 0.000000 0.000000
# 4 0.000000 0.000000 0.000000 0.049690 0.000000 0.000000
# 5 0.000000 0.000000 0.000000 0.000000 0.041413 0.000000
# 6 0.000000 0.000000 0.000000 0.000000 0.000000 0.031174
#
#
# Mechanical properties :
#
#
# Convention : Reuss Voigt Hill
#
# Bulk Modulus (GPa) = 45.57202 54.47281 50.02241
# Shear Modulus (GPa) = 22.45819 25.31676 23.88747
#
# Velocity S-wave (km/s) = 3.49115 3.70668 3.60052
# Velocity P-wave (km/s) = 6.40178 6.91966 6.66575
#
# Compressibility (1/GPa) = 0.02194329
#
# Stress axis : x y z
#
# Youngs Moduli (GPa) = 32.26312 91.62849 64.16462
#
# Poissons Ratio (x) = 0.42968 0.64550
# Poissons Ratio (y) = 0.15129 0.19415
# Poissons Ratio (z) = 0.32457 0.27724
#
# Static dielectric constant tensor:
#      x y z
#    x 3.297300 0.000000 0.000000 
#    y 0.000000 3.456680 0.000000 
#    z 0.000000 0.000000 3.258710 
# 
# 
# High freq. dielectric constant tensor:
#      x y z
#    x 1.706740 0.000000 0.000000 
#    y 0.000000 1.722860 0.000000 
#    z 0.000000 0.000000 1.703150 
# 
# From -- ./inp_files/25256.got.cif
#   From: 2010.06.25/outbox.cif.g09.slc.cpg/sg58_13_cif.got.tgz:25256.got - 2010.06.26 21:38:00.
