data_PCOD8236759
_publ_section_title
;
Structure prediction by ZEFSAII (Michael W. Deem and Ramdas Pophale) SiO2 
 PCOD8236759
Probable space group: P N N M
;
_chemical_formula_sum "Si O2"
_cell_formula_units_Z 64
_cell_length_a 18.755053
_cell_length_b 19.559545
_cell_length_c 8.966395
_cell_angle_alpha 90.000000
_cell_angle_beta 90.000000
_cell_angle_gamma 90.000000
_cell_volume 3289.235060
_symmetry_space_group_name_H-M "P N N M"
_symmetry_group_IT_number 58
_symmetry_cell_setting 'orthorhombic'
loop_
_space_group_symop_operation_xyz
x,y,z
-x,-y,z
1/2+x,1/2-y,1/2-z
1/2-x,1/2+y,1/2-z
-x,-y,-z
x,y,-z
1/2-x,1/2+y,1/2+z
1/2+x,1/2-y,1/2+z
loop_
_atom_site_type_symbol
_atom_site_label
_atom_site_fract_x
_atom_site_fract_y
_atom_site_fract_z
Si Si1 0.816371 0.237801 0.171655
Si Si2 0.715451 0.987287 0.172432
Si Si3 0.441228 0.052606 0.176399
Si Si4 0.059923 0.185056 0.824797
Si Si5 0.783043 0.843210 0.827252
Si Si6 0.035278 0.693609 0.830250
Si Si7 0.956917 0.069112 0.172722
Si Si8 0.310527 0.404779 0.176481
O O1 0.773003 0.302358 0.229538
O O2 0.899269 0.254722 0.192574
O O3 0.796869 0.171617 0.266753
O O4 0.797607 0.223693 0.000000
O O5 0.744351 0.049643 0.269544
O O6 0.636893 0.968520 0.234753
O O7 0.768019 0.923227 0.192313
O O8 0.711696 0.009731 0.000000
O O9 0.461123 0.128674 0.225017
O O10 0.500000 0.000000 0.240278
O O11 0.441350 0.052508 0.000000
O O12 0.138859 0.173150 0.760622
O O13 0.034882 0.262250 0.788251
O O14 0.004550 0.130071 0.757597
O O15 0.062386 0.171026 0.000000
O O16 0.775625 0.821253 0.000000
O O17 0.032291 0.667426 0.000000
O O18 0.883419 0.063670 0.261170
O O19 0.937596 0.082734 0.000000
O O20 0.000000 0.000000 0.193656
O O21 0.312943 0.404556 0.000000
#
# Coordination Sequence:
#
# PCOD8236759 Si02
#       8
#     8   8   8   8   8   8   8   8
#     4  11  22  39  62  85 117 159 203 244 298 363
#     4  10  21  39  61  86 121 162 202 247 306 373
#     4  10  22  40  63  90 119 153 199 251 305 364
#     4   9  18  34  57  88 119 150 195 242 289 356
#     4  10  20  37  63  91 118 154 200 247 299 358
#     4  10  20  37  61  85 116 156 197 245 294 355
#     4  10  19  36  61  85 117 161 200 236 292 362
#     4  12  25  38  58  88 123 159 203 253 298 351
#
# _framework density 19.457412000000001
#
# number of rings (size 3 to 8) (size 9 to 14) (size 15 to 20)
#    0.000    1.750    2.500    2.250    0.000    5.000 
#    0.000    3.750    0.000    0.000    0.000    0.000 
#    0.000    0.000    0.000    0.000    0.000    0.000 
#
# Total GULP energy -793815.512005 kJ/mol
# GULP energy per Si atom -12403.367375 kJ/mol
# Density = 1.941313 g / cm^3
# Si number density = 19.457412 Si / 1000 Ang^3
#
#
#
# Elastic Constant Matrix: (Units=GPa)
#
#
# Indices 1 2 3 4 5 6 
#
# 1 87.2945 18.4284 24.5433 0.0000 0.0000 0.0000
# 2 18.4284 83.2597 34.0418 0.0000 0.0000 0.0000
# 3 24.5433 34.0418 66.1419 0.0000 0.0000 0.0000
# 4 0.0000 0.0000 0.0000 29.5310 0.0000 0.0000
# 5 0.0000 0.0000 0.0000 0.0000 21.6325 0.0000
# 6 0.0000 0.0000 0.0000 0.0000 0.0000 34.4417
#
#
#
# Elastic Compliance Matrix: (Units=1/GPa)
#
#
# Indices 1 2 3 4 5 6 
#
# 1 0.012874 -0.001135 -0.004193 0.000000 0.000000 0.000000
# 2 -0.001135 0.015312 -0.007459 0.000000 0.000000 0.000000
# 3 -0.004193 -0.007459 0.020514 0.000000 0.000000 0.000000
# 4 0.000000 0.000000 0.000000 0.033863 0.000000 0.000000
# 5 0.000000 0.000000 0.000000 0.000000 0.046227 0.000000
# 6 0.000000 0.000000 0.000000 0.000000 0.000000 0.029035
#
#
# Mechanical properties :
#
#
# Convention : Reuss Voigt Hill
#
# Bulk Modulus (GPa) = 43.24350 43.41366 43.32858
# Shear Modulus (GPa) = 26.16335 27.76654 26.96494
#
# Velocity S-wave (km/s) = 3.67092 3.78172 3.72673
# Velocity P-wave (km/s) = 6.34354 6.43654 6.39021
#
# Compressibility (1/GPa) = 0.02312486
#
# Stress axis : x y z
#
# Youngs Moduli (GPa) = 77.67611 65.30940 48.74703
#
# Poissons Ratio (x) = 0.07414 0.20439
# Poissons Ratio (y) = 0.08817 0.36362
# Poissons Ratio (z) = 0.32569 0.48717
#
# Static dielectric constant tensor:
#      x y z
#    x 3.791000 0.000000 0.000000 
#    y 0.000000 3.498010 0.000000 
#    z 0.000000 0.000000 3.315130 
# 
# 
# High freq. dielectric constant tensor:
#      x y z
#    x 1.766240 0.000000 0.000000 
#    y 0.000000 1.766690 0.000000 
#    z 0.000000 0.000000 1.732530 
# 
# From -- ./inp_files/9235.got.cif
#   From: 2010.06.25/outbox.cif.g09.slc.cpg/sg58_5_cif.got.tgz:9235.got - 2010.06.26 21:38:00.
