data_PCOD8236422
_publ_section_title
;
Structure prediction by ZEFSAII (Michael W. Deem and Ramdas Pophale) SiO2 
 PCOD8236422
Probable space group: P N N M
;
_chemical_formula_sum "Si O2"
_cell_formula_units_Z 40
_cell_length_a 16.084199
_cell_length_b 9.646973
_cell_length_c 13.449192
_cell_angle_alpha 90.000000
_cell_angle_beta 90.000000
_cell_angle_gamma 90.000000
_cell_volume 2086.828188
_symmetry_space_group_name_H-M "P N N M"
_symmetry_group_IT_number 58
_symmetry_cell_setting 'orthorhombic'
loop_
_space_group_symop_operation_xyz
x,y,z
-x,-y,z
1/2+x,1/2-y,1/2-z
1/2-x,1/2+y,1/2-z
-x,-y,-z
x,y,-z
1/2-x,1/2+y,1/2+z
1/2+x,1/2-y,1/2+z
loop_
_atom_site_type_symbol
_atom_site_label
_atom_site_fract_x
_atom_site_fract_y
_atom_site_fract_z
Si Si1 0.015150 0.337729 0.608362
Si Si2 0.907121 0.043519 0.116074
Si Si3 0.304376 0.726382 0.387577
Si Si4 0.409638 0.938963 0.290150
Si Si5 0.859799 0.273432 0.728698
O O1 0.042622 0.276219 0.500000
O O2 0.084966 0.331518 0.695075
O O3 0.000000 0.500000 0.595354
O O4 0.931726 0.260057 0.644962
O O5 0.879769 0.176625 0.178154
O O6 0.844997 0.919113 0.142933
O O7 0.902936 0.083041 0.000000
O O8 0.000000 0.000000 0.146363
O O9 0.272415 0.719115 0.500000
O O10 0.372618 0.848991 0.379593
O O11 0.227993 0.767944 0.317788
O O12 0.500000 0.000000 0.319411
O O13 0.350798 0.068532 0.265934
#
# Coordination Sequence:
#
# PCOD8236422 Si02
#       5
#     8   8   8   8   8
#     4   8  15  30  53  77  99 129 169 210 254 308
#     4  10  21  37  57  80 109 145 181 219 270 330
#     4  11  22  35  53  77 106 141 177 217 268 319
#     4   9  19  34  54  77 102 135 175 218 256 308
#     4  10  19  34  55  80 108 134 172 221 266 312
#
# _framework density 19.167845
#
# number of rings (size 3 to 8) (size 9 to 14) (size 15 to 20)
#    0.000    2.800    0.000    4.200    0.000    2.000 
#    0.000    1.000    0.000   13.800    0.000    0.000 
#    0.000    0.000    0.000    0.000    0.000    0.000 
#
# Total GULP energy -495714.109402 kJ/mol
# GULP energy per Si atom -12392.852735 kJ/mol
# Density = 1.912422 g / cm^3
# Si number density = 19.167845 Si / 1000 Ang^3
#
#
#
# Elastic Constant Matrix: (Units=GPa)
#
#
# Indices 1 2 3 4 5 6 
#
# 1 93.1656 44.3090 50.8458 0.0000 0.0000 0.0000
# 2 44.3090 70.7403 48.3709 0.0000 0.0000 0.0000
# 3 50.8458 48.3709 83.9543 0.0000 0.0000 0.0000
# 4 0.0000 0.0000 0.0000 -194.3711 0.0000 0.0000
# 5 0.0000 0.0000 0.0000 0.0000 17.8635 0.0000
# 6 0.0000 0.0000 0.0000 0.0000 0.0000 27.6719
#
#
#
# Elastic Compliance Matrix: (Units=1/GPa)
#
#
# Indices 1 2 3 4 5 6 
#
# 1 0.017509 -0.006132 -0.007071 0.000000 0.000000 0.000000
# 2 -0.006132 0.025473 -0.010963 0.000000 0.000000 0.000000
# 3 -0.007071 -0.010963 0.022510 0.000000 0.000000 0.000000
# 4 0.000000 0.000000 0.000000 -0.005145 0.000000 0.000000
# 5 0.000000 0.000000 0.000000 0.000000 0.055980 0.000000
# 6 0.000000 0.000000 0.000000 0.000000 0.000000 0.036138
#
#
# Mechanical properties :
#
#
# Convention : Reuss Voigt Hill
#
# Bulk Modulus (GPa) = 58.27333 59.43463 58.85398
# Shear Modulus (GPa) = 24.21104 -22.81151 0.69977
#
# Velocity S-wave (km/s) = 3.55788 -3.45351 0.60487
# Velocity P-wave (km/s) = 6.88081 3.89518 5.59098
#
# Compressibility (1/GPa) = 0.01716051
#
# Stress axis : x y z
#
# Youngs Moduli (GPa) = 57.11358 39.25699 44.42440
#
# Poissons Ratio (x) = 0.24072 0.31413
# Poissons Ratio (y) = 0.35021 0.48702
# Poissons Ratio (z) = 0.40386 0.43037
#
# Static dielectric constant tensor:
#      x y z
#    x 3.398450 0.000000 0.000000 
#    y 0.000000 3.279190 0.000000 
#    z 0.000000 0.000000 4.026790 
# 
# 
# High freq. dielectric constant tensor:
#      x y z
#    x 1.736050 0.000000 0.000000 
#    y 0.000000 1.728360 0.000000 
#    z 0.000000 0.000000 1.746060 
# 
# From -- ./inp_files/21899.got.cif
#   From: 2010.06.25/outbox.cif.g09.slc.cpg/sg58_11_cif.got.tgz:21899.got - 2010.06.26 21:38:00.
