data_PCOD8236334
_publ_section_title
;
Structure prediction by ZEFSAII (Michael W. Deem and Ramdas Pophale) SiO2 
 PCOD8236334
Probable space group: P N N M
;
_chemical_formula_sum "Si O2"
_cell_formula_units_Z 48
_cell_length_a 14.603149
_cell_length_b 20.304161
_cell_length_c 8.794318
_cell_angle_alpha 90.000000
_cell_angle_beta 90.000000
_cell_angle_gamma 90.000000
_cell_volume 2607.556518
_symmetry_space_group_name_H-M "P N N M"
_symmetry_group_IT_number 58
_symmetry_cell_setting 'orthorhombic'
loop_
_space_group_symop_operation_xyz
x,y,z
-x,-y,z
1/2+x,1/2-y,1/2-z
1/2-x,1/2+y,1/2-z
-x,-y,-z
x,y,-z
1/2-x,1/2+y,1/2+z
1/2+x,1/2-y,1/2+z
loop_
_atom_site_type_symbol
_atom_site_label
_atom_site_fract_x
_atom_site_fract_y
_atom_site_fract_z
Si Si1 0.501400 0.188936 0.320435
Si Si2 0.816417 0.661885 0.678954
Si Si3 0.075771 0.950785 0.677109
Si Si4 0.888302 0.184353 0.821621
Si Si5 0.927552 0.443777 0.678318
Si Si6 0.217516 0.474213 0.822581
O O1 0.496351 0.177827 0.500000
O O2 0.605746 0.202536 0.268230
O O3 0.441138 0.250900 0.267315
O O4 0.463090 0.125930 0.234364
O O5 0.833635 0.668010 0.500000
O O6 0.717858 0.690511 0.729213
O O7 0.824183 0.585690 0.725820
O O8 0.058681 0.941384 0.500000
O O9 0.063985 0.879120 0.749439
O O10 0.174956 0.981920 0.711614
O O11 0.000000 0.000000 0.747150
O O12 0.894139 0.174671 0.000000
O O13 0.908516 0.440632 0.500000
O O14 0.832818 0.459775 0.765963
O O15 0.000000 0.500000 0.721632
O O16 0.198966 0.461247 0.000000
#
# Coordination Sequence:
#
# PCOD8236334 Si02
#       6
#     8   8   8   8   8   8
#     4  11  22  37  57  81 111 145 184 228 274 327
#     4  10  19  35  57  79 106 143 181 221 273 325
#     4   9  19  37  60  85 111 143 184 225 270 326
#     4   9  21  39  57  80 111 145 183 225 273 328
#     4  11  22  35  54  82 113 144 183 225 274 328
#     4  10  19  33  56  82 109 142 180 224 271 322
#
# _framework density 18.408038999999999
#
# number of rings (size 3 to 8) (size 9 to 14) (size 15 to 20)
#    0.000    2.000    1.667    2.000    0.000    3.667 
#    3.000    0.000    0.000    0.000    0.000    0.000 
#    0.000    0.000    0.000    0.000    0.000    0.000 
#
# Total GULP energy -595339.289378 kJ/mol
# GULP energy per Si atom -12402.901862 kJ/mol
# Density = 1.836614 g / cm^3
# Si number density = 18.408039 Si / 1000 Ang^3
#
#
#
# Elastic Constant Matrix: (Units=GPa)
#
#
# Indices 1 2 3 4 5 6 
#
# 1 122.8250 78.4868 34.5641 0.0000 0.0000 0.0000
# 2 78.4868 122.5030 34.7387 0.0000 0.0000 0.0000
# 3 34.5641 34.7387 45.8749 0.0000 0.0000 0.0000
# 4 0.0000 0.0000 0.0000 26.5383 0.0000 0.0000
# 5 0.0000 0.0000 0.0000 0.0000 21.8147 0.0000
# 6 0.0000 0.0000 0.0000 0.0000 0.0000 36.5516
#
#
#
# Elastic Compliance Matrix: (Units=1/GPa)
#
#
# Indices 1 2 3 4 5 6 
#
# 1 0.014634 -0.007958 -0.005000 0.000000 0.000000 0.000000
# 2 -0.007958 0.014723 -0.005153 0.000000 0.000000 0.000000
# 3 -0.005000 -0.005153 0.029467 0.000000 0.000000 0.000000
# 4 0.000000 0.000000 0.000000 0.037681 0.000000 0.000000
# 5 0.000000 0.000000 0.000000 0.000000 0.045841 0.000000
# 6 0.000000 0.000000 0.000000 0.000000 0.000000 0.027359
#
#
# Mechanical properties :
#
#
# Convention : Reuss Voigt Hill
#
# Bulk Modulus (GPa) = 44.24196 65.19804 54.72000
# Shear Modulus (GPa) = 23.42351 26.54179 24.98265
#
# Velocity S-wave (km/s) = 3.57103 3.80130 3.68796
# Velocity P-wave (km/s) = 6.41009 7.40011 6.92282
#
# Compressibility (1/GPa) = 0.02260298
#
# Stress axis : x y z
#
# Youngs Moduli (GPa) = 68.33439 67.92082 33.93581
#
# Poissons Ratio (x) = 0.54052 0.16966
# Poissons Ratio (y) = 0.54381 0.17487
# Poissons Ratio (z) = 0.34164 0.35000
#
# Static dielectric constant tensor:
#      x y z
#    x 3.736790 0.000000 0.000000 
#    y 0.000000 3.306740 0.000000 
#    z 0.000000 0.000000 3.374980 
# 
# 
# High freq. dielectric constant tensor:
#      x y z
#    x 1.723370 0.000000 0.000000 
#    y 0.000000 1.696690 0.000000 
#    z 0.000000 0.000000 1.720210 
# 
# From -- ./inp_files/5806.got.cif
#   From: 2010.06.25/outbox.cif.g09.slc.cpg/sg58_3_cif.got.tgz:5806.got - 2010.06.26 21:38:00.
