data_PCOD8236137
_publ_section_title
;
Structure prediction by ZEFSAII (Michael W. Deem and Ramdas Pophale) SiO2 
 PCOD8236137
Probable space group: P N N M
;
_chemical_formula_sum "Si O2"
_cell_formula_units_Z 64
_cell_length_a 16.934725
_cell_length_b 21.987325
_cell_length_c 8.939062
_cell_angle_alpha 90.000000
_cell_angle_beta 90.000000
_cell_angle_gamma 90.000000
_cell_volume 3328.453499
_symmetry_space_group_name_H-M "P N N M"
_symmetry_group_IT_number 58
_symmetry_cell_setting 'orthorhombic'
loop_
_space_group_symop_operation_xyz
x,y,z
-x,-y,z
1/2+x,1/2-y,1/2-z
1/2-x,1/2+y,1/2-z
-x,-y,-z
x,y,-z
1/2-x,1/2+y,1/2+z
1/2+x,1/2-y,1/2+z
loop_
_atom_site_type_symbol
_atom_site_label
_atom_site_fract_x
_atom_site_fract_y
_atom_site_fract_z
Si Si1 0.302384 0.034852 0.175118
Si Si2 0.278178 0.897553 0.177444
Si Si3 0.685922 0.375836 0.827819
Si Si4 0.827714 0.291936 0.833647
Si Si5 0.624650 0.659183 0.668860
Si Si6 0.938999 0.376391 0.326588
Si Si7 0.585609 0.174425 0.677011
Si Si8 0.546036 0.311404 0.321515
O O1 0.229845 0.065259 0.262681
O O2 0.386600 0.064790 0.219384
O O3 0.307451 0.964608 0.221226
O O4 0.285735 0.043977 0.000000
O O5 0.186290 0.890738 0.233839
O O6 0.331056 0.847055 0.258122
O O7 0.282924 0.886319 0.000000
O O8 0.740302 0.316690 0.805982
O O9 0.606383 0.361772 0.738201
O O10 0.665327 0.388326 0.000000
O O11 0.823755 0.220201 0.820163
O O12 0.887463 0.316946 0.709729
O O13 0.858188 0.311417 0.000000
O O14 0.604530 0.641262 0.500000
O O15 0.539389 0.668041 0.747211
O O16 0.961455 0.377724 0.500000
O O17 0.019734 0.373476 0.233884
O O18 0.588969 0.172199 0.500000
O O19 0.566071 0.242948 0.734101
O O20 0.545838 0.311667 0.500000
#
# Coordination Sequence:
#
# PCOD8236137 Si02
#       8
#     8   8   8   8   8   8   8   8
#     4   9  20  38  57  79 109 146 189 233 273 318
#     4  10  21  38  59  80 106 145 192 233 270 323
#     4  10  20  33  56  83 107 141 183 227 271 323
#     4   9  16  31  52  76 106 136 171 216 271 325
#     4   9  17  33  56  78 104 140 178 223 274 324
#     4  10  19  32  53  80 109 142 179 221 267 321
#     4  11  22  36  55  82 117 146 175 222 280 334
#     4  10  20  35  55  80 112 142 173 220 276 331
#
# _framework density 19.228148999999998
#
# number of rings (size 3 to 8) (size 9 to 14) (size 15 to 20)
#    0.000    2.250    1.250    1.875    0.000    4.000 
#    0.000    4.375    0.000    3.750    0.000    0.000 
#    0.000    0.000    0.000    0.000    0.000    0.000 
#
# Total GULP energy -793326.625059 kJ/mol
# GULP energy per Si atom -12395.728517 kJ/mol
# Density = 1.918438 g / cm^3
# Si number density = 19.228149 Si / 1000 Ang^3
#
#
#
# Elastic Constant Matrix: (Units=GPa)
#
#
# Indices 1 2 3 4 5 6 
#
# 1 126.1071 37.8142 34.2764 0.0000 0.0000 0.0000
# 2 37.8142 52.5383 21.3339 0.0000 0.0000 0.0000
# 3 34.2764 21.3339 42.4240 0.0000 0.0000 0.0000
# 4 0.0000 0.0000 0.0000 20.3028 0.0000 0.0000
# 5 0.0000 0.0000 0.0000 0.0000 27.7516 0.0000
# 6 0.0000 0.0000 0.0000 0.0000 0.0000 24.2091
#
#
#
# Elastic Compliance Matrix: (Units=1/GPa)
#
#
# Indices 1 2 3 4 5 6 
#
# 1 0.011327 -0.005575 -0.006348 0.000000 0.000000 0.000000
# 2 -0.005575 0.026661 -0.008903 0.000000 0.000000 0.000000
# 3 -0.006348 -0.008903 0.033178 0.000000 0.000000 0.000000
# 4 0.000000 0.000000 0.000000 0.049254 0.000000 0.000000
# 5 0.000000 0.000000 0.000000 0.000000 0.036034 0.000000
# 6 0.000000 0.000000 0.000000 0.000000 0.000000 0.041307
#
#
# Mechanical properties :
#
#
# Convention : Reuss Voigt Hill
#
# Bulk Modulus (GPa) = 33.88243 45.32427 39.60335
# Shear Modulus (GPa) = 20.06010 22.96237 21.51123
#
# Velocity S-wave (km/s) = 3.23347 3.45948 3.34838
# Velocity P-wave (km/s) = 5.62138 6.29129 5.96575
#
# Compressibility (1/GPa) = 0.02951382
#
# Stress axis : x y z
#
# Youngs Moduli (GPa) = 88.28594 37.50744 30.14067
#
# Poissons Ratio (x) = 0.20909 0.19134
# Poissons Ratio (y) = 0.49217 0.26835
# Poissons Ratio (z) = 0.56045 0.33394
#
# Static dielectric constant tensor:
#      x y z
#    x 3.632970 0.000000 0.000000 
#    y 0.000000 3.398680 0.000000 
#    z 0.000000 0.000000 3.351710 
# 
# 
# High freq. dielectric constant tensor:
#      x y z
#    x 1.756010 0.000000 0.000000 
#    y 0.000000 1.730750 0.000000 
#    z 0.000000 0.000000 1.728320 
# 
# From -- ./inp_files/6848.got.cif
#   From: 2010.06.25/outbox.cif.g09.slc.cpg/sg58_4_cif.got.tgz:6848.got - 2010.06.26 21:38:00.
