data_PCOD8236731
_publ_section_title
;
Structure prediction by ZEFSAII (Michael W. Deem and Ramdas Pophale) SiO2 
 PCOD8236731
Probable space group: P N N M
;
_chemical_formula_sum "Si O2"
_cell_formula_units_Z 56
_cell_length_a 9.144613
_cell_length_b 18.313811
_cell_length_c 16.373637
_cell_angle_alpha 90.000000
_cell_angle_beta 90.000000
_cell_angle_gamma 90.000000
_cell_volume 2742.137429
_symmetry_space_group_name_H-M "P N N M"
_symmetry_group_IT_number 58
_symmetry_cell_setting 'orthorhombic'
loop_
_space_group_symop_operation_xyz
x,y,z
-x,-y,z
1/2+x,1/2-y,1/2-z
1/2-x,1/2+y,1/2-z
-x,-y,-z
x,y,-z
1/2-x,1/2+y,1/2+z
1/2+x,1/2-y,1/2+z
loop_
_atom_site_type_symbol
_atom_site_label
_atom_site_fract_x
_atom_site_fract_y
_atom_site_fract_z
Si Si1 0.706356 0.080047 0.907577
Si Si2 0.329211 0.015185 0.754108
Si Si3 0.474617 0.195584 0.087508
Si Si4 0.216007 0.195799 0.379629
Si Si5 0.456287 0.301660 0.589116
Si Si6 0.333864 0.525356 0.092468
Si Si7 0.726768 0.323885 0.297122
O O1 0.550064 0.118161 0.890306
O O2 0.829853 0.139986 0.900763
O O3 0.735392 0.023066 0.835233
O O4 0.707761 0.045132 0.000000
O O5 0.257924 0.988682 0.667269
O O6 0.287320 0.098292 0.768977
O O7 0.500000 0.000000 0.745385
O O8 0.594205 0.258204 0.073760
O O9 0.353015 0.217666 0.153159
O O10 0.395359 0.186353 0.000000
O O11 0.381596 0.221287 0.402095
O O12 0.188028 0.112217 0.402130
O O13 0.193258 0.218764 0.285418
O O14 0.529428 0.306136 0.500000
O O15 0.577378 0.323366 0.653851
O O16 0.500000 0.500000 0.105998
O O17 0.283605 0.501022 0.000000
#
# Coordination Sequence:
#
# PCOD8236731 Si02
#       7
#     8   8   8   8   8   8   8
#     4   9  20  36  58  85 122 167 199 244 309 376
#     4  11  23  39  59  88 129 166 204 257 310 368
#     4  10  19  36  59  84 118 157 200 244 302 375
#     4  10  21  39  62  84 119 160 197 254 317 363
#     4  10  21  38  59  86 121 156 201 254 310 371
#     4  10  23  43  67  91 119 163 217 265 314 372
#     4  11  22  35  57  91 118 156 201 253 300 370
#
# _framework density 20.422025000000001
#
# number of rings (size 3 to 8) (size 9 to 14) (size 15 to 20)
#    0.000    1.857    1.429    3.429    4.000    1.714 
#    0.000    1.429    0.000    3.429    0.000    0.000 
#    0.000    0.000    0.000    0.000    0.000    0.000 
#
# Total GULP energy -693833.958689 kJ/mol
# GULP energy per Si atom -12389.892119 kJ/mol
# Density = 2.037554 g / cm^3
# Si number density = 20.422025 Si / 1000 Ang^3
#
#
#
# Elastic Constant Matrix: (Units=GPa)
#
#
# Indices 1 2 3 4 5 6 
#
# 1 102.0343 19.2370 56.4373 0.0000 0.0000 0.0000
# 2 19.2370 50.2837 22.4416 0.0000 0.0000 0.0000
# 3 56.4373 22.4416 179.3356 0.0000 0.0000 0.0000
# 4 0.0000 0.0000 0.0000 7.0563 0.0000 0.0000
# 5 0.0000 0.0000 0.0000 0.0000 32.6261 0.0000
# 6 0.0000 0.0000 0.0000 0.0000 0.0000 20.9675
#
#
#
# Elastic Compliance Matrix: (Units=1/GPa)
#
#
# Indices 1 2 3 4 5 6 
#
# 1 0.012323 -0.003160 -0.003483 0.000000 0.000000 0.000000
# 2 -0.003160 0.021874 -0.001743 0.000000 0.000000 0.000000
# 3 -0.003483 -0.001743 0.006890 0.000000 0.000000 0.000000
# 4 0.000000 0.000000 0.000000 0.141717 0.000000 0.000000
# 5 0.000000 0.000000 0.000000 0.000000 0.030650 0.000000
# 6 0.000000 0.000000 0.000000 0.000000 0.000000 0.047693
#
#
# Mechanical properties :
#
#
# Convention : Reuss Voigt Hill
#
# Bulk Modulus (GPa) = 41.12507 58.65393 49.88950
# Shear Modulus (GPa) = 17.48110 27.69917 22.59013
#
# Velocity S-wave (km/s) = 2.92891 3.68684 3.32951
# Velocity P-wave (km/s) = 5.62311 6.84887 6.26603
#
# Compressibility (1/GPa) = 0.02431607
#
# Stress axis : x y z
#
# Youngs Moduli (GPa) = 81.15137 45.71664 145.13404
#
# Poissons Ratio (x) = 0.14447 0.50543
# Poissons Ratio (y) = 0.25644 0.25294
# Poissons Ratio (z) = 0.28261 0.07967
#
# Static dielectric constant tensor:
#      x y z
#    x 3.637450 0.000000 0.000000 
#    y 0.000000 3.529330 0.000000 
#    z 0.000000 0.000000 4.466870 
# 
# 
# High freq. dielectric constant tensor:
#      x y z
#    x 1.789850 0.000000 0.000000 
#    y 0.000000 1.773000 0.000000 
#    z 0.000000 0.000000 1.832700 
# 
# From -- ./inp_files/20119.got.cif
#   From: 2010.06.25/outbox.cif.g09.slc.cpg/sg58_11_cif.got.tgz:20119.got - 2010.06.26 21:38:00.
