data_PCOD8236176
_publ_section_title
;
Structure prediction by ZEFSAII (Michael W. Deem and Ramdas Pophale) SiO2 
 PCOD8236176
Probable space group: P N N M
;
_chemical_formula_sum "Si O2"
_cell_formula_units_Z 64
_cell_length_a 24.695581
_cell_length_b 15.191720
_cell_length_c 8.961983
_cell_angle_alpha 90.000000
_cell_angle_beta 90.000000
_cell_angle_gamma 90.000000
_cell_volume 3362.252391
_symmetry_space_group_name_H-M "P N N M"
_symmetry_group_IT_number 58
_symmetry_cell_setting 'orthorhombic'
loop_
_space_group_symop_operation_xyz
x,y,z
-x,-y,z
1/2+x,1/2-y,1/2-z
1/2-x,1/2+y,1/2-z
-x,-y,-z
x,y,-z
1/2-x,1/2+y,1/2+z
1/2+x,1/2-y,1/2+z
loop_
_atom_site_type_symbol
_atom_site_label
_atom_site_fract_x
_atom_site_fract_y
_atom_site_fract_z
Si Si1 0.064661 0.824611 0.322845
Si Si2 0.217417 0.966908 0.169316
Si Si3 0.642425 0.188373 0.676561
Si Si4 0.339126 0.988799 0.828899
Si Si5 0.746563 0.730072 0.673328
Si Si6 0.388175 0.506606 0.824165
Si Si7 0.057990 0.186788 0.322872
Si Si8 0.349452 0.183142 0.173572
O O1 0.066339 0.828678 0.500000
O O2 0.084540 0.918294 0.256386
O O3 0.103453 0.746539 0.263624
O O4 0.003955 0.805012 0.269583
O O5 0.276104 0.005620 0.207668
O O6 0.217548 0.862934 0.201248
O O7 0.173921 0.014702 0.273347
O O8 0.201037 0.987050 0.000000
O O9 0.645021 0.195465 0.500000
O O10 0.636508 0.086029 0.722934
O O11 0.695878 0.233439 0.744215
O O12 0.589968 0.237351 0.738110
O O13 0.368930 0.082096 0.802432
O O14 0.344858 0.955966 0.000000
O O15 0.757709 0.747961 0.500000
O O16 0.706562 0.803190 0.738691
O O17 0.420950 0.591545 0.769212
O O18 0.389389 0.501461 0.000000
O O19 0.064636 0.198982 0.500000
O O20 0.338012 0.202013 0.000000
#
# Coordination Sequence:
#
# PCOD8236176 Si02
#       8
#     8   8   8   8   8   8   8   8
#     4   9  18  35  58  84 114 146 190 234 278 334
#     4   9  18  32  49  75 113 148 176 217 275 333
#     4  11  23  39  58  80 109 148 194 241 283 334
#     4   9  20  37  56  81 115 148 182 231 289 341
#     4  10  20  35  55  81 114 150 182 225 284 339
#     4  10  19  32  54  83 113 147 188 229 271 330
#     4  10  21  37  57  81 112 152 190 236 288 336
#     4  10  19  34  59  88 114 147 189 236 281 334
#
# _framework density 19.034859000000001
#
# number of rings (size 3 to 8) (size 9 to 14) (size 15 to 20)
#    0.000    2.250    1.250    2.625    1.750    4.500 
#    0.000    1.875    0.000    5.250    0.000    0.000 
#    0.000    0.000    0.000    0.000    0.000    0.000 
#
# Total GULP energy -793671.306098 kJ/mol
# GULP energy per Si atom -12401.114158 kJ/mol
# Density = 1.899153 g / cm^3
# Si number density = 19.034859 Si / 1000 Ang^3
#
#
#
# Elastic Constant Matrix: (Units=GPa)
#
#
# Indices 1 2 3 4 5 6 
#
# 1 84.4905 47.0074 17.4951 0.0000 0.0000 0.0000
# 2 47.0074 99.3908 28.3055 0.0000 0.0000 0.0000
# 3 17.4951 28.3055 47.0037 0.0000 0.0000 0.0000
# 4 0.0000 0.0000 0.0000 20.6780 0.0000 0.0000
# 5 0.0000 0.0000 0.0000 0.0000 25.8902 0.0000
# 6 0.0000 0.0000 0.0000 0.0000 0.0000 26.7931
#
#
#
# Elastic Compliance Matrix: (Units=1/GPa)
#
#
# Indices 1 2 3 4 5 6 
#
# 1 0.016175 -0.007164 -0.001706 0.000000 0.000000 0.000000
# 2 -0.007164 0.015317 -0.006557 0.000000 0.000000 0.000000
# 3 -0.001706 -0.006557 0.025859 0.000000 0.000000 0.000000
# 4 0.000000 0.000000 0.000000 0.048361 0.000000 0.000000
# 5 0.000000 0.000000 0.000000 0.000000 0.038625 0.000000
# 6 0.000000 0.000000 0.000000 0.000000 0.000000 0.037323
#
#
# Mechanical properties :
#
#
# Convention : Reuss Voigt Hill
#
# Bulk Modulus (GPa) = 37.74241 46.27790 42.01015
# Shear Modulus (GPa) = 22.58906 23.87737 23.23321
#
# Velocity S-wave (km/s) = 3.44862 3.54560 3.49744
# Velocity P-wave (km/s) = 5.97732 6.41301 6.19899
#
# Compressibility (1/GPa) = 0.02649540
#
# Stress axis : x y z
#
# Youngs Moduli (GPa) = 61.82480 65.28677 38.67151
#
# Poissons Ratio (x) = 0.46772 0.06598
# Poissons Ratio (y) = 0.44291 0.25358
# Poissons Ratio (z) = 0.10549 0.42811
#
# Static dielectric constant tensor:
#      x y z
#    x 3.428150 0.000000 0.000000 
#    y 0.000000 3.601160 0.000000 
#    z 0.000000 0.000000 3.232400 
# 
# 
# High freq. dielectric constant tensor:
#      x y z
#    x 1.730080 0.000000 0.000000 
#    y 0.000000 1.745460 0.000000 
#    z 0.000000 0.000000 1.717330 
# 
# From -- ./inp_files/6826.got.cif
#   From: 2010.06.25/outbox.cif.g09.slc.cpg/sg58_4_cif.got.tgz:6826.got - 2010.06.26 21:38:00.
