data_PCOD8236562
_publ_section_title
;
Structure prediction by ZEFSAII (Michael W. Deem and Ramdas Pophale) SiO2 
 PCOD8236562
Probable space group: P N N M
;
_chemical_formula_sum "Si O2"
_cell_formula_units_Z 64
_cell_length_a 17.261112
_cell_length_b 19.141416
_cell_length_c 8.843328
_cell_angle_alpha 90.000000
_cell_angle_beta 90.000000
_cell_angle_gamma 90.000000
_cell_volume 2921.854367
_symmetry_space_group_name_H-M "P N N M"
_symmetry_group_IT_number 58
_symmetry_cell_setting 'orthorhombic'
loop_
_space_group_symop_operation_xyz
x,y,z
-x,-y,z
1/2+x,1/2-y,1/2-z
1/2-x,1/2+y,1/2-z
-x,-y,-z
x,y,-z
1/2-x,1/2+y,1/2+z
1/2+x,1/2-y,1/2+z
loop_
_atom_site_type_symbol
_atom_site_label
_atom_site_fract_x
_atom_site_fract_y
_atom_site_fract_z
Si Si1 0.323735 0.400176 0.821846
Si Si2 0.766243 0.723764 0.324072
Si Si3 0.571557 0.040512 0.174782
Si Si4 0.516064 0.579211 0.322482
Si Si5 0.495567 0.181306 0.169901
Si Si6 0.267929 0.012564 0.176278
Si Si7 0.677386 0.837420 0.171328
Si Si8 0.583959 0.291617 0.674086
O O1 0.257773 0.348604 0.755364
O O2 0.410187 0.386423 0.760998
O O3 0.301944 0.478967 0.770862
O O4 0.324469 0.392039 0.000000
O O5 0.774547 0.708006 0.500000
O O6 0.697250 0.777606 0.290353
O O7 0.844503 0.761484 0.268651
O O8 0.561969 0.123398 0.194028
O O9 0.500000 0.000000 0.254061
O O10 0.652850 0.018625 0.247071
O O11 0.574414 0.017007 0.000000
O O12 0.500000 0.500000 0.265369
O O13 0.534566 0.579293 0.500000
O O14 0.440914 0.628304 0.287812
O O15 0.412770 0.143926 0.195362
O O16 0.509384 0.243624 0.287724
O O17 0.500401 0.211816 0.000000
O O18 0.268527 0.095662 0.200981
O O19 0.257051 0.993808 0.000000
O O20 0.691631 0.810296 0.000000
O O21 0.606663 0.285126 0.500000
#
# Coordination Sequence:
#
# PCOD8236562 Si02
#       8
#     8   8   8   8   8   8   8   8
#     4  12  26  44  67  97 135 173 221 279 332 391
#     4  12  26  44  66  91 125 169 217 269 328 394
#     4   9  15  29  54  86 120 159 208 252 294 365
#     4  10  24  47  73  99 130 176 226 274 336 406
#     4  10  19  34  60  92 126 165 208 252 305 374
#     4  10  20  36  62  93 129 172 213 257 317 386
#     4  10  21  37  61  93 128 166 209 260 315 379
#     4  11  24  42  66  96 129 164 211 272 331 390
#
# _framework density 21.903898000000002
#
# number of rings (size 3 to 8) (size 9 to 14) (size 15 to 20)
#    0.000    1.500    1.250    4.125    1.750    5.250 
#    0.000    0.000    0.000    0.750    0.000    0.000 
#    0.000    0.000    0.000    0.000    0.000    0.000 
#
# Total GULP energy -793564.669936 kJ/mol
# GULP energy per Si atom -12399.447968 kJ/mol
# Density = 2.185404 g / cm^3
# Si number density = 21.903898 Si / 1000 Ang^3
#
#
#
# Elastic Constant Matrix: (Units=GPa)
#
#
# Indices 1 2 3 4 5 6 
#
# 1 69.6898 17.3502 30.7691 0.0000 0.0000 0.0000
# 2 17.3502 90.4238 35.4100 0.0000 0.0000 0.0000
# 3 30.7691 35.4100 93.1019 0.0000 0.0000 0.0000
# 4 0.0000 0.0000 0.0000 24.9732 0.0000 0.0000
# 5 0.0000 0.0000 0.0000 0.0000 32.6712 0.0000
# 6 0.0000 0.0000 0.0000 0.0000 0.0000 37.8579
#
#
#
# Elastic Compliance Matrix: (Units=1/GPa)
#
#
# Indices 1 2 3 4 5 6 
#
# 1 0.016919 -0.001242 -0.005119 0.000000 0.000000 0.000000
# 2 -0.001242 0.013086 -0.004567 0.000000 0.000000 0.000000
# 3 -0.005119 -0.004567 0.014170 0.000000 0.000000 0.000000
# 4 0.000000 0.000000 0.000000 0.040043 0.000000 0.000000
# 5 0.000000 0.000000 0.000000 0.000000 0.030608 0.000000
# 6 0.000000 0.000000 0.000000 0.000000 0.000000 0.026415
#
#
# Mechanical properties :
#
#
# Convention : Reuss Voigt Hill
#
# Bulk Modulus (GPa) = 44.80481 46.69711 45.75096
# Shear Modulus (GPa) = 29.31972 30.41285 29.86629
#
# Velocity S-wave (km/s) = 3.66261 3.73026 3.69659
# Velocity P-wave (km/s) = 6.19563 6.31811 6.25717
#
# Compressibility (1/GPa) = 0.02231903
#
# Stress axis : x y z
#
# Youngs Moduli (GPa) = 59.10650 76.42020 70.57376
#
# Poissons Ratio (x) = 0.09488 0.36128
# Poissons Ratio (y) = 0.07339 0.32228
# Poissons Ratio (z) = 0.30258 0.34898
#
# Static dielectric constant tensor:
#      x y z
#    x 4.017760 0.000000 0.000000 
#    y 0.000000 4.034520 0.000000 
#    z 0.000000 0.000000 3.678990 
# 
# 
# High freq. dielectric constant tensor:
#      x y z
#    x 1.870830 0.000000 0.000000 
#    y 0.000000 1.871170 0.000000 
#    z 0.000000 0.000000 1.824530 
# 
# From -- ./inp_files/8306.got.cif
#   From: 2010.06.25/outbox.cif.g09.slc.cpg/sg58_5_cif.got.tgz:8306.got - 2010.06.26 21:38:00.
