data_PCOD8236114
_publ_section_title
;
Structure prediction by ZEFSAII (Michael W. Deem and Ramdas Pophale) SiO2 
 PCOD8236114
Probable space group: P N N M
;
_chemical_formula_sum "Si O2"
_cell_formula_units_Z 56
_cell_length_a 17.193716
_cell_length_b 19.535452
_cell_length_c 9.415577
_cell_angle_alpha 90.000000
_cell_angle_beta 90.000000
_cell_angle_gamma 90.000000
_cell_volume 3162.570040
_symmetry_space_group_name_H-M "P N N M"
_symmetry_group_IT_number 58
_symmetry_cell_setting 'orthorhombic'
loop_
_space_group_symop_operation_xyz
x,y,z
-x,-y,z
1/2+x,1/2-y,1/2-z
1/2-x,1/2+y,1/2-z
-x,-y,-z
x,y,-z
1/2-x,1/2+y,1/2+z
1/2+x,1/2-y,1/2+z
loop_
_atom_site_type_symbol
_atom_site_label
_atom_site_fract_x
_atom_site_fract_y
_atom_site_fract_z
Si Si1 0.885161 0.593899 0.667755
Si Si2 0.633431 0.958212 0.335475
Si Si3 0.563056 0.685906 0.663858
Si Si4 0.807378 0.974756 0.338149
Si Si5 0.529694 0.425693 0.835949
Si Si6 0.017927 0.662692 0.165882
Si Si7 0.209947 0.894917 0.837870
O O1 0.900976 0.588538 0.500000
O O2 0.898000 0.519621 0.738070
O O3 0.798823 0.622048 0.703428
O O4 0.942895 0.647725 0.739048
O O5 0.622085 0.979388 0.500000
O O6 0.585742 0.890752 0.297316
O O7 0.723772 0.941801 0.300107
O O8 0.541543 0.675966 0.500000
O O9 0.508036 0.635181 0.749067
O O10 0.548962 0.763341 0.712517
O O11 0.654489 0.670152 0.690920
O O12 0.808622 0.999334 0.500000
O O13 0.824445 0.042484 0.249751
O O14 0.876894 0.921011 0.310481
O O15 0.500000 0.500000 0.783893
O O16 0.507708 0.415066 0.000000
O O17 0.995487 0.659599 0.000000
O O18 0.206769 0.918655 0.000000
#
# Coordination Sequence:
#
# PCOD8236114 Si02
#       7
#     8   8   8   8   8   8   8
#     4  10  20  34  55  82 106 132 170 217 266 311
#     4   9  18  34  56  78 101 137 177 216 257 304
#     4  10  21  36  53  73 103 142 178 212 255 308
#     4   9  17  31  52  79 104 130 168 212 257 304
#     4  10  19  32  52  79 107 134 170 215 260 308
#     4  10  21  37  53  74 104 138 179 216 254 309
#     4   9  18  33  52  76 102 133 170 210 255 305
#
# _framework density 17.707118999999999
#
# number of rings (size 3 to 8) (size 9 to 14) (size 15 to 20)
#    0.000    2.429    1.429    0.857    0.000    4.286 
#    2.571    0.000    0.000    0.000    0.000    0.000 
#    0.000    0.000    0.000    0.000    0.000    0.000 
#
# Total GULP energy -694366.307644 kJ/mol
# GULP energy per Si atom -12399.398351 kJ/mol
# Density = 1.766682 g / cm^3
# Si number density = 17.707119 Si / 1000 Ang^3
#
#
#
# Elastic Constant Matrix: (Units=GPa)
#
#
# Indices 1 2 3 4 5 6 
#
# 1 117.5406 78.5892 52.5903 0.0000 0.0000 0.0000
# 2 78.5892 135.4052 60.0487 0.0000 0.0000 0.0000
# 3 52.5903 60.0487 65.6783 0.0000 0.0000 0.0000
# 4 0.0000 0.0000 0.0000 25.1406 0.0000 0.0000
# 5 0.0000 0.0000 0.0000 0.0000 20.8632 0.0000
# 6 0.0000 0.0000 0.0000 0.0000 0.0000 25.0225
#
#
#
# Elastic Compliance Matrix: (Units=1/GPa)
#
#
# Indices 1 2 3 4 5 6 
#
# 1 0.015657 -0.005933 -0.007112 0.000000 0.000000 0.000000
# 2 -0.005933 0.014670 -0.008662 0.000000 0.000000 0.000000
# 3 -0.007112 -0.008662 0.028840 0.000000 0.000000 0.000000
# 4 0.000000 0.000000 0.000000 0.039776 0.000000 0.000000
# 5 0.000000 0.000000 0.000000 0.000000 0.047931 0.000000
# 6 0.000000 0.000000 0.000000 0.000000 0.000000 0.039964
#
#
# Mechanical properties :
#
#
# Convention : Reuss Voigt Hill
#
# Bulk Modulus (GPa) = 63.48174 77.89784 70.68979
# Shear Modulus (GPa) = 21.23105 22.69833 21.96469
#
# Velocity S-wave (km/s) = 3.46643 3.58421 3.52581
# Velocity P-wave (km/s) = 7.20766 7.82411 7.52220
#
# Compressibility (1/GPa) = 0.01575256
#
# Stress axis : x y z
#
# Youngs Moduli (GPa) = 63.86974 68.16564 34.67392
#
# Poissons Ratio (x) = 0.40444 0.24661
# Poissons Ratio (y) = 0.37895 0.30034
# Poissons Ratio (z) = 0.45426 0.59044
#
# Static dielectric constant tensor:
#      x y z
#    x 3.618520 0.000000 0.000000 
#    y 0.000000 3.101500 0.000000 
#    z 0.000000 0.000000 3.295440 
# 
# 
# High freq. dielectric constant tensor:
#      x y z
#    x 1.702280 0.000000 0.000000 
#    y 0.000000 1.659660 0.000000 
#    z 0.000000 0.000000 1.683830 
# 
# From -- ./inp_files/8159.got.cif
#   From: 2010.06.25/outbox.cif.g09.slc.cpg/sg58_5_cif.got.tgz:8159.got - 2010.06.26 21:38:00.
