data_PCOD8236075
_publ_section_title
;
Structure prediction by ZEFSAII (Michael W. Deem and Ramdas Pophale) SiO2 
 PCOD8236075
Probable space group: P N N M
;
_chemical_formula_sum "Si O2"
_cell_formula_units_Z 48
_cell_length_a 28.827341
_cell_length_b 10.390233
_cell_length_c 9.101338
_cell_angle_alpha 90.000000
_cell_angle_beta 90.000000
_cell_angle_gamma 90.000000
_cell_volume 2726.058148
_symmetry_space_group_name_H-M "P N N M"
_symmetry_group_IT_number 58
_symmetry_cell_setting 'orthorhombic'
loop_
_space_group_symop_operation_xyz
x,y,z
-x,-y,z
1/2+x,1/2-y,1/2-z
1/2-x,1/2+y,1/2-z
-x,-y,-z
x,y,-z
1/2-x,1/2+y,1/2+z
1/2+x,1/2-y,1/2+z
loop_
_atom_site_type_symbol
_atom_site_label
_atom_site_fract_x
_atom_site_fract_y
_atom_site_fract_z
Si Si1 0.778624 0.489752 0.171852
Si Si2 0.389680 0.268136 0.827834
Si Si3 0.525674 0.628042 0.325680
Si Si4 0.026133 0.376689 0.171622
Si Si5 0.116355 0.508311 0.830479
Si Si6 0.716562 0.725471 0.827701
O O1 0.831329 0.532800 0.208048
O O2 0.746148 0.604451 0.231404
O O3 0.766032 0.356047 0.250616
O O4 0.770715 0.467840 0.000000
O O5 0.423562 0.368994 0.748157
O O6 0.336777 0.304847 0.789022
O O7 0.400635 0.126335 0.768127
O O8 0.398953 0.271460 0.000000
O O9 0.500000 0.500000 0.273695
O O10 0.532164 0.631510 0.500000
O O11 0.494266 0.745147 0.262170
O O12 0.081531 0.389215 0.201841
O O13 0.000000 0.500000 0.241231
O O14 0.015475 0.372654 0.000000
O O15 0.112365 0.552318 0.000000
O O16 0.724114 0.745866 0.000000
#
# Coordination Sequence:
#
# PCOD8236075 Si02
#       6
#     8   8   8   8   8   8
#     4   9  18  33  53  75  99 130 169 208 247 298
#     4  10  19  32  51  71 100 135 164 196 245 301
#     4  10  20  34  50  72 100 128 164 207 246 292
#     4   9  15  27  50  73  95 121 152 200 249 280
#     4   9  16  30  53  74  93 124 167 205 243 288
#     4   9  19  35  52  75 104 133 166 209 256 299
#
# _framework density 17.607842000000002
#
# number of rings (size 3 to 8) (size 9 to 14) (size 15 to 20)
#    0.000    2.667    1.667    0.500    0.000    1.667 
#    3.000    1.667    0.000    0.000    0.000    0.000 
#    0.000    0.000    0.000    0.000    0.000    0.000 
#
# Total GULP energy -595085.611343 kJ/mol
# GULP energy per Si atom -12397.616903 kJ/mol
# Density = 1.756777 g / cm^3
# Si number density = 17.607842 Si / 1000 Ang^3
#
#
#
# Elastic Constant Matrix: (Units=GPa)
#
#
# Indices 1 2 3 4 5 6 
#
# 1 117.6119 84.9993 33.6911 0.0000 0.0000 0.0000
# 2 84.9993 144.1193 36.1339 0.0000 0.0000 0.0000
# 3 33.6911 36.1339 35.8815 0.0000 0.0000 0.0000
# 4 0.0000 0.0000 0.0000 20.2222 0.0000 0.0000
# 5 0.0000 0.0000 0.0000 0.0000 23.8782 0.0000
# 6 0.0000 0.0000 0.0000 0.0000 0.0000 35.7422
#
#
#
# Elastic Compliance Matrix: (Units=1/GPa)
#
#
# Indices 1 2 3 4 5 6 
#
# 1 0.016190 -0.007675 -0.007473 0.000000 0.000000 0.000000
# 2 -0.007675 0.012921 -0.005805 0.000000 0.000000 0.000000
# 3 -0.007473 -0.005805 0.040732 0.000000 0.000000 0.000000
# 4 0.000000 0.000000 0.000000 0.049451 0.000000 0.000000
# 5 0.000000 0.000000 0.000000 0.000000 0.041879 0.000000
# 6 0.000000 0.000000 0.000000 0.000000 0.000000 0.027978
#
#
# Mechanical properties :
#
#
# Convention : Reuss Voigt Hill
#
# Bulk Modulus (GPa) = 35.79469 67.47347 51.63408
# Shear Modulus (GPa) = 20.80135 25.48773 23.14454
#
# Velocity S-wave (km/s) = 3.44083 3.80876 3.62946
# Velocity P-wave (km/s) = 6.01321 7.59905 6.85216
#
# Compressibility (1/GPa) = 0.02793711
#
# Stress axis : x y z
#
# Youngs Moduli (GPa) = 61.76657 77.39449 24.55071
#
# Poissons Ratio (x) = 0.59401 0.18346
# Poissons Ratio (y) = 0.47406 0.14252
# Poissons Ratio (z) = 0.46156 0.44929
#
# Static dielectric constant tensor:
#      x y z
#    x 3.461670 0.000000 0.000000 
#    y 0.000000 3.257220 0.000000 
#    z 0.000000 0.000000 3.051280 
# 
# 
# High freq. dielectric constant tensor:
#      x y z
#    x 1.691100 0.000000 0.000000 
#    y 0.000000 1.665050 0.000000 
#    z 0.000000 0.000000 1.657080 
# 
# From -- ./inp_files/10330.got.cif
#   From: 2010.06.25/outbox.cif.g09.slc.cpg/sg58_6_cif.got.tgz:10330.got - 2010.06.26 21:38:00.
