data_PCOD8236288
_publ_section_title
;
Structure prediction by ZEFSAII (Michael W. Deem and Ramdas Pophale) SiO2 
 PCOD8236288
Probable space group: P N N M
;
_chemical_formula_sum "Si O2"
_cell_formula_units_Z 64
_cell_length_a 10.394221
_cell_length_b 33.499368
_cell_length_c 8.928033
_cell_angle_alpha 90.000000
_cell_angle_beta 90.000000
_cell_angle_gamma 90.000000
_cell_volume 3108.739612
_symmetry_space_group_name_H-M "P N N M"
_symmetry_group_IT_number 58
_symmetry_cell_setting 'orthorhombic'
loop_
_space_group_symop_operation_xyz
x,y,z
-x,-y,z
1/2+x,1/2-y,1/2-z
1/2-x,1/2+y,1/2-z
-x,-y,-z
x,y,-z
1/2-x,1/2+y,1/2+z
1/2+x,1/2-y,1/2+z
loop_
_atom_site_type_symbol
_atom_site_label
_atom_site_fract_x
_atom_site_fract_y
_atom_site_fract_z
Si Si1 0.250304 0.546528 0.826471
Si Si2 0.516839 0.727950 0.177991
Si Si3 0.211500 0.467870 0.324401
Si Si4 0.122011 0.391652 0.824567
Si Si5 0.118647 0.854852 0.672766
Si Si6 0.841519 0.369623 0.174838
Si Si7 0.461019 0.440131 0.830071
Si Si8 0.228398 0.716514 0.822338
O O1 0.175496 0.511577 0.739338
O O2 0.214812 0.589557 0.754143
O O3 0.402519 0.538930 0.806323
O O4 0.209193 0.544922 0.000000
O O5 0.559363 0.684919 0.246236
O O6 0.366990 0.735088 0.223606
O O7 0.609501 0.760771 0.248237
O O8 0.529495 0.729630 0.000000
O O9 0.191739 0.468210 0.500000
O O10 0.116810 0.434927 0.253702
O O11 0.359224 0.458046 0.284755
O O12 0.241072 0.365808 0.759071
O O13 0.993359 0.367229 0.790113
O O14 0.141388 0.399758 0.000000
O O15 0.137035 0.844783 0.500000
O O16 0.023181 0.892373 0.696611
O O17 0.775971 0.329358 0.237378
O O18 0.812420 0.371952 0.000000
O O19 0.410598 0.447476 0.000000
O O20 0.208195 0.717662 0.000000
#
# Coordination Sequence:
#
# PCOD8236288 Si02
#       8
#     8   8   8   8   8   8   8   8
#     4  10  19  33  55  79 104 138 183 236 283 328
#     4  10  21  37  59  89 122 156 190 234 290 349
#     4  11  22  34  49  76 112 146 180 224 279 341
#     4   9  18  35  58  81 104 140 189 237 279 326
#     4   8  15  30  55  80 105 139 184 229 275 328
#     4   9  19  36  60  84 105 138 189 242 282 324
#     4   9  17  32  55  79 103 137 183 233 280 329
#     4  10  22  39  60  89 121 151 192 240 289 347
#
# _framework density 20.587122000000001
#
# number of rings (size 3 to 8) (size 9 to 14) (size 15 to 20)
#    0.000    2.500    0.000    3.000    1.750    6.000 
#    0.000    6.875    0.000    4.500    0.000    0.000 
#    0.000    0.000    0.000    0.000    0.000    0.000 
#
# Total GULP energy -793339.590764 kJ/mol
# GULP energy per Si atom -12395.931106 kJ/mol
# Density = 2.054026 g / cm^3
# Si number density = 20.587122 Si / 1000 Ang^3
#
#
#
# Elastic Constant Matrix: (Units=GPa)
#
#
# Indices 1 2 3 4 5 6 
#
# 1 86.2274 41.0778 27.0199 0.0000 0.0000 0.0000
# 2 41.0778 128.9668 30.4669 0.0000 0.0000 0.0000
# 3 27.0199 30.4669 52.4650 0.0000 0.0000 0.0000
# 4 0.0000 0.0000 0.0000 21.0919 0.0000 0.0000
# 5 0.0000 0.0000 0.0000 0.0000 18.8272 0.0000
# 6 0.0000 0.0000 0.0000 0.0000 0.0000 33.7215
#
#
#
# Elastic Compliance Matrix: (Units=1/GPa)
#
#
# Indices 1 2 3 4 5 6 
#
# 1 0.015033 -0.003430 -0.005750 0.000000 0.000000 0.000000
# 2 -0.003430 0.009769 -0.003907 0.000000 0.000000 0.000000
# 3 -0.005750 -0.003907 0.024291 0.000000 0.000000 0.000000
# 4 0.000000 0.000000 0.000000 0.047411 0.000000 0.000000
# 5 0.000000 0.000000 0.000000 0.000000 0.053115 0.000000
# 6 0.000000 0.000000 0.000000 0.000000 0.000000 0.029655
#
#
# Mechanical properties :
#
#
# Convention : Reuss Voigt Hill
#
# Bulk Modulus (GPa) = 43.63201 51.64315 47.63758
# Shear Modulus (GPa) = 23.46455 26.00109 24.73282
#
# Velocity S-wave (km/s) = 3.37971 3.55770 3.46984
# Velocity P-wave (km/s) = 6.03902 6.48197 6.26441
#
# Compressibility (1/GPa) = 0.02291895
#
# Stress axis : x y z
#
# Youngs Moduli (GPa) = 66.51992 102.36157 41.16827
#
# Poissons Ratio (x) = 0.35108 0.23674
# Poissons Ratio (y) = 0.22815 0.16083
# Poissons Ratio (z) = 0.38252 0.39990
#
# Static dielectric constant tensor:
#      x y z
#    x 3.747380 0.000000 0.000000 
#    y 0.000000 4.008840 0.000000 
#    z 0.000000 0.000000 3.196240 
# 
# 
# High freq. dielectric constant tensor:
#      x y z
#    x 1.807840 0.000000 0.000000 
#    y 0.000000 1.817840 0.000000 
#    z 0.000000 0.000000 1.748490 
# 
# From -- ./inp_files/4645.got.cif
#   From: 2010.06.25/outbox.cif.g09.slc.cpg/sg58_3_cif.got.tgz:4645.got - 2010.06.26 21:38:00.
