data_PCOD8236683
_publ_section_title
;
Structure prediction by ZEFSAII (Michael W. Deem and Ramdas Pophale) SiO2 
 PCOD8236683
Probable space group: P N N M
;
_chemical_formula_sum "Si O2"
_cell_formula_units_Z 56
_cell_length_a 16.441135
_cell_length_b 19.516376
_cell_length_c 8.976855
_cell_angle_alpha 90.000000
_cell_angle_beta 90.000000
_cell_angle_gamma 90.000000
_cell_volume 2880.415785
_symmetry_space_group_name_H-M "P N N M"
_symmetry_group_IT_number 58
_symmetry_cell_setting 'orthorhombic'
loop_
_space_group_symop_operation_xyz
x,y,z
-x,-y,z
1/2+x,1/2-y,1/2-z
1/2-x,1/2+y,1/2-z
-x,-y,-z
x,y,-z
1/2-x,1/2+y,1/2+z
1/2+x,1/2-y,1/2+z
loop_
_atom_site_type_symbol
_atom_site_label
_atom_site_fract_x
_atom_site_fract_y
_atom_site_fract_z
Si Si1 0.572561 0.702729 0.828740
Si Si2 0.755987 0.019590 0.174333
Si Si3 0.650572 0.150917 0.825922
Si Si4 0.009885 0.669347 0.826379
Si Si5 0.748305 0.761044 0.172767
Si Si6 0.684280 0.889989 0.325298
Si Si7 0.923174 0.046681 0.326418
O O1 0.517698 0.752018 0.727503
O O2 0.667012 0.717583 0.798882
O O3 0.554762 0.624575 0.782645
O O4 0.549661 0.716780 0.000000
O O5 0.715079 0.092049 0.211308
O O6 0.848147 0.019232 0.230842
O O7 0.702800 0.963990 0.260255
O O8 0.754698 0.003075 0.000000
O O9 0.562711 0.131064 0.759741
O O10 0.677796 0.221015 0.747954
O O11 0.642656 0.163766 0.000000
O O12 0.091044 0.627396 0.787641
O O13 0.990605 0.669317 0.000000
O O14 0.743334 0.835150 0.248411
O O15 0.767181 0.771272 0.000000
O O16 0.701391 0.888541 0.500000
O O17 0.899430 0.042079 0.500000
O O18 0.000000 0.000000 0.287021
#
# Coordination Sequence:
#
# PCOD8236683 Si02
#       7
#     8   8   8   8   8   8   8
#     4   9  18  35  58  83 113 150 190 239 298 355
#     4  11  24  40  60  87 121 162 203 248 301 359
#     4  11  23  38  59  87 120 159 203 249 302 360
#     4  10  22  38  59  87 116 154 201 252 303 353
#     4  10  19  35  61  86 112 151 198 247 298 356
#     4  10  22  40  61  86 121 160 199 248 305 362
#     4  10  21  38  61  88 119 157 198 243 300 361
#
# _framework density 19.441638999999999
#
# number of rings (size 3 to 8) (size 9 to 14) (size 15 to 20)
#    0.000    1.857    1.429    2.143    0.000    6.571 
#    0.000    7.143    0.000    0.000    0.000    0.000 
#    0.000    0.000    0.000    0.000    0.000    0.000 
#
# Total GULP energy -694718.521315 kJ/mol
# GULP energy per Si atom -12405.687881 kJ/mol
# Density = 1.939739 g / cm^3
# Si number density = 19.441639 Si / 1000 Ang^3
#
#
#
# Elastic Constant Matrix: (Units=GPa)
#
#
# Indices 1 2 3 4 5 6 
#
# 1 99.4554 38.0047 56.0582 0.0000 0.0000 0.0000
# 2 38.0047 56.9098 46.0424 0.0000 0.0000 0.0000
# 3 56.0582 46.0424 105.2928 0.0000 0.0000 0.0000
# 4 0.0000 0.0000 0.0000 33.4577 0.0000 0.0000
# 5 0.0000 0.0000 0.0000 0.0000 35.9674 0.0000
# 6 0.0000 0.0000 0.0000 0.0000 0.0000 24.9166
#
#
#
# Elastic Compliance Matrix: (Units=1/GPa)
#
#
# Indices 1 2 3 4 5 6 
#
# 1 0.015465 -0.005674 -0.005753 0.000000 0.000000 0.000000
# 2 -0.005674 0.029273 -0.009780 0.000000 0.000000 0.000000
# 3 -0.005753 -0.009780 0.016837 0.000000 0.000000 0.000000
# 4 0.000000 0.000000 0.000000 0.029888 0.000000 0.000000
# 5 0.000000 0.000000 0.000000 0.000000 0.027803 0.000000
# 6 0.000000 0.000000 0.000000 0.000000 0.000000 0.040134
#
#
# Mechanical properties :
#
#
# Convention : Reuss Voigt Hill
#
# Bulk Modulus (GPa) = 52.18554 60.20762 56.19658
# Shear Modulus (GPa) = 24.01537 26.97186 25.49361
#
# Velocity S-wave (km/s) = 3.51843 3.72872 3.62510
# Velocity P-wave (km/s) = 6.58834 7.04084 6.81835
#
# Compressibility (1/GPa) = 0.01916240
#
# Stress axis : x y z
#
# Youngs Moduli (GPa) = 64.66036 34.16147 59.39422
#
# Poissons Ratio (x) = 0.19382 0.34169
# Poissons Ratio (y) = 0.36686 0.58086
# Poissons Ratio (z) = 0.37198 0.33409
#
# Static dielectric constant tensor:
#      x y z
#    x 3.457790 0.000000 0.000000 
#    y 0.000000 3.524110 0.000000 
#    z 0.000000 0.000000 3.577230 
# 
# 
# High freq. dielectric constant tensor:
#      x y z
#    x 1.755140 0.000000 0.000000 
#    y 0.000000 1.757710 0.000000 
#    z 0.000000 0.000000 1.765380 
# 
# From -- ./inp_files/6253.got.cif
#   From: 2010.06.25/outbox.cif.g09.slc.cpg/sg58_4_cif.got.tgz:6253.got - 2010.06.26 21:38:00.
