data_PCOD8236876
_publ_section_title
;
Structure prediction by ZEFSAII (Michael W. Deem and Ramdas Pophale) SiO2 
 PCOD8236876
Probable space group: P N N M
;
_chemical_formula_sum "Si O2"
_cell_formula_units_Z 64
_cell_length_a 30.264205
_cell_length_b 14.211989
_cell_length_c 9.073220
_cell_angle_alpha 90.000000
_cell_angle_beta 90.000000
_cell_angle_gamma 90.000000
_cell_volume 3902.523924
_symmetry_space_group_name_H-M "P N N M"
_symmetry_group_IT_number 58
_symmetry_cell_setting 'orthorhombic'
loop_
_space_group_symop_operation_xyz
x,y,z
-x,-y,z
1/2+x,1/2-y,1/2-z
1/2-x,1/2+y,1/2-z
-x,-y,-z
x,y,-z
1/2-x,1/2+y,1/2+z
1/2+x,1/2-y,1/2+z
loop_
_atom_site_type_symbol
_atom_site_label
_atom_site_fract_x
_atom_site_fract_y
_atom_site_fract_z
Si Si1 0.780217 0.237867 0.671948
Si Si2 0.196818 0.169232 0.329745
Si Si3 0.264182 0.474942 0.167111
Si Si4 0.632942 0.205645 0.325679
Si Si5 0.551501 0.895776 0.326072
Si Si6 0.046164 0.392037 0.174280
Si Si7 0.821799 0.539566 0.666836
Si Si8 0.134079 0.655641 0.333355
O O1 0.773827 0.263499 0.500000
O O2 0.738380 0.276926 0.759387
O O3 0.785660 0.126441 0.697968
O O4 0.825254 0.284728 0.734055
O O5 0.195115 0.198096 0.500000
O O6 0.151020 0.200267 0.251875
O O7 0.199620 0.056713 0.309125
O O8 0.225773 0.497787 0.282884
O O9 0.245510 0.479541 0.000000
O O10 0.635074 0.218809 0.500000
O O11 0.583238 0.181617 0.269014
O O12 0.665026 0.120888 0.279764
O O13 0.557653 0.892027 0.500000
O O14 0.502827 0.857784 0.278613
O O15 0.588650 0.828309 0.255558
O O16 0.555889 0.002891 0.265835
O O17 0.048735 0.398906 0.000000
O O18 0.819303 0.578616 0.500000
O O19 0.855875 0.454656 0.676742
O O20 0.125942 0.688689 0.500000
#
# Coordination Sequence:
#
# PCOD8236876 Si02
#       8
#     8   8   8   8   8   8   8   8
#     4  10  20  35  50  66  92 131 165 193 234 286
#     4  11  22  33  47  72  97 122 162 205 237 275
#     4  10  21  35  50  66  92 130 167 198 235 281
#     4  11  20  32  49  69  95 132 165 191 236 289
#     4   9  16  30  49  68  93 124 159 194 230 280
#     4   8  16  29  47  69  92 123 161 194 226 283
#     4  11  20  29  45  71 100 127 159 201 235 272
#     4  10  20  31  45  70 100 127 158 194 241 283
#
# _framework density 16.399643000000001
#
# number of rings (size 3 to 8) (size 9 to 14) (size 15 to 20)
#    0.000    2.000    3.750    1.875    0.000    1.500 
#    0.000    2.500    0.000    0.000    0.000    0.875 
#    0.000    7.000    0.000    0.000    0.000    0.000 
#
# Total GULP energy -793398.658058 kJ/mol
# GULP energy per Si atom -12396.854032 kJ/mol
# Density = 1.636232 g / cm^3
# Si number density = 16.399643 Si / 1000 Ang^3
#
#
#
# Elastic Constant Matrix: (Units=GPa)
#
#
# Indices 1 2 3 4 5 6 
#
# 1 110.0288 22.1180 35.2661 0.0000 0.0000 0.0000
# 2 22.1180 59.3402 20.1036 0.0000 0.0000 0.0000
# 3 35.2661 20.1036 56.1146 0.0000 0.0000 0.0000
# 4 0.0000 0.0000 0.0000 18.6744 0.0000 0.0000
# 5 0.0000 0.0000 0.0000 0.0000 25.8616 0.0000
# 6 0.0000 0.0000 0.0000 0.0000 0.0000 26.9336
#
#
#
# Elastic Compliance Matrix: (Units=1/GPa)
#
#
# Indices 1 2 3 4 5 6 
#
# 1 0.011609 -0.002112 -0.006539 0.000000 0.000000 0.000000
# 2 -0.002112 0.019564 -0.005682 0.000000 0.000000 0.000000
# 3 -0.006539 -0.005682 0.023966 0.000000 0.000000 0.000000
# 4 0.000000 0.000000 0.000000 0.053549 0.000000 0.000000
# 5 0.000000 0.000000 0.000000 0.000000 0.038667 0.000000
# 6 0.000000 0.000000 0.000000 0.000000 0.000000 0.037128
#
#
# Mechanical properties :
#
#
# Convention : Reuss Voigt Hill
#
# Bulk Modulus (GPa) = 37.77393 42.27320 40.02357
# Shear Modulus (GPa) = 22.52516 24.16032 23.34274
#
# Velocity S-wave (km/s) = 3.71012 3.84242 3.77685
# Velocity P-wave (km/s) = 6.43713 6.74674 6.59375
#
# Compressibility (1/GPa) = 0.02647329
#
# Stress axis : x y z
#
# Youngs Moduli (GPa) = 86.14035 51.11431 41.72579
#
# Poissons Ratio (x) = 0.10793 0.27286
# Poissons Ratio (y) = 0.18189 0.23708
# Poissons Ratio (z) = 0.56330 0.29043
#
# Static dielectric constant tensor:
#      x y z
#    x 3.278740 0.000000 0.000000 
#    y 0.000000 3.015970 0.000000 
#    z 0.000000 0.000000 3.034510 
# 
# 
# High freq. dielectric constant tensor:
#      x y z
#    x 1.623600 0.000000 0.000000 
#    y 0.000000 1.603120 0.000000 
#    z 0.000000 0.000000 1.626380 
# 
# From -- ./inp_files/7154.got.cif
#   From: 2010.06.25/outbox.cif.g09.slc.cpg/sg58_4_cif.got.tgz:7154.got - 2010.06.26 21:38:00.
