data_PCOD8236638
_publ_section_title
;
Structure prediction by ZEFSAII (Michael W. Deem and Ramdas Pophale) SiO2 
 PCOD8236638
Probable space group: P N N M
;
_chemical_formula_sum "Si O2"
_cell_formula_units_Z 56
_cell_length_a 21.007818
_cell_length_b 11.839311
_cell_length_c 11.861091
_cell_angle_alpha 90.000000
_cell_angle_beta 90.000000
_cell_angle_gamma 90.000000
_cell_volume 2950.067908
_symmetry_space_group_name_H-M "P N N M"
_symmetry_group_IT_number 58
_symmetry_cell_setting 'orthorhombic'
loop_
_space_group_symop_operation_xyz
x,y,z
-x,-y,z
1/2+x,1/2-y,1/2-z
1/2-x,1/2+y,1/2-z
-x,-y,-z
x,y,-z
1/2-x,1/2+y,1/2+z
1/2+x,1/2-y,1/2+z
loop_
_atom_site_type_symbol
_atom_site_label
_atom_site_fract_x
_atom_site_fract_y
_atom_site_fract_z
Si Si1 0.664598 0.212539 0.197783
Si Si2 0.420681 0.878705 0.000000
Si Si3 0.129331 0.771157 0.713477
Si Si4 0.759713 0.049909 0.715311
Si Si5 0.332993 0.597505 0.624870
Si Si6 0.216893 0.660137 0.118936
Si Si7 0.928756 0.355569 0.500000
Si Si8 0.444164 0.423084 0.374772
O O1 0.691253 0.107345 0.268183
O O2 0.641949 0.305843 0.289275
O O3 0.725877 0.251072 0.127506
O O4 0.608211 0.177692 0.113118
O O5 0.495077 0.849642 0.000000
O O6 0.407359 0.013319 0.000000
O O7 0.181737 0.867381 0.682881
O O8 0.164868 0.674252 0.783800
O O9 0.099038 0.711451 0.606269
O O10 0.071904 0.822795 0.788037
O O11 0.772522 0.967960 0.823310
O O12 0.747895 0.964192 0.612970
O O13 0.315795 0.647337 0.500000
O O14 0.384757 0.502814 0.610126
O O15 0.182447 0.684590 0.000000
O O16 0.500000 0.500000 0.322836
O O17 0.463187 0.375717 0.500000
#
# Coordination Sequence:
#
# PCOD8236638 Si02
#       8
#     8   4   8   8   8   8   4   8
#     4  10  20  36  57  84 112 156 193 238 288 350
#     4  11  24  42  61  78 117 162 210 237 289 356
#     4  10  21  38  57  85 116 155 198 238 296 350
#     4   9  20  34  55  88 117 146 184 244 297 357
#     4   9  19  34  54  84 116 145 186 232 295 353
#     4  10  19  35  58  86 115 145 189 241 300 351
#     4  11  26  42  58  83 116 165 203 246 283 363
#     4   9  18  34  58  84 112 147 189 240 287 345
#
# _framework density 18.982614000000002
#
# number of rings (size 3 to 8) (size 9 to 14) (size 15 to 20)
#    0.000    2.286    0.714    1.286    4.000    2.286 
#   10.286    0.357    0.000    0.000    0.000    4.000 
#    0.000    0.000    0.000    0.000    0.000    0.000 
#
# Total GULP energy -693825.050698 kJ/mol
# GULP energy per Si atom -12389.733048 kJ/mol
# Density = 1.893941 g / cm^3
# Si number density = 18.982614 Si / 1000 Ang^3
#
#
#
# Elastic Constant Matrix: (Units=GPa)
#
#
# Indices 1 2 3 4 5 6 
#
# 1 63.5069 25.6101 42.3181 0.0000 0.0000 0.0000
# 2 25.6101 94.8894 58.6168 0.0000 0.0000 0.0000
# 3 42.3181 58.6168 137.8741 0.0000 0.0000 0.0000
# 4 0.0000 0.0000 0.0000 19.6417 0.0000 0.0000
# 5 0.0000 0.0000 0.0000 0.0000 -7.5325 0.0000
# 6 0.0000 0.0000 0.0000 0.0000 0.0000 23.1901
#
#
#
# Elastic Compliance Matrix: (Units=1/GPa)
#
#
# Indices 1 2 3 4 5 6 
#
# 1 0.020125 -0.002191 -0.005245 0.000000 0.000000 0.000000
# 2 -0.002191 0.014531 -0.005505 0.000000 0.000000 0.000000
# 3 -0.005245 -0.005505 0.011203 0.000000 0.000000 0.000000
# 4 0.000000 0.000000 0.000000 0.050912 0.000000 0.000000
# 5 0.000000 0.000000 0.000000 0.000000 -0.132758 0.000000
# 6 0.000000 0.000000 0.000000 0.000000 0.000000 0.043122
#
#
# Mechanical properties :
#
#
# Convention : Reuss Voigt Hill
#
# Bulk Modulus (GPa) = 50.06091 61.04004 55.55048
# Shear Modulus (GPa) = 126.01523 18.37489 72.19506
#
# Velocity S-wave (km/s) = 8.15651 3.11462 6.17372
# Velocity P-wave (km/s) = 10.73006 6.72012 8.95249
#
# Compressibility (1/GPa) = 0.01997567
#
# Stress axis : x y z
#
# Youngs Moduli (GPa) = 49.68854 68.81967 89.25805
#
# Poissons Ratio (x) = 0.15081 0.46820
# Poissons Ratio (y) = 0.10889 0.49137
# Poissons Ratio (z) = 0.26064 0.37886
#
# Static dielectric constant tensor:
#      x y z
#    x 3.676980 0.000000 0.000000 
#    y 0.000000 3.591160 0.000000 
#    z 0.000000 0.000000 3.772160 
# 
# 
# High freq. dielectric constant tensor:
#      x y z
#    x 1.720530 0.000000 0.000000 
#    y 0.000000 1.740600 0.000000 
#    z 0.000000 0.000000 1.739390 
# 
# From -- ./inp_files/17524.got.cif
#   From: 2010.06.25/outbox.cif.g09.slc.cpg/sg58_9_cif.got.tgz:17524.got - 2010.06.26 21:38:00.
