data_PCOD8236906
_publ_section_title
;
Structure prediction by ZEFSAII (Michael W. Deem and Ramdas Pophale) SiO2 
 PCOD8236906
Probable space group: P N N M
;
_chemical_formula_sum "Si O2"
_cell_formula_units_Z 52
_cell_length_a 8.268476
_cell_length_b 17.738325
_cell_length_c 17.837489
_cell_angle_alpha 90.000000
_cell_angle_beta 90.000000
_cell_angle_gamma 90.000000
_cell_volume 2616.205150
_symmetry_space_group_name_H-M "P N N M"
_symmetry_group_IT_number 58
_symmetry_cell_setting 'orthorhombic'
loop_
_space_group_symop_operation_xyz
x,y,z
-x,-y,z
1/2+x,1/2-y,1/2-z
1/2-x,1/2+y,1/2-z
-x,-y,-z
x,y,-z
1/2-x,1/2+y,1/2+z
1/2+x,1/2-y,1/2+z
loop_
_atom_site_type_symbol
_atom_site_label
_atom_site_fract_x
_atom_site_fract_y
_atom_site_fract_z
Si Si1 0.340617 0.231607 0.581677
Si Si2 0.561325 0.376296 0.581326
Si Si3 0.663248 0.046349 0.734883
Si Si4 0.000000 0.000000 0.799766
Si Si5 0.864846 0.626243 0.915585
Si Si6 0.880485 0.712303 0.710525
Si Si7 0.225378 0.734104 0.353007
O O1 0.255831 0.219435 0.500000
O O2 0.443564 0.306521 0.575831
O O3 0.456741 0.160699 0.598513
O O4 0.211012 0.241370 0.646428
O O5 0.571184 0.417635 0.500000
O O6 0.498776 0.428630 0.646655
O O7 0.738031 0.342062 0.600753
O O8 0.662249 0.060589 0.645282
O O9 0.666876 0.124214 0.782202
O O10 0.500000 0.000000 0.757294
O O11 0.832471 0.002146 0.751831
O O12 0.728471 0.691793 0.905888
O O13 0.849106 0.593262 0.000000
O O14 0.863392 0.753366 0.789979
O O15 0.064992 0.721952 0.692043
#
# Coordination Sequence:
#
# PCOD8236906 Si02
#       7
#     8   8   8   4   8   8   8
#     4   9  18  35  60  86 114 148 189 240 303 356
#     4  10  20  37  57  81 113 153 192 231 292 352
#     4  11  24  40  59  88 120 161 208 244 289 359
#     4  12  23  38  63  84 118 166 198 240 285 356
#     4   9  20  40  61  86 117 151 194 250 310 356
#     4  11  20  36  56  88 120 149 196 248 299 352
#     4  10  20  32  61  85 116 149 191 248 303 353
#
# _framework density 19.876116
#
# number of rings (size 3 to 8) (size 9 to 14) (size 15 to 20)
#    0.000    1.846    1.538    5.308    2.154    1.538 
#    0.000    0.385    0.000    2.308    0.000    0.000 
#    0.000    0.000    0.000    0.000    0.000    0.000 
#
# Total GULP energy -644383.436663 kJ/mol
# GULP energy per Si atom -12391.989167 kJ/mol
# Density = 1.983088 g / cm^3
# Si number density = 19.876116 Si / 1000 Ang^3
#
#
#
# Elastic Constant Matrix: (Units=GPa)
#
#
# Indices 1 2 3 4 5 6 
#
# 1 86.1495 15.0674 31.3142 0.0000 0.0000 0.0000
# 2 15.0674 41.4575 26.4140 0.0000 0.0000 0.0000
# 3 31.3142 26.4140 128.7459 0.0000 0.0000 0.0000
# 4 0.0000 0.0000 0.0000 22.9757 0.0000 0.0000
# 5 0.0000 0.0000 0.0000 0.0000 28.3746 0.0000
# 6 0.0000 0.0000 0.0000 0.0000 0.0000 5.3955
#
#
#
# Elastic Compliance Matrix: (Units=1/GPa)
#
#
# Indices 1 2 3 4 5 6 
#
# 1 0.013079 -0.003137 -0.002538 0.000000 0.000000 0.000000
# 2 -0.003137 0.028500 -0.005084 0.000000 0.000000 0.000000
# 3 -0.002538 -0.005084 0.009428 0.000000 0.000000 0.000000
# 4 0.000000 0.000000 0.000000 0.043524 0.000000 0.000000
# 5 0.000000 0.000000 0.000000 0.000000 0.035243 0.000000
# 6 0.000000 0.000000 0.000000 0.000000 0.000000 0.185341
#
#
# Mechanical properties :
#
#
# Convention : Reuss Voigt Hill
#
# Bulk Modulus (GPa) = 33.91013 44.66045 39.28529
# Shear Modulus (GPa) = 14.43161 23.58631 19.00896
#
# Velocity S-wave (km/s) = 2.69751 3.44854 3.09588
# Velocity P-wave (km/s) = 5.17686 6.19474 5.70853
#
# Compressibility (1/GPa) = 0.02948971
#
# Stress axis : x y z
#
# Youngs Moduli (GPa) = 76.46038 35.08712 106.07202
#
# Poissons Ratio (x) = 0.11005 0.26916
# Poissons Ratio (y) = 0.23982 0.53931
# Poissons Ratio (z) = 0.19402 0.17840
#
# Static dielectric constant tensor:
#      x y z
#    x 3.556090 0.000000 0.000000 
#    y 0.000000 3.816810 0.000000 
#    z 0.000000 0.000000 4.019160 
# 
# 
# High freq. dielectric constant tensor:
#      x y z
#    x 1.758780 0.000000 0.000000 
#    y 0.000000 1.755060 0.000000 
#    z 0.000000 0.000000 1.792870 
# 
# From -- ./inp_files/25471.got.cif
#   From: 2010.06.25/outbox.cif.g09.slc.cpg/sg58_13_cif.got.tgz:25471.got - 2010.06.26 21:38:00.
