data_PCOD8236651
_publ_section_title
;
Structure prediction by ZEFSAII (Michael W. Deem and Ramdas Pophale) SiO2 
 PCOD8236651
Probable space group: P N N M
;
_chemical_formula_sum "Si O2"
_cell_formula_units_Z 64
_cell_length_a 30.545458
_cell_length_b 11.796352
_cell_length_c 9.360112
_cell_angle_alpha 90.000000
_cell_angle_beta 90.000000
_cell_angle_gamma 90.000000
_cell_volume 3372.682118
_symmetry_space_group_name_H-M "P N N M"
_symmetry_group_IT_number 58
_symmetry_cell_setting 'orthorhombic'
loop_
_space_group_symop_operation_xyz
x,y,z
-x,-y,z
1/2+x,1/2-y,1/2-z
1/2-x,1/2+y,1/2-z
-x,-y,-z
x,y,-z
1/2-x,1/2+y,1/2+z
1/2+x,1/2-y,1/2+z
loop_
_atom_site_type_symbol
_atom_site_label
_atom_site_fract_x
_atom_site_fract_y
_atom_site_fract_z
Si Si1 0.375715 0.600206 0.835026
Si Si2 0.375713 0.368407 0.330616
Si Si3 0.204654 0.719775 0.829978
Si Si4 0.038420 0.733922 0.834711
Si Si5 0.067472 0.485407 0.840400
Si Si6 0.301221 0.772763 0.166728
Si Si7 0.454620 0.766826 0.832153
Si Si8 0.331541 0.986036 0.338320
O O1 0.379421 0.491077 0.737611
O O2 0.329514 0.660665 0.802445
O O3 0.414733 0.684730 0.792998
O O4 0.378998 0.564174 0.000000
O O5 0.374035 0.382240 0.500000
O O6 0.331717 0.307568 0.272408
O O7 0.417235 0.293985 0.282278
O O8 0.252303 0.755525 0.772775
O O9 0.195070 0.592767 0.774759
O O10 0.202855 0.717688 0.000000
O O11 0.040142 0.598865 0.808332
O O12 0.998208 0.782561 0.742230
O O13 0.030017 0.761949 0.000000
O O14 0.056076 0.391694 0.724597
O O15 0.117946 0.520699 0.832844
O O16 0.056215 0.439648 0.000000
O O17 0.323441 0.877711 0.242740
O O18 0.300604 0.800716 0.000000
O O19 0.462468 0.774751 0.000000
O O20 0.316873 0.958208 0.500000
#
# Coordination Sequence:
#
# PCOD8236651 Si02
#       8
#     8   8   8   8   8   8   8   8
#     4  10  23  40  55  78 115 153 184 224 278 331
#     4  10  21  39  61  83 109 144 189 236 277 327
#     4   9  19  37  60  85 114 148 184 230 284 328
#     4  10  21  38  59  84 112 142 183 233 285 330
#     4  10  19  35  59  85 114 144 179 229 282 329
#     4  10  21  38  58  82 117 154 185 224 278 333
#     4  11  23  38  56  81 115 150 186 225 274 335
#     4  10  19  35  61  87 112 145 186 230 277 328
#
# _framework density 18.975995000000001
#
# number of rings (size 3 to 8) (size 9 to 14) (size 15 to 20)
#    0.000    2.000    2.500    0.750    1.750    4.500 
#    0.000    3.750    0.000    0.000    0.000    0.000 
#    0.000    0.000    0.000    0.000    0.000    0.000 
#
# Total GULP energy -793764.087440 kJ/mol
# GULP energy per Si atom -12402.563866 kJ/mol
# Density = 1.893280 g / cm^3
# Si number density = 18.975995 Si / 1000 Ang^3
#
#
#
# Elastic Constant Matrix: (Units=GPa)
#
#
# Indices 1 2 3 4 5 6 
#
# 1 123.2164 30.5515 38.9870 0.0000 0.0000 0.0000
# 2 30.5515 85.8993 39.7392 0.0000 0.0000 0.0000
# 3 38.9870 39.7392 52.7116 0.0000 0.0000 0.0000
# 4 0.0000 0.0000 0.0000 22.6849 0.0000 0.0000
# 5 0.0000 0.0000 0.0000 0.0000 22.3620 0.0000
# 6 0.0000 0.0000 0.0000 0.0000 0.0000 24.1764
#
#
#
# Elastic Compliance Matrix: (Units=1/GPa)
#
#
# Indices 1 2 3 4 5 6 
#
# 1 0.010598 -0.000220 -0.007673 0.000000 0.000000 0.000000
# 2 -0.000220 0.017881 -0.013318 0.000000 0.000000 0.000000
# 3 -0.007673 -0.013318 0.034687 0.000000 0.000000 0.000000
# 4 0.000000 0.000000 0.000000 0.044082 0.000000 0.000000
# 5 0.000000 0.000000 0.000000 0.000000 0.044719 0.000000
# 6 0.000000 0.000000 0.000000 0.000000 0.000000 0.041363
#
#
# Mechanical properties :
#
#
# Convention : Reuss Voigt Hill
#
# Bulk Modulus (GPa) = 48.20565 53.37588 50.79076
# Shear Modulus (GPa) = 20.60451 24.01464 22.30957
#
# Velocity S-wave (km/s) = 3.29875 3.56128 3.43253
# Velocity P-wave (km/s) = 6.32200 6.71562 6.52178
#
# Compressibility (1/GPa) = 0.02074446
#
# Stress axis : x y z
#
# Youngs Moduli (GPa) = 94.35645 55.92577 28.82946
#
# Poissons Ratio (x) = 0.01228 0.22121
# Poissons Ratio (y) = 0.02072 0.38395
# Poissons Ratio (z) = 0.72401 0.74481
#
# Static dielectric constant tensor:
#      x y z
#    x 3.828810 0.000000 0.000000 
#    y 0.000000 3.330150 0.000000 
#    z 0.000000 0.000000 3.248160 
# 
# 
# High freq. dielectric constant tensor:
#      x y z
#    x 1.757260 0.000000 0.000000 
#    y 0.000000 1.735660 0.000000 
#    z 0.000000 0.000000 1.715360 
# 
# From -- ./inp_files/4671.got.cif
#   From: 2010.06.25/outbox.cif.g09.slc.cpg/sg58_3_cif.got.tgz:4671.got - 2010.06.26 21:38:00.
