data_PCOD8236292
_publ_section_title
;
Structure prediction by ZEFSAII (Michael W. Deem and Ramdas Pophale) SiO2 
 PCOD8236292
Probable space group: P N N M
;
_chemical_formula_sum "Si O2"
_cell_formula_units_Z 40
_cell_length_a 18.042252
_cell_length_b 13.655379
_cell_length_c 8.649330
_cell_angle_alpha 90.000000
_cell_angle_beta 90.000000
_cell_angle_gamma 90.000000
_cell_volume 2130.968205
_symmetry_space_group_name_H-M "P N N M"
_symmetry_group_IT_number 58
_symmetry_cell_setting 'orthorhombic'
loop_
_space_group_symop_operation_xyz
x,y,z
-x,-y,z
1/2+x,1/2-y,1/2-z
1/2-x,1/2+y,1/2-z
-x,-y,-z
x,y,-z
1/2-x,1/2+y,1/2+z
1/2+x,1/2-y,1/2+z
loop_
_atom_site_type_symbol
_atom_site_label
_atom_site_fract_x
_atom_site_fract_y
_atom_site_fract_z
Si Si1 0.470492 0.789536 0.183060
Si Si2 0.667734 0.085613 0.182912
Si Si3 0.184655 0.828368 0.318310
Si Si4 0.375100 0.124467 0.182475
Si Si5 0.535620 0.603601 0.679994
O O1 0.396074 0.841575 0.243535
O O2 0.539641 0.858315 0.230944
O O3 0.476665 0.685898 0.269196
O O4 0.469947 0.770639 0.000000
O O5 0.747025 0.124603 0.230778
O O6 0.654487 0.977168 0.255124
O O7 0.662738 0.079333 0.000000
O O8 0.198692 0.834348 0.500000
O O9 0.175019 0.715906 0.260856
O O10 0.110881 0.888270 0.277588
O O11 0.369956 0.118524 0.000000
O O12 0.500000 0.500000 0.719331
O O13 0.554582 0.614529 0.500000
#
# Coordination Sequence:
#
# PCOD8236292 Si02
#       5
#     8   8   8   8   8
#     4   9  18  33  55  81 105 133 172 215 257 306
#     4  10  19  33  55  80 106 137 173 211 257 312
#     4  10  21  36  53  76 106 137 173 216 259 303
#     4   8  16  33  54  73  99 137 173 206 250 307
#     4  10  21  37  56  76 102 139 178 214 257 311
#
# _framework density 18.770810999999998
#
# number of rings (size 3 to 8) (size 9 to 14) (size 15 to 20)
#    0.000    2.600    0.000    3.000    0.000    6.400 
#    0.000   11.000    0.000    6.000    0.000    0.000 
#    0.000    0.000    0.000    0.000    0.000    0.000 
#
# Total GULP energy -495965.523884 kJ/mol
# GULP energy per Si atom -12399.138097 kJ/mol
# Density = 1.872809 g / cm^3
# Si number density = 18.770811 Si / 1000 Ang^3
#
#
#
# Elastic Constant Matrix: (Units=GPa)
#
#
# Indices 1 2 3 4 5 6 
#
# 1 90.8374 74.4739 -1.3058 0.0000 0.0000 0.0000
# 2 74.4739 153.6203 14.8114 0.0000 0.0000 0.0000
# 3 -1.3058 14.8114 5.0277 0.0000 0.0000 0.0000
# 4 0.0000 0.0000 0.0000 24.7848 0.0000 0.0000
# 5 0.0000 0.0000 0.0000 0.0000 29.5574 0.0000
# 6 0.0000 0.0000 0.0000 0.0000 0.0000 27.2208
#
#
#
# Elastic Compliance Matrix: (Units=1/GPa)
#
#
# Indices 1 2 3 4 5 6 
#
# 1 0.028796 -0.020506 0.067888 0.000000 0.000000 0.000000
# 2 -0.020506 0.023694 -0.075127 0.000000 0.000000 0.000000
# 3 0.067888 -0.075127 0.437851 0.000000 0.000000 0.000000
# 4 0.000000 0.000000 0.000000 0.040347 0.000000 0.000000
# 5 0.000000 0.000000 0.000000 0.000000 0.033832 0.000000
# 6 0.000000 0.000000 0.000000 0.000000 0.000000 0.036737
#
#
# Mechanical properties :
#
#
# Convention : Reuss Voigt Hill
#
# Bulk Modulus (GPa) = 2.29964 47.27160 24.78562
# Shear Modulus (GPa) = 6.23676 27.07966 16.65821
#
# Velocity S-wave (km/s) = 1.82477 3.80234 2.98225
# Velocity P-wave (km/s) = 2.38065 6.67198 5.00913
#
# Compressibility (1/GPa) = 0.43485109
#
# Stress axis : x y z
#
# Youngs Moduli (GPa) = 34.72661 42.20481 2.28388
#
# Poissons Ratio (x) = 0.86544 -0.15505
# Poissons Ratio (y) = 0.71209 0.17158
# Poissons Ratio (z) = -2.35751 3.17073
#
# Static dielectric constant tensor:
#      x y z
#    x 3.432650 0.000000 0.000000 
#    y 0.000000 3.789570 0.000000 
#    z 0.000000 0.000000 3.193370 
# 
# 
# High freq. dielectric constant tensor:
#      x y z
#    x 1.727810 0.000000 0.000000 
#    y 0.000000 1.740650 0.000000 
#    z 0.000000 0.000000 1.706470 
# 
# From -- ./inp_files/3802.got.cif
#   From: 2010.06.25/outbox.cif.g09.slc.cpg/sg58_2_cif.got.tgz:3802.got - 2010.06.26 21:38:00.
