data_PCOD8236558
_publ_section_title
;
Structure prediction by ZEFSAII (Michael W. Deem and Ramdas Pophale) SiO2 
 PCOD8236558
Probable space group: P N N M
;
_chemical_formula_sum "Si O2"
_cell_formula_units_Z 48
_cell_length_a 12.295852
_cell_length_b 13.647105
_cell_length_c 13.538038
_cell_angle_alpha 90.000000
_cell_angle_beta 90.000000
_cell_angle_gamma 90.000000
_cell_volume 2271.720457
_symmetry_space_group_name_H-M "P N N M"
_symmetry_group_IT_number 58
_symmetry_cell_setting 'orthorhombic'
loop_
_space_group_symop_operation_xyz
x,y,z
-x,-y,z
1/2+x,1/2-y,1/2-z
1/2-x,1/2+y,1/2-z
-x,-y,-z
x,y,-z
1/2-x,1/2+y,1/2+z
1/2+x,1/2-y,1/2+z
loop_
_atom_site_type_symbol
_atom_site_label
_atom_site_fract_x
_atom_site_fract_y
_atom_site_fract_z
Si Si1 0.125970 0.261436 0.382918
Si Si2 0.482360 0.755030 0.607598
Si Si3 0.321691 0.620569 0.711660
Si Si4 0.892097 0.269299 0.295535
Si Si5 0.228399 0.913037 0.236632
Si Si6 0.112468 0.457720 0.108290
O O1 0.146371 0.248775 0.500000
O O2 0.159608 0.162693 0.323603
O O3 0.197209 0.352782 0.340814
O O4 0.997985 0.284179 0.364122
O O5 0.534447 0.735287 0.500000
O O6 0.419239 0.660500 0.644933
O O7 0.579832 0.786655 0.679833
O O8 0.392968 0.840270 0.602596
O O9 0.203090 0.656199 0.672363
O O10 0.337404 0.504132 0.690589
O O11 0.849417 0.157162 0.300549
O O12 0.296985 0.981741 0.312243
O O13 0.000000 0.500000 0.148698
O O14 0.138709 0.502868 0.000000
#
# Coordination Sequence:
#
# PCOD8236558 Si02
#       6
#     8   8   8   8   8   8
#     4  10  23  41  59  88 125 163 205 252 309 374
#     4  10  20  37  57  84 117 152 198 249 303 357
#     4  10  22  39  61  87 122 160 201 254 308 362
#     4  10  20  39  59  86 117 165 195 254 309 361
#     4  11  22  38  63  89 122 159 209 247 308 368
#     4  10  19  34  60  89 113 144 193 250 301 351
#
# _framework density 21.129360999999999
#
# number of rings (size 3 to 8) (size 9 to 14) (size 15 to 20)
#    0.000    1.833    5.000    1.000    0.000    8.000 
#    0.000    2.500    0.000    0.000    0.000    0.000 
#    0.000    0.000    0.000    0.000    0.000    0.000 
#
# Total GULP energy -594762.827242 kJ/mol
# GULP energy per Si atom -12390.892234 kJ/mol
# Density = 2.108127 g / cm^3
# Si number density = 21.129361 Si / 1000 Ang^3
#
#
#
# Elastic Constant Matrix: (Units=GPa)
#
#
# Indices 1 2 3 4 5 6 
#
# 1 42.4714 -0.8285 6.1744 0.0000 0.0000 0.0000
# 2 -0.8285 100.6482 1.9297 0.0000 0.0000 0.0000
# 3 6.1744 1.9297 97.3837 0.0000 0.0000 0.0000
# 4 0.0000 0.0000 0.0000 13.2923 0.0000 0.0000
# 5 0.0000 0.0000 0.0000 0.0000 14.3880 0.0000
# 6 0.0000 0.0000 0.0000 0.0000 0.0000 31.2366
#
#
#
# Elastic Compliance Matrix: (Units=1/GPa)
#
#
# Indices 1 2 3 4 5 6 
#
# 1 0.023769 0.000225 -0.001512 0.000000 0.000000 0.000000
# 2 0.000225 0.009941 -0.000211 0.000000 0.000000 0.000000
# 3 -0.001512 -0.000211 0.010369 0.000000 0.000000 0.000000
# 4 0.000000 0.000000 0.000000 0.075232 0.000000 0.000000
# 5 0.000000 0.000000 0.000000 0.000000 0.069502 0.000000
# 6 0.000000 0.000000 0.000000 0.000000 0.000000 0.032014
#
#
# Mechanical properties :
#
#
# Convention : Reuss Voigt Hill
#
# Bulk Modulus (GPa) = 24.34074 28.33938 26.34006
# Shear Modulus (GPa) = 21.05102 27.33187 24.19144
#
# Velocity S-wave (km/s) = 3.15983 3.60050 3.38734
# Velocity P-wave (km/s) = 4.98574 5.54312 5.27180
#
# Compressibility (1/GPa) = 0.04108338
#
# Stress axis : x y z
#
# Youngs Moduli (GPa) = 42.07090 100.58847 96.44427
#
# Poissons Ratio (x) = -0.02260 0.14578
# Poissons Ratio (y) = -0.00945 0.02037
# Poissons Ratio (z) = 0.06359 0.02125
#
# Static dielectric constant tensor:
#      x y z
#    x 3.877830 0.000000 0.000000 
#    y 0.000000 3.777720 0.000000 
#    z 0.000000 0.000000 3.800770 
# 
# 
# High freq. dielectric constant tensor:
#      x y z
#    x 1.830500 0.000000 0.000000 
#    y 0.000000 1.825310 0.000000 
#    z 0.000000 0.000000 1.805250 
# 
# From -- ./inp_files/21151.got.cif
#   From: 2010.06.25/outbox.cif.g09.slc.cpg/sg58_11_cif.got.tgz:21151.got - 2010.06.26 21:38:00.
