data_PCOD8236427
_publ_section_title
;
Structure prediction by ZEFSAII (Michael W. Deem and Ramdas Pophale) SiO2 
 PCOD8236427
Probable space group: P N N M
;
_chemical_formula_sum "Si O2"
_cell_formula_units_Z 64
_cell_length_a 20.436923
_cell_length_b 19.506188
_cell_length_c 8.966392
_cell_angle_alpha 90.000000
_cell_angle_beta 90.000000
_cell_angle_gamma 90.000000
_cell_volume 3574.420449
_symmetry_space_group_name_H-M "P N N M"
_symmetry_group_IT_number 58
_symmetry_cell_setting 'orthorhombic'
loop_
_space_group_symop_operation_xyz
x,y,z
-x,-y,z
1/2+x,1/2-y,1/2-z
1/2-x,1/2+y,1/2-z
-x,-y,-z
x,y,-z
1/2-x,1/2+y,1/2+z
1/2+x,1/2-y,1/2+z
loop_
_atom_site_type_symbol
_atom_site_label
_atom_site_fract_x
_atom_site_fract_y
_atom_site_fract_z
Si Si1 0.690283 0.710325 0.172907
Si Si2 0.232170 0.938651 0.672215
Si Si3 0.881293 0.428503 0.325107
Si Si4 0.058592 0.713000 0.325516
Si Si5 0.117434 0.436055 0.827987
Si Si6 0.692789 0.289568 0.177016
Si Si7 0.926484 0.711933 0.824290
Si Si8 0.731053 0.425035 0.675745
O O1 0.691355 0.629622 0.209310
O O2 0.617756 0.735732 0.210253
O O3 0.741856 0.751020 0.271981
O O4 0.708463 0.724462 0.000000
O O5 0.225236 0.959635 0.500000
O O6 0.307145 0.922791 0.714448
O O7 0.204300 0.000750 0.772137
O O8 0.884136 0.435843 0.500000
O O9 0.922298 0.363209 0.270483
O O10 0.911403 0.498026 0.257388
O O11 0.806478 0.418293 0.273512
O O12 0.041221 0.713498 0.500000
O O13 0.996693 0.738876 0.231034
O O14 0.077692 0.368456 0.782097
O O15 0.109344 0.452779 0.000000
O O16 0.629310 0.251868 0.237908
O O17 0.690631 0.366473 0.240633
O O18 0.690481 0.291430 0.000000
O O19 0.917519 0.723933 0.000000
O O20 0.721678 0.416626 0.500000
#
# Coordination Sequence:
#
# PCOD8236427 Si02
#       8
#     8   8   8   8   8   8   8   8
#     4  10  19  37  60  81 113 149 182 226 282 330
#     4   9  17  32  55  82 109 141 180 223 271 329
#     4   9  18  32  52  76 109 147 182 220 266 321
#     4  10  21  37  55  79 110 148 187 226 272 328
#     4   9  18  32  51  74 106 145 185 222 265 322
#     4  12  23  35  57  85 110 142 189 234 272 327
#     4  11  23  39  55  76 110 151 187 229 283 329
#     4  10  19  34  55  81 113 145 177 223 281 328
#
# _framework density 17.905002
#
# number of rings (size 3 to 8) (size 9 to 14) (size 15 to 20)
#    0.000    2.000    2.500    1.875    0.000    3.500 
#    0.000    2.500    0.000    0.750    0.000    5.250 
#    0.000    0.000    0.000    0.000    0.000    0.000 
#
# Total GULP energy -793753.825395 kJ/mol
# GULP energy per Si atom -12402.403522 kJ/mol
# Density = 1.786425 g / cm^3
# Si number density = 17.905002 Si / 1000 Ang^3
#
#
#
# Elastic Constant Matrix: (Units=GPa)
#
#
# Indices 1 2 3 4 5 6 
#
# 1 33.9145 17.5275 28.8240 0.0000 0.0000 0.0000
# 2 17.5275 88.4245 46.1605 0.0000 0.0000 0.0000
# 3 28.8240 46.1605 77.5804 0.0000 0.0000 0.0000
# 4 0.0000 0.0000 0.0000 31.5605 0.0000 0.0000
# 5 0.0000 0.0000 0.0000 0.0000 25.9644 0.0000
# 6 0.0000 0.0000 0.0000 0.0000 0.0000 21.7769
#
#
#
# Elastic Compliance Matrix: (Units=1/GPa)
#
#
# Indices 1 2 3 4 5 6 
#
# 1 0.043098 -0.000267 -0.015854 0.000000 0.000000 0.000000
# 2 -0.000267 0.016406 -0.009663 0.000000 0.000000 0.000000
# 3 -0.015854 -0.009663 0.024529 0.000000 0.000000 0.000000
# 4 0.000000 0.000000 0.000000 0.031685 0.000000 0.000000
# 5 0.000000 0.000000 0.000000 0.000000 0.038514 0.000000
# 6 0.000000 0.000000 0.000000 0.000000 0.000000 0.045920
#
#
# Mechanical properties :
#
#
# Convention : Reuss Voigt Hill
#
# Bulk Modulus (GPa) = 30.80024 42.77150 36.78587
# Shear Modulus (GPa) = 19.04461 23.02086 21.03273
#
# Velocity S-wave (km/s) = 3.26490 3.58959 3.43109
# Velocity P-wave (km/s) = 5.60822 6.41249 6.02379
#
# Compressibility (1/GPa) = 0.03246728
#
# Stress axis : x y z
#
# Youngs Moduli (GPa) = 23.20300 60.95273 40.76744
#
# Poissons Ratio (x) = 0.01626 0.64632
# Poissons Ratio (y) = 0.00619 0.39392
# Poissons Ratio (z) = 0.36786 0.58896
#
# Static dielectric constant tensor:
#      x y z
#    x 3.118000 0.000000 0.000000 
#    y 0.000000 3.496130 0.000000 
#    z 0.000000 0.000000 3.261070 
# 
# 
# High freq. dielectric constant tensor:
#      x y z
#    x 1.667590 0.000000 0.000000 
#    y 0.000000 1.698730 0.000000 
#    z 0.000000 0.000000 1.692400 
# 
# From -- ./inp_files/8311.got.cif
#   From: 2010.06.25/outbox.cif.g09.slc.cpg/sg58_5_cif.got.tgz:8311.got - 2010.06.26 21:38:00.
