data_PCOD8236087
_publ_section_title
;
Structure prediction by ZEFSAII (Michael W. Deem and Ramdas Pophale) SiO2 
 PCOD8236087
Probable space group: P N N M
;
_chemical_formula_sum "Si O2"
_cell_formula_units_Z 56
_cell_length_a 14.665658
_cell_length_b 21.800611
_cell_length_c 9.216142
_cell_angle_alpha 90.000000
_cell_angle_beta 90.000000
_cell_angle_gamma 90.000000
_cell_volume 2946.587732
_symmetry_space_group_name_H-M "P N N M"
_symmetry_group_IT_number 58
_symmetry_cell_setting 'orthorhombic'
loop_
_space_group_symop_operation_xyz
x,y,z
-x,-y,z
1/2+x,1/2-y,1/2-z
1/2-x,1/2+y,1/2-z
-x,-y,-z
x,y,-z
1/2-x,1/2+y,1/2+z
1/2+x,1/2-y,1/2+z
loop_
_atom_site_type_symbol
_atom_site_label
_atom_site_fract_x
_atom_site_fract_y
_atom_site_fract_z
Si Si1 0.151870 0.100892 0.336827
Si Si2 0.347252 0.144796 0.328631
Si Si3 0.996458 0.570764 0.330381
Si Si4 0.793148 0.609638 0.329293
Si Si5 0.985119 0.127535 0.167187
Si Si6 0.354862 0.458766 0.165763
Si Si7 0.827804 0.219670 0.833881
O O1 0.138988 0.126178 0.500000
O O2 0.256027 0.108300 0.288273
O O3 0.085655 0.139639 0.231731
O O4 0.125761 0.030286 0.326399
O O5 0.367231 0.146129 0.500000
O O6 0.430323 0.110617 0.253750
O O7 0.333871 0.213277 0.261196
O O8 0.018722 0.573739 0.500000
O O9 0.899326 0.601930 0.294788
O O10 0.000000 0.500000 0.277361
O O11 0.771974 0.602326 0.500000
O O12 0.739990 0.555956 0.245966
O O13 0.752922 0.675330 0.272062
O O14 0.939373 0.072676 0.255455
O O15 0.926296 0.188850 0.187222
O O16 0.992204 0.108223 0.000000
O O17 0.349159 0.435777 0.000000
O O18 0.803526 0.230861 0.000000
#
# Coordination Sequence:
#
# PCOD8236087 Si02
#       7
#     8   8   8   8   8   8   8
#     4  10  21  34  50  76 106 136 170 211 259 305
#     4  10  21  37  55  74 102 139 177 219 263 310
#     4  10  21  36  55  82 112 140 176 223 269 314
#     4   9  18  34  55  76 103 140 175 211 261 316
#     4  10  20  34  54  77 103 138 173 207 255 311
#     4  10  19  32  51  78 109 134 166 213 256 303
#     4   8  17  35  54  74 101 134 175 218 259 308
#
# _framework density 19.005033000000001
#
# number of rings (size 3 to 8) (size 9 to 14) (size 15 to 20)
#    0.000    2.429    0.000    3.000    0.000    5.429 
#    0.000    5.000    0.000    0.000    0.000    0.000 
#    0.000    0.000    0.000    0.000    0.000    0.000 
#
# Total GULP energy -694306.293296 kJ/mol
# GULP energy per Si atom -12398.326666 kJ/mol
# Density = 1.896178 g / cm^3
# Si number density = 19.005033 Si / 1000 Ang^3
#
#
#
# Elastic Constant Matrix: (Units=GPa)
#
#
# Indices 1 2 3 4 5 6 
#
# 1 132.8305 42.0397 56.6330 0.0000 0.0000 0.0000
# 2 42.0397 96.0747 31.6770 0.0000 0.0000 0.0000
# 3 56.6330 31.6770 73.3457 0.0000 0.0000 0.0000
# 4 0.0000 0.0000 0.0000 15.4152 0.0000 0.0000
# 5 0.0000 0.0000 0.0000 0.0000 35.8519 0.0000
# 6 0.0000 0.0000 0.0000 0.0000 0.0000 21.1207
#
#
#
# Elastic Compliance Matrix: (Units=1/GPa)
#
#
# Indices 1 2 3 4 5 6 
#
# 1 0.011716 -0.002500 -0.007967 0.000000 0.000000 0.000000
# 2 -0.002500 0.012670 -0.003542 0.000000 0.000000 0.000000
# 3 -0.007967 -0.003542 0.021315 0.000000 0.000000 0.000000
# 4 0.000000 0.000000 0.000000 0.064871 0.000000 0.000000
# 5 0.000000 0.000000 0.000000 0.000000 0.027893 0.000000
# 6 0.000000 0.000000 0.000000 0.000000 0.000000 0.047347
#
#
# Mechanical properties :
#
#
# Convention : Reuss Voigt Hill
#
# Bulk Modulus (GPa) = 56.54669 62.55005 59.54837
# Shear Modulus (GPa) = 22.75573 25.93762 24.34668
#
# Velocity S-wave (km/s) = 3.46403 3.69830 3.58308
# Velocity P-wave (km/s) = 6.76886 7.15684 6.96555
#
# Compressibility (1/GPa) = 0.01768450
#
# Stress axis : x y z
#
# Youngs Moduli (GPa) = 85.35080 78.92501 46.91468
#
# Poissons Ratio (x) = 0.19731 0.37377
# Poissons Ratio (y) = 0.21337 0.16616
# Poissons Ratio (z) = 0.67998 0.27954
#
# Static dielectric constant tensor:
#      x y z
#    x 3.536050 0.000000 0.000000 
#    y 0.000000 3.591450 0.000000 
#    z 0.000000 0.000000 3.408110 
# 
# 
# High freq. dielectric constant tensor:
#      x y z
#    x 1.747230 0.000000 0.000000 
#    y 0.000000 1.735320 0.000000 
#    z 0.000000 0.000000 1.722290 
# 
# From -- ./inp_files/6326.got.cif
#   From: 2010.06.25/outbox.cif.g09.slc.cpg/sg58_4_cif.got.tgz:6326.got - 2010.06.26 21:38:00.
