data_PCOD8236975
_publ_section_title
;
Structure prediction by ZEFSAII (Michael W. Deem and Ramdas Pophale) SiO2 
 PCOD8236975
Probable space group: P N N M
;
_chemical_formula_sum "Si O2"
_cell_formula_units_Z 56
_cell_length_a 19.558108
_cell_length_b 16.423753
_cell_length_c 9.186350
_cell_angle_alpha 90.000000
_cell_angle_beta 90.000000
_cell_angle_gamma 90.000000
_cell_volume 2950.816702
_symmetry_space_group_name_H-M "P N N M"
_symmetry_group_IT_number 58
_symmetry_cell_setting 'orthorhombic'
loop_
_space_group_symop_operation_xyz
x,y,z
-x,-y,z
1/2+x,1/2-y,1/2-z
1/2-x,1/2+y,1/2-z
-x,-y,-z
x,y,-z
1/2-x,1/2+y,1/2+z
1/2+x,1/2-y,1/2+z
loop_
_atom_site_type_symbol
_atom_site_label
_atom_site_fract_x
_atom_site_fract_y
_atom_site_fract_z
Si Si1 0.444049 0.564997 0.168048
Si Si2 0.333860 0.012517 0.170356
Si Si3 0.537016 0.249048 0.168553
Si Si4 0.804783 0.170052 0.330845
Si Si5 0.676885 0.508059 0.670030
Si Si6 0.893267 0.318970 0.327497
Si Si7 0.147436 0.350244 0.168991
O O1 0.500000 0.500000 0.223250
O O2 0.474117 0.654932 0.192332
O O3 0.374910 0.556820 0.260967
O O4 0.425863 0.549065 0.000000
O O5 0.253496 0.022360 0.202860
O O6 0.371574 0.092671 0.232139
O O7 0.366280 0.936465 0.254310
O O8 0.347518 0.999011 0.000000
O O9 0.469393 0.202758 0.224840
O O10 0.600241 0.219025 0.263270
O O11 0.551597 0.229351 0.000000
O O12 0.821755 0.154869 0.500000
O O13 0.840124 0.251502 0.269765
O O14 0.724411 0.179205 0.303488
O O15 0.836315 0.095401 0.242098
O O16 0.662584 0.515149 0.500000
O O17 0.889002 0.319832 0.500000
O O18 0.130753 0.360182 0.000000
#
# Coordination Sequence:
#
# PCOD8236975 Si02
#       7
#     8   8   8   8   8   8   8
#     4  10  21  37  57  80 110 149 189 228 271 330
#     4   9  19  36  58  81 107 140 185 232 273 324
#     4  10  21  36  56  81 108 142 186 232 274 322
#     4   9  18  35  59  80 106 145 188 225 266 327
#     4  10  20  33  54  83 113 141 175 227 284 331
#     4   9  18  35  59  81 101 140 192 231 266 319
#     4  10  21  36  56  81 113 147 180 225 280 334
#
# _framework density 18.977796999999999
#
# number of rings (size 3 to 8) (size 9 to 14) (size 15 to 20)
#    0.000    2.429    0.000    1.714    2.000    4.857 
#    0.000    6.429    0.000    0.000    0.000    0.000 
#    0.000    0.000    0.000    0.000    0.000    0.000 
#
# Total GULP energy -694597.859810 kJ/mol
# GULP energy per Si atom -12403.533211 kJ/mol
# Density = 1.893460 g / cm^3
# Si number density = 18.977797 Si / 1000 Ang^3
#
#
#
# Elastic Constant Matrix: (Units=GPa)
#
#
# Indices 1 2 3 4 5 6 
#
# 1 78.9074 42.9369 36.4432 0.0000 0.0000 0.0000
# 2 42.9369 94.0428 36.1008 0.0000 0.0000 0.0000
# 3 36.4432 36.1008 61.2242 0.0000 0.0000 0.0000
# 4 0.0000 0.0000 0.0000 26.9045 0.0000 0.0000
# 5 0.0000 0.0000 0.0000 0.0000 27.8591 0.0000
# 6 0.0000 0.0000 0.0000 0.0000 0.0000 39.2492
#
#
#
# Elastic Compliance Matrix: (Units=1/GPa)
#
#
# Indices 1 2 3 4 5 6 
#
# 1 0.019649 -0.005793 -0.008281 0.000000 0.000000 0.000000
# 2 -0.005793 0.015452 -0.005663 0.000000 0.000000 0.000000
# 3 -0.008281 -0.005663 0.024602 0.000000 0.000000 0.000000
# 4 0.000000 0.000000 0.000000 0.037169 0.000000 0.000000
# 5 0.000000 0.000000 0.000000 0.000000 0.035895 0.000000
# 6 0.000000 0.000000 0.000000 0.000000 0.000000 0.025478
#
#
# Mechanical properties :
#
#
# Convention : Reuss Voigt Hill
#
# Bulk Modulus (GPa) = 49.43076 51.68179 50.55627
# Shear Modulus (GPa) = 24.45446 26.71544 25.58495
#
# Velocity S-wave (km/s) = 3.59358 3.75603 3.67570
# Velocity P-wave (km/s) = 6.58191 6.78986 6.68670
#
# Compressibility (1/GPa) = 0.02023032
#
# Stress axis : x y z
#
# Youngs Moduli (GPa) = 50.89206 64.71570 40.64747
#
# Poissons Ratio (x) = 0.37487 0.33658
# Poissons Ratio (y) = 0.29480 0.23020
# Poissons Ratio (z) = 0.42142 0.36651
#
# Static dielectric constant tensor:
#      x y z
#    x 3.471330 0.000000 0.000000 
#    y 0.000000 3.582760 0.000000 
#    z 0.000000 0.000000 3.304220 
# 
# 
# High freq. dielectric constant tensor:
#      x y z
#    x 1.740350 0.000000 0.000000 
#    y 0.000000 1.744260 0.000000 
#    z 0.000000 0.000000 1.717630 
# 
# From -- ./inp_files/6322.got.cif
#   From: 2010.06.25/outbox.cif.g09.slc.cpg/sg58_4_cif.got.tgz:6322.got - 2010.06.26 21:38:00.
