data_PCOD8236626
_publ_section_title
;
Structure prediction by ZEFSAII (Michael W. Deem and Ramdas Pophale) SiO2 
 PCOD8236626
Probable space group: P N N M
;
_chemical_formula_sum "Si O2"
_cell_formula_units_Z 64
_cell_length_a 12.935316
_cell_length_b 27.101265
_cell_length_c 8.715909
_cell_angle_alpha 90.000000
_cell_angle_beta 90.000000
_cell_angle_gamma 90.000000
_cell_volume 3055.478926
_symmetry_space_group_name_H-M "P N N M"
_symmetry_group_IT_number 58
_symmetry_cell_setting 'orthorhombic'
loop_
_space_group_symop_operation_xyz
x,y,z
-x,-y,z
1/2+x,1/2-y,1/2-z
1/2-x,1/2+y,1/2-z
-x,-y,-z
x,y,-z
1/2-x,1/2+y,1/2+z
1/2+x,1/2-y,1/2+z
loop_
_atom_site_type_symbol
_atom_site_label
_atom_site_fract_x
_atom_site_fract_y
_atom_site_fract_z
Si Si1 0.664341 0.275163 0.827418
Si Si2 0.376034 0.265547 0.673685
Si Si3 0.504952 0.087430 0.318016
Si Si4 0.607595 0.374652 0.321537
Si Si5 0.626481 0.626106 0.319330
Si Si6 0.208630 0.452662 0.318209
Si Si7 0.050967 0.303553 0.817299
Si Si8 0.223059 0.555477 0.181024
O O1 0.787984 0.276443 0.825486
O O2 0.616327 0.316690 0.717942
O O3 0.652404 0.219136 0.760491
O O4 0.621388 0.281568 0.000000
O O5 0.407405 0.278801 0.500000
O O6 0.355641 0.318990 0.752850
O O7 0.469891 0.236412 0.751505
O O8 0.512376 0.084347 0.500000
O O9 0.592975 0.052284 0.248847
O O10 0.527288 0.142238 0.254631
O O11 0.390753 0.072278 0.261939
O O12 0.632229 0.382534 0.500000
O O13 0.490680 0.392044 0.281574
O O14 0.690703 0.404109 0.221409
O O15 0.644000 0.626464 0.500000
O O16 0.712624 0.588799 0.249974
O O17 0.203001 0.450493 0.500000
O O18 0.253633 0.505134 0.265634
O O19 0.056043 0.304379 0.000000
O O20 0.223019 0.547340 0.000000
#
# Coordination Sequence:
#
# PCOD8236626 Si02
#       8
#     8   8   8   8   8   8   8   8
#     4  11  21  34  56  87 121 156 195 243 296 352
#     4   9  17  33  56  80 113 158 197 230 283 352
#     4  10  22  40  62  89 124 163 200 248 312 375
#     4  11  22  40  64  87 119 162 208 251 296 362
#     4   9  19  37  61  86 118 161 204 247 300 360
#     4  11  23  40  64  92 119 155 207 261 310 368
#     4  10  19  35  58  82 112 154 198 233 280 351
#     4  11  24  43  64  88 121 160 202 254 319 374
#
# _framework density 20.945981
#
# number of rings (size 3 to 8) (size 9 to 14) (size 15 to 20)
#    0.000    1.750    1.250    3.375    0.000    6.500 
#    0.000    7.500    0.000    0.000    0.000    0.000 
#    0.000    0.000    0.000    0.000    0.000    0.000 
#
# Total GULP energy -793302.029718 kJ/mol
# GULP energy per Si atom -12395.344214 kJ/mol
# Density = 2.089831 g / cm^3
# Si number density = 20.945981 Si / 1000 Ang^3
#
#
#
# Elastic Constant Matrix: (Units=GPa)
#
#
# Indices 1 2 3 4 5 6 
#
# 1 90.7344 18.8760 22.9397 0.0000 0.0000 0.0000
# 2 18.8760 90.4491 13.6445 0.0000 0.0000 0.0000
# 3 22.9397 13.6445 35.2362 0.0000 0.0000 0.0000
# 4 0.0000 0.0000 0.0000 25.3333 0.0000 0.0000
# 5 0.0000 0.0000 0.0000 0.0000 24.2558 0.0000
# 6 0.0000 0.0000 0.0000 0.0000 0.0000 35.6100
#
#
#
# Elastic Compliance Matrix: (Units=1/GPa)
#
#
# Indices 1 2 3 4 5 6 
#
# 1 0.013400 -0.001572 -0.008115 0.000000 0.000000 0.000000
# 2 -0.001572 0.011926 -0.003595 0.000000 0.000000 0.000000
# 3 -0.008115 -0.003595 0.035055 0.000000 0.000000 0.000000
# 4 0.000000 0.000000 0.000000 0.039474 0.000000 0.000000
# 5 0.000000 0.000000 0.000000 0.000000 0.041227 0.000000
# 6 0.000000 0.000000 0.000000 0.000000 0.000000 0.028082
#
#
# Mechanical properties :
#
#
# Convention : Reuss Voigt Hill
#
# Bulk Modulus (GPa) = 29.57047 36.37111 32.97079
# Shear Modulus (GPa) = 24.15460 27.77046 25.96253
#
# Velocity S-wave (km/s) = 3.39954 3.64512 3.52447
# Velocity P-wave (km/s) = 5.43666 5.92603 5.68661
#
# Compressibility (1/GPa) = 0.03381753
#
# Stress axis : x y z
#
# Youngs Moduli (GPa) = 74.62759 83.84806 28.52676
#
# Poissons Ratio (x) = 0.13183 0.23149
# Poissons Ratio (y) = 0.11734 0.10254
# Poissons Ratio (z) = 0.60559 0.30140
#
# Static dielectric constant tensor:
#      x y z
#    x 3.904080 0.000000 0.000000 
#    y 0.000000 3.962500 0.000000 
#    z 0.000000 0.000000 3.419510 
# 
# 
# High freq. dielectric constant tensor:
#      x y z
#    x 1.833030 0.000000 0.000000 
#    y 0.000000 1.828290 0.000000 
#    z 0.000000 0.000000 1.790150 
# 
# From -- ./inp_files/4693.got.cif
#   From: 2010.06.25/outbox.cif.g09.slc.cpg/sg58_3_cif.got.tgz:4693.got - 2010.06.26 21:38:00.
