data_PCOD8236758
_publ_section_title
;
Structure prediction by ZEFSAII (Michael W. Deem and Ramdas Pophale) SiO2 
 PCOD8236758
Probable space group: P N N M
;
_chemical_formula_sum "Si O2"
_cell_formula_units_Z 64
_cell_length_a 18.768380
_cell_length_b 19.374659
_cell_length_c 8.699431
_cell_angle_alpha 90.000000
_cell_angle_beta 90.000000
_cell_angle_gamma 90.000000
_cell_volume 3163.382468
_symmetry_space_group_name_H-M "P N N M"
_symmetry_group_IT_number 58
_symmetry_cell_setting 'orthorhombic'
loop_
_space_group_symop_operation_xyz
x,y,z
-x,-y,z
1/2+x,1/2-y,1/2-z
1/2-x,1/2+y,1/2-z
-x,-y,-z
x,y,-z
1/2-x,1/2+y,1/2+z
1/2+x,1/2-y,1/2+z
loop_
_atom_site_type_symbol
_atom_site_label
_atom_site_fract_x
_atom_site_fract_y
_atom_site_fract_z
Si Si1 0.304994 0.967103 0.318589
Si Si2 0.636860 0.176622 0.682299
Si Si3 0.348538 0.113874 0.320175
Si Si4 0.787586 0.805037 0.680692
Si Si5 0.477444 0.206905 0.319952
Si Si6 0.058022 0.847530 0.678802
Si Si7 0.091728 0.085906 0.678836
Si Si8 0.347002 0.456713 0.678385
O O1 0.313926 0.965667 0.500000
O O2 0.341625 0.898317 0.249533
O O3 0.222522 0.969404 0.278430
O O4 0.341393 0.036688 0.249748
O O5 0.638744 0.175881 0.500000
O O6 0.693599 0.232761 0.739671
O O7 0.557026 0.192578 0.741042
O O8 0.332737 0.108691 0.500000
O O9 0.288170 0.166571 0.255353
O O10 0.428093 0.140420 0.286096
O O11 0.786393 0.791040 0.500000
O O12 0.846575 0.861252 0.725715
O O13 0.477194 0.225789 0.500000
O O14 0.442685 0.267796 0.222820
O O15 0.075501 0.856447 0.500000
O O16 0.119474 0.883292 0.777970
O O17 0.982458 0.879759 0.723236
O O18 0.095533 0.065864 0.500000
O O19 0.097381 0.016832 0.779080
O O20 0.327626 0.457733 0.500000
#
# Coordination Sequence:
#
# PCOD8236758 Si02
#       8
#     8   8   8   8   8   8   8   8
#     4  10  21  41  62  84 116 158 202 240 290 354
#     4  10  22  37  59  89 121 153 192 249 296 339
#     4   9  19  37  62  85 114 154 196 242 290 347
#     4  10  19  36  61  85 114 156 198 236 287 353
#     4  10  21  38  59  90 122 151 195 248 299 340
#     4  11  23  39  59  85 119 161 199 235 287 358
#     4  10  20  38  62  85 114 158 199 232 283 359
#     4  12  25  38  57  88 121 153 192 248 301 344
#
# _framework density 20.231508999999999
#
# number of rings (size 3 to 8) (size 9 to 14) (size 15 to 20)
#    0.000    1.750    2.500    1.875    1.750    4.000 
#    0.000    3.125    0.000    0.000    0.000    2.625 
#    0.000    0.000    0.000    0.000    0.000    0.000 
#
# Total GULP energy -793763.985758 kJ/mol
# GULP energy per Si atom -12402.562277 kJ/mol
# Density = 2.018546 g / cm^3
# Si number density = 20.231509 Si / 1000 Ang^3
#
#
#
# Elastic Constant Matrix: (Units=GPa)
#
#
# Indices 1 2 3 4 5 6 
#
# 1 53.4058 41.0278 10.9496 0.0000 0.0000 0.0000
# 2 41.0278 149.3002 20.0599 0.0000 0.0000 0.0000
# 3 10.9496 20.0599 17.5485 0.0000 0.0000 0.0000
# 4 0.0000 0.0000 0.0000 27.3736 0.0000 0.0000
# 5 0.0000 0.0000 0.0000 0.0000 16.5344 0.0000
# 6 0.0000 0.0000 0.0000 0.0000 0.0000 38.3111
#
#
#
# Elastic Compliance Matrix: (Units=1/GPa)
#
#
# Indices 1 2 3 4 5 6 
#
# 1 0.024912 -0.005621 -0.009119 0.000000 0.000000 0.000000
# 2 -0.005621 0.009181 -0.006988 0.000000 0.000000 0.000000
# 3 -0.009119 -0.006988 0.070663 0.000000 0.000000 0.000000
# 4 0.000000 0.000000 0.000000 0.036532 0.000000 0.000000
# 5 0.000000 0.000000 0.000000 0.000000 0.060480 0.000000
# 6 0.000000 0.000000 0.000000 0.000000 0.000000 0.026102
#
#
# Mechanical properties :
#
#
# Convention : Reuss Voigt Hill
#
# Bulk Modulus (GPa) = 16.31308 40.48100 28.39704
# Shear Modulus (GPa) = 17.13738 26.32498 21.73118
#
# Velocity S-wave (km/s) = 2.91359 3.61111 3.28094
# Velocity P-wave (km/s) = 4.40448 6.11875 5.33097
#
# Compressibility (1/GPa) = 0.06130051
#
# Stress axis : x y z
#
# Youngs Moduli (GPa) = 40.14107 108.91578 14.15165
#
# Poissons Ratio (x) = 0.61217 0.12905
# Poissons Ratio (y) = 0.22562 0.09890
# Poissons Ratio (z) = 0.36605 0.76114
#
# Static dielectric constant tensor:
#      x y z
#    x 3.721980 0.000000 0.000000 
#    y 0.000000 3.923310 0.000000 
#    z 0.000000 0.000000 3.349170 
# 
# 
# High freq. dielectric constant tensor:
#      x y z
#    x 1.794050 0.000000 0.000000 
#    y 0.000000 1.803190 0.000000 
#    z 0.000000 0.000000 1.758710 
# 
# From -- ./inp_files/8354.got.cif
#   From: 2010.06.25/outbox.cif.g09.slc.cpg/sg58_5_cif.got.tgz:8354.got - 2010.06.26 21:38:00.
