data_PCOD8236845
_publ_section_title
;
Structure prediction by ZEFSAII (Michael W. Deem and Ramdas Pophale) SiO2 
 PCOD8236845
Probable space group: P N N M
;
_chemical_formula_sum "Si O2"
_cell_formula_units_Z 64
_cell_length_a 11.748803
_cell_length_b 30.760197
_cell_length_c 8.813426
_cell_angle_alpha 90.000000
_cell_angle_beta 90.000000
_cell_angle_gamma 90.000000
_cell_volume 3185.132450
_symmetry_space_group_name_H-M "P N N M"
_symmetry_group_IT_number 58
_symmetry_cell_setting 'orthorhombic'
loop_
_space_group_symop_operation_xyz
x,y,z
-x,-y,z
1/2+x,1/2-y,1/2-z
1/2-x,1/2+y,1/2-z
-x,-y,-z
x,y,-z
1/2-x,1/2+y,1/2+z
1/2+x,1/2-y,1/2+z
loop_
_atom_site_type_symbol
_atom_site_label
_atom_site_fract_x
_atom_site_fract_y
_atom_site_fract_z
Si Si1 0.765009 0.038315 0.178178
Si Si2 0.013521 0.932458 0.324250
Si Si3 0.872811 0.370839 0.677247
Si Si4 0.746532 0.451300 0.174779
Si Si5 0.502329 0.335953 0.821223
Si Si6 0.764336 0.796749 0.319960
Si Si7 0.232978 0.795700 0.678544
Si Si8 0.863201 0.625480 0.677216
O O1 0.896381 0.040022 0.228550
O O2 0.698572 0.081442 0.232090
O O3 0.705893 0.996138 0.254476
O O4 0.755995 0.032185 0.000000
O O5 0.051275 0.933745 0.500000
O O6 0.015670 0.883969 0.255077
O O7 0.889055 0.952238 0.303650
O O8 0.849646 0.367535 0.500000
O O9 0.798296 0.409796 0.742769
O O10 0.838627 0.324816 0.751380
O O11 0.004145 0.379792 0.713553
O O12 0.781564 0.448253 0.000000
O O13 0.617414 0.315704 0.754561
O O14 0.396199 0.306434 0.775064
O O15 0.515649 0.340228 0.000000
O O16 0.757087 0.799235 0.500000
O O17 0.762653 0.747274 0.269083
O O18 0.245811 0.787865 0.500000
O O19 0.316073 0.834373 0.726953
O O20 0.840812 0.634376 0.500000
#
# Coordination Sequence:
#
# PCOD8236845 Si02
#       8
#     8   8   8   8   8   8   8   8
#     4  11  23  39  61  91 123 157 202 250 302 362
#     4  10  19  38  62  88 122 160 197 242 303 363
#     4  11  24  43  64  87 120 161 206 254 303 357
#     4  11  23  40  63  90 122 160 201 247 307 366
#     4   9  19  38  63  87 121 161 195 242 303 358
#     4  11  23  42  64  91 126 163 200 246 307 364
#     4  11  23  40  64  94 122 158 206 250 296 359
#     4  10  24  44  62  85 122 165 201 249 311 360
#
# _framework density 20.093356
#
# number of rings (size 3 to 8) (size 9 to 14) (size 15 to 20)
#    0.000    1.500    2.500    2.250    1.750    4.500 
#    0.000    4.375    0.000    0.000    0.000    0.000 
#    0.000    0.000    0.000    0.000    0.000    0.000 
#
# Total GULP energy -793840.089609 kJ/mol
# GULP energy per Si atom -12403.751400 kJ/mol
# Density = 2.004762 g / cm^3
# Si number density = 20.093356 Si / 1000 Ang^3
#
#
#
# Elastic Constant Matrix: (Units=GPa)
#
#
# Indices 1 2 3 4 5 6 
#
# 1 68.1581 22.1500 36.7294 0.0000 0.0000 0.0000
# 2 22.1500 128.6082 46.5394 0.0000 0.0000 0.0000
# 3 36.7294 46.5394 79.3686 0.0000 0.0000 0.0000
# 4 0.0000 0.0000 0.0000 37.1495 0.0000 0.0000
# 5 0.0000 0.0000 0.0000 0.0000 25.0628 0.0000
# 6 0.0000 0.0000 0.0000 0.0000 0.0000 25.0536
#
#
#
# Elastic Compliance Matrix: (Units=1/GPa)
#
#
# Indices 1 2 3 4 5 6 
#
# 1 0.019548 -0.000118 -0.008977 0.000000 0.000000 0.000000
# 2 -0.000118 0.009871 -0.005733 0.000000 0.000000 0.000000
# 3 -0.008977 -0.005733 0.020115 0.000000 0.000000 0.000000
# 4 0.000000 0.000000 0.000000 0.026918 0.000000 0.000000
# 5 0.000000 0.000000 0.000000 0.000000 0.039900 0.000000
# 6 0.000000 0.000000 0.000000 0.000000 0.000000 0.039914
#
#
# Mechanical properties :
#
#
# Convention : Reuss Voigt Hill
#
# Bulk Modulus (GPa) = 50.30842 54.10806 52.20824
# Shear Modulus (GPa) = 25.96761 28.83426 27.40093
#
# Velocity S-wave (km/s) = 3.59882 3.79227 3.69681
# Velocity P-wave (km/s) = 6.50849 6.79425 6.65290
#
# Compressibility (1/GPa) = 0.01987739
#
# Stress axis : x y z
#
# Youngs Moduli (GPa) = 51.15718 101.31152 49.71349
#
# Poissons Ratio (x) = 0.01198 0.44626
# Poissons Ratio (y) = 0.00605 0.28501
# Poissons Ratio (z) = 0.45922 0.58083
#
# Static dielectric constant tensor:
#      x y z
#    x 3.722910 0.000000 0.000000 
#    y 0.000000 3.796960 0.000000 
#    z 0.000000 0.000000 3.557540 
# 
# 
# High freq. dielectric constant tensor:
#      x y z
#    x 1.784210 0.000000 0.000000 
#    y 0.000000 1.803160 0.000000 
#    z 0.000000 0.000000 1.776990 
# 
# From -- ./inp_files/4764.got.cif
#   From: 2010.06.25/outbox.cif.g09.slc.cpg/sg58_3_cif.got.tgz:4764.got - 2010.06.26 21:38:00.
