data_PCOD8236497
_publ_section_title
;
Structure prediction by ZEFSAII (Michael W. Deem and Ramdas Pophale) SiO2 
 PCOD8236497
Probable space group: P N N M
;
_chemical_formula_sum "Si O2"
_cell_formula_units_Z 64
_cell_length_a 12.667991
_cell_length_b 28.847530
_cell_length_c 8.854829
_cell_angle_alpha 90.000000
_cell_angle_beta 90.000000
_cell_angle_gamma 90.000000
_cell_volume 3235.910927
_symmetry_space_group_name_H-M "P N N M"
_symmetry_group_IT_number 58
_symmetry_cell_setting 'orthorhombic'
loop_
_space_group_symop_operation_xyz
x,y,z
-x,-y,z
1/2+x,1/2-y,1/2-z
1/2-x,1/2+y,1/2-z
-x,-y,-z
x,y,-z
1/2-x,1/2+y,1/2+z
1/2+x,1/2-y,1/2+z
loop_
_atom_site_type_symbol
_atom_site_label
_atom_site_fract_x
_atom_site_fract_y
_atom_site_fract_z
Si Si1 0.874787 0.394470 0.173726
Si Si2 0.810640 0.035399 0.673492
Si Si3 0.458838 0.389633 0.321880
Si Si4 0.939400 0.300759 0.327617
Si Si5 0.329490 0.826125 0.169391
Si Si6 0.673013 0.438714 0.322864
Si Si7 0.894605 0.585001 0.829372
Si Si8 0.124400 0.800161 0.323537
O O1 0.894305 0.341608 0.223802
O O2 0.781699 0.416761 0.268549
O O3 0.981104 0.425551 0.198370
O O4 0.840201 0.394457 0.000000
O O5 0.844315 0.032088 0.500000
O O6 0.682663 0.040674 0.688984
O O7 0.868498 0.079656 0.744396
O O8 0.847780 0.989045 0.754240
O O9 0.442362 0.392627 0.500000
O O10 0.575243 0.406480 0.274243
O O11 0.447351 0.336790 0.266834
O O12 0.903427 0.310382 0.500000
O O13 0.898287 0.251734 0.266713
O O14 0.065327 0.295916 0.316938
O O15 0.357754 0.878927 0.204332
O O16 0.247193 0.807886 0.291121
O O17 0.282033 0.823782 0.000000
O O18 0.678925 0.444852 0.500000
O O19 0.882119 0.605294 0.000000
O O20 0.100431 0.805880 0.500000
#
# Coordination Sequence:
#
# PCOD8236497 Si02
#       8
#     8   8   8   8   8   8   8   8
#     4  10  21  39  62  87 118 156 199 245 298 356
#     4  11  22  38  63  91 119 154 199 248 303 358
#     4  11  24  41  60  85 118 156 201 250 298 353
#     4   9  21  39  58  84 118 155 194 240 297 355
#     4  10  19  34  57  83 113 150 193 241 292 349
#     4  11  25  42  59  84 124 164 200 245 300 356
#     4   9  19  36  59  87 117 150 191 244 296 345
#     4  11  22  37  59  87 118 152 194 244 296 353
#
# _framework density 19.778047999999998
#
# number of rings (size 3 to 8) (size 9 to 14) (size 15 to 20)
#    0.000    1.750    1.250    2.625    0.000    7.500 
#    0.000    5.000    0.000    0.000    0.000    0.000 
#    0.000    0.000    0.000    0.000    0.000    0.000 
#
# Total GULP energy -793630.387104 kJ/mol
# GULP energy per Si atom -12400.474799 kJ/mol
# Density = 1.973303 g / cm^3
# Si number density = 19.778048 Si / 1000 Ang^3
#
#
#
# Elastic Constant Matrix: (Units=GPa)
#
#
# Indices 1 2 3 4 5 6 
#
# 1 85.1896 7.5994 28.8016 0.0000 0.0000 0.0000
# 2 7.5994 46.1455 20.9073 0.0000 0.0000 0.0000
# 3 28.8016 20.9073 70.6250 0.0000 0.0000 0.0000
# 4 0.0000 0.0000 0.0000 31.8212 0.0000 0.0000
# 5 0.0000 0.0000 0.0000 0.0000 28.6159 0.0000
# 6 0.0000 0.0000 0.0000 0.0000 0.0000 19.4213
#
#
#
# Elastic Compliance Matrix: (Units=1/GPa)
#
#
# Indices 1 2 3 4 5 6 
#
# 1 0.013620 0.000316 -0.005648 0.000000 0.000000 0.000000
# 2 0.000316 0.025035 -0.007540 0.000000 0.000000 0.000000
# 3 -0.005648 -0.007540 0.018695 0.000000 0.000000 0.000000
# 4 0.000000 0.000000 0.000000 0.031426 0.000000 0.000000
# 5 0.000000 0.000000 0.000000 0.000000 0.034946 0.000000
# 6 0.000000 0.000000 0.000000 0.000000 0.000000 0.051490
#
#
# Mechanical properties :
#
#
# Convention : Reuss Voigt Hill
#
# Bulk Modulus (GPa) = 31.64013 35.17520 33.40766
# Shear Modulus (GPa) = 23.64190 25.61513 24.62852
#
# Velocity S-wave (km/s) = 3.46115 3.60270 3.53263
# Velocity P-wave (km/s) = 5.65730 5.92701 5.79373
#
# Compressibility (1/GPa) = 0.03160543
#
# Stress axis : x y z
#
# Youngs Moduli (GPa) = 73.42253 39.94460 53.49139
#
# Poissons Ratio (x) = -0.01262 0.30211
# Poissons Ratio (y) = -0.02319 0.40332
# Poissons Ratio (z) = 0.41468 0.30118
#
# Static dielectric constant tensor:
#      x y z
#    x 3.793100 0.000000 0.000000 
#    y 0.000000 3.507720 0.000000 
#    z 0.000000 0.000000 3.669120 
# 
# 
# High freq. dielectric constant tensor:
#      x y z
#    x 1.779450 0.000000 0.000000 
#    y 0.000000 1.760300 0.000000 
#    z 0.000000 0.000000 1.780760 
# 
# From -- ./inp_files/4787.got.cif
#   From: 2010.06.25/outbox.cif.g09.slc.cpg/sg58_3_cif.got.tgz:4787.got - 2010.06.26 21:38:00.
