data_PCOD8236209
_publ_section_title
;
Structure prediction by ZEFSAII (Michael W. Deem and Ramdas Pophale) SiO2 
 PCOD8236209
Probable space group: P N N M
;
_chemical_formula_sum "Si O2"
_cell_formula_units_Z 64
_cell_length_a 18.984103
_cell_length_b 23.251126
_cell_length_c 8.619927
_cell_angle_alpha 90.000000
_cell_angle_beta 90.000000
_cell_angle_gamma 90.000000
_cell_volume 3804.851042
_symmetry_space_group_name_H-M "P N N M"
_symmetry_group_IT_number 58
_symmetry_cell_setting 'orthorhombic'
loop_
_space_group_symop_operation_xyz
x,y,z
-x,-y,z
1/2+x,1/2-y,1/2-z
1/2-x,1/2+y,1/2-z
-x,-y,-z
x,y,-z
1/2-x,1/2+y,1/2+z
1/2+x,1/2-y,1/2+z
loop_
_atom_site_type_symbol
_atom_site_label
_atom_site_fract_x
_atom_site_fract_y
_atom_site_fract_z
Si Si1 0.862170 0.781441 0.818478
Si Si2 0.214247 0.331307 0.181559
Si Si3 0.987031 0.256329 0.819953
Si Si4 0.849529 0.441065 0.318918
Si Si5 0.505195 0.880704 0.181924
Si Si6 0.871595 0.562555 0.816827
Si Si7 0.259867 0.154427 0.318659
Si Si8 0.658106 0.739780 0.818872
O O1 0.833727 0.720509 0.753356
O O2 0.945554 0.784213 0.785628
O O3 0.820886 0.831822 0.728586
O O4 0.844869 0.787490 0.000000
O O5 0.186890 0.391993 0.248450
O O6 0.296066 0.317322 0.222608
O O7 0.203271 0.334121 0.000000
O O8 0.004722 0.321151 0.771566
O O9 0.922553 0.228710 0.725614
O O10 0.967875 0.256118 0.000000
O O11 0.848038 0.455097 0.500000
O O12 0.843923 0.499942 0.224818
O O13 0.782674 0.402829 0.271763
O O14 0.920354 0.407846 0.270904
O O15 0.445385 0.925520 0.232116
O O16 0.501295 0.868352 0.000000
O O17 0.883169 0.567954 0.000000
O O18 0.264904 0.142752 0.500000
O O19 0.312309 0.205944 0.273958
O O20 0.664157 0.754801 0.000000
#
# Coordination Sequence:
#
# PCOD8236209 Si02
#       8
#     8   8   8   8   8   8   8   8
#     4   9  18  34  52  71 101 134 161 204 260 303
#     4   8  16  32  50  69  96 132 165 200 253 299
#     4  11  20  32  52  77 103 134 172 208 249 302
#     4  11  23  37  50  69 101 140 174 211 256 301
#     4  11  22  34  48  69 102 140 175 208 248 298
#     4  11  21  35  53  73  98 134 178 218 248 294
#     4  11  21  33  51  75  98 129 173 214 247 298
#     4  10  19  33  51  72 102 135 164 205 257 304
#
# _framework density 16.820633000000001
#
# number of rings (size 3 to 8) (size 9 to 14) (size 15 to 20)
#    0.000    1.750    2.500    4.125    0.000    4.000 
#    0.000    1.875    0.000    0.000    0.000    0.875 
#    0.000    7.000    0.000    0.000    0.000    0.000 
#
# Total GULP energy -793602.043272 kJ/mol
# GULP energy per Si atom -12400.031926 kJ/mol
# Density = 1.678235 g / cm^3
# Si number density = 16.820633 Si / 1000 Ang^3
#
#
#
# Elastic Constant Matrix: (Units=GPa)
#
#
# Indices 1 2 3 4 5 6 
#
# 1 84.0503 28.5334 24.3382 0.0000 0.0000 0.0000
# 2 28.5334 60.1118 14.8783 0.0000 0.0000 0.0000
# 3 24.3382 14.8783 35.4477 0.0000 0.0000 0.0000
# 4 0.0000 0.0000 0.0000 21.6848 0.0000 0.0000
# 5 0.0000 0.0000 0.0000 0.0000 21.6563 0.0000
# 6 0.0000 0.0000 0.0000 0.0000 0.0000 22.1041
#
#
#
# Elastic Compliance Matrix: (Units=1/GPa)
#
#
# Indices 1 2 3 4 5 6 
#
# 1 0.016364 -0.005565 -0.008900 0.000000 0.000000 0.000000
# 2 -0.005565 0.020457 -0.004766 0.000000 0.000000 0.000000
# 3 -0.008900 -0.004766 0.036321 0.000000 0.000000 0.000000
# 4 0.000000 0.000000 0.000000 0.046115 0.000000 0.000000
# 5 0.000000 0.000000 0.000000 0.000000 0.046176 0.000000
# 6 0.000000 0.000000 0.000000 0.000000 0.000000 0.045241
#
#
# Mechanical properties :
#
#
# Convention : Reuss Voigt Hill
#
# Bulk Modulus (GPa) = 28.83342 35.01218 31.92280
# Shear Modulus (GPa) = 19.17959 20.54635 19.86297
#
# Velocity S-wave (km/s) = 3.38041 3.49878 3.44011
# Velocity P-wave (km/s) = 5.69343 6.09772 5.89904
#
# Compressibility (1/GPa) = 0.03468198
#
# Stress axis : x y z
#
# Youngs Moduli (GPa) = 61.11060 48.88400 27.53209
#
# Poissons Ratio (x) = 0.27202 0.24503
# Poissons Ratio (y) = 0.34006 0.13120
# Poissons Ratio (z) = 0.54386 0.23296
#
# Static dielectric constant tensor:
#      x y z
#    x 3.298720 0.000000 0.000000 
#    y 0.000000 3.058050 0.000000 
#    z 0.000000 0.000000 3.101830 
# 
# 
# High freq. dielectric constant tensor:
#      x y z
#    x 1.645850 0.000000 0.000000 
#    y 0.000000 1.619880 0.000000 
#    z 0.000000 0.000000 1.651750 
# 
# From -- ./inp_files/9428.got.cif
#   From: 2010.06.25/outbox.cif.g09.slc.cpg/sg58_5_cif.got.tgz:9428.got - 2010.06.26 21:38:00.
