data_PCOD8236503
_publ_section_title
;
Structure prediction by ZEFSAII (Michael W. Deem and Ramdas Pophale) SiO2 
 PCOD8236503
Probable space group: P N N M
;
_chemical_formula_sum "Si O2"
_cell_formula_units_Z 64
_cell_length_a 14.687231
_cell_length_b 24.592901
_cell_length_c 8.624913
_cell_angle_alpha 90.000000
_cell_angle_beta 90.000000
_cell_angle_gamma 90.000000
_cell_volume 3115.332530
_symmetry_space_group_name_H-M "P N N M"
_symmetry_group_IT_number 58
_symmetry_cell_setting 'orthorhombic'
loop_
_space_group_symop_operation_xyz
x,y,z
-x,-y,z
1/2+x,1/2-y,1/2-z
1/2-x,1/2+y,1/2-z
-x,-y,-z
x,y,-z
1/2-x,1/2+y,1/2+z
1/2+x,1/2-y,1/2+z
loop_
_atom_site_type_symbol
_atom_site_label
_atom_site_fract_x
_atom_site_fract_y
_atom_site_fract_z
Si Si1 0.517325 0.171194 0.816749
Si Si2 0.450168 0.053935 0.815131
Si Si3 0.874111 0.245178 0.819508
Si Si4 0.064789 0.865497 0.322095
Si Si5 0.250755 0.558401 0.680679
Si Si6 0.384903 0.646477 0.673798
Si Si7 0.597516 0.524068 0.316550
Si Si8 0.321365 0.765083 0.675799
O O1 0.499406 0.109385 0.760237
O O2 0.433059 0.209499 0.768959
O O3 0.614516 0.187947 0.744530
O O4 0.526581 0.175024 0.000000
O O5 0.348446 0.052812 0.742333
O O6 0.500000 0.000000 0.751051
O O7 0.447384 0.053428 0.000000
O O8 0.908914 0.185118 0.783663
O O9 0.768468 0.246446 0.773883
O O10 0.884785 0.257227 0.000000
O O11 0.086955 0.852757 0.500000
O O12 0.118239 0.918805 0.266849
O O13 0.957595 0.875996 0.296235
O O14 0.239250 0.547488 0.500000
O O15 0.287596 0.619408 0.713990
O O16 0.323324 0.515360 0.746951
O O17 0.413806 0.627128 0.500000
O O18 0.381571 0.711028 0.681261
O O19 0.500000 0.500000 0.266225
O O20 0.601884 0.532360 0.500000
O O21 0.293855 0.780305 0.500000
#
# Coordination Sequence:
#
# PCOD8236503 Si02
#       8
#     8   8   8   8   8   8   8   8
#     4  11  22  39  64  95 128 163 210 263 313 371
#     4   9  19  36  59  89 122 158 204 255 302 356
#     4  12  25  42  63  89 125 167 211 258 313 377
#     4  12  24  37  57  86 124 160 200 256 315 370
#     4   9  17  32  57  84 114 159 212 256 297 361
#     4  10  19  36  60  85 117 161 205 247 307 373
#     4  10  19  34  57  84 117 160 208 249 300 375
#     4  11  23  39  64  94 127 165 205 255 316 379
#
# _framework density 20.543551999999998
#
# number of rings (size 3 to 8) (size 9 to 14) (size 15 to 20)
#    0.000    1.500    2.500    3.750    0.000    3.750 
#    0.000    2.500    0.000    3.000    0.000    0.000 
#    0.000    0.000    0.000    0.000    0.000    0.000 
#
# Total GULP energy -793580.039776 kJ/mol
# GULP energy per Si atom -12399.688122 kJ/mol
# Density = 2.049679 g / cm^3
# Si number density = 20.543552 Si / 1000 Ang^3
#
#
#
# Elastic Constant Matrix: (Units=GPa)
#
#
# Indices 1 2 3 4 5 6 
#
# 1 86.6098 34.4864 11.9382 0.0000 0.0000 0.0000
# 2 34.4864 133.1780 22.0434 0.0000 0.0000 0.0000
# 3 11.9382 22.0434 59.0547 0.0000 0.0000 0.0000
# 4 0.0000 0.0000 0.0000 24.9492 0.0000 0.0000
# 5 0.0000 0.0000 0.0000 0.0000 25.7503 0.0000
# 6 0.0000 0.0000 0.0000 0.0000 0.0000 32.1345
#
#
#
# Elastic Compliance Matrix: (Units=1/GPa)
#
#
# Indices 1 2 3 4 5 6 
#
# 1 0.012991 -0.003122 -0.001461 0.000000 0.000000 0.000000
# 2 -0.003122 0.008754 -0.002636 0.000000 0.000000 0.000000
# 3 -0.001461 -0.002636 0.018213 0.000000 0.000000 0.000000
# 4 0.000000 0.000000 0.000000 0.040081 0.000000 0.000000
# 5 0.000000 0.000000 0.000000 0.000000 0.038834 0.000000
# 6 0.000000 0.000000 0.000000 0.000000 0.000000 0.031119
#
#
# Mechanical properties :
#
#
# Convention : Reuss Voigt Hill
#
# Bulk Modulus (GPa) = 39.18700 46.19761 42.69230
# Shear Modulus (GPa) = 28.91236 30.59179 29.75207
#
# Velocity S-wave (km/s) = 3.75556 3.86310 3.80971
# Velocity P-wave (km/s) = 6.15810 6.51418 6.33864
#
# Compressibility (1/GPa) = 0.02551867
#
# Stress axis : x y z
#
# Youngs Moduli (GPa) = 76.97904 114.23894 54.90643
#
# Poissons Ratio (x) = 0.35667 0.08020
# Poissons Ratio (y) = 0.24034 0.14475
# Poissons Ratio (z) = 0.11244 0.30117
#
# Static dielectric constant tensor:
#      x y z
#    x 3.878200 0.000000 0.000000 
#    y 0.000000 3.868450 0.000000 
#    z 0.000000 0.000000 3.452080 
# 
# 
# High freq. dielectric constant tensor:
#      x y z
#    x 1.807150 0.000000 0.000000 
#    y 0.000000 1.813130 0.000000 
#    z 0.000000 0.000000 1.772170 
# 
# From -- ./inp_files/6975.got.cif
#   From: 2010.06.25/outbox.cif.g09.slc.cpg/sg58_4_cif.got.tgz:6975.got - 2010.06.26 21:38:00.
