data_PCOD8236914
_publ_section_title
;
Structure prediction by ZEFSAII (Michael W. Deem and Ramdas Pophale) SiO2 
 PCOD8236914
Probable space group: P N N M
;
_chemical_formula_sum "Si O2"
_cell_formula_units_Z 64
_cell_length_a 21.088015
_cell_length_b 17.671804
_cell_length_c 9.073984
_cell_angle_alpha 90.000000
_cell_angle_beta 90.000000
_cell_angle_gamma 90.000000
_cell_volume 3381.540530
_symmetry_space_group_name_H-M "P N N M"
_symmetry_group_IT_number 58
_symmetry_cell_setting 'orthorhombic'
loop_
_space_group_symop_operation_xyz
x,y,z
-x,-y,z
1/2+x,1/2-y,1/2-z
1/2-x,1/2+y,1/2-z
-x,-y,-z
x,y,-z
1/2-x,1/2+y,1/2+z
1/2+x,1/2-y,1/2+z
loop_
_atom_site_type_symbol
_atom_site_label
_atom_site_fract_x
_atom_site_fract_y
_atom_site_fract_z
Si Si1 0.486433 0.911821 0.838424
Si Si2 0.868395 0.555443 0.168279
Si Si3 0.046984 0.071025 0.335274
Si Si4 0.858152 0.018944 0.835998
Si Si5 0.265936 0.377202 0.169638
Si Si6 0.452042 0.342185 0.661850
Si Si7 0.164299 0.745799 0.175398
Si Si8 0.625913 0.898374 0.825398
O O1 0.429560 0.896925 0.724061
O O2 0.553025 0.875379 0.786288
O O3 0.500000 0.000000 0.850756
O O4 0.466609 0.880790 0.000000
O O5 0.809078 0.611314 0.182642
O O6 0.856403 0.480876 0.264895
O O7 0.879968 0.530573 0.000000
O O8 0.068361 0.091096 0.500000
O O9 0.011409 0.144899 0.269999
O O10 0.110405 0.054100 0.241636
O O11 0.000000 0.000000 0.334496
O O12 0.799816 0.049497 0.739746
O O13 0.911614 0.081886 0.849028
O O14 0.834206 0.996591 0.000000
O O15 0.282533 0.300594 0.256485
O O16 0.287928 0.369980 0.000000
O O17 0.478791 0.321941 0.500000
O O18 0.405560 0.276518 0.719832
O O19 0.171319 0.662736 0.246041
O O20 0.173627 0.743597 0.000000
O O21 0.637580 0.898085 0.000000
#
# Coordination Sequence:
#
# PCOD8236914 Si02
#       8
#     8   8   8   8   8   8   8   8
#     4   8  16  31  51  77 105 131 161 200 250 304
#     4  10  20  33  53  80 107 137 172 212 257 306
#     4   9  15  22  36  58  83 114 152 197 246 290
#     4   9  16  26  41  61  87 121 160 201 244 290
#     4  10  20  33  49  73 105 138 175 217 259 307
#     4   8  15  26  39  59  87 118 155 199 245 293
#     4  10  20  33  51  75 103 137 175 215 260 310
#     4  10  20  34  54  79 107 137 169 211 261 310
#
# _framework density 18.926285
#
# number of rings (size 3 to 8) (size 9 to 14) (size 15 to 20)
#    0.000    2.750    0.000    3.750    0.000    9.750 
#    0.000    0.000    0.000    1.500    0.000    7.000 
#    0.000    0.000    0.000    0.000    0.000    0.000 
#
# Total GULP energy -793321.322305 kJ/mol
# GULP energy per Si atom -12395.645661 kJ/mol
# Density = 1.888321 g / cm^3
# Si number density = 18.926285 Si / 1000 Ang^3
#
#
#
# Elastic Constant Matrix: (Units=GPa)
#
#
# Indices 1 2 3 4 5 6 
#
# 1 66.3272 19.4194 44.5953 0.0000 0.0000 0.0000
# 2 19.4194 48.9153 33.5689 0.0000 0.0000 0.0000
# 3 44.5953 33.5689 134.5992 0.0000 0.0000 0.0000
# 4 0.0000 0.0000 0.0000 15.2070 0.0000 0.0000
# 5 0.0000 0.0000 0.0000 0.0000 29.5595 0.0000
# 6 0.0000 0.0000 0.0000 0.0000 0.0000 16.7516
#
#
#
# Elastic Compliance Matrix: (Units=1/GPa)
#
#
# Indices 1 2 3 4 5 6 
#
# 1 0.020059 -0.004105 -0.005622 0.000000 0.000000 0.000000
# 2 -0.004105 0.025505 -0.005001 0.000000 0.000000 0.000000
# 3 -0.005622 -0.005001 0.010539 0.000000 0.000000 0.000000
# 4 0.000000 0.000000 0.000000 0.065759 0.000000 0.000000
# 5 0.000000 0.000000 0.000000 0.000000 0.033830 0.000000
# 6 0.000000 0.000000 0.000000 0.000000 0.000000 0.059696
#
#
# Mechanical properties :
#
#
# Convention : Reuss Voigt Hill
#
# Bulk Modulus (GPa) = 37.52741 49.44545 43.48643
# Shear Modulus (GPa) = 19.70627 22.45416 21.08021
#
# Velocity S-wave (km/s) = 3.23028 3.44815 3.34099
# Velocity P-wave (km/s) = 5.81242 6.48344 6.15708
#
# Compressibility (1/GPa) = 0.02664719
#
# Stress axis : x y z
#
# Youngs Moduli (GPa) = 49.85384 39.20778 94.88248
#
# Poissons Ratio (x) = 0.16095 0.53343
# Poissons Ratio (y) = 0.20466 0.47449
# Poissons Ratio (z) = 0.28028 0.19607
#
# Static dielectric constant tensor:
#      x y z
#    x 3.366150 0.000000 0.000000 
#    y 0.000000 3.159110 0.000000 
#    z 0.000000 0.000000 3.688630 
# 
# 
# High freq. dielectric constant tensor:
#      x y z
#    x 1.711960 0.000000 0.000000 
#    y 0.000000 1.694920 0.000000 
#    z 0.000000 0.000000 1.751260 
# 
# From -- ./inp_files/9294.got.cif
#   From: 2010.06.25/outbox.cif.g09.slc.cpg/sg58_5_cif.got.tgz:9294.got - 2010.06.26 21:38:00.
