data_PCOD8236353
_publ_section_title
;
Structure prediction by ZEFSAII (Michael W. Deem and Ramdas Pophale) SiO2 
 PCOD8236353
Probable space group: P N N M
;
_chemical_formula_sum "Si O2"
_cell_formula_units_Z 64
_cell_length_a 28.170502
_cell_length_b 12.723434
_cell_length_c 8.901117
_cell_angle_alpha 90.000000
_cell_angle_beta 90.000000
_cell_angle_gamma 90.000000
_cell_volume 3190.387516
_symmetry_space_group_name_H-M "P N N M"
_symmetry_group_IT_number 58
_symmetry_cell_setting 'orthorhombic'
loop_
_space_group_symop_operation_xyz
x,y,z
-x,-y,z
1/2+x,1/2-y,1/2-z
1/2-x,1/2+y,1/2-z
-x,-y,-z
x,y,-z
1/2-x,1/2+y,1/2+z
1/2+x,1/2-y,1/2+z
loop_
_atom_site_type_symbol
_atom_site_label
_atom_site_fract_x
_atom_site_fract_y
_atom_site_fract_z
Si Si1 0.954929 0.745758 0.168044
Si Si2 0.363937 0.412315 0.324799
Si Si3 0.799215 0.256554 0.322786
Si Si4 0.359411 0.650254 0.667509
Si Si5 0.030655 0.906850 0.823778
Si Si6 0.346308 0.027518 0.821135
Si Si7 0.948969 0.535302 0.323744
Si Si8 0.298043 0.812515 0.824552
O O1 0.916432 0.839617 0.174979
O O2 0.941722 0.657257 0.287225
O O3 0.005685 0.795465 0.209468
O O4 0.956100 0.696970 0.000000
O O5 0.360658 0.380025 0.500000
O O6 0.333382 0.336661 0.223306
O O7 0.344908 0.530379 0.300666
O O8 0.416734 0.402205 0.257278
O O9 0.795057 0.263396 0.500000
O O10 0.820078 0.367666 0.260652
O O11 0.748206 0.229624 0.257882
O O12 0.341522 0.682349 0.500000
O O13 0.338044 0.726139 0.792798
O O14 0.034855 0.929915 0.000000
O O15 0.000000 0.000000 0.747634
O O16 0.316448 0.925812 0.763683
O O17 0.401500 0.024589 0.761961
O O18 0.347572 0.024585 0.000000
O O19 0.951547 0.518473 0.500000
O O20 0.000000 0.500000 0.251629
O O21 0.287087 0.819425 0.000000
#
# Coordination Sequence:
#
# PCOD8236353 Si02
#       8
#     8   8   8   8   8   8   8   8
#     4  10  19  33  56  87 118 151 195 244 289 337
#     4  10  21  38  60  87 122 161 200 241 293 354
#     4  11  25  43  62  87 119 155 197 247 303 354
#     4  10  20  36  60  89 120 154 194 243 299 352
#     4   9  16  31  55  83 117 157 194 229 278 344
#     4   9  21  42  62  84 118 157 193 240 296 353
#     4  10  21  38  60  83 114 160 201 234 290 361
#     4  11  23  42  66  88 113 151 200 247 300 360
#
# _framework density 20.060258999999999
#
# number of rings (size 3 to 8) (size 9 to 14) (size 15 to 20)
#    0.000    2.000    2.500    0.750    3.500    0.750 
#    0.000    3.125    0.000    0.750    0.000    0.000 
#    0.000    0.000    0.000    0.000    0.000    0.000 
#
# Total GULP energy -793370.716215 kJ/mol
# GULP energy per Si atom -12396.417441 kJ/mol
# Density = 2.001460 g / cm^3
# Si number density = 20.060259 Si / 1000 Ang^3
#
#
#
# Elastic Constant Matrix: (Units=GPa)
#
#
# Indices 1 2 3 4 5 6 
#
# 1 116.5400 55.7470 22.6768 0.0000 0.0000 0.0000
# 2 55.7470 120.0353 24.0298 0.0000 0.0000 0.0000
# 3 22.6768 24.0298 31.3449 0.0000 0.0000 0.0000
# 4 0.0000 0.0000 0.0000 41.0026 0.0000 0.0000
# 5 0.0000 0.0000 0.0000 0.0000 24.8872 0.0000
# 6 0.0000 0.0000 0.0000 0.0000 0.0000 31.4571
#
#
#
# Elastic Compliance Matrix: (Units=1/GPa)
#
#
# Indices 1 2 3 4 5 6 
#
# 1 0.011675 -0.004408 -0.005067 0.000000 0.000000 0.000000
# 2 -0.004408 0.011505 -0.005631 0.000000 0.000000 0.000000
# 3 -0.005067 -0.005631 0.039886 0.000000 0.000000 0.000000
# 4 0.000000 0.000000 0.000000 0.024389 0.000000 0.000000
# 5 0.000000 0.000000 0.000000 0.000000 0.040181 0.000000
# 6 0.000000 0.000000 0.000000 0.000000 0.000000 0.031789
#
#
# Mechanical properties :
#
#
# Convention : Reuss Voigt Hill
#
# Bulk Modulus (GPa) = 30.43805 52.53640 41.48723
# Shear Modulus (GPa) = 24.92637 30.50047 27.71342
#
# Velocity S-wave (km/s) = 3.52884 3.90352 3.72090
# Velocity P-wave (km/s) = 5.64002 6.82369 6.25990
#
# Compressibility (1/GPa) = 0.03285362
#
# Stress axis : x y z
#
# Youngs Moduli (GPa) = 85.65118 86.91645 25.07125
#
# Poissons Ratio (x) = 0.38311 0.12705
# Poissons Ratio (y) = 0.37753 0.14119
# Poissons Ratio (z) = 0.43403 0.48946
#
# Static dielectric constant tensor:
#      x y z
#    x 4.310020 0.000000 0.000000 
#    y 0.000000 3.671500 0.000000 
#    z 0.000000 0.000000 3.251150 
# 
# 
# High freq. dielectric constant tensor:
#      x y z
#    x 1.799190 0.000000 0.000000 
#    y 0.000000 1.785490 0.000000 
#    z 0.000000 0.000000 1.743590 
# 
# From -- ./inp_files/10996.got.cif
#   From: 2010.06.25/outbox.cif.g09.slc.cpg/sg58_6_cif.got.tgz:10996.got - 2010.06.26 21:38:00.
