data_PCOD8236572
_publ_section_title
;
Structure prediction by ZEFSAII (Michael W. Deem and Ramdas Pophale) SiO2 
 PCOD8236572
Probable space group: P N N M
;
_chemical_formula_sum "Si O2"
_cell_formula_units_Z 48
_cell_length_a 14.265820
_cell_length_b 12.295201
_cell_length_c 13.557090
_cell_angle_alpha 90.000000
_cell_angle_beta 90.000000
_cell_angle_gamma 90.000000
_cell_volume 2377.928829
_symmetry_space_group_name_H-M "P N N M"
_symmetry_group_IT_number 58
_symmetry_cell_setting 'orthorhombic'
loop_
_space_group_symop_operation_xyz
x,y,z
-x,-y,z
1/2+x,1/2-y,1/2-z
1/2-x,1/2+y,1/2-z
-x,-y,-z
x,y,-z
1/2-x,1/2+y,1/2+z
1/2+x,1/2-y,1/2+z
loop_
_atom_site_type_symbol
_atom_site_label
_atom_site_fract_x
_atom_site_fract_y
_atom_site_fract_z
Si Si1 0.089545 0.735976 0.889948
Si Si2 0.346805 0.495059 0.196953
Si Si3 0.266950 0.414655 0.608933
Si Si4 0.998613 0.826868 0.289850
Si Si5 0.145778 0.495144 0.885776
Si Si6 0.067123 0.403088 0.306090
O O1 0.191303 0.792908 0.882706
O O2 0.103722 0.612077 0.853169
O O3 0.015079 0.804928 0.826512
O O4 0.049595 0.736797 0.000000
O O5 0.314381 0.492408 0.310515
O O6 0.405323 0.605508 0.187750
O O7 0.411007 0.390936 0.167482
O O8 0.258355 0.495864 0.124153
O O9 0.287227 0.462996 0.500000
O O10 0.156913 0.408650 0.625101
O O11 0.986726 0.707556 0.335759
O O12 0.098182 0.408704 0.810726
O O13 0.120750 0.467763 0.000000
O O14 0.000000 0.500000 0.337052
#
# Coordination Sequence:
#
# PCOD8236572 Si02
#       6
#     8   8   8   8   8   8
#     4   9  17  31  55  80 107 139 174 220 265 314
#     4   9  20  36  58  78 105 146 176 220 263 312
#     4   9  19  35  53  77 106 141 179 211 260 321
#     4  10  19  35  54  81 109 137 179 219 264 314
#     4  10  20  36  55  81 109 140 180 219 270 319
#     4  11  21  34  55  78 106 141 173 220 269 313
#
# _framework density 20.185632999999999
#
# number of rings (size 3 to 8) (size 9 to 14) (size 15 to 20)
#    0.000    2.333    1.667    1.000    0.000    2.000 
#    0.000    5.833    0.000    0.000    0.000    0.000 
#    0.000    0.000    0.000    0.000    0.000    0.000 
#
# Total GULP energy -594950.165720 kJ/mol
# GULP energy per Si atom -12394.795119 kJ/mol
# Density = 2.013969 g / cm^3
# Si number density = 20.185633 Si / 1000 Ang^3
#
#
#
# Elastic Constant Matrix: (Units=GPa)
#
#
# Indices 1 2 3 4 5 6 
#
# 1 80.5324 28.5492 -7.5512 0.0000 0.0000 0.0000
# 2 28.5492 104.3885 -0.4685 0.0000 0.0000 0.0000
# 3 -7.5512 -0.4685 38.7310 0.0000 0.0000 0.0000
# 4 0.0000 0.0000 0.0000 14.8910 0.0000 0.0000
# 5 0.0000 0.0000 0.0000 0.0000 18.6598 0.0000
# 6 0.0000 0.0000 0.0000 0.0000 0.0000 25.7415
#
#
#
# Elastic Compliance Matrix: (Units=1/GPa)
#
#
# Indices 1 2 3 4 5 6 
#
# 1 0.014025 -0.003824 0.002688 0.000000 0.000000 0.000000
# 2 -0.003824 0.010623 -0.000617 0.000000 0.000000 0.000000
# 3 0.002688 -0.000617 0.026336 0.000000 0.000000 0.000000
# 4 0.000000 0.000000 0.000000 0.067155 0.000000 0.000000
# 5 0.000000 0.000000 0.000000 0.000000 0.053591 0.000000
# 6 0.000000 0.000000 0.000000 0.000000 0.000000 0.038848
#
#
# Mechanical properties :
#
#
# Convention : Reuss Voigt Hill
#
# Bulk Modulus (GPa) = 21.06226 29.41232 25.23729
# Shear Modulus (GPa) = 21.74783 25.39995 23.57389
#
# Velocity S-wave (km/s) = 3.28593 3.55113 3.42110
# Velocity P-wave (km/s) = 4.98531 5.60505 5.30424
#
# Compressibility (1/GPa) = 0.04747828
#
# Stress axis : x y z
#
# Youngs Moduli (GPa) = 71.30170 94.13940 37.97121
#
# Poissons Ratio (x) = 0.35995 -0.10207
# Poissons Ratio (y) = 0.27263 0.02343
# Poissons Ratio (z) = -0.19167 0.05808
#
# Static dielectric constant tensor:
#      x y z
#    x 3.803050 0.000000 0.000000 
#    y 0.000000 3.650810 0.000000 
#    z 0.000000 0.000000 3.457400 
# 
# 
# High freq. dielectric constant tensor:
#      x y z
#    x 1.799260 0.000000 0.000000 
#    y 0.000000 1.779850 0.000000 
#    z 0.000000 0.000000 1.765760 
# 
# From -- ./inp_files/21142.got.cif
#   From: 2010.06.25/outbox.cif.g09.slc.cpg/sg58_11_cif.got.tgz:21142.got - 2010.06.26 21:38:00.
