data_PCOD8236011
_publ_section_title
;
Structure prediction by ZEFSAII (Michael W. Deem and Ramdas Pophale) SiO2 
 PCOD8236011
Probable space group: P N N M
;
_chemical_formula_sum "Si O2"
_cell_formula_units_Z 56
_cell_length_a 14.875256
_cell_length_b 21.976370
_cell_length_c 8.884226
_cell_angle_alpha 90.000000
_cell_angle_beta 90.000000
_cell_angle_gamma 90.000000
_cell_volume 2904.290169
_symmetry_space_group_name_H-M "P N N M"
_symmetry_group_IT_number 58
_symmetry_cell_setting 'orthorhombic'
loop_
_space_group_symop_operation_xyz
x,y,z
-x,-y,z
1/2+x,1/2-y,1/2-z
1/2-x,1/2+y,1/2-z
-x,-y,-z
x,y,-z
1/2-x,1/2+y,1/2+z
1/2+x,1/2-y,1/2+z
loop_
_atom_site_type_symbol
_atom_site_label
_atom_site_fract_x
_atom_site_fract_y
_atom_site_fract_z
Si Si1 0.678244 0.282072 0.821600
Si Si2 0.657372 0.461225 0.170973
Si Si3 0.519106 0.365754 0.176874
Si Si4 0.491356 0.069398 0.179037
Si Si5 0.798518 0.382767 0.322373
Si Si6 0.831531 0.101381 0.671226
Si Si7 0.340079 0.854113 0.822618
O O1 0.581193 0.309316 0.774468
O O2 0.760422 0.320389 0.750435
O O3 0.674108 0.213753 0.756502
O O4 0.691937 0.283624 0.000000
O O5 0.568332 0.427274 0.231501
O O6 0.740886 0.441354 0.273946
O O7 0.638314 0.531847 0.178021
O O8 0.678455 0.439451 0.000000
O O9 0.416948 0.361100 0.239923
O O10 0.505243 0.368632 0.000000
O O11 0.399882 0.102573 0.232271
O O12 0.572910 0.110900 0.243547
O O13 0.500000 0.000000 0.242329
O O14 0.495322 0.066456 0.000000
O O15 0.794681 0.374459 0.500000
O O16 0.806730 0.120577 0.500000
O O17 0.747312 0.108148 0.779118
O O18 0.350030 0.850180 0.000000
#
# Coordination Sequence:
#
# PCOD8236011 Si02
#       7
#     8   8   8   8   8   8   8
#     4   9  19  36  54  72  98 134 171 206 252 308
#     4   9  17  31  51  76 106 134 159 194 246 305
#     4   8  15  30  52  73  95 128 168 203 237 290
#     4   9  18  33  53  77 103 133 172 214 255 302
#     4  10  19  32  55  80 100 129 169 213 253 292
#     4  10  19  31  51  78 102 127 163 206 248 289
#     4  10  21  36  52  71 100 137 172 208 255 307
#
# _framework density 19.281821000000001
#
# number of rings (size 3 to 8) (size 9 to 14) (size 15 to 20)
#    0.000    2.714    0.000    2.571    0.000    5.143 
#    0.000    7.143    0.000    8.143    0.000    0.000 
#    0.000    0.000    0.000    0.000    0.000    0.000 
#
# Total GULP energy -694038.627824 kJ/mol
# GULP energy per Si atom -12393.546925 kJ/mol
# Density = 1.923793 g / cm^3
# Si number density = 19.281821 Si / 1000 Ang^3
#
#
#
# Elastic Constant Matrix: (Units=GPa)
#
#
# Indices 1 2 3 4 5 6 
#
# 1 162.0886 49.7026 20.8655 0.0000 0.0000 0.0000
# 2 49.7026 100.4756 20.6187 0.0000 0.0000 0.0000
# 3 20.8655 20.6187 22.8710 0.0000 0.0000 0.0000
# 4 0.0000 0.0000 0.0000 20.0456 0.0000 0.0000
# 5 0.0000 0.0000 0.0000 0.0000 24.3210 0.0000
# 6 0.0000 0.0000 0.0000 0.0000 0.0000 21.5289
#
#
#
# Elastic Compliance Matrix: (Units=1/GPa)
#
#
# Indices 1 2 3 4 5 6 
#
# 1 0.007610 -0.002871 -0.004355 0.000000 0.000000 0.000000
# 2 -0.002871 0.013295 -0.009367 0.000000 0.000000 0.000000
# 3 -0.004355 -0.009367 0.056141 0.000000 0.000000 0.000000
# 4 0.000000 0.000000 0.000000 0.049886 0.000000 0.000000
# 5 0.000000 0.000000 0.000000 0.000000 0.041117 0.000000
# 6 0.000000 0.000000 0.000000 0.000000 0.000000 0.046449
#
#
# Mechanical properties :
#
#
# Convention : Reuss Voigt Hill
#
# Bulk Modulus (GPa) = 22.79910 51.97874 37.38892
# Shear Modulus (GPa) = 19.06192 26.12901 22.59546
#
# Velocity S-wave (km/s) = 3.14760 3.68518 3.42695
# Velocity P-wave (km/s) = 5.00597 6.71739 5.92381
#
# Compressibility (1/GPa) = 0.04386139
#
# Stress axis : x y z
#
# Youngs Moduli (GPa) = 131.39893 75.21626 17.81243
#
# Poissons Ratio (x) = 0.21595 0.07757
# Poissons Ratio (y) = 0.37725 0.16684
# Poissons Ratio (z) = 0.57221 0.70451
#
# Static dielectric constant tensor:
#      x y z
#    x 3.721430 0.000000 0.000000 
#    y 0.000000 3.654570 0.000000 
#    z 0.000000 0.000000 3.158560 
# 
# 
# High freq. dielectric constant tensor:
#      x y z
#    x 1.761050 0.000000 0.000000 
#    y 0.000000 1.752530 0.000000 
#    z 0.000000 0.000000 1.707000 
# 
# From -- ./inp_files/6361.got.cif
#   From: 2010.06.25/outbox.cif.g09.slc.cpg/sg58_4_cif.got.tgz:6361.got - 2010.06.26 21:38:00.
