data_PCOD8236826
_publ_section_title
;
Structure prediction by ZEFSAII (Michael W. Deem and Ramdas Pophale) SiO2 
 PCOD8236826
Probable space group: P N N M
;
_chemical_formula_sum "Si O2"
_cell_formula_units_Z 40
_cell_length_a 4.997852
_cell_length_b 12.880485
_cell_length_c 29.197244
_cell_angle_alpha 90.000000
_cell_angle_beta 90.000000
_cell_angle_gamma 90.000000
_cell_volume 1879.565509
_symmetry_space_group_name_H-M "P N N M"
_symmetry_group_IT_number 58
_symmetry_cell_setting 'orthorhombic'
loop_
_space_group_symop_operation_xyz
x,y,z
-x,-y,z
1/2+x,1/2-y,1/2-z
1/2-x,1/2+y,1/2-z
-x,-y,-z
x,y,-z
1/2-x,1/2+y,1/2+z
1/2+x,1/2-y,1/2+z
loop_
_atom_site_type_symbol
_atom_site_label
_atom_site_fract_x
_atom_site_fract_y
_atom_site_fract_z
Si Si1 0.239497 0.067387 0.551411
Si Si2 0.049923 0.884650 0.754166
Si Si3 0.549298 0.809502 0.804706
Si Si4 0.937881 0.381492 0.403764
Si Si5 0.087655 0.788819 0.052539
O O1 0.138111 0.094118 0.500000
O O2 0.328607 0.176590 0.574534
O O3 0.500000 0.000000 0.550863
O O4 0.000000 0.000000 0.575779
O O5 0.342381 0.879138 0.776168
O O6 0.019433 0.810326 0.710238
O O7 0.843436 0.852993 0.794041
O O8 0.000000 0.000000 0.735862
O O9 0.494978 0.815051 0.858591
O O10 0.639874 0.350629 0.419549
O O11 0.000000 0.500000 0.390964
O O12 0.142520 0.355542 0.444557
O O13 0.993911 0.777032 0.000000
#
# Coordination Sequence:
#
# PCOD8236826 Si02
#       5
#     8   8   8   8   8
#     4   9  17  33  57  80 103 136 182 236 293 349
#     4  10  19  37  63  88 120 153 186 232 288 350
#     4  10  22  37  59  91 118 152 196 233 283 353
#     4  12  24  39  59  84 119 158 201 250 298 351
#     4  11  24  40  59  85 116 155 205 253 297 351
#
# _framework density 21.281516
#
# number of rings (size 3 to 8) (size 9 to 14) (size 15 to 20)
#    0.000    1.600    0.000    5.400    0.000    5.600 
#    0.000    3.000    0.000    2.400    0.000    0.000 
#    0.000    0.000    0.000    0.000    0.000    0.000 
#
# Total GULP energy -495830.430885 kJ/mol
# GULP energy per Si atom -12395.760772 kJ/mol
# Density = 2.123308 g / cm^3
# Si number density = 21.281516 Si / 1000 Ang^3
#
#
#
# Elastic Constant Matrix: (Units=GPa)
#
#
# Indices 1 2 3 4 5 6 
#
# 1 115.1987 42.4829 19.1270 0.0000 0.0000 0.0000
# 2 42.4829 137.3663 39.4142 0.0000 0.0000 0.0000
# 3 19.1270 39.4142 74.1844 0.0000 0.0000 0.0000
# 4 0.0000 0.0000 0.0000 26.8809 0.0000 0.0000
# 5 0.0000 0.0000 0.0000 0.0000 17.0577 0.0000
# 6 0.0000 0.0000 0.0000 0.0000 0.0000 40.4649
#
#
#
# Elastic Compliance Matrix: (Units=1/GPa)
#
#
# Indices 1 2 3 4 5 6 
#
# 1 0.009872 -0.002741 -0.001089 0.000000 0.000000 0.000000
# 2 -0.002741 0.009350 -0.004261 0.000000 0.000000 0.000000
# 3 -0.001089 -0.004261 0.016025 0.000000 0.000000 0.000000
# 4 0.000000 0.000000 0.000000 0.037201 0.000000 0.000000
# 5 0.000000 0.000000 0.000000 0.000000 0.058625 0.000000
# 6 0.000000 0.000000 0.000000 0.000000 0.000000 0.024713
#
#
# Mechanical properties :
#
#
# Convention : Reuss Voigt Hill
#
# Bulk Modulus (GPa) = 52.45209 58.75529 55.60369
# Shear Modulus (GPa) = 28.03915 31.92907 29.98411
#
# Velocity S-wave (km/s) = 3.63372 3.87760 3.75764
# Velocity P-wave (km/s) = 6.50427 6.90769 6.70902
#
# Compressibility (1/GPa) = 0.01906502
#
# Stress axis : x y z
#
# Youngs Moduli (GPa) = 101.29470 106.95190 62.40382
#
# Poissons Ratio (x) = 0.29311 0.06797
# Poissons Ratio (y) = 0.27761 0.26591
# Poissons Ratio (z) = 0.11034 0.45573
#
# Static dielectric constant tensor:
#      x y z
#    x 3.929980 0.000000 0.000000 
#    y 0.000000 3.921120 0.000000 
#    z 0.000000 0.000000 3.428640 
# 
# 
# High freq. dielectric constant tensor:
#      x y z
#    x 1.853400 0.000000 0.000000 
#    y 0.000000 1.847120 0.000000 
#    z 0.000000 0.000000 1.794070 
# 
# From -- ./inp_files/32660.got.cif
#   From: 2010.06.25/outbox.cif.g09.slc.cpg/sg58_17_cif.got.tgz:32660.got - 2010.06.26 21:38:00.
