data_PCOD8236727
_publ_section_title
;
Structure prediction by ZEFSAII (Michael W. Deem and Ramdas Pophale) SiO2 
 PCOD8236727
Probable space group: P N N M
;
_chemical_formula_sum "Si O2"
_cell_formula_units_Z 56
_cell_length_a 21.875965
_cell_length_b 14.710858
_cell_length_c 9.011004
_cell_angle_alpha 90.000000
_cell_angle_beta 90.000000
_cell_angle_gamma 90.000000
_cell_volume 2899.869176
_symmetry_space_group_name_H-M "P N N M"
_symmetry_group_IT_number 58
_symmetry_cell_setting 'orthorhombic'
loop_
_space_group_symop_operation_xyz
x,y,z
-x,-y,z
1/2+x,1/2-y,1/2-z
1/2-x,1/2+y,1/2-z
-x,-y,-z
x,y,-z
1/2-x,1/2+y,1/2+z
1/2+x,1/2-y,1/2+z
loop_
_atom_site_type_symbol
_atom_site_label
_atom_site_fract_x
_atom_site_fract_y
_atom_site_fract_z
Si Si1 0.907843 0.890330 0.324101
Si Si2 0.486700 0.279659 0.672643
Si Si3 0.113291 0.927078 0.171806
Si Si4 0.223017 0.177718 0.675973
Si Si5 0.044646 0.578326 0.823635
Si Si6 0.679651 0.967408 0.676573
Si Si7 0.249177 0.878435 0.176148
O O1 0.910720 0.894110 0.500000
O O2 0.843023 0.853084 0.264665
O O3 0.959300 0.822931 0.266547
O O4 0.918241 0.991736 0.262622
O O5 0.505072 0.280843 0.500000
O O6 0.424188 0.334806 0.699065
O O7 0.476921 0.177254 0.732163
O O8 0.182207 0.910862 0.228457
O O9 0.112262 0.954727 0.000000
O O10 0.223676 0.177327 0.500000
O O11 0.273970 0.108854 0.736748
O O12 0.239717 0.277016 0.735949
O O13 0.112568 0.558261 0.764885
O O14 0.000000 0.500000 0.760633
O O15 0.044670 0.577804 0.000000
O O16 0.681661 0.976382 0.500000
O O17 0.698368 0.062564 0.747956
O O18 0.255419 0.884010 0.000000
#
# Coordination Sequence:
#
# PCOD8236727 Si02
#       7
#     8   8   8   8   8   8   8
#     4  11  22  36  55  82 114 147 183 227 279 330
#     4  10  21  37  57  81 110 147 188 228 273 326
#     4  10  20  36  57  82 110 144 185 228 273 326
#     4   9  19  35  54  78 111 147 180 218 275 337
#     4   9  19  35  57  84 111 141 183 231 275 324
#     4  10  19  36  59  82 110 144 181 226 278 326
#     4  10  20  35  57  81 108 144 183 223 272 330
#
# _framework density 19.311215000000001
#
# number of rings (size 3 to 8) (size 9 to 14) (size 15 to 20)
#    0.000    2.143    1.429    1.714    2.000    5.714 
#    0.000    2.143    0.000    2.571    0.000    0.000 
#    0.000    0.000    0.000    0.000    0.000    0.000 
#
# Total GULP energy -694571.056924 kJ/mol
# GULP energy per Si atom -12403.054588 kJ/mol
# Density = 1.926726 g / cm^3
# Si number density = 19.311215 Si / 1000 Ang^3
#
#
#
# Elastic Constant Matrix: (Units=GPa)
#
#
# Indices 1 2 3 4 5 6 
#
# 1 119.2844 59.3490 31.2930 0.0000 0.0000 0.0000
# 2 59.3490 157.0431 33.0143 0.0000 0.0000 0.0000
# 3 31.2930 33.0143 35.3865 0.0000 0.0000 0.0000
# 4 0.0000 0.0000 0.0000 21.7038 0.0000 0.0000
# 5 0.0000 0.0000 0.0000 0.0000 20.2953 0.0000
# 6 0.0000 0.0000 0.0000 0.0000 0.0000 37.3194
#
#
#
# Elastic Compliance Matrix: (Units=1/GPa)
#
#
# Indices 1 2 3 4 5 6 
#
# 1 0.011847 -0.002830 -0.007837 0.000000 0.000000 0.000000
# 2 -0.002830 0.008597 -0.005518 0.000000 0.000000 0.000000
# 3 -0.007837 -0.005518 0.040338 0.000000 0.000000 0.000000
# 4 0.000000 0.000000 0.000000 0.046075 0.000000 0.000000
# 5 0.000000 0.000000 0.000000 0.000000 0.049272 0.000000
# 6 0.000000 0.000000 0.000000 0.000000 0.000000 0.026796
#
#
# Mechanical properties :
#
#
# Convention : Reuss Voigt Hill
#
# Bulk Modulus (GPa) = 35.19558 62.11406 48.65482
# Shear Modulus (GPa) = 22.24537 28.40088 25.32313
#
# Velocity S-wave (km/s) = 3.39771 3.83912 3.62514
# Velocity P-wave (km/s) = 5.80151 7.20322 6.54003
#
# Compressibility (1/GPa) = 0.02841266
#
# Stress axis : x y z
#
# Youngs Moduli (GPa) = 84.40884 116.31697 24.79054
#
# Poissons Ratio (x) = 0.32915 0.19427
# Poissons Ratio (y) = 0.23886 0.13681
# Poissons Ratio (z) = 0.66148 0.64189
#
# Static dielectric constant tensor:
#      x y z
#    x 3.702570 0.000000 0.000000 
#    y 0.000000 3.719750 0.000000 
#    z 0.000000 0.000000 3.108370 
# 
# 
# High freq. dielectric constant tensor:
#      x y z
#    x 1.764340 0.000000 0.000000 
#    y 0.000000 1.766800 0.000000 
#    z 0.000000 0.000000 1.711840 
# 
# From -- ./inp_files/6279.got.cif
#   From: 2010.06.25/outbox.cif.g09.slc.cpg/sg58_4_cif.got.tgz:6279.got - 2010.06.26 21:38:00.
