data_PCOD8236043
_publ_section_title
;
Structure prediction by ZEFSAII (Michael W. Deem and Ramdas Pophale) SiO2 
 PCOD8236043
Probable space group: P N N M
;
_chemical_formula_sum "Si O2"
_cell_formula_units_Z 48
_cell_length_a 24.030203
_cell_length_b 12.010036
_cell_length_c 8.729872
_cell_angle_alpha 90.000000
_cell_angle_beta 90.000000
_cell_angle_gamma 90.000000
_cell_volume 2519.472514
_symmetry_space_group_name_H-M "P N N M"
_symmetry_group_IT_number 58
_symmetry_cell_setting 'orthorhombic'
loop_
_space_group_symop_operation_xyz
x,y,z
-x,-y,z
1/2+x,1/2-y,1/2-z
1/2-x,1/2+y,1/2-z
-x,-y,-z
x,y,-z
1/2-x,1/2+y,1/2+z
1/2+x,1/2-y,1/2+z
loop_
_atom_site_type_symbol
_atom_site_label
_atom_site_fract_x
_atom_site_fract_y
_atom_site_fract_z
Si Si1 0.660700 0.099876 0.180185
Si Si2 0.145058 0.636492 0.179629
Si Si3 0.781711 0.156880 0.181035
Si Si4 0.920582 0.774599 0.182229
Si Si5 0.044754 0.790535 0.819301
Si Si6 0.881086 0.011467 0.182735
O O1 0.719834 0.142279 0.248577
O O2 0.611461 0.167641 0.258035
O O3 0.653496 0.971097 0.217980
O O4 0.657750 0.118207 0.000000
O O5 0.193557 0.723148 0.226563
O O6 0.085136 0.688180 0.223066
O O7 0.148012 0.606826 0.000000
O O8 0.821824 0.058095 0.244024
O O9 0.779866 0.145937 0.000000
O O10 0.983394 0.769958 0.248973
O O11 0.891201 0.887064 0.244839
O O12 0.920679 0.772156 0.000000
O O13 0.070164 0.906549 0.755920
O O14 0.040239 0.801306 0.000000
O O15 0.881840 0.012919 0.000000
#
# Coordination Sequence:
#
# PCOD8236043 Si02
#       6
#     8   8   8   8   8   8
#     4  11  23  35  48  73 109 141 168 203 251 301
#     4   9  18  36  57  73  95 132 174 209 251 302
#     4   8  17  33  52  73 100 132 164 208 258 299
#     4  10  19  31  53  82 105 129 169 213 253 300
#     4   8  15  30  54  81 103 125 164 220 263 291
#     4   8  14  28  53  81 102 125 164 215 263 297
#
# _framework density 19.051606
#
# number of rings (size 3 to 8) (size 9 to 14) (size 15 to 20)
#    0.000    3.000    0.000    3.000    2.333    2.667 
#    0.000    5.000    0.000    6.000    0.000    0.000 
#    0.000    0.000    0.000    0.000    0.000    0.000 
#
# Total GULP energy -594995.939953 kJ/mol
# GULP energy per Si atom -12395.748749 kJ/mol
# Density = 1.900824 g / cm^3
# Si number density = 19.051606 Si / 1000 Ang^3
#
#
#
# Elastic Constant Matrix: (Units=GPa)
#
#
# Indices 1 2 3 4 5 6 
#
# 1 115.7459 51.0522 16.5069 0.0000 0.0000 0.0000
# 2 51.0522 109.8430 12.2510 0.0000 0.0000 0.0000
# 3 16.5069 12.2510 14.1232 0.0000 0.0000 0.0000
# 4 0.0000 0.0000 0.0000 14.8080 0.0000 0.0000
# 5 0.0000 0.0000 0.0000 0.0000 18.0350 0.0000
# 6 0.0000 0.0000 0.0000 0.0000 0.0000 25.6924
#
#
#
# Elastic Compliance Matrix: (Units=1/GPa)
#
#
# Indices 1 2 3 4 5 6 
#
# 1 0.012070 -0.004469 -0.010230 0.000000 0.000000 0.000000
# 2 -0.004469 0.011733 -0.004955 0.000000 0.000000 0.000000
# 3 -0.010230 -0.004955 0.087061 0.000000 0.000000 0.000000
# 4 0.000000 0.000000 0.000000 0.067531 0.000000 0.000000
# 5 0.000000 0.000000 0.000000 0.000000 0.055448 0.000000
# 6 0.000000 0.000000 0.000000 0.000000 0.000000 0.038922
#
#
# Mechanical properties :
#
#
# Convention : Reuss Voigt Hill
#
# Bulk Modulus (GPa) = 13.97521 44.37024 29.17273
# Shear Modulus (GPa) = 14.88429 22.36724 18.62576
#
# Velocity S-wave (km/s) = 2.79814 3.43014 3.13013
# Velocity P-wave (km/s) = 4.21792 6.24723 5.33004
#
# Compressibility (1/GPa) = 0.07155528
#
# Stress axis : x y z
#
# Youngs Moduli (GPa) = 82.85288 85.22637 11.48624
#
# Poissons Ratio (x) = 0.38084 0.11751
# Poissons Ratio (y) = 0.37024 0.05692
# Poissons Ratio (z) = 0.84762 0.42231
#
# Static dielectric constant tensor:
#      x y z
#    x 4.172860 0.000000 0.000000 
#    y 0.000000 3.505330 0.000000 
#    z 0.000000 0.000000 2.869880 
# 
# 
# High freq. dielectric constant tensor:
#      x y z
#    x 1.754660 0.000000 0.000000 
#    y 0.000000 1.745700 0.000000 
#    z 0.000000 0.000000 1.681810 
# 
# From -- ./inp_files/4182.got.cif
#   From: 2010.06.25/outbox.cif.g09.slc.cpg/sg58_3_cif.got.tgz:4182.got - 2010.06.26 21:38:00.
