data_PCOD8236102
_publ_section_title
;
Structure prediction by ZEFSAII (Michael W. Deem and Ramdas Pophale) SiO2 
 PCOD8236102
Probable space group: P N N M
;
_chemical_formula_sum "Si O2"
_cell_formula_units_Z 64
_cell_length_a 14.172868
_cell_length_b 28.322824
_cell_length_c 9.065472
_cell_angle_alpha 90.000000
_cell_angle_beta 90.000000
_cell_angle_gamma 90.000000
_cell_volume 3639.022299
_symmetry_space_group_name_H-M "P N N M"
_symmetry_group_IT_number 58
_symmetry_cell_setting 'orthorhombic'
loop_
_space_group_symop_operation_xyz
x,y,z
-x,-y,z
1/2+x,1/2-y,1/2-z
1/2-x,1/2+y,1/2-z
-x,-y,-z
x,y,-z
1/2-x,1/2+y,1/2+z
1/2+x,1/2-y,1/2+z
loop_
_atom_site_type_symbol
_atom_site_label
_atom_site_fract_x
_atom_site_fract_y
_atom_site_fract_z
Si Si1 0.256313 0.949583 0.826334
Si Si2 0.601399 0.874835 0.325603
Si Si3 0.902839 0.122751 0.831275
Si Si4 0.256582 0.805267 0.172817
Si Si5 0.750820 0.452119 0.171317
Si Si6 0.750414 0.301386 0.824114
Si Si7 0.400743 0.625923 0.828968
Si Si8 0.888348 0.621954 0.176020
O O1 0.160248 0.922185 0.785776
O O2 0.342963 0.925473 0.741194
O O3 0.245443 0.002913 0.775565
O O4 0.276611 0.946529 0.000000
O O5 0.599780 0.871345 0.500000
O O6 0.657253 0.922268 0.280681
O O7 0.656617 0.828680 0.263789
O O8 0.495537 0.876342 0.264232
O O9 0.844296 0.170402 0.798896
O O10 0.997440 0.122589 0.740322
O O11 0.932696 0.119641 0.000000
O O12 0.250368 0.752055 0.234232
O O13 0.337439 0.831382 0.264312
O O14 0.282919 0.807733 0.000000
O O15 0.657023 0.421838 0.201646
O O16 0.756855 0.467215 0.000000
O O17 0.657556 0.329094 0.766236
O O18 0.751957 0.302280 0.000000
O O19 0.416659 0.633420 0.000000
O O20 0.882216 0.620555 0.000000
#
# Coordination Sequence:
#
# PCOD8236102 Si02
#       8
#     8   8   8   8   8   8   8   8
#     4  10  21  36  51  70  98 131 163 195 241 295
#     4   8  16  31  51  74  98 127 163 199 239 289
#     4   9  19  33  48  68  97 131 162 196 239 289
#     4   9  18  33  51  71  99 134 165 195 238 289
#     4   9  18  34  53  73  97 125 161 202 242 286
#     4   8  15  31  52  72  98 131 163 196 239 290
#     4   9  18  32  52  75  97 125 162 203 242 282
#     4  10  19  32  52  75  98 126 162 204 241 278
#
# _framework density 17.587142
#
# number of rings (size 3 to 8) (size 9 to 14) (size 15 to 20)
#    0.000    3.000    0.000    3.000    0.000    5.000 
#    0.000    8.125    0.000    3.750    0.000    0.000 
#    0.000    0.000    0.000    0.000    0.000    0.000 
#
# Total GULP energy -793426.557762 kJ/mol
# GULP energy per Si atom -12397.289965 kJ/mol
# Density = 1.754711 g / cm^3
# Si number density = 17.587142 Si / 1000 Ang^3
#
#
#
# Elastic Constant Matrix: (Units=GPa)
#
#
# Indices 1 2 3 4 5 6 
#
# 1 154.3289 66.4289 46.3819 0.0000 0.0000 0.0000
# 2 66.4289 133.2672 39.6483 0.0000 0.0000 0.0000
# 3 46.3819 39.6483 46.5403 0.0000 0.0000 0.0000
# 4 0.0000 0.0000 0.0000 25.5902 0.0000 0.0000
# 5 0.0000 0.0000 0.0000 0.0000 11.5512 0.0000
# 6 0.0000 0.0000 0.0000 0.0000 0.0000 10.7882
#
#
#
# Elastic Compliance Matrix: (Units=1/GPa)
#
#
# Indices 1 2 3 4 5 6 
#
# 1 0.009918 -0.002683 -0.007599 0.000000 0.000000 0.000000
# 2 -0.002683 0.010777 -0.006507 0.000000 0.000000 0.000000
# 3 -0.007599 -0.006507 0.034603 0.000000 0.000000 0.000000
# 4 0.000000 0.000000 0.000000 0.039078 0.000000 0.000000
# 5 0.000000 0.000000 0.000000 0.000000 0.086571 0.000000
# 6 0.000000 0.000000 0.000000 0.000000 0.000000 0.092694
#
#
# Mechanical properties :
#
#
# Convention : Reuss Voigt Hill
#
# Bulk Modulus (GPa) = 46.03944 71.00605 58.52275
# Shear Modulus (GPa) = 15.90032 21.69774 18.79903
#
# Velocity S-wave (km/s) = 3.01007 3.51626 3.27296
# Velocity P-wave (km/s) = 6.18994 7.54632 6.90153
#
# Compressibility (1/GPa) = 0.02172051
#
# Stress axis : x y z
#
# Youngs Moduli (GPa) = 100.82322 92.78900 28.89920
#
# Poissons Ratio (x) = 0.24898 0.21960
# Poissons Ratio (y) = 0.27053 0.18805
# Poissons Ratio (z) = 0.76613 0.60378
#
# Static dielectric constant tensor:
#      x y z
#    x 3.497170 0.000000 0.000000 
#    y 0.000000 3.461890 0.000000 
#    z 0.000000 0.000000 2.991030 
# 
# 
# High freq. dielectric constant tensor:
#      x y z
#    x 1.683950 0.000000 0.000000 
#    y 0.000000 1.685940 0.000000 
#    z 0.000000 0.000000 1.655740 
# 
# From -- ./inp_files/7175.got.cif
#   From: 2010.06.25/outbox.cif.g09.slc.cpg/sg58_4_cif.got.tgz:7175.got - 2010.06.26 21:38:00.
