data_PCOD8236687
_publ_section_title
;
Structure prediction by ZEFSAII (Michael W. Deem and Ramdas Pophale) SiO2 
 PCOD8236687
Probable space group: P N N M
;
_chemical_formula_sum "Si O2"
_cell_formula_units_Z 64
_cell_length_a 11.957637
_cell_length_b 30.524643
_cell_length_c 8.999444
_cell_angle_alpha 90.000000
_cell_angle_beta 90.000000
_cell_angle_gamma 90.000000
_cell_volume 3284.820463
_symmetry_space_group_name_H-M "P N N M"
_symmetry_group_IT_number 58
_symmetry_cell_setting 'orthorhombic'
loop_
_space_group_symop_operation_xyz
x,y,z
-x,-y,z
1/2+x,1/2-y,1/2-z
1/2-x,1/2+y,1/2-z
-x,-y,-z
x,y,-z
1/2-x,1/2+y,1/2+z
1/2+x,1/2-y,1/2+z
loop_
_atom_site_type_symbol
_atom_site_label
_atom_site_fract_x
_atom_site_fract_y
_atom_site_fract_z
Si Si1 0.347434 0.126194 0.176952
Si Si2 0.243461 0.331001 0.167828
Si Si3 0.105440 0.125578 0.324418
Si Si4 0.025275 0.951852 0.170251
Si Si5 0.488375 0.951020 0.823353
Si Si6 0.001878 0.302211 0.175618
Si Si7 0.241752 0.415490 0.332242
Si Si8 0.030132 0.787054 0.330968
O O1 0.224122 0.125313 0.243292
O O2 0.411341 0.081435 0.225491
O O3 0.411209 0.168597 0.239462
O O4 0.341207 0.130292 0.000000
O O5 0.288555 0.372288 0.256286
O O6 0.336697 0.293769 0.181832
O O7 0.124813 0.315650 0.231515
O O8 0.228033 0.346283 0.000000
O O9 0.123739 0.122097 0.500000
O O10 0.034261 0.084017 0.271709
O O11 0.039101 0.169911 0.282556
O O12 0.159569 0.950490 0.179665
O O13 0.984125 0.945578 0.000000
O O14 0.000000 0.000000 0.231753
O O15 0.371837 0.932934 0.756127
O O16 0.500000 0.000000 0.756868
O O17 0.482472 0.953923 0.000000
O O18 0.994441 0.251473 0.217147
O O19 0.984635 0.307596 0.000000
O O20 0.212662 0.403219 0.500000
O O21 0.998410 0.774035 0.500000
#
# Coordination Sequence:
#
# PCOD8236687 Si02
#       8
#     8   8   8   8   8   8   8   8
#     4  11  23  40  63  87 121 161 199 245 301 359
#     4  10  21  40  62  85 118 154 192 244 299 352
#     4  11  24  42  62  87 123 161 202 250 304 363
#     4  10  22  38  61  92 123 158 203 251 300 358
#     4   9  19  35  59  89 118 153 197 244 292 344
#     4  11  24  40  62  91 121 154 197 247 297 353
#     4  10  19  35  61  89 116 151 200 249 291 348
#     4  10  23  42  62  86 118 158 199 243 298 357
#
# _framework density 19.483561999999999
#
# number of rings (size 3 to 8) (size 9 to 14) (size 15 to 20)
#    0.000    1.750    2.500    1.125    3.500    2.250 
#    0.000    0.000    0.000    1.875    0.000    0.000 
#    0.000    0.000    0.000    0.000    0.000    0.000 
#
# Total GULP energy -793573.929019 kJ/mol
# GULP energy per Si atom -12399.592641 kJ/mol
# Density = 1.943922 g / cm^3
# Si number density = 19.483562 Si / 1000 Ang^3
#
#
#
# Elastic Constant Matrix: (Units=GPa)
#
#
# Indices 1 2 3 4 5 6 
#
# 1 126.9142 44.3779 38.2844 0.0000 0.0000 0.0000
# 2 44.3779 131.4552 43.4123 0.0000 0.0000 0.0000
# 3 38.2844 43.4123 62.3337 0.0000 0.0000 0.0000
# 4 0.0000 0.0000 0.0000 25.7868 0.0000 0.0000
# 5 0.0000 0.0000 0.0000 0.0000 30.8927 0.0000
# 6 0.0000 0.0000 0.0000 0.0000 0.0000 27.4874
#
#
#
# Elastic Compliance Matrix: (Units=1/GPa)
#
#
# Indices 1 2 3 4 5 6 
#
# 1 0.009970 -0.001745 -0.004908 0.000000 0.000000 0.000000
# 2 -0.001745 0.010185 -0.006022 0.000000 0.000000 0.000000
# 3 -0.004908 -0.006022 0.023251 0.000000 0.000000 0.000000
# 4 0.000000 0.000000 0.000000 0.038780 0.000000 0.000000
# 5 0.000000 0.000000 0.000000 0.000000 0.032370 0.000000
# 6 0.000000 0.000000 0.000000 0.000000 0.000000 0.036380
#
#
# Mechanical properties :
#
#
# Convention : Reuss Voigt Hill
#
# Bulk Modulus (GPa) = 55.38166 63.65026 59.51596
# Shear Modulus (GPa) = 27.42673 29.80861 28.61767
#
# Velocity S-wave (km/s) = 3.75598 3.91568 3.83666
# Velocity P-wave (km/s) = 6.87724 7.29267 7.08800
#
# Compressibility (1/GPa) = 0.01805652
#
# Stress axis : x y z
#
# Youngs Moduli (GPa) = 100.30024 98.18585 43.00902
#
# Poissons Ratio (x) = 0.17132 0.21110
# Poissons Ratio (y) = 0.17501 0.25898
# Poissons Ratio (z) = 0.49230 0.59123
#
# Static dielectric constant tensor:
#      x y z
#    x 3.743300 0.000000 0.000000 
#    y 0.000000 3.590420 0.000000 
#    z 0.000000 0.000000 3.408340 
# 
# 
# High freq. dielectric constant tensor:
#      x y z
#    x 1.775320 0.000000 0.000000 
#    y 0.000000 1.762680 0.000000 
#    z 0.000000 0.000000 1.743600 
# 
# From -- ./inp_files/4754.got.cif
#   From: 2010.06.25/outbox.cif.g09.slc.cpg/sg58_3_cif.got.tgz:4754.got - 2010.06.26 21:38:00.
