data_PCOD8236460
_publ_section_title
;
Structure prediction by ZEFSAII (Michael W. Deem and Ramdas Pophale) SiO2 
 PCOD8236460
Probable space group: P N N M
;
_chemical_formula_sum "Si O2"
_cell_formula_units_Z 48
_cell_length_a 9.530829
_cell_length_b 29.118569
_cell_length_c 8.662493
_cell_angle_alpha 90.000000
_cell_angle_beta 90.000000
_cell_angle_gamma 90.000000
_cell_volume 2404.050590
_symmetry_space_group_name_H-M "P N N M"
_symmetry_group_IT_number 58
_symmetry_cell_setting 'orthorhombic'
loop_
_space_group_symop_operation_xyz
x,y,z
-x,-y,z
1/2+x,1/2-y,1/2-z
1/2-x,1/2+y,1/2-z
-x,-y,-z
x,y,-z
1/2-x,1/2+y,1/2+z
1/2+x,1/2-y,1/2+z
loop_
_atom_site_type_symbol
_atom_site_label
_atom_site_fract_x
_atom_site_fract_y
_atom_site_fract_z
Si Si1 0.358889 0.019426 0.317530
Si Si2 0.483334 0.199834 0.817937
Si Si3 0.196180 0.621840 0.816697
Si Si4 0.709721 0.716169 0.817274
Si Si5 0.990510 0.135739 0.316280
Si Si6 0.899148 0.038227 0.317704
O O1 0.371797 0.024916 0.500000
O O2 0.316253 0.069553 0.253274
O O3 0.500000 0.000000 0.242074
O O4 0.254365 0.978547 0.273529
O O5 0.431217 0.150947 0.754593
O O6 0.366264 0.236852 0.766543
O O7 0.635768 0.213121 0.753658
O O8 0.497368 0.197890 0.000000
O O9 0.347517 0.641804 0.762929
O O10 0.181853 0.623563 0.000000
O O11 0.608616 0.675965 0.751621
O O12 0.725102 0.712377 0.000000
O O13 0.985186 0.135487 0.500000
O O14 0.930156 0.088158 0.246766
O O15 0.925336 0.041050 0.500000
O O16 0.000000 0.000000 0.244416
#
# Coordination Sequence:
#
# PCOD8236460 Si02
#       6
#     8   8   8   8   8   8
#     4   9  17  26  43  78 115 145 182 230 278 318
#     4  11  24  40  58  83 114 143 180 226 277 333
#     4  10  19  34  56  83 115 150 187 227 276 331
#     4  10  22  39  59  82 106 141 183 225 273 326
#     4   9  17  30  52  81 111 141 180 230 279 323
#     4   9  14  24  42  72 111 141 171 223 279 317
#
# _framework density 19.9663
#
# number of rings (size 3 to 8) (size 9 to 14) (size 15 to 20)
#    0.000    2.333    1.667    1.500    2.333    2.667 
#    0.000    0.833    0.000    0.500    0.000    1.167 
#    0.000    0.000    0.000    0.000    0.000    0.000 
#
# Total GULP energy -594952.536484 kJ/mol
# GULP energy per Si atom -12394.844510 kJ/mol
# Density = 1.992086 g / cm^3
# Si number density = 19.966300 Si / 1000 Ang^3
#
#
#
# Elastic Constant Matrix: (Units=GPa)
#
#
# Indices 1 2 3 4 5 6 
#
# 1 139.3459 44.7958 24.8551 0.0000 0.0000 0.0000
# 2 44.7958 106.5407 20.7271 0.0000 0.0000 0.0000
# 3 24.8551 20.7271 23.8916 0.0000 0.0000 0.0000
# 4 0.0000 0.0000 0.0000 13.4622 0.0000 0.0000
# 5 0.0000 0.0000 0.0000 0.0000 20.5879 0.0000
# 6 0.0000 0.0000 0.0000 0.0000 0.0000 39.7618
#
#
#
# Elastic Compliance Matrix: (Units=1/GPa)
#
#
# Indices 1 2 3 4 5 6 
#
# 1 0.009312 -0.002443 -0.007568 0.000000 0.000000 0.000000
# 2 -0.002443 0.011933 -0.007811 0.000000 0.000000 0.000000
# 3 -0.007568 -0.007811 0.056505 0.000000 0.000000 0.000000
# 4 0.000000 0.000000 0.000000 0.074282 0.000000 0.000000
# 5 0.000000 0.000000 0.000000 0.000000 0.048572 0.000000
# 6 0.000000 0.000000 0.000000 0.000000 0.000000 0.025150
#
#
# Mechanical properties :
#
#
# Convention : Reuss Voigt Hill
#
# Bulk Modulus (GPa) = 23.74942 50.05937 36.90439
# Shear Modulus (GPa) = 18.15330 26.72239 22.43784
#
# Velocity S-wave (km/s) = 3.01856 3.66235 3.35593
# Velocity P-wave (km/s) = 4.90607 6.55821 5.79136
#
# Compressibility (1/GPa) = 0.04210630
#
# Stress axis : x y z
#
# Youngs Moduli (GPa) = 107.39358 83.80280 17.69754
#
# Poissons Ratio (x) = 0.20472 0.13393
# Poissons Ratio (y) = 0.26234 0.13823
# Poissons Ratio (z) = 0.81273 0.65458
#
# Static dielectric constant tensor:
#      x y z
#    x 3.862280 0.000000 0.000000 
#    y 0.000000 3.961800 0.000000 
#    z 0.000000 0.000000 2.960530 
# 
# 
# High freq. dielectric constant tensor:
#      x y z
#    x 1.795770 0.000000 0.000000 
#    y 0.000000 1.795490 0.000000 
#    z 0.000000 0.000000 1.711270 
# 
# From -- ./inp_files/2855.got.cif
#   From: 2010.06.25/outbox.cif.g09.slc.cpg/sg58_2_cif.got.tgz:2855.got - 2010.06.26 21:38:00.
