data_PCOD8236216
_publ_section_title
;
Structure prediction by ZEFSAII (Michael W. Deem and Ramdas Pophale) SiO2 
 PCOD8236216
Probable space group: P N N M
;
_chemical_formula_sum "Si O2"
_cell_formula_units_Z 64
_cell_length_a 18.894028
_cell_length_b 23.030204
_cell_length_c 8.854875
_cell_angle_alpha 90.000000
_cell_angle_beta 90.000000
_cell_angle_gamma 90.000000
_cell_volume 3853.051150
_symmetry_space_group_name_H-M "P N N M"
_symmetry_group_IT_number 58
_symmetry_cell_setting 'orthorhombic'
loop_
_space_group_symop_operation_xyz
x,y,z
-x,-y,z
1/2+x,1/2-y,1/2-z
1/2-x,1/2+y,1/2-z
-x,-y,-z
x,y,-z
1/2-x,1/2+y,1/2+z
1/2+x,1/2-y,1/2+z
loop_
_atom_site_type_symbol
_atom_site_label
_atom_site_fract_x
_atom_site_fract_y
_atom_site_fract_z
Si Si1 0.847896 0.230310 0.176672
Si Si2 0.993239 0.250655 0.322037
Si Si3 0.758906 0.342327 0.177608
Si Si4 0.725151 0.170275 0.325628
Si Si5 0.499682 0.115702 0.823357
Si Si6 0.865564 0.780674 0.177121
Si Si7 0.348794 0.061728 0.823395
Si Si8 0.133702 0.440348 0.176105
O O1 0.813379 0.291592 0.224939
O O2 0.795514 0.178464 0.226056
O O3 0.921299 0.222244 0.262764
O O4 0.862095 0.226763 0.000000
O O5 0.995791 0.244715 0.500000
O O6 0.997536 0.317652 0.271096
O O7 0.057523 0.214596 0.251386
O O8 0.683501 0.331457 0.256245
O O9 0.788813 0.403227 0.234622
O O10 0.746973 0.344010 0.000000
O O11 0.746067 0.177631 0.500000
O O12 0.666847 0.218088 0.279768
O O13 0.693111 0.107648 0.290098
O O14 0.425303 0.086886 0.782117
O O15 0.557374 0.082046 0.726517
O O16 0.517714 0.109385 0.000000
O O17 0.873026 0.789581 0.000000
O O18 0.343693 0.995563 0.772498
O O19 0.333451 0.066995 0.000000
O O20 0.130013 0.456064 0.000000
#
# Coordination Sequence:
#
# PCOD8236216 Si02
#       8
#     8   8   8   8   8   8   8   8
#     4  10  20  32  51  75 100 129 167 210 255 303
#     4  11  20  32  51  75 104 137 170 206 253 305
#     4  10  20  34  51  74 100 131 170 213 257 303
#     4   9  19  34  50  70  99 132 167 208 256 301
#     4  10  21  34  48  69 101 139 177 211 246 296
#     4  10  19  33  52  74 101 132 168 210 256 305
#     4  11  22  36  51  71 100 139 178 214 254 299
#     4  11  22  35  51  73 100 136 176 216 255 297
#
# _framework density 16.610213000000002
#
# number of rings (size 3 to 8) (size 9 to 14) (size 15 to 20)
#    0.000    1.750    2.500    2.625    0.000    5.500 
#    0.000    0.000    0.000    0.000    0.000    0.875 
#    0.000    7.000    0.000    0.000    0.000    0.000 
#
# Total GULP energy -793960.040746 kJ/mol
# GULP energy per Si atom -12405.625637 kJ/mol
# Density = 1.657241 g / cm^3
# Si number density = 16.610213 Si / 1000 Ang^3
#
#
#
# Elastic Constant Matrix: (Units=GPa)
#
#
# Indices 1 2 3 4 5 6 
#
# 1 107.8243 40.6470 45.0036 0.0000 0.0000 0.0000
# 2 40.6470 57.6364 24.0035 0.0000 0.0000 0.0000
# 3 45.0036 24.0035 66.0128 0.0000 0.0000 0.0000
# 4 0.0000 0.0000 0.0000 26.2441 0.0000 0.0000
# 5 0.0000 0.0000 0.0000 0.0000 33.7098 0.0000
# 6 0.0000 0.0000 0.0000 0.0000 0.0000 17.9154
#
#
#
# Elastic Compliance Matrix: (Units=1/GPa)
#
#
# Indices 1 2 3 4 5 6 
#
# 1 0.015364 -0.007628 -0.007701 0.000000 0.000000 0.000000
# 2 -0.007628 0.024234 -0.003611 0.000000 0.000000 0.000000
# 3 -0.007701 -0.003611 0.021712 0.000000 0.000000 0.000000
# 4 0.000000 0.000000 0.000000 0.038104 0.000000 0.000000
# 5 0.000000 0.000000 0.000000 0.000000 0.029665 0.000000
# 6 0.000000 0.000000 0.000000 0.000000 0.000000 0.055818
#
#
# Mechanical properties :
#
#
# Convention : Reuss Voigt Hill
#
# Bulk Modulus (GPa) = 42.68198 50.08686 46.38442
# Shear Modulus (GPa) = 21.68388 23.69515 22.68952
#
# Velocity S-wave (km/s) = 3.61703 3.78106 3.69995
# Velocity P-wave (km/s) = 6.57236 7.02008 6.79991
#
# Compressibility (1/GPa) = 0.02342909
#
# Stress axis : x y z
#
# Youngs Moduli (GPa) = 65.08705 41.26461 46.05847
#
# Poissons Ratio (x) = 0.31478 0.35468
# Poissons Ratio (y) = 0.49650 0.16634
# Poissons Ratio (z) = 0.50121 0.14902
#
# Static dielectric constant tensor:
#      x y z
#    x 3.085200 0.000000 0.000000 
#    y 0.000000 2.972880 0.000000 
#    z 0.000000 0.000000 3.167580 
# 
# 
# High freq. dielectric constant tensor:
#      x y z
#    x 1.636150 0.000000 0.000000 
#    y 0.000000 1.612430 0.000000 
#    z 0.000000 0.000000 1.654400 
# 
# From -- ./inp_files/6943.got.cif
#   From: 2010.06.25/outbox.cif.g09.slc.cpg/sg58_4_cif.got.tgz:6943.got - 2010.06.26 21:38:00.
