data_PCOD8236252
_publ_section_title
;
Structure prediction by ZEFSAII (Michael W. Deem and Ramdas Pophale) SiO2 
 PCOD8236252
Probable space group: P N N M
;
_chemical_formula_sum "Si O2"
_cell_formula_units_Z 56
_cell_length_a 14.619243
_cell_length_b 21.875116
_cell_length_c 9.206058
_cell_angle_alpha 90.000000
_cell_angle_beta 90.000000
_cell_angle_gamma 90.000000
_cell_volume 2944.075589
_symmetry_space_group_name_H-M "P N N M"
_symmetry_group_IT_number 58
_symmetry_cell_setting 'orthorhombic'
loop_
_space_group_symop_operation_xyz
x,y,z
-x,-y,z
1/2+x,1/2-y,1/2-z
1/2-x,1/2+y,1/2-z
-x,-y,-z
x,y,-z
1/2-x,1/2+y,1/2+z
1/2+x,1/2-y,1/2+z
loop_
_atom_site_type_symbol
_atom_site_label
_atom_site_fract_x
_atom_site_fract_y
_atom_site_fract_z
Si Si1 0.389119 0.946227 0.669631
Si Si2 0.903302 0.970393 0.170147
Si Si3 0.808891 0.074722 0.330727
Si Si4 0.909001 0.196247 0.331226
Si Si5 0.915331 0.419135 0.827610
Si Si6 0.806223 0.303696 0.170596
Si Si7 0.107035 0.156691 0.331686
O O1 0.404588 0.955258 0.500000
O O2 0.297212 0.908161 0.702874
O O3 0.479072 0.910487 0.727248
O O4 0.381248 0.015300 0.733274
O O5 0.896572 0.903304 0.235116
O O6 0.827784 0.013523 0.241709
O O7 0.885457 0.966246 0.000000
O O8 0.000000 0.000000 0.208828
O O9 0.824133 0.060178 0.500000
O O10 0.872315 0.130219 0.278886
O O11 0.887052 0.205992 0.500000
O O12 0.854804 0.246544 0.243103
O O13 0.017863 0.198572 0.299412
O O14 0.852446 0.365082 0.763426
O O15 0.906693 0.415558 0.000000
O O16 0.697915 0.304615 0.206952
O O17 0.822898 0.297790 0.000000
O O18 0.107980 0.136218 0.500000
#
# Coordination Sequence:
#
# PCOD8236252 Si02
#       7
#     8   8   8   8   8   8   8
#     4   8  14  26  49  77 103 128 167 219 267 314
#     4  11  22  34  54  85 115 142 176 228 287 334
#     4  10  19  33  54  78 105 144 184 221 271 334
#     4  10  22  37  53  76 108 144 184 228 272 322
#     4   8  14  27  47  76 105 129 165 221 271 310
#     4  10  21  36  57  80 106 145 189 229 272 327
#     4  10  21  39  59  81 110 147 189 228 278 340
#
# _framework density 19.021252
#
# number of rings (size 3 to 8) (size 9 to 14) (size 15 to 20)
#    0.000    2.429    1.429    2.143    0.000    5.714 
#    0.000    1.429    0.000    0.857    0.000    3.000 
#    0.000    0.000    0.000    0.000    0.000    0.000 
#
# Total GULP energy -694159.112727 kJ/mol
# GULP energy per Si atom -12395.698442 kJ/mol
# Density = 1.897796 g / cm^3
# Si number density = 19.021252 Si / 1000 Ang^3
#
#
#
# Elastic Constant Matrix: (Units=GPa)
#
#
# Indices 1 2 3 4 5 6 
#
# 1 155.7485 58.9311 39.6112 0.0000 0.0000 0.0000
# 2 58.9311 88.5982 36.7076 0.0000 0.0000 0.0000
# 3 39.6112 36.7076 40.7937 0.0000 0.0000 0.0000
# 4 0.0000 0.0000 0.0000 29.3883 0.0000 0.0000
# 5 0.0000 0.0000 0.0000 0.0000 17.9217 0.0000
# 6 0.0000 0.0000 0.0000 0.0000 0.0000 31.5286
#
#
#
# Elastic Compliance Matrix: (Units=1/GPa)
#
#
# Indices 1 2 3 4 5 6 
#
# 1 0.009300 -0.003898 -0.005523 0.000000 0.000000 0.000000
# 2 -0.003898 0.019630 -0.013879 0.000000 0.000000 0.000000
# 3 -0.005523 -0.013879 0.042366 0.000000 0.000000 0.000000
# 4 0.000000 0.000000 0.000000 0.034027 0.000000 0.000000
# 5 0.000000 0.000000 0.000000 0.000000 0.055798 0.000000
# 6 0.000000 0.000000 0.000000 0.000000 0.000000 0.031717
#
#
# Mechanical properties :
#
#
# Convention : Reuss Voigt Hill
#
# Bulk Modulus (GPa) = 40.49282 61.73781 51.11531
# Shear Modulus (GPa) = 20.18820 25.76040 22.97430
#
# Velocity S-wave (km/s) = 3.26137 3.68407 3.47914
# Velocity P-wave (km/s) = 5.95957 7.11507 6.56280
#
# Compressibility (1/GPa) = 0.02469574
#
# Stress axis : x y z
#
# Youngs Moduli (GPa) = 107.52589 50.94351 23.60407
#
# Poissons Ratio (x) = 0.19855 0.13037
# Poissons Ratio (y) = 0.41909 0.32760
# Poissons Ratio (z) = 0.59391 0.70704
#
# Static dielectric constant tensor:
#      x y z
#    x 3.889200 0.000000 0.000000 
#    y 0.000000 3.349000 0.000000 
#    z 0.000000 0.000000 3.095250 
# 
# 
# High freq. dielectric constant tensor:
#      x y z
#    x 1.762320 0.000000 0.000000 
#    y 0.000000 1.725550 0.000000 
#    z 0.000000 0.000000 1.698040 
# 
# From -- ./inp_files/6283.got.cif
#   From: 2010.06.25/outbox.cif.g09.slc.cpg/sg58_4_cif.got.tgz:6283.got - 2010.06.26 21:38:00.
