data_PCOD8236384
_publ_section_title
;
Structure prediction by ZEFSAII (Michael W. Deem and Ramdas Pophale) SiO2 
 PCOD8236384
Probable space group: P N N M
;
_chemical_formula_sum "Si O2"
_cell_formula_units_Z 64
_cell_length_a 15.816717
_cell_length_b 15.987234
_cell_length_c 12.571587
_cell_angle_alpha 90.000000
_cell_angle_beta 90.000000
_cell_angle_gamma 90.000000
_cell_volume 3178.921334
_symmetry_space_group_name_H-M "P N N M"
_symmetry_group_IT_number 58
_symmetry_cell_setting 'orthorhombic'
loop_
_space_group_symop_operation_xyz
x,y,z
-x,-y,z
1/2+x,1/2-y,1/2-z
1/2-x,1/2+y,1/2-z
-x,-y,-z
x,y,-z
1/2-x,1/2+y,1/2+z
1/2+x,1/2-y,1/2+z
loop_
_atom_site_type_symbol
_atom_site_label
_atom_site_fract_x
_atom_site_fract_y
_atom_site_fract_z
Si Si1 0.366176 0.664838 0.276019
Si Si2 0.134334 0.356163 0.270730
Si Si3 0.953724 0.370892 0.733500
Si Si4 0.684323 0.632317 0.737031
Si Si5 0.821276 0.975616 0.621616
Si Si6 0.800694 0.297413 0.622554
Si Si7 0.533521 0.706570 0.376843
Si Si8 0.628399 0.002145 0.618795
O O1 0.363930 0.757324 0.230097
O O2 0.367647 0.602959 0.175566
O O3 0.282995 0.649231 0.347981
O O4 0.450420 0.653011 0.346282
O O5 0.224323 0.386954 0.321108
O O6 0.132423 0.400155 0.153490
O O7 0.045319 0.384119 0.325989
O O8 0.882158 0.354991 0.645893
O O9 0.962313 0.292300 0.812187
O O10 0.933117 0.451948 0.803116
O O11 0.652993 0.557160 0.811371
O O12 0.696879 0.712274 0.811864
O O13 0.614923 0.649019 0.647195
O O14 0.853576 0.984638 0.500000
O O15 0.720849 0.960262 0.623402
O O16 0.799279 0.273060 0.500000
O O17 0.532436 0.729494 0.500000
O O18 0.591857 0.998361 0.500000
#
# Coordination Sequence:
#
# PCOD8236384 Si02
#       8
#     8   8   8   8   8   8   8   8
#     4  10  20  37  56  85 115 147 188 239 282 342
#     4   9  20  34  53  79 119 149 173 225 288 339
#     4  10  19  34  56  88 119 146 186 234 279 341
#     4   9  20  38  57  83 114 148 191 240 283 338
#     4  10  20  37  61  87 115 147 188 237 290 337
#     4  10  19  35  58  81 113 155 191 230 288 343
#     4  10  21  37  58  83 115 153 194 239 285 332
#     4  10  19  33  59  90 117 145 181 230 291 340
#
# _framework density 20.132615999999999
#
# number of rings (size 3 to 8) (size 9 to 14) (size 15 to 20)
#    0.000    2.250    1.250    1.500    0.000    6.500 
#    0.000    9.375    0.000    2.250    0.000    0.000 
#    0.000    0.000    0.000    0.000    0.000    0.000 
#
# Total GULP energy -793126.115475 kJ/mol
# GULP energy per Si atom -12392.595554 kJ/mol
# Density = 2.008679 g / cm^3
# Si number density = 20.132616 Si / 1000 Ang^3
#
#
#
# Elastic Constant Matrix: (Units=GPa)
#
#
# Indices 1 2 3 4 5 6 
#
# 1 128.7140 17.4131 24.8883 0.0000 0.0000 0.0000
# 2 17.4131 79.3261 13.4746 0.0000 0.0000 0.0000
# 3 24.8883 13.4746 45.7552 0.0000 0.0000 0.0000
# 4 0.0000 0.0000 0.0000 22.4006 0.0000 0.0000
# 5 0.0000 0.0000 0.0000 0.0000 18.2180 0.0000
# 6 0.0000 0.0000 0.0000 0.0000 0.0000 24.9706
#
#
#
# Elastic Compliance Matrix: (Units=1/GPa)
#
#
# Indices 1 2 3 4 5 6 
#
# 1 0.008785 -0.001176 -0.004433 0.000000 0.000000 0.000000
# 2 -0.001176 0.013427 -0.003315 0.000000 0.000000 0.000000
# 3 -0.004433 -0.003315 0.025243 0.000000 0.000000 0.000000
# 4 0.000000 0.000000 0.000000 0.044642 0.000000 0.000000
# 5 0.000000 0.000000 0.000000 0.000000 0.054891 0.000000
# 6 0.000000 0.000000 0.000000 0.000000 0.000000 0.040047
#
#
# Mechanical properties :
#
#
# Convention : Reuss Voigt Hill
#
# Bulk Modulus (GPa) = 33.77298 40.59416 37.18357
# Shear Modulus (GPa) = 23.28285 26.31913 24.80099
#
# Velocity S-wave (km/s) = 3.40439 3.61957 3.51362
# Velocity P-wave (km/s) = 5.68021 6.13804 5.91356
#
# Compressibility (1/GPa) = 0.02960947
#
# Stress axis : x y z
#
# Youngs Moduli (GPa) = 113.82683 74.47507 39.61549
#
# Poissons Ratio (x) = 0.08755 0.17560
# Poissons Ratio (y) = 0.13381 0.13132
# Poissons Ratio (z) = 0.50454 0.24687
#
# Static dielectric constant tensor:
#      x y z
#    x 4.410770 0.000000 0.000000 
#    y 0.000000 3.509150 0.000000 
#    z 0.000000 0.000000 3.245050 
# 
# 
# High freq. dielectric constant tensor:
#      x y z
#    x 1.810190 0.000000 0.000000 
#    y 0.000000 1.780030 0.000000 
#    z 0.000000 0.000000 1.740600 
# 
# From -- ./inp_files/15904.got.cif
#   From: 2010.06.25/outbox.cif.g09.slc.cpg/sg58_8_cif.got.tgz:15904.got - 2010.06.26 21:38:00.
