data_PCOD8236533
_publ_section_title
;
Structure prediction by ZEFSAII (Michael W. Deem and Ramdas Pophale) SiO2 
 PCOD8236533
Probable space group: P N N M
;
_chemical_formula_sum "Si O2"
_cell_formula_units_Z 40
_cell_length_a 9.349419
_cell_length_b 8.916693
_cell_length_c 26.814896
_cell_angle_alpha 90.000000
_cell_angle_beta 90.000000
_cell_angle_gamma 90.000000
_cell_volume 2235.447910
_symmetry_space_group_name_H-M "P N N M"
_symmetry_group_IT_number 58
_symmetry_cell_setting 'orthorhombic'
loop_
_space_group_symop_operation_xyz
x,y,z
-x,-y,z
1/2+x,1/2-y,1/2-z
1/2-x,1/2+y,1/2-z
-x,-y,-z
x,y,-z
1/2-x,1/2+y,1/2+z
1/2+x,1/2-y,1/2+z
loop_
_atom_site_type_symbol
_atom_site_label
_atom_site_fract_x
_atom_site_fract_y
_atom_site_fract_z
Si Si1 0.025654 0.331015 0.795377
Si Si2 0.267708 0.827889 0.201300
Si Si3 0.602078 0.857946 0.944336
Si Si4 0.009960 0.175412 0.637351
Si Si5 0.755230 0.855142 0.151443
O O1 0.877598 0.251082 0.782032
O O2 0.000000 0.500000 0.813678
O O3 0.126033 0.327687 0.747488
O O4 0.101623 0.241442 0.840508
O O5 0.337105 0.734487 0.155970
O O6 0.236245 0.996508 0.184516
O O7 0.511544 0.718174 0.921177
O O8 0.738113 0.891715 0.907970
O O9 0.500000 0.000000 0.945046
O O10 0.655385 0.817737 0.000000
O O11 0.884478 0.259559 0.668733
O O12 0.000000 0.000000 0.646168
#
# Coordination Sequence:
#
# PCOD8236533 Si02
#       5
#     8   8   8   8   8
#     4  12  25  36  58  82 118 154 197 234 292 338
#     4  12  22  38  56  83 116 156 192 235 283 355
#     4   9  18  36  65  88 114 150 194 242 290 343
#     4  10  19  34  58  86 119 142 190 239 287 332
#     4  10  21  40  56  83 117 151 193 238 282 350
#
# _framework density 17.893505999999999
#
# number of rings (size 3 to 8) (size 9 to 14) (size 15 to 20)
#    1.200    0.200    2.000    6.000    0.000    2.000 
#    0.000    0.000    0.000    4.200    0.000    0.000 
#    0.000    0.000    0.000    0.000    0.000    0.000 
#
# Total GULP energy -495781.020584 kJ/mol
# GULP energy per Si atom -12394.525515 kJ/mol
# Density = 1.785278 g / cm^3
# Si number density = 17.893506 Si / 1000 Ang^3
#
#
#
# Elastic Constant Matrix: (Units=GPa)
#
#
# Indices 1 2 3 4 5 6 
#
# 1 104.6718 53.7413 44.1896 0.0000 0.0000 0.0000
# 2 53.7413 147.2121 34.6639 0.0000 0.0000 0.0000
# 3 44.1896 34.6639 103.0075 0.0000 0.0000 0.0000
# 4 0.0000 0.0000 0.0000 4.2655 0.0000 0.0000
# 5 0.0000 0.0000 0.0000 0.0000 12.7803 0.0000
# 6 0.0000 0.0000 0.0000 0.0000 0.0000 33.6218
#
#
#
# Elastic Compliance Matrix: (Units=1/GPa)
#
#
# Indices 1 2 3 4 5 6 
#
# 1 0.013411 -0.003846 -0.004459 0.000000 0.000000 0.000000
# 2 -0.003846 0.008480 -0.001204 0.000000 0.000000 0.000000
# 3 -0.004459 -0.001204 0.012026 0.000000 0.000000 0.000000
# 4 0.000000 0.000000 0.000000 0.234440 0.000000 0.000000
# 5 0.000000 0.000000 0.000000 0.000000 0.078245 0.000000
# 6 0.000000 0.000000 0.000000 0.000000 0.000000 0.029743
#
#
# Mechanical properties :
#
#
# Convention : Reuss Voigt Hill
#
# Bulk Modulus (GPa) = 67.11538 68.89788 68.00663
# Shear Modulus (GPa) = 12.48973 24.95331 18.72152
#
# Velocity S-wave (km/s) = 2.64484 3.73841 3.23813
# Velocity P-wave (km/s) = 6.84957 7.56454 7.21592
#
# Compressibility (1/GPa) = 0.01489971
#
# Stress axis : x y z
#
# Youngs Moduli (GPa) = 74.56781 117.91963 83.15292
#
# Poissons Ratio (x) = 0.45349 0.37077
# Poissons Ratio (y) = 0.28677 0.10012
# Poissons Ratio (z) = 0.33249 0.14197
#
# Static dielectric constant tensor:
#      x y z
#    x 3.327570 0.000000 0.000000 
#    y 0.000000 3.369010 0.000000 
#    z 0.000000 0.000000 3.309900 
# 
# 
# High freq. dielectric constant tensor:
#      x y z
#    x 1.682180 0.000000 0.000000 
#    y 0.000000 1.703490 0.000000 
#    z 0.000000 0.000000 1.673280 
# 
# From -- ./inp_files/33159.got.cif
#   From: 2010.06.25/outbox.cif.g09.slc.cpg/sg58_17_cif.got.tgz:33159.got - 2010.06.26 21:38:00.
