data_PCOD8236066
_publ_section_title
;
Structure prediction by ZEFSAII (Michael W. Deem and Ramdas Pophale) SiO2 
 PCOD8236066
Probable space group: P N N M
;
_chemical_formula_sum "Si O2"
_cell_formula_units_Z 40
_cell_length_a 8.587205
_cell_length_b 9.115155
_cell_length_c 27.791892
_cell_angle_alpha 90.000000
_cell_angle_beta 90.000000
_cell_angle_gamma 90.000000
_cell_volume 2175.374344
_symmetry_space_group_name_H-M "P N N M"
_symmetry_group_IT_number 58
_symmetry_cell_setting 'orthorhombic'
loop_
_space_group_symop_operation_xyz
x,y,z
-x,-y,z
1/2+x,1/2-y,1/2-z
1/2-x,1/2+y,1/2-z
-x,-y,-z
x,y,-z
1/2-x,1/2+y,1/2+z
1/2+x,1/2-y,1/2+z
loop_
_atom_site_type_symbol
_atom_site_label
_atom_site_fract_x
_atom_site_fract_y
_atom_site_fract_z
Si Si1 0.416925 0.844893 0.053135
Si Si2 0.295538 0.799391 0.799397
Si Si3 0.097862 0.734391 0.640498
Si Si4 0.325801 0.471393 0.212061
Si Si5 0.173343 0.970035 0.118501
O O1 0.512770 0.737981 0.089106
O O2 0.247399 0.877794 0.074793
O O3 0.500000 0.000000 0.049774
O O4 0.403957 0.772568 0.000000
O O5 0.469473 0.824911 0.820926
O O6 0.247813 0.629084 0.795576
O O7 0.280727 0.875807 0.747580
O O8 0.167246 0.869860 0.834152
O O9 0.166576 0.886666 0.660679
O O10 0.233551 0.616817 0.632977
O O11 0.500000 0.500000 0.232690
O O12 0.000000 0.000000 0.101106
#
# Coordination Sequence:
#
# PCOD8236066 Si02
#       5
#     8   8   8   8   8
#     4   8  15  30  54  79 101 131 169 210 255 300
#     4  10  19  32  50  70  98 133 169 206 251 300
#     4   9  19  35  52  73 105 135 167 209 251 301
#     4  10  20  33  51  73  99 131 171 210 249 298
#     4  10  19  32  49  73 105 134 168 210 251 298
#
# _framework density 18.387639
#
# number of rings (size 3 to 8) (size 9 to 14) (size 15 to 20)
#    0.000    2.600    0.000    3.600    0.000    3.600 
#    0.000    5.000    0.000   15.000    0.000    0.000 
#    0.000   32.000    0.000    0.000    0.000    0.000 
#
# Total GULP energy -495776.256683 kJ/mol
# GULP energy per Si atom -12394.406417 kJ/mol
# Density = 1.834579 g / cm^3
# Si number density = 18.387639 Si / 1000 Ang^3
#
#
#
# Elastic Constant Matrix: (Units=GPa)
#
#
# Indices 1 2 3 4 5 6 
#
# 1 83.2694 35.3153 50.5839 0.0000 0.0000 0.0000
# 2 35.3153 99.2485 56.9345 0.0000 0.0000 0.0000
# 3 50.5839 56.9345 141.1498 0.0000 0.0000 0.0000
# 4 0.0000 0.0000 0.0000 21.3005 0.0000 0.0000
# 5 0.0000 0.0000 0.0000 0.0000 16.4103 0.0000
# 6 0.0000 0.0000 0.0000 0.0000 0.0000 21.0242
#
#
#
# Elastic Compliance Matrix: (Units=1/GPa)
#
#
# Indices 1 2 3 4 5 6 
#
# 1 0.016070 -0.003141 -0.004492 0.000000 0.000000 0.000000
# 2 -0.003141 0.013723 -0.004410 0.000000 0.000000 0.000000
# 3 -0.004492 -0.004410 0.010473 0.000000 0.000000 0.000000
# 4 0.000000 0.000000 0.000000 0.046947 0.000000 0.000000
# 5 0.000000 0.000000 0.000000 0.000000 0.060937 0.000000
# 6 0.000000 0.000000 0.000000 0.000000 0.000000 0.047564
#
#
# Mechanical properties :
#
#
# Convention : Reuss Voigt Hill
#
# Bulk Modulus (GPa) = 61.80258 67.70391 64.75324
# Shear Modulus (GPa) = 22.20301 23.80261 23.00281
#
# Velocity S-wave (km/s) = 3.47868 3.60181 3.54078
# Velocity P-wave (km/s) = 7.05824 7.36190 7.21167
#
# Compressibility (1/GPa) = 0.01618055
#
# Stress axis : x y z
#
# Youngs Moduli (GPa) = 62.22677 72.86979 95.48237
#
# Poissons Ratio (x) = 0.22891 0.42891
# Poissons Ratio (y) = 0.19548 0.42104
# Poissons Ratio (z) = 0.27952 0.32133
#
# Static dielectric constant tensor:
#      x y z
#    x 3.210050 0.000000 0.000000 
#    y 0.000000 3.366840 0.000000 
#    z 0.000000 0.000000 3.735160 
# 
# 
# High freq. dielectric constant tensor:
#      x y z
#    x 1.696830 0.000000 0.000000 
#    y 0.000000 1.697370 0.000000 
#    z 0.000000 0.000000 1.707260 
# 
# From -- ./inp_files/33136.got.cif
#   From: 2010.06.25/outbox.cif.g09.slc.cpg/sg58_17_cif.got.tgz:33136.got - 2010.06.26 21:38:00.
