data_PCOD8236665
_publ_section_title
;
Structure prediction by ZEFSAII (Michael W. Deem and Ramdas Pophale) SiO2 
 PCOD8236665
Probable space group: P N N M
;
_chemical_formula_sum "Si O2"
_cell_formula_units_Z 64
_cell_length_a 12.779205
_cell_length_b 27.623891
_cell_length_c 9.004007
_cell_angle_alpha 90.000000
_cell_angle_beta 90.000000
_cell_angle_gamma 90.000000
_cell_volume 3178.516810
_symmetry_space_group_name_H-M "P N N M"
_symmetry_group_IT_number 58
_symmetry_cell_setting 'orthorhombic'
loop_
_space_group_symop_operation_xyz
x,y,z
-x,-y,z
1/2+x,1/2-y,1/2-z
1/2-x,1/2+y,1/2-z
-x,-y,-z
x,y,-z
1/2-x,1/2+y,1/2+z
1/2+x,1/2-y,1/2+z
loop_
_atom_site_type_symbol
_atom_site_label
_atom_site_fract_x
_atom_site_fract_y
_atom_site_fract_z
Si Si1 0.542806 0.206934 0.827965
Si Si2 0.654745 0.817590 0.665344
Si Si3 0.110560 0.402258 0.328239
Si Si4 0.689353 0.459498 0.172320
Si Si5 0.140542 0.205793 0.828892
Si Si6 0.975883 0.890906 0.828293
Si Si7 0.088222 0.572439 0.164782
Si Si8 0.823953 0.070225 0.672129
O O1 0.436893 0.215035 0.734893
O O2 0.592698 0.154492 0.800211
O O3 0.622911 0.247148 0.771171
O O4 0.517364 0.214864 0.000000
O O5 0.682389 0.798089 0.500000
O O6 0.751812 0.817388 0.775411
O O7 0.615304 0.871686 0.655849
O O8 0.126033 0.414248 0.500000
O O9 0.212956 0.417365 0.240894
O O10 0.012506 0.434378 0.270109
O O11 0.615425 0.424075 0.262881
O O12 0.809982 0.455740 0.228521
O O13 0.649201 0.513860 0.195389
O O14 0.684818 0.443636 0.000000
O O15 0.051050 0.165519 0.806542
O O16 0.149535 0.221347 0.000000
O O17 0.085783 0.898675 0.748133
O O18 0.987701 0.904548 0.000000
O O19 0.059913 0.552948 0.000000
O O20 0.820519 0.083905 0.500000
#
# Coordination Sequence:
#
# PCOD8236665 Si02
#       8
#     8   8   8   8   8   8   8   8
#     4  10  22  39  60  86 117 154 195 244 299 356
#     4  10  19  35  60  85 113 151 191 239 295 349
#     4  10  22  40  60  85 120 156 196 246 300 355
#     4  10  21  39  62  90 119 155 202 247 293 353
#     4  11  23  38  59  88 118 152 196 244 295 357
#     4  11  24  40  60  87 121 156 197 249 301 354
#     4   9  18  35  61  87 115 151 194 241 289 347
#     4  11  24  40  61  86 120 163 203 244 295 356
#
# _framework density 20.135178
#
# number of rings (size 3 to 8) (size 9 to 14) (size 15 to 20)
#    0.000    1.750    1.250    2.625    0.000    8.000 
#    0.000    3.750    0.000    0.000    0.000    0.000 
#    0.000    0.000    0.000    0.000    0.000    0.000 
#
# Total GULP energy -793782.749952 kJ/mol
# GULP energy per Si atom -12402.855468 kJ/mol
# Density = 2.008935 g / cm^3
# Si number density = 20.135178 Si / 1000 Ang^3
#
#
#
# Elastic Constant Matrix: (Units=GPa)
#
#
# Indices 1 2 3 4 5 6 
#
# 1 98.5911 7.8976 35.7884 0.0000 0.0000 0.0000
# 2 7.8976 24.8801 31.9251 0.0000 0.0000 0.0000
# 3 35.7884 31.9251 95.2056 0.0000 0.0000 0.0000
# 4 0.0000 0.0000 0.0000 28.3216 0.0000 0.0000
# 5 0.0000 0.0000 0.0000 0.0000 33.7895 0.0000
# 6 0.0000 0.0000 0.0000 0.0000 0.0000 17.9889
#
#
#
# Elastic Compliance Matrix: (Units=1/GPa)
#
#
# Indices 1 2 3 4 5 6 
#
# 1 0.011912 0.003448 -0.005634 0.000000 0.000000 0.000000
# 2 0.003448 0.071546 -0.025288 0.000000 0.000000 0.000000
# 3 -0.005634 -0.025288 0.021101 0.000000 0.000000 0.000000
# 4 0.000000 0.000000 0.000000 0.035309 0.000000 0.000000
# 5 0.000000 0.000000 0.000000 0.000000 0.029595 0.000000
# 6 0.000000 0.000000 0.000000 0.000000 0.000000 0.055590
#
#
# Mechanical properties :
#
#
# Convention : Reuss Voigt Hill
#
# Bulk Modulus (GPa) = 20.15630 41.09988 30.62809
# Shear Modulus (GPa) = 16.86130 25.55771 21.20950
#
# Velocity S-wave (km/s) = 2.89693 3.56660 3.24907
# Velocity P-wave (km/s) = 4.60672 6.11695 5.41475
#
# Compressibility (1/GPa) = 0.04961228
#
# Stress axis : x y z
#
# Youngs Moduli (GPa) = 83.95023 13.97696 47.39098
#
# Poissons Ratio (x) = -0.04819 0.26700
# Poissons Ratio (y) = -0.28947 1.19840
# Poissons Ratio (z) = 0.47297 0.35344
#
# Static dielectric constant tensor:
#      x y z
#    x 3.696160 0.000000 0.000000 
#    y 0.000000 3.569740 0.000000 
#    z 0.000000 0.000000 3.864030 
# 
# 
# High freq. dielectric constant tensor:
#      x y z
#    x 1.793870 0.000000 0.000000 
#    y 0.000000 1.778140 0.000000 
#    z 0.000000 0.000000 1.795400 
# 
# From -- ./inp_files/4713.got.cif
#   From: 2010.06.25/outbox.cif.g09.slc.cpg/sg58_3_cif.got.tgz:4713.got - 2010.06.26 21:38:00.
