data_PCOD8236889
_publ_section_title
;
Structure prediction by ZEFSAII (Michael W. Deem and Ramdas Pophale) SiO2 
 PCOD8236889
Probable space group: P N N M
;
_chemical_formula_sum "Si O2"
_cell_formula_units_Z 40
_cell_length_a 12.303638
_cell_length_b 14.686550
_cell_length_c 13.719895
_cell_angle_alpha 90.000000
_cell_angle_beta 90.000000
_cell_angle_gamma 90.000000
_cell_volume 2479.157514
_symmetry_space_group_name_H-M "P N N M"
_symmetry_group_IT_number 58
_symmetry_cell_setting 'orthorhombic'
loop_
_space_group_symop_operation_xyz
x,y,z
-x,-y,z
1/2+x,1/2-y,1/2-z
1/2-x,1/2+y,1/2-z
-x,-y,-z
x,y,-z
1/2-x,1/2+y,1/2+z
1/2+x,1/2-y,1/2+z
loop_
_atom_site_type_symbol
_atom_site_label
_atom_site_fract_x
_atom_site_fract_y
_atom_site_fract_z
Si Si1 0.722287 0.559574 0.389134
Si Si2 0.175629 0.147293 0.887827
Si Si3 0.043225 0.405847 0.616192
Si Si4 0.525641 0.603140 0.259625
Si Si5 0.889912 0.246855 0.385469
O O1 0.705387 0.586197 0.500000
O O2 0.732386 0.450817 0.376765
O O3 0.832347 0.605899 0.348783
O O4 0.620342 0.603605 0.337848
O O5 0.265477 0.224209 0.861955
O O6 0.076570 0.153470 0.810951
O O7 0.134793 0.159613 0.000000
O O8 0.036358 0.409986 0.500000
O O9 0.000000 0.500000 0.661097
O O10 0.970420 0.323990 0.656186
O O11 0.500000 0.500000 0.227051
O O12 0.571982 0.654264 0.165432
O O13 0.904878 0.232257 0.500000
#
# Coordination Sequence:
#
# PCOD8236889 Si02
#       5
#     8   8   8   8   8
#     4   9  16  29  50  73  97 119 149 201 255 289
#     4   9  17  32  50  70  96 123 155 198 250 293
#     4   9  15  27  47  71  95 119 152 198 248 287
#     4  10  21  32  47  72 100 129 164 195 236 286
#     4  10  20  32  48  69  97 132 163 194 234 287
#
# _framework density 16.134512999999998
#
# number of rings (size 3 to 8) (size 9 to 14) (size 15 to 20)
#    0.000    2.600    2.000    0.600    2.800    2.800 
#    0.000    0.000    0.000    0.000    0.000    0.000 
#    0.000    9.600    0.000    0.000    0.000    0.000 
#
# Total GULP energy -495767.034232 kJ/mol
# GULP energy per Si atom -12394.175856 kJ/mol
# Density = 1.609779 g / cm^3
# Si number density = 16.134513 Si / 1000 Ang^3
#
#
#
# Elastic Constant Matrix: (Units=GPa)
#
#
# Indices 1 2 3 4 5 6 
#
# 1 118.5046 54.3413 44.9831 0.0000 0.0000 0.0000
# 2 54.3413 75.2707 40.8768 0.0000 0.0000 0.0000
# 3 44.9831 40.8768 54.4311 0.0000 0.0000 0.0000
# 4 0.0000 0.0000 0.0000 22.9058 0.0000 0.0000
# 5 0.0000 0.0000 0.0000 0.0000 6.0594 0.0000
# 6 0.0000 0.0000 0.0000 0.0000 0.0000 24.7303
#
#
#
# Elastic Compliance Matrix: (Units=1/GPa)
#
#
# Indices 1 2 3 4 5 6 
#
# 1 0.013919 -0.006420 -0.006681 0.000000 0.000000 0.000000
# 2 -0.006420 0.025397 -0.013767 0.000000 0.000000 0.000000
# 3 -0.006681 -0.013767 0.034232 0.000000 0.000000 0.000000
# 4 0.000000 0.000000 0.000000 0.043657 0.000000 0.000000
# 5 0.000000 0.000000 0.000000 0.000000 0.165032 0.000000
# 6 0.000000 0.000000 0.000000 0.000000 0.000000 0.040436
#
#
# Mechanical properties :
#
#
# Convention : Reuss Voigt Hill
#
# Bulk Modulus (GPa) = 50.47693 58.73431 54.60562
# Shear Modulus (GPa) = 13.05444 17.93947 15.49695
#
# Velocity S-wave (km/s) = 2.84755 3.33809 3.10253
# Velocity P-wave (km/s) = 6.49341 7.16513 6.83752
#
# Compressibility (1/GPa) = 0.01981103
#
# Stress axis : x y z
#
# Youngs Moduli (GPa) = 71.84611 39.37550 29.21257
#
# Poissons Ratio (x) = 0.25280 0.19518
# Poissons Ratio (y) = 0.46126 0.40216
# Poissons Ratio (z) = 0.48002 0.54207
#
# Static dielectric constant tensor:
#      x y z
#    x 3.268230 0.000000 0.000000 
#    y 0.000000 2.939080 0.000000 
#    z 0.000000 0.000000 2.730000 
# 
# 
# High freq. dielectric constant tensor:
#      x y z
#    x 1.639620 0.000000 0.000000 
#    y 0.000000 1.601910 0.000000 
#    z 0.000000 0.000000 1.584450 
# 
# From -- ./inp_files/14079.got.cif
#   From: 2010.06.25/outbox.cif.g09.slc.cpg/sg58_8_cif.got.tgz:14079.got - 2010.06.26 21:38:00.
