data_PCOD8236181
_publ_section_title
;
Structure prediction by ZEFSAII (Michael W. Deem and Ramdas Pophale) SiO2 
 PCOD8236181
Probable space group: P N N M
;
_chemical_formula_sum "Si O2"
_cell_formula_units_Z 40
_cell_length_a 16.517160
_cell_length_b 14.385109
_cell_length_c 8.989078
_cell_angle_alpha 90.000000
_cell_angle_beta 90.000000
_cell_angle_gamma 90.000000
_cell_volume 2135.815243
_symmetry_space_group_name_H-M "P N N M"
_symmetry_group_IT_number 58
_symmetry_cell_setting 'orthorhombic'
loop_
_space_group_symop_operation_xyz
x,y,z
-x,-y,z
1/2+x,1/2-y,1/2-z
1/2-x,1/2+y,1/2-z
-x,-y,-z
x,y,-z
1/2-x,1/2+y,1/2+z
1/2+x,1/2-y,1/2+z
loop_
_atom_site_type_symbol
_atom_site_label
_atom_site_fract_x
_atom_site_fract_y
_atom_site_fract_z
Si Si1 0.619423 0.871064 0.175932
Si Si2 0.890177 0.551280 0.168193
Si Si3 0.762428 0.948652 0.331202
Si Si4 0.572243 0.433414 0.674951
Si Si5 0.016431 0.268878 0.824857
O O1 0.710688 0.868624 0.244173
O O2 0.567934 0.784678 0.238760
O O3 0.574325 0.966507 0.230983
O O4 0.624333 0.866349 0.000000
O O5 0.791533 0.543847 0.174473
O O6 0.918726 0.652202 0.223749
O O7 0.920682 0.533697 0.000000
O O8 0.776858 0.915552 0.500000
O O9 0.846974 0.969058 0.253462
O O10 0.500000 0.500000 0.727094
O O11 0.586258 0.439722 0.500000
O O12 0.552863 0.328947 0.726824
O O13 0.998737 0.269216 0.000000
#
# Coordination Sequence:
#
# PCOD8236181 Si02
#       5
#     8   8   8   8   8
#     4  10  19  32  54  86 117 140 178 232 281 323
#     4   8  17  33  55  81 111 145 178 222 279 334
#     4   9  19  37  57  78 109 147 185 226 276 331
#     4  10  22  40  59  80 111 149 190 233 276 323
#     4  10  19  35  57  81 114 152 185 221 277 339
#
# _framework density 18.728211000000002
#
# number of rings (size 3 to 8) (size 9 to 14) (size 15 to 20)
#    1.200    1.400    0.000    2.400    0.000    4.400 
#    3.600    0.000    0.000    0.000    0.000    0.000 
#    0.000    0.000    0.000    0.000    0.000    0.000 
#
# Total GULP energy -495675.186531 kJ/mol
# GULP energy per Si atom -12391.879663 kJ/mol
# Density = 1.868558 g / cm^3
# Si number density = 18.728211 Si / 1000 Ang^3
#
#
#
# Elastic Constant Matrix: (Units=GPa)
#
#
# Indices 1 2 3 4 5 6 
#
# 1 124.8150 37.2939 42.0976 0.0000 0.0000 0.0000
# 2 37.2939 78.5983 22.9567 0.0000 0.0000 0.0000
# 3 42.0976 22.9567 76.8710 0.0000 0.0000 0.0000
# 4 0.0000 0.0000 0.0000 11.2606 0.0000 0.0000
# 5 0.0000 0.0000 0.0000 0.0000 33.5247 0.0000
# 6 0.0000 0.0000 0.0000 0.0000 0.0000 16.4953
#
#
#
# Elastic Compliance Matrix: (Units=1/GPa)
#
#
# Indices 1 2 3 4 5 6 
#
# 1 0.010725 -0.003696 -0.004770 0.000000 0.000000 0.000000
# 2 -0.003696 0.015212 -0.002519 0.000000 0.000000 0.000000
# 3 -0.004770 -0.002519 0.016373 0.000000 0.000000 0.000000
# 4 0.000000 0.000000 0.000000 0.088805 0.000000 0.000000
# 5 0.000000 0.000000 0.000000 0.000000 0.029829 0.000000
# 6 0.000000 0.000000 0.000000 0.000000 0.000000 0.060623
#
#
# Mechanical properties :
#
#
# Convention : Reuss Voigt Hill
#
# Bulk Modulus (GPa) = 49.16088 53.88675 51.52382
# Shear Modulus (GPa) = 19.97468 24.11852 22.04660
#
# Velocity S-wave (km/s) = 3.26936 3.59251 3.43474
# Velocity P-wave (km/s) = 6.36854 6.78555 6.58035
#
# Compressibility (1/GPa) = 0.02034138
#
# Stress axis : x y z
#
# Youngs Moduli (GPa) = 93.24174 65.73660 61.07555
#
# Poissons Ratio (x) = 0.24294 0.29131
# Poissons Ratio (y) = 0.34459 0.15385
# Poissons Ratio (z) = 0.44473 0.16560
#
# Static dielectric constant tensor:
#      x y z
#    x 3.362340 0.000000 0.000000 
#    y 0.000000 3.267760 0.000000 
#    z 0.000000 0.000000 3.260870 
# 
# 
# High freq. dielectric constant tensor:
#      x y z
#    x 1.727390 0.000000 0.000000 
#    y 0.000000 1.695890 0.000000 
#    z 0.000000 0.000000 1.720880 
# 
# From -- ./inp_files/5373.got.cif
#   From: 2010.06.25/outbox.cif.g09.slc.cpg/sg58_3_cif.got.tgz:5373.got - 2010.06.26 21:38:00.
