data_PCOD8236318
_publ_section_title
;
Structure prediction by ZEFSAII (Michael W. Deem and Ramdas Pophale) SiO2 
 PCOD8236318
Probable space group: P N N M
;
_chemical_formula_sum "Si O2"
_cell_formula_units_Z 64
_cell_length_a 12.158273
_cell_length_b 29.292989
_cell_length_c 8.886900
_cell_angle_alpha 90.000000
_cell_angle_beta 90.000000
_cell_angle_gamma 90.000000
_cell_volume 3165.088606
_symmetry_space_group_name_H-M "P N N M"
_symmetry_group_IT_number 58
_symmetry_cell_setting 'orthorhombic'
loop_
_space_group_symop_operation_xyz
x,y,z
-x,-y,z
1/2+x,1/2-y,1/2-z
1/2-x,1/2+y,1/2-z
-x,-y,-z
x,y,-z
1/2-x,1/2+y,1/2+z
1/2+x,1/2-y,1/2+z
loop_
_atom_site_type_symbol
_atom_site_label
_atom_site_fract_x
_atom_site_fract_y
_atom_site_fract_z
Si Si1 0.046651 0.223267 0.322042
Si Si2 0.647785 0.114528 0.678426
Si Si3 0.480509 0.178479 0.177806
Si Si4 0.130180 0.843227 0.675567
Si Si5 0.037512 0.924823 0.169058
Si Si6 0.739833 0.028797 0.826606
Si Si7 0.790298 0.930438 0.828188
Si Si8 0.248121 0.664313 0.821797
O O1 0.047660 0.217161 0.500000
O O2 0.050488 0.276369 0.276024
O O3 0.151045 0.195212 0.257954
O O4 0.929951 0.202329 0.261617
O O5 0.638007 0.116929 0.500000
O O6 0.537146 0.134041 0.751145
O O7 0.749572 0.145161 0.744553
O O8 0.663556 0.061782 0.726230
O O9 0.359404 0.184362 0.243389
O O10 0.473565 0.172549 0.000000
O O11 0.147924 0.839875 0.500000
O O12 0.046294 0.883850 0.712616
O O13 0.917083 0.946146 0.187764
O O14 0.131122 0.961941 0.203810
O O15 0.053402 0.905325 0.000000
O O16 0.719315 0.975536 0.784171
O O17 0.709312 0.037612 0.000000
O O18 0.762069 0.888743 0.719732
O O19 0.764473 0.915741 0.000000
O O20 0.236239 0.668523 0.000000
#
# Coordination Sequence:
#
# PCOD8236318 Si02
#       8
#     8   8   8   8   8   8   8   8
#     4   9  20  38  60  85 115 151 188 233 291 349
#     4  10  21  37  59  86 118 153 197 245 291 344
#     4  11  24  42  63  84 114 155 198 242 293 350
#     4   9  17  33  55  81 114 152 186 228 285 341
#     4   9  16  28  49  81 118 153 189 233 281 335
#     4   9  18  33  55  83 119 159 199 241 289 347
#     4  10  19  33  55  85 119 158 199 240 291 348
#     4  11  23  41  62  87 120 153 194 244 294 347
#
# _framework density 20.220604000000002
#
# number of rings (size 3 to 8) (size 9 to 14) (size 15 to 20)
#    0.000    2.250    1.250    1.500    1.750    2.500 
#    0.000    3.750    0.000    7.500    0.000    0.000 
#    0.000    0.000    0.000    0.000    0.000    0.000 
#
# Total GULP energy -793258.565495 kJ/mol
# GULP energy per Si atom -12394.665086 kJ/mol
# Density = 2.017458 g / cm^3
# Si number density = 20.220604 Si / 1000 Ang^3
#
#
#
# Elastic Constant Matrix: (Units=GPa)
#
#
# Indices 1 2 3 4 5 6 
#
# 1 72.2639 35.7462 25.6322 0.0000 0.0000 0.0000
# 2 35.7462 105.2081 31.5970 0.0000 0.0000 0.0000
# 3 25.6322 31.5970 57.7581 0.0000 0.0000 0.0000
# 4 0.0000 0.0000 0.0000 27.7946 0.0000 0.0000
# 5 0.0000 0.0000 0.0000 0.0000 27.2473 0.0000
# 6 0.0000 0.0000 0.0000 0.0000 0.0000 22.9706
#
#
#
# Elastic Compliance Matrix: (Units=1/GPa)
#
#
# Indices 1 2 3 4 5 6 
#
# 1 0.018011 -0.004450 -0.005559 0.000000 0.000000 0.000000
# 2 -0.004450 0.012473 -0.004849 0.000000 0.000000 0.000000
# 3 -0.005559 -0.004849 0.022433 0.000000 0.000000 0.000000
# 4 0.000000 0.000000 0.000000 0.035978 0.000000 0.000000
# 5 0.000000 0.000000 0.000000 0.000000 0.036701 0.000000
# 6 0.000000 0.000000 0.000000 0.000000 0.000000 0.043534
#
#
# Mechanical properties :
#
#
# Convention : Reuss Voigt Hill
#
# Bulk Modulus (GPa) = 43.09890 46.79786 44.94838
# Shear Modulus (GPa) = 24.20383 25.08617 24.64500
#
# Velocity S-wave (km/s) = 3.46351 3.52607 3.49493
# Velocity P-wave (km/s) = 6.11188 6.30646 6.20993
#
# Compressibility (1/GPa) = 0.02320245
#
# Stress axis : x y z
#
# Youngs Moduli (GPa) = 55.52119 80.17204 44.57750
#
# Poissons Ratio (x) = 0.35678 0.24779
# Poissons Ratio (y) = 0.24708 0.21614
# Poissons Ratio (z) = 0.30862 0.38872
#
# Static dielectric constant tensor:
#      x y z
#    x 3.653480 0.000000 0.000000 
#    y 0.000000 3.711150 0.000000 
#    z 0.000000 0.000000 3.447980 
# 
# 
# High freq. dielectric constant tensor:
#      x y z
#    x 1.780120 0.000000 0.000000 
#    y 0.000000 1.790020 0.000000 
#    z 0.000000 0.000000 1.768920 
# 
# From -- ./inp_files/4731.got.cif
#   From: 2010.06.25/outbox.cif.g09.slc.cpg/sg58_3_cif.got.tgz:4731.got - 2010.06.26 21:38:00.
