data_PCOD8236380
_publ_section_title
;
Structure prediction by ZEFSAII (Michael W. Deem and Ramdas Pophale) SiO2 
 PCOD8236380
Probable space group: P N N M
;
_chemical_formula_sum "Si O2"
_cell_formula_units_Z 48
_cell_length_a 10.612281
_cell_length_b 16.415714
_cell_length_c 13.256775
_cell_angle_alpha 90.000000
_cell_angle_beta 90.000000
_cell_angle_gamma 90.000000
_cell_volume 2309.438510
_symmetry_space_group_name_H-M "P N N M"
_symmetry_group_IT_number 58
_symmetry_cell_setting 'orthorhombic'
loop_
_space_group_symop_operation_xyz
x,y,z
-x,-y,z
1/2+x,1/2-y,1/2-z
1/2-x,1/2+y,1/2-z
-x,-y,-z
x,y,-z
1/2-x,1/2+y,1/2+z
1/2+x,1/2-y,1/2+z
loop_
_atom_site_type_symbol
_atom_site_label
_atom_site_fract_x
_atom_site_fract_y
_atom_site_fract_z
Si Si1 0.466542 0.681237 0.202773
Si Si2 0.441446 0.859530 0.256271
Si Si3 0.549921 0.586388 0.386899
Si Si4 0.784209 0.365686 0.258707
Si Si5 0.722382 0.699092 0.883287
Si Si6 0.316919 0.977227 0.113982
O O1 0.439078 0.776816 0.191405
O O2 0.501937 0.660823 0.318990
O O3 0.334532 0.633350 0.179985
O O4 0.584529 0.655976 0.131825
O O5 0.583186 0.869992 0.302127
O O6 0.333583 0.860328 0.342121
O O7 0.426812 0.934296 0.178277
O O8 0.500000 0.500000 0.344804
O O9 0.497733 0.600737 0.500000
O O10 0.701079 0.586134 0.385470
O O11 0.774949 0.282785 0.322602
O O12 0.771209 0.438588 0.337734
O O13 0.746836 0.714742 0.000000
O O14 0.364154 0.993156 0.000000
#
# Coordination Sequence:
#
# PCOD8236380 Si02
#       6
#     8   8   8   8   8   8
#     4  10  20  37  58  82 117 156 197 236 279 343
#     4  10  22  36  55  84 121 159 190 232 286 355
#     4  10  19  33  58  91 119 146 186 240 297 349
#     4  10  21  36  60  88 122 148 184 241 309 351
#     4  10  21  39  60  82 115 161 204 234 275 342
#     4  11  21  35  60  93 122 147 182 240 309 359
#
# _framework density 20.784272999999999
#
# number of rings (size 3 to 8) (size 9 to 14) (size 15 to 20)
#    0.000    1.833    3.333    1.000    0.000    6.667 
#    0.000    0.833    0.000    6.500    0.000    0.000 
#    0.000    0.000    0.000    0.000    0.000    0.000 
#
# Total GULP energy -594918.181504 kJ/mol
# GULP energy per Si atom -12394.128781 kJ/mol
# Density = 2.073697 g / cm^3
# Si number density = 20.784273 Si / 1000 Ang^3
#
#
#
# Elastic Constant Matrix: (Units=GPa)
#
#
# Indices 1 2 3 4 5 6 
#
# 1 172.9831 14.6265 28.1358 0.0000 0.0000 0.0000
# 2 14.6265 68.4433 20.1764 0.0000 0.0000 0.0000
# 3 28.1358 20.1764 54.3514 0.0000 0.0000 0.0000
# 4 0.0000 0.0000 0.0000 20.7411 0.0000 0.0000
# 5 0.0000 0.0000 0.0000 0.0000 8.9358 0.0000
# 6 0.0000 0.0000 0.0000 0.0000 0.0000 29.8454
#
#
#
# Elastic Compliance Matrix: (Units=1/GPa)
#
#
# Indices 1 2 3 4 5 6 
#
# 1 0.006324 -0.000434 -0.003113 0.000000 0.000000 0.000000
# 2 -0.000434 0.016436 -0.005877 0.000000 0.000000 0.000000
# 3 -0.003113 -0.005877 0.022192 0.000000 0.000000 0.000000
# 4 0.000000 0.000000 0.000000 0.048213 0.000000 0.000000
# 5 0.000000 0.000000 0.000000 0.000000 0.111909 0.000000
# 6 0.000000 0.000000 0.000000 0.000000 0.000000 0.033506
#
#
# Mechanical properties :
#
#
# Convention : Reuss Voigt Hill
#
# Bulk Modulus (GPa) = 38.30695 46.85060 42.57877
# Shear Modulus (GPa) = 18.78798 27.42707 23.10753
#
# Velocity S-wave (km/s) = 3.00984 3.63658 3.33795
# Velocity P-wave (km/s) = 5.52717 6.34218 5.94865
#
# Compressibility (1/GPa) = 0.02610492
#
# Stress axis : x y z
#
# Youngs Moduli (GPa) = 158.13124 60.84300 45.06199
#
# Poissons Ratio (x) = 0.02640 0.14026
# Poissons Ratio (y) = 0.06861 0.26482
# Poissons Ratio (z) = 0.49220 0.35756
#
# Static dielectric constant tensor:
#      x y z
#    x 4.543330 0.000000 0.000000 
#    y 0.000000 3.598440 0.000000 
#    z 0.000000 0.000000 3.287710 
# 
# 
# High freq. dielectric constant tensor:
#      x y z
#    x 1.852340 0.000000 0.000000 
#    y 0.000000 1.798650 0.000000 
#    z 0.000000 0.000000 1.753350 
# 
# From -- ./inp_files/21150.got.cif
#   From: 2010.06.25/outbox.cif.g09.slc.cpg/sg58_11_cif.got.tgz:21150.got - 2010.06.26 21:38:00.
