data_PCOD8236424
_publ_section_title
;
Structure prediction by ZEFSAII (Michael W. Deem and Ramdas Pophale) SiO2 
 PCOD8236424
Probable space group: P N N M
;
_chemical_formula_sum "Si O2"
_cell_formula_units_Z 56
_cell_length_a 22.879625
_cell_length_b 13.598249
_cell_length_c 9.518119
_cell_angle_alpha 90.000000
_cell_angle_beta 90.000000
_cell_angle_gamma 90.000000
_cell_volume 2961.304194
_symmetry_space_group_name_H-M "P N N M"
_symmetry_group_IT_number 58
_symmetry_cell_setting 'orthorhombic'
loop_
_space_group_symop_operation_xyz
x,y,z
-x,-y,z
1/2+x,1/2-y,1/2-z
1/2-x,1/2+y,1/2-z
-x,-y,-z
x,y,-z
1/2-x,1/2+y,1/2+z
1/2+x,1/2-y,1/2+z
loop_
_atom_site_type_symbol
_atom_site_label
_atom_site_fract_x
_atom_site_fract_y
_atom_site_fract_z
Si Si1 0.113253 0.492311 0.654905
Si Si2 0.764941 0.122059 0.652370
Si Si3 0.776841 0.418695 0.779751
Si Si4 0.848542 0.230171 0.842443
Si Si5 0.680245 0.291365 0.660079
Si Si6 0.069122 0.316129 0.832505
Si Si7 0.548319 0.809282 0.837386
O O1 0.107692 0.443240 0.500000
O O2 0.178128 0.540511 0.662342
O O3 0.100135 0.415486 0.777907
O O4 0.064602 0.576534 0.670087
O O5 0.789437 0.157580 0.500000
O O6 0.813441 0.139411 0.772270
O O7 0.710049 0.187727 0.697645
O O8 0.741933 0.011707 0.628244
O O9 0.809997 0.329804 0.857711
O O10 0.713360 0.381082 0.732186
O O11 0.904223 0.244339 0.743748
O O12 0.867325 0.199454 0.000000
O O13 0.686519 0.317696 0.500000
O O14 0.612060 0.276633 0.699316
O O15 0.011529 0.293206 0.745514
O O16 0.057370 0.328054 0.000000
O O17 0.542927 0.774739 0.000000
#
# Coordination Sequence:
#
# PCOD8236424 Si02
#       7
#     8   8   8   8   8   8   8
#     4  10  20  33  52  78 108 143 182 222 272 330
#     4  10  19  35  55  77 111 147 178 219 273 325
#     4  10  19  34  55  81 111 146 181 225 268 323
#     4  10  21  35  55  84 110 140 186 228 268 324
#     4   9  19  34  51  77 111 147 180 218 274 325
#     4  11  21  34  53  78 109 145 183 226 273 324
#     4  10  21  37  54  75 107 146 183 225 276 327
#
# _framework density 18.910585999999999
#
# number of rings (size 3 to 8) (size 9 to 14) (size 15 to 20)
#    0.000    2.000    1.429    2.571    0.000    9.143 
#    0.000    2.143    0.000    0.857    0.000    5.000 
#    0.000    0.000    0.000    0.000    0.000    0.000 
#
# Total GULP energy -693744.008567 kJ/mol
# GULP energy per Si atom -12388.285867 kJ/mol
# Density = 1.886754 g / cm^3
# Si number density = 18.910586 Si / 1000 Ang^3
#
#
#
# Elastic Constant Matrix: (Units=GPa)
#
#
# Indices 1 2 3 4 5 6 
#
# 1 109.8406 31.9637 71.1298 0.0000 0.0000 0.0000
# 2 31.9637 51.0984 17.3103 0.0000 0.0000 0.0000
# 3 71.1298 17.3103 126.8029 0.0000 0.0000 0.0000
# 4 0.0000 0.0000 0.0000 10.8496 0.0000 0.0000
# 5 0.0000 0.0000 0.0000 0.0000 27.1591 0.0000
# 6 0.0000 0.0000 0.0000 0.0000 0.0000 26.6445
#
#
#
# Elastic Compliance Matrix: (Units=1/GPa)
#
#
# Indices 1 2 3 4 5 6 
#
# 1 0.016728 -0.007638 -0.008341 0.000000 0.000000 0.000000
# 2 -0.007638 0.024007 0.001007 0.000000 0.000000 0.000000
# 3 -0.008341 0.001007 0.012428 0.000000 0.000000 0.000000
# 4 0.000000 0.000000 0.000000 0.092169 0.000000 0.000000
# 5 0.000000 0.000000 0.000000 0.000000 0.036820 0.000000
# 6 0.000000 0.000000 0.000000 0.000000 0.000000 0.037531
#
#
# Mechanical properties :
#
#
# Convention : Reuss Voigt Hill
#
# Bulk Modulus (GPa) = 43.06833 58.72771 50.89802
# Shear Modulus (GPa) = 19.42754 24.08651 21.75702
#
# Velocity S-wave (km/s) = 3.20869 3.57277 3.39561
# Velocity P-wave (km/s) = 6.04580 6.93848 6.50747
#
# Compressibility (1/GPa) = 0.02321892
#
# Stress axis : x y z
#
# Youngs Moduli (GPa) = 59.77914 41.65479 80.46648
#
# Poissons Ratio (x) = 0.31818 0.67116
# Poissons Ratio (y) = 0.45662 -0.08107
# Poissons Ratio (z) = 0.49861 -0.04197
#
# Static dielectric constant tensor:
#      x y z
#    x 3.694880 0.000000 0.000000 
#    y 0.000000 3.204860 0.000000 
#    z 0.000000 0.000000 3.424100 
# 
# 
# High freq. dielectric constant tensor:
#      x y z
#    x 1.733790 0.000000 0.000000 
#    y 0.000000 1.702030 0.000000 
#    z 0.000000 0.000000 1.739230 
# 
# From -- ./inp_files/6278.got.cif
#   From: 2010.06.25/outbox.cif.g09.slc.cpg/sg58_4_cif.got.tgz:6278.got - 2010.06.26 21:38:00.
