data_PCOD8236278
_publ_section_title
;
Structure prediction by ZEFSAII (Michael W. Deem and Ramdas Pophale) SiO2 
 PCOD8236278
Probable space group: P N N M
;
_chemical_formula_sum "Si O2"
_cell_formula_units_Z 64
_cell_length_a 14.725943
_cell_length_b 24.715980
_cell_length_c 8.991882
_cell_angle_alpha 90.000000
_cell_angle_beta 90.000000
_cell_angle_gamma 90.000000
_cell_volume 3272.740337
_symmetry_space_group_name_H-M "P N N M"
_symmetry_group_IT_number 58
_symmetry_cell_setting 'orthorhombic'
loop_
_space_group_symop_operation_xyz
x,y,z
-x,-y,z
1/2+x,1/2-y,1/2-z
1/2-x,1/2+y,1/2-z
-x,-y,-z
x,y,-z
1/2-x,1/2+y,1/2+z
1/2+x,1/2-y,1/2+z
loop_
_atom_site_type_symbol
_atom_site_label
_atom_site_fract_x
_atom_site_fract_y
_atom_site_fract_z
Si Si1 0.300186 0.446738 0.826679
Si Si2 0.724248 0.844597 0.174873
Si Si3 0.662928 0.127601 0.171039
Si Si4 0.153296 0.056678 0.823316
Si Si5 0.521987 0.826391 0.171941
Si Si6 0.742220 0.736974 0.670724
Si Si7 0.534201 0.718244 0.673096
Si Si8 0.010915 0.891332 0.325928
O O1 0.208774 0.415982 0.778034
O O2 0.304823 0.500774 0.731047
O O3 0.386244 0.408931 0.791296
O O4 0.294642 0.461303 0.000000
O O5 0.779009 0.896320 0.233807
O O6 0.619041 0.849328 0.227601
O O7 0.769788 0.789935 0.236561
O O8 0.730897 0.841859 0.000000
O O9 0.553756 0.126767 0.194057
O O10 0.693200 0.187886 0.216163
O O11 0.690009 0.115153 0.000000
O O12 0.054919 0.064831 0.749703
O O13 0.142885 0.055946 0.000000
O O14 0.491952 0.773601 0.264495
O O15 0.527531 0.808734 0.000000
O O16 0.752856 0.753107 0.500000
O O17 0.640743 0.718232 0.707848
O O18 0.511536 0.712776 0.500000
O O19 0.490311 0.667174 0.756218
O O20 0.990779 0.889686 0.500000
#
# Coordination Sequence:
#
# PCOD8236278 Si02
#       8
#     8   8   8   8   8   8   8   8
#     4  11  24  41  60  84 114 150 192 240 289 342
#     4   9  20  38  57  82 115 150 191 235 284 336
#     4  10  20  36  59  86 115 151 191 233 283 337
#     4  11  24  40  60  84 112 152 195 241 290 341
#     4   9  19  36  58  84 117 153 190 233 282 337
#     4   9  18  32  53  82 115 149 184 227 280 334
#     4  10  19  33  54  83 118 151 186 228 278 336
#     4  11  23  38  57  83 115 150 189 233 285 344
#
# _framework density 19.555478000000001
#
# number of rings (size 3 to 8) (size 9 to 14) (size 15 to 20)
#    0.000    2.000    1.250    1.875    1.750    5.500 
#    0.000    0.625    0.000    3.750    0.000    0.000 
#    0.000    0.000    0.000    0.000    0.000    0.000 
#
# Total GULP energy -793821.039692 kJ/mol
# GULP energy per Si atom -12403.453745 kJ/mol
# Density = 1.951097 g / cm^3
# Si number density = 19.555478 Si / 1000 Ang^3
#
#
#
# Elastic Constant Matrix: (Units=GPa)
#
#
# Indices 1 2 3 4 5 6 
#
# 1 41.7308 21.1075 22.5401 0.0000 0.0000 0.0000
# 2 21.1075 84.0249 40.8798 0.0000 0.0000 0.0000
# 3 22.5401 40.8798 67.1612 0.0000 0.0000 0.0000
# 4 0.0000 0.0000 0.0000 36.4998 0.0000 0.0000
# 5 0.0000 0.0000 0.0000 0.0000 23.3078 0.0000
# 6 0.0000 0.0000 0.0000 0.0000 0.0000 27.3997
#
#
#
# Elastic Compliance Matrix: (Units=1/GPa)
#
#
# Indices 1 2 3 4 5 6 
#
# 1 0.030081 -0.003758 -0.007808 0.000000 0.000000 0.000000
# 2 -0.003758 0.017378 -0.009316 0.000000 0.000000 0.000000
# 3 -0.007808 -0.009316 0.023181 0.000000 0.000000 0.000000
# 4 0.000000 0.000000 0.000000 0.027397 0.000000 0.000000
# 5 0.000000 0.000000 0.000000 0.000000 0.042904 0.000000
# 6 0.000000 0.000000 0.000000 0.000000 0.000000 0.036497
#
#
# Mechanical properties :
#
#
# Convention : Reuss Voigt Hill
#
# Bulk Modulus (GPa) = 34.63207 40.21910 37.42558
# Shear Modulus (GPa) = 21.85045 24.66744 23.25894
#
# Velocity S-wave (km/s) = 3.34632 3.55548 3.45248
# Velocity P-wave (km/s) = 5.71651 6.12100 5.92221
#
# Compressibility (1/GPa) = 0.02887497
#
# Stress axis : x y z
#
# Youngs Moduli (GPa) = 33.24327 57.54462 43.13891
#
# Poissons Ratio (x) = 0.21623 0.33685
# Poissons Ratio (y) = 0.12492 0.40190
# Poissons Ratio (z) = 0.25958 0.53611
#
# Static dielectric constant tensor:
#      x y z
#    x 3.693760 0.000000 0.000000 
#    y 0.000000 3.498590 0.000000 
#    z 0.000000 0.000000 3.500960 
# 
# 
# High freq. dielectric constant tensor:
#      x y z
#    x 1.763600 0.000000 0.000000 
#    y 0.000000 1.751110 0.000000 
#    z 0.000000 0.000000 1.760520 
# 
# From -- ./inp_files/6916.got.cif
#   From: 2010.06.25/outbox.cif.g09.slc.cpg/sg58_4_cif.got.tgz:6916.got - 2010.06.26 21:38:00.
