data_PCOD8236750
_publ_section_title
;
Structure prediction by ZEFSAII (Michael W. Deem and Ramdas Pophale) SiO2 
 PCOD8236750
Probable space group: P N N M
;
_chemical_formula_sum "Si O2"
_cell_formula_units_Z 64
_cell_length_a 19.116965
_cell_length_b 9.120260
_cell_length_c 18.406136
_cell_angle_alpha 90.000000
_cell_angle_beta 90.000000
_cell_angle_gamma 90.000000
_cell_volume 3209.140940
_symmetry_space_group_name_H-M "P N N M"
_symmetry_group_IT_number 58
_symmetry_cell_setting 'orthorhombic'
loop_
_space_group_symop_operation_xyz
x,y,z
-x,-y,z
1/2+x,1/2-y,1/2-z
1/2-x,1/2+y,1/2-z
-x,-y,-z
x,y,-z
1/2-x,1/2+y,1/2+z
1/2+x,1/2-y,1/2+z
loop_
_atom_site_type_symbol
_atom_site_label
_atom_site_fract_x
_atom_site_fract_y
_atom_site_fract_z
Si Si1 0.815585 0.090738 0.790059
Si Si2 0.626721 0.951302 0.083650
Si Si3 0.712921 0.409872 0.582183
Si Si4 0.576819 0.009282 0.688919
Si Si5 0.575832 0.746688 0.800494
Si Si6 0.221973 0.128189 0.321833
Si Si7 0.919303 0.712676 0.682218
Si Si8 0.302467 0.926693 0.584337
O O1 0.883177 0.112136 0.737681
O O2 0.773570 0.236650 0.809149
O O3 0.836614 0.007488 0.865162
O O4 0.764902 0.978400 0.747148
O O5 0.584149 0.082718 0.122432
O O6 0.709677 0.979109 0.087820
O O7 0.610818 0.797276 0.123711
O O8 0.602239 0.940199 0.000000
O O9 0.684115 0.422949 0.500000
O O10 0.713433 0.240464 0.607517
O O11 0.590246 0.154365 0.736132
O O12 0.629613 0.007238 0.622785
O O13 0.500000 0.000000 0.653971
O O14 0.585396 0.873771 0.742106
O O15 0.495239 0.708804 0.819585
O O16 0.141532 0.171847 0.332766
O O17 0.239262 0.034136 0.393706
O O18 0.315683 0.938606 0.500000
#
# Coordination Sequence:
#
# PCOD8236750 Si02
#       8
#     8   8   8   8   8   8   8   8
#     4  12  22  38  63  87 121 161 205 253 311 365
#     4  10  19  36  60  88 124 164 205 252 306 370
#     4  10  22  39  62  92 124 159 206 259 313 372
#     4   9  18  37  59  84 118 161 207 254 304 370
#     4  10  21  36  56  89 122 158 207 256 303 367
#     4  12  23  36  61  88 118 161 204 251 312 369
#     4  10  21  36  57  87 122 157 209 257 300 368
#     4  11  23  39  60  92 127 160 206 262 317 373
#
# _framework density 19.943031999999999
#
# number of rings (size 3 to 8) (size 9 to 14) (size 15 to 20)
#    0.000    1.500    2.500    4.875    0.000    2.750 
#    0.000    0.000    0.000    0.000    0.000    9.625 
#    0.000    0.000    0.000    0.000    0.000    0.000 
#
# Total GULP energy -793424.353117 kJ/mol
# GULP energy per Si atom -12397.255517 kJ/mol
# Density = 1.989764 g / cm^3
# Si number density = 19.943032 Si / 1000 Ang^3
#
#
#
# Elastic Constant Matrix: (Units=GPa)
#
#
# Indices 1 2 3 4 5 6 
#
# 1 112.1303 43.3246 55.8908 0.0000 0.0000 0.0000
# 2 43.3246 95.9318 54.0011 0.0000 0.0000 0.0000
# 3 55.8908 54.0011 116.7464 0.0000 0.0000 0.0000
# 4 0.0000 0.0000 0.0000 35.5156 0.0000 0.0000
# 5 0.0000 0.0000 0.0000 0.0000 19.8493 0.0000
# 6 0.0000 0.0000 0.0000 0.0000 0.0000 29.2142
#
#
#
# Elastic Compliance Matrix: (Units=1/GPa)
#
#
# Indices 1 2 3 4 5 6 
#
# 1 0.012335 -0.003037 -0.004500 0.000000 0.000000 0.000000
# 2 -0.003037 0.014842 -0.005411 0.000000 0.000000 0.000000
# 3 -0.004500 -0.005411 0.013223 0.000000 0.000000 0.000000
# 4 0.000000 0.000000 0.000000 0.028157 0.000000 0.000000
# 5 0.000000 0.000000 0.000000 0.000000 0.050380 0.000000
# 6 0.000000 0.000000 0.000000 0.000000 0.000000 0.034230
#
#
# Mechanical properties :
#
#
# Convention : Reuss Voigt Hill
#
# Bulk Modulus (GPa) = 68.95456 70.13795 69.54626
# Shear Modulus (GPa) = 27.18919 28.35531 27.77225
#
# Velocity S-wave (km/s) = 3.69635 3.77479 3.73578
# Velocity P-wave (km/s) = 7.27105 7.36507 7.31821
#
# Compressibility (1/GPa) = 0.01450230
#
# Stress axis : x y z
#
# Youngs Moduli (GPa) = 81.07077 67.37775 75.62698
#
# Poissons Ratio (x) = 0.20466 0.34034
# Poissons Ratio (y) = 0.24625 0.40921
# Poissons Ratio (z) = 0.36483 0.36457
#
# Static dielectric constant tensor:
#      x y z
#    x 3.677710 0.000000 0.000000 
#    y 0.000000 3.685030 0.000000 
#    z 0.000000 0.000000 3.677040 
# 
# 
# High freq. dielectric constant tensor:
#      x y z
#    x 1.768120 0.000000 0.000000 
#    y 0.000000 1.773990 0.000000 
#    z 0.000000 0.000000 1.774090 
# 
# From -- ./inp_files/27520.got.cif
#   From: 2010.06.25/outbox.cif.g09.slc.cpg/sg58_14_cif.got.tgz:27520.got - 2010.06.26 21:38:00.
