data_PCOD8236458
_publ_section_title
;
Structure prediction by ZEFSAII (Michael W. Deem and Ramdas Pophale) SiO2 
 PCOD8236458
Probable space group: P N N M
;
_chemical_formula_sum "Si O2"
_cell_formula_units_Z 64
_cell_length_a 18.661780
_cell_length_b 9.174430
_cell_length_c 19.341403
_cell_angle_alpha 90.000000
_cell_angle_beta 90.000000
_cell_angle_gamma 90.000000
_cell_volume 3311.464707
_symmetry_space_group_name_H-M "P N N M"
_symmetry_group_IT_number 58
_symmetry_cell_setting 'orthorhombic'
loop_
_space_group_symop_operation_xyz
x,y,z
-x,-y,z
1/2+x,1/2-y,1/2-z
1/2-x,1/2+y,1/2-z
-x,-y,-z
x,y,-z
1/2-x,1/2+y,1/2+z
1/2+x,1/2-y,1/2+z
loop_
_atom_site_type_symbol
_atom_site_label
_atom_site_fract_x
_atom_site_fract_y
_atom_site_fract_z
Si Si1 0.684715 0.010924 0.422386
Si Si2 0.930172 0.260780 0.923035
Si Si3 0.195321 0.922101 0.879663
Si Si4 0.190240 0.206476 0.576823
Si Si5 0.011336 0.671915 0.783774
Si Si6 0.354116 0.333864 0.765067
Si Si7 0.384841 0.656582 0.211647
Si Si8 0.782691 0.768705 0.831290
O O1 0.684143 0.074352 0.500000
O O2 0.673796 0.137660 0.366796
O O3 0.620116 0.900015 0.411857
O O4 0.760226 0.933031 0.407548
O O5 0.881661 0.115655 0.914395
O O6 0.991375 0.273196 0.864192
O O7 0.964886 0.260260 0.000000
O O8 0.260506 0.850045 0.920894
O O9 0.195348 0.864639 0.801261
O O10 0.208272 0.094379 0.882102
O O11 0.156260 0.197405 0.500000
O O12 0.126860 0.210634 0.633022
O O13 0.088616 0.708512 0.751560
O O14 0.000000 0.500000 0.777027
O O15 0.953485 0.762995 0.741648
O O16 0.395170 0.481620 0.787887
O O17 0.301173 0.272249 0.824039
O O18 0.315469 0.699159 0.256306
#
# Coordination Sequence:
#
# PCOD8236458 Si02
#       8
#     8   8   8   8   8   8   8   8
#     4   9  18  33  56  86 120 150 186 235 290 352
#     4   9  19  38  58  82 123 165 194 231 288 356
#     4   9  19  31  55  89 118 147 187 234 295 342
#     4  10  19  34  56  82 114 150 184 232 297 351
#     4  11  24  37  59  86 116 155 208 246 290 343
#     4  10  21  37  56  84 119 153 193 244 295 349
#     4  11  22  37  59  85 117 153 197 248 296 350
#     4  11  20  33  61  88 118 150 192 249 295 346
#
# _framework density 19.326796000000002
#
# number of rings (size 3 to 8) (size 9 to 14) (size 15 to 20)
#    0.000    2.000    2.500    2.250    1.750    1.250 
#    0.000    0.625    0.000   13.125    0.000    0.000 
#    0.000    0.000    0.000    0.000    0.000    0.000 
#
# Total GULP energy -793595.471704 kJ/mol
# GULP energy per Si atom -12399.929245 kJ/mol
# Density = 1.928281 g / cm^3
# Si number density = 19.326796 Si / 1000 Ang^3
#
#
#
# Elastic Constant Matrix: (Units=GPa)
#
#
# Indices 1 2 3 4 5 6 
#
# 1 55.3377 30.2333 31.8233 0.0000 0.0000 0.0000
# 2 30.2333 119.2734 41.4237 0.0000 0.0000 0.0000
# 3 31.8233 41.4237 115.8350 0.0000 0.0000 0.0000
# 4 0.0000 0.0000 0.0000 20.9677 0.0000 0.0000
# 5 0.0000 0.0000 0.0000 0.0000 29.8349 0.0000
# 6 0.0000 0.0000 0.0000 0.0000 0.0000 23.1101
#
#
#
# Elastic Compliance Matrix: (Units=1/GPa)
#
#
# Indices 1 2 3 4 5 6 
#
# 1 0.023152 -0.004179 -0.004866 0.000000 0.000000 0.000000
# 2 -0.004179 0.010327 -0.002545 0.000000 0.000000 0.000000
# 3 -0.004866 -0.002545 0.010880 0.000000 0.000000 0.000000
# 4 0.000000 0.000000 0.000000 0.047692 0.000000 0.000000
# 5 0.000000 0.000000 0.000000 0.000000 0.033518 0.000000
# 6 0.000000 0.000000 0.000000 0.000000 0.000000 0.043271
#
#
# Mechanical properties :
#
#
# Convention : Reuss Voigt Hill
#
# Bulk Modulus (GPa) = 47.21542 55.26742 51.24142
# Shear Modulus (GPa) = 25.11544 27.24692 26.18118
#
# Velocity S-wave (km/s) = 3.60879 3.75880 3.68456
# Velocity P-wave (km/s) = 6.46897 6.89177 6.68371
#
# Compressibility (1/GPa) = 0.02117952
#
# Stress axis : x y z
#
# Youngs Moduli (GPa) = 43.19226 96.83165 91.91119
#
# Poissons Ratio (x) = 0.40462 0.44727
# Poissons Ratio (y) = 0.18048 0.23393
# Poissons Ratio (z) = 0.21019 0.24645
#
# Static dielectric constant tensor:
#      x y z
#    x 3.188230 0.000000 0.000000 
#    y 0.000000 3.553180 0.000000 
#    z 0.000000 0.000000 3.545430 
# 
# 
# High freq. dielectric constant tensor:
#      x y z
#    x 1.721450 0.000000 0.000000 
#    y 0.000000 1.755270 0.000000 
#    z 0.000000 0.000000 1.746220 
# 
# From -- ./inp_files/30298.got.cif
#   From: 2010.06.25/outbox.cif.g09.slc.cpg/sg58_16_cif.got.tgz:30298.got - 2010.06.26 21:38:00.
