data_PCOD8236296
_publ_section_title
;
Structure prediction by ZEFSAII (Michael W. Deem and Ramdas Pophale) SiO2 
 PCOD8236296
Probable space group: P N N M
;
_chemical_formula_sum "Si O2"
_cell_formula_units_Z 64
_cell_length_a 28.995931
_cell_length_b 12.707504
_cell_length_c 9.062346
_cell_angle_alpha 90.000000
_cell_angle_beta 90.000000
_cell_angle_gamma 90.000000
_cell_volume 3339.165558
_symmetry_space_group_name_H-M "P N N M"
_symmetry_group_IT_number 58
_symmetry_cell_setting 'orthorhombic'
loop_
_space_group_symop_operation_xyz
x,y,z
-x,-y,z
1/2+x,1/2-y,1/2-z
1/2-x,1/2+y,1/2-z
-x,-y,-z
x,y,-z
1/2-x,1/2+y,1/2+z
1/2+x,1/2-y,1/2+z
loop_
_atom_site_type_symbol
_atom_site_label
_atom_site_fract_x
_atom_site_fract_y
_atom_site_fract_z
Si Si1 0.396752 0.616626 0.324378
Si Si2 0.532868 0.797366 0.172185
Si Si3 0.201290 0.629163 0.673542
Si Si4 0.324766 0.328522 0.662697
Si Si5 0.070484 0.895573 0.166557
Si Si6 0.392043 0.027668 0.827227
Si Si7 0.059838 0.336225 0.175341
Si Si8 0.702119 0.441704 0.328579
O O1 0.393256 0.608924 0.500000
O O2 0.427962 0.516295 0.273027
O O3 0.419558 0.724560 0.270352
O O4 0.344547 0.608688 0.258236
O O5 0.539205 0.678242 0.230659
O O6 0.577131 0.869417 0.206351
O O7 0.490270 0.852022 0.254565
O O8 0.521848 0.792067 0.000000
O O9 0.204464 0.619077 0.500000
O O10 0.189690 0.748143 0.712381
O O11 0.159916 0.553047 0.726990
O O12 0.250715 0.600299 0.746731
O O13 0.312107 0.284641 0.500000
O O14 0.378494 0.350737 0.669453
O O15 0.296695 0.433882 0.695736
O O16 0.050184 0.891636 0.000000
O O17 0.407477 0.928673 0.731607
O O18 0.394786 0.999051 0.000000
O O19 0.056192 0.341378 0.000000
O O20 0.702298 0.412196 0.500000
#
# Coordination Sequence:
#
# PCOD8236296 Si02
#       8
#     8   8   8   8   8   8   8   8
#     4   8  17  35  55  79 110 142 176 223 275 319
#     4  11  22  37  56  79 110 143 180 224 274 325
#     4  10  19  33  55  80 106 141 180 216 265 329
#     4   9  17  31  52  77 104 134 173 221 263 305
#     4   9  17  33  58  80 103 137 178 222 266 316
#     4  10  22  38  53  75 110 146 178 220 274 324
#     4  11  23  37  56  80 108 143 185 226 269 322
#     4   8  16  32  54  78 106 142 177 212 266 325
#
# _framework density 19.166466
#
# number of rings (size 3 to 8) (size 9 to 14) (size 15 to 20)
#    0.000    2.500    1.250    2.625    0.000    4.500 
#    0.000    4.375    0.000    3.000    0.000    0.000 
#    0.000    0.000    0.000    0.000    0.000    0.000 
#
# Total GULP energy -793392.941045 kJ/mol
# GULP energy per Si atom -12396.764704 kJ/mol
# Density = 1.912284 g / cm^3
# Si number density = 19.166466 Si / 1000 Ang^3
#
#
#
# Elastic Constant Matrix: (Units=GPa)
#
#
# Indices 1 2 3 4 5 6 
#
# 1 59.9520 18.7718 21.7016 0.0000 0.0000 0.0000
# 2 18.7718 83.9829 28.3794 0.0000 0.0000 0.0000
# 3 21.7016 28.3794 39.8426 0.0000 0.0000 0.0000
# 4 0.0000 0.0000 0.0000 21.0476 0.0000 0.0000
# 5 0.0000 0.0000 0.0000 0.0000 19.7958 0.0000
# 6 0.0000 0.0000 0.0000 0.0000 0.0000 22.1850
#
#
#
# Elastic Compliance Matrix: (Units=1/GPa)
#
#
# Indices 1 2 3 4 5 6 
#
# 1 0.020851 -0.001084 -0.010585 0.000000 0.000000 0.000000
# 2 -0.001084 0.015738 -0.010620 0.000000 0.000000 0.000000
# 3 -0.010585 -0.010620 0.038429 0.000000 0.000000 0.000000
# 4 0.000000 0.000000 0.000000 0.047511 0.000000 0.000000
# 5 0.000000 0.000000 0.000000 0.000000 0.050516 0.000000
# 6 0.000000 0.000000 0.000000 0.000000 0.000000 0.045076
#
#
# Mechanical properties :
#
#
# Convention : Reuss Voigt Hill
#
# Bulk Modulus (GPa) = 32.85118 35.72035 34.28577
# Shear Modulus (GPa) = 18.32545 20.26734 19.29639
#
# Velocity S-wave (km/s) = 3.09547 3.25535 3.17642
# Velocity P-wave (km/s) = 5.47294 5.72775 5.60180
#
# Compressibility (1/GPa) = 0.03044030
#
# Stress axis : x y z
#
# Youngs Moduli (GPa) = 47.95922 63.54046 26.02218
#
# Poissons Ratio (x) = 0.06885 0.27545
# Poissons Ratio (y) = 0.05197 0.27635
# Poissons Ratio (z) = 0.50767 0.67478
#
# Static dielectric constant tensor:
#      x y z
#    x 3.796700 0.000000 0.000000 
#    y 0.000000 3.619160 0.000000 
#    z 0.000000 0.000000 3.223330 
# 
# 
# High freq. dielectric constant tensor:
#      x y z
#    x 1.752160 0.000000 0.000000 
#    y 0.000000 1.748300 0.000000 
#    z 0.000000 0.000000 1.711260 
# 
# From -- ./inp_files/11072.got.cif
#   From: 2010.06.25/outbox.cif.g09.slc.cpg/sg58_6_cif.got.tgz:11072.got - 2010.06.26 21:38:00.
