data_PCOD8236406
_publ_section_title
;
Structure prediction by ZEFSAII (Michael W. Deem and Ramdas Pophale) SiO2 
 PCOD8236406
Probable space group: P N N M
;
_chemical_formula_sum "Si O2"
_cell_formula_units_Z 40
_cell_length_a 25.871940
_cell_length_b 9.699912
_cell_length_c 8.390273
_cell_angle_alpha 90.000000
_cell_angle_beta 90.000000
_cell_angle_gamma 90.000000
_cell_volume 2105.585502
_symmetry_space_group_name_H-M "P N N M"
_symmetry_group_IT_number 58
_symmetry_cell_setting 'orthorhombic'
loop_
_space_group_symop_operation_xyz
x,y,z
-x,-y,z
1/2+x,1/2-y,1/2-z
1/2-x,1/2+y,1/2-z
-x,-y,-z
x,y,-z
1/2-x,1/2+y,1/2+z
1/2+x,1/2-y,1/2+z
loop_
_atom_site_type_symbol
_atom_site_label
_atom_site_fract_x
_atom_site_fract_y
_atom_site_fract_z
Si Si1 0.642150 0.197941 0.684089
Si Si2 0.138054 0.718850 0.311610
Si Si3 0.777877 0.494891 0.314101
Si Si4 0.558578 0.003622 0.810931
Si Si5 0.834514 0.984783 0.314358
O O1 0.653417 0.170077 0.500000
O O2 0.639977 0.360561 0.717246
O O3 0.688983 0.133446 0.786196
O O4 0.587171 0.133472 0.732460
O O5 0.140645 0.723111 0.500000
O O6 0.188241 0.634526 0.252425
O O7 0.086254 0.638866 0.256432
O O8 0.139236 0.874760 0.246060
O O9 0.763547 0.483356 0.500000
O O10 0.726679 0.496151 0.209718
O O11 0.500000 0.000000 0.748638
O O12 0.561418 0.022271 0.000000
O O13 0.846433 0.964301 0.500000
#
# Coordination Sequence:
#
# PCOD8236406 Si02
#       5
#     8   8   8   8   8
#     4  11  22  35  51  76 109 143 179 214 254 311
#     4   8  17  32  51  76 102 129 167 215 261 310
#     4  10  19  34  54  77 106 140 179 217 258 311
#     4   9  18  37  62  80  96 127 174 226 277 325
#     4  11  20  32  51  77 110 142 172 212 262 310
#
# _framework density 18.997091999999999
#
# number of rings (size 3 to 8) (size 9 to 14) (size 15 to 20)
#    0.000    2.200    0.000    5.400    0.000    2.000 
#    0.000   10.000    0.000    6.000    0.000    0.000 
#    0.000    0.000    0.000    0.000    0.000    0.000 
#
# Total GULP energy -496023.075438 kJ/mol
# GULP energy per Si atom -12400.576886 kJ/mol
# Density = 1.895385 g / cm^3
# Si number density = 18.997092 Si / 1000 Ang^3
#
#
#
# Elastic Constant Matrix: (Units=GPa)
#
#
# Indices 1 2 3 4 5 6 
#
# 1 123.0025 65.2136 12.8767 0.0000 0.0000 0.0000
# 2 65.2136 158.9370 13.3785 0.0000 0.0000 0.0000
# 3 12.8767 13.3785 43.1325 0.0000 0.0000 0.0000
# 4 0.0000 0.0000 0.0000 19.0875 0.0000 0.0000
# 5 0.0000 0.0000 0.0000 0.0000 23.0809 0.0000
# 6 0.0000 0.0000 0.0000 0.0000 0.0000 10.9653
#
#
#
# Elastic Compliance Matrix: (Units=1/GPa)
#
#
# Indices 1 2 3 4 5 6 
#
# 1 0.010532 -0.004166 -0.001852 0.000000 0.000000 0.000000
# 2 -0.004166 0.008108 -0.001271 0.000000 0.000000 0.000000
# 3 -0.001852 -0.001271 0.024132 0.000000 0.000000 0.000000
# 4 0.000000 0.000000 0.000000 0.052390 0.000000 0.000000
# 5 0.000000 0.000000 0.000000 0.000000 0.043326 0.000000
# 6 0.000000 0.000000 0.000000 0.000000 0.000000 0.091197
#
#
# Mechanical properties :
#
#
# Convention : Reuss Voigt Hill
#
# Bulk Modulus (GPa) = 35.46888 56.44551 45.95719
# Shear Modulus (GPa) = 19.71133 26.20028 22.95580
#
# Velocity S-wave (km/s) = 3.22467 3.71775 3.47995
# Velocity P-wave (km/s) = 5.70753 6.94306 6.35539
#
# Compressibility (1/GPa) = 0.02819373
#
# Stress axis : x y z
#
# Youngs Moduli (GPa) = 94.94542 123.33465 41.43930
#
# Poissons Ratio (x) = 0.51377 0.07676
# Poissons Ratio (y) = 0.39551 0.05268
# Poissons Ratio (z) = 0.17586 0.15679
#
# Static dielectric constant tensor:
#      x y z
#    x 3.410520 0.000000 0.000000 
#    y 0.000000 3.830800 0.000000 
#    z 0.000000 0.000000 3.235800 
# 
# 
# High freq. dielectric constant tensor:
#      x y z
#    x 1.718590 0.000000 0.000000 
#    y 0.000000 1.746210 0.000000 
#    z 0.000000 0.000000 1.724340 
# 
# From -- ./inp_files/2403.got.cif
#   From: 2010.06.25/outbox.cif.g09.slc.cpg/sg58_2_cif.got.tgz:2403.got - 2010.06.26 21:38:00.
