data_PCOD8236901
_publ_section_title
;
Structure prediction by ZEFSAII (Michael W. Deem and Ramdas Pophale) SiO2 
 PCOD8236901
Probable space group: P N N M
;
_chemical_formula_sum "Si O2"
_cell_formula_units_Z 64
_cell_length_a 19.926193
_cell_length_b 19.732941
_cell_length_c 9.104734
_cell_angle_alpha 90.000000
_cell_angle_beta 90.000000
_cell_angle_gamma 90.000000
_cell_volume 3580.003177
_symmetry_space_group_name_H-M "P N N M"
_symmetry_group_IT_number 58
_symmetry_cell_setting 'orthorhombic'
loop_
_space_group_symop_operation_xyz
x,y,z
-x,-y,z
1/2+x,1/2-y,1/2-z
1/2-x,1/2+y,1/2-z
-x,-y,-z
x,y,-z
1/2-x,1/2+y,1/2+z
1/2+x,1/2-y,1/2+z
loop_
_atom_site_type_symbol
_atom_site_label
_atom_site_fract_x
_atom_site_fract_y
_atom_site_fract_z
Si Si1 0.328038 0.559481 0.830876
Si Si2 0.337377 0.938676 0.828000
Si Si3 0.801691 0.408660 0.327708
Si Si4 0.911401 0.323492 0.172649
Si Si5 0.021830 0.071906 0.673326
Si Si6 0.417793 0.317305 0.172784
Si Si7 0.292287 0.407236 0.167959
Si Si8 0.527688 0.071995 0.328314
O O1 0.274455 0.597422 0.728807
O O2 0.401006 0.587895 0.786910
O O3 0.328213 0.478949 0.802364
O O4 0.310726 0.575233 0.000000
O O5 0.273216 0.897675 0.768343
O O6 0.404217 0.909056 0.755330
O O7 0.330676 0.017700 0.785757
O O8 0.341510 0.927106 0.000000
O O9 0.803225 0.395104 0.500000
O O10 0.844736 0.351640 0.248236
O O11 0.927690 0.250299 0.235559
O O12 0.973937 0.371085 0.211726
O O13 0.898666 0.319902 0.000000
O O14 0.011460 0.066742 0.500000
O O15 0.974920 0.131863 0.733170
O O16 0.000000 0.000000 0.744104
O O17 0.344813 0.348475 0.206789
O O18 0.426190 0.302544 0.000000
O O19 0.268640 0.402326 0.000000
O O20 0.543831 0.068480 0.500000
O O21 0.500000 0.000000 0.271381
#
# Coordination Sequence:
#
# PCOD8236901 Si02
#       8
#     8   8   8   8   8   8   8   8
#     4   9  16  29  54  83 108 137 179 224 263 309
#     4  10  20  32  53  83 111 136 172 227 277 316
#     4  10  20  34  52  78 110 141 176 221 273 324
#     4  11  23  38  56  78 107 144 183 225 275 333
#     4   9  15  29  55  85 111 140 183 226 262 313
#     4  10  20  35  56  82 112 146 182 224 273 324
#     4   9  17  31  53  79 108 142 178 217 263 319
#     4  10  20  36  57  79 104 140 186 229 272 330
#
# _framework density 17.877078000000001
#
# number of rings (size 3 to 8) (size 9 to 14) (size 15 to 20)
#    0.000    2.250    2.500    1.125    0.000    2.750 
#    0.000    1.875    0.000    3.750    0.000    0.000 
#    0.000    0.000    0.000    0.000    0.000    0.000 
#
# Total GULP energy -793768.305272 kJ/mol
# GULP energy per Si atom -12402.629770 kJ/mol
# Density = 1.783639 g / cm^3
# Si number density = 17.877078 Si / 1000 Ang^3
#
#
#
# Elastic Constant Matrix: (Units=GPa)
#
#
# Indices 1 2 3 4 5 6 
#
# 1 129.6162 67.2531 56.2242 0.0000 0.0000 0.0000
# 2 67.2531 109.4739 46.7382 0.0000 0.0000 0.0000
# 3 56.2242 46.7382 63.8406 0.0000 0.0000 0.0000
# 4 0.0000 0.0000 0.0000 26.1578 0.0000 0.0000
# 5 0.0000 0.0000 0.0000 0.0000 17.7810 0.0000
# 6 0.0000 0.0000 0.0000 0.0000 0.0000 25.3691
#
#
#
# Elastic Compliance Matrix: (Units=1/GPa)
#
#
# Indices 1 2 3 4 5 6 
#
# 1 0.014074 -0.004879 -0.008823 0.000000 0.000000 0.000000
# 2 -0.004879 0.014980 -0.006669 0.000000 0.000000 0.000000
# 3 -0.008823 -0.006669 0.028317 0.000000 0.000000 0.000000
# 4 0.000000 0.000000 0.000000 0.038230 0.000000 0.000000
# 5 0.000000 0.000000 0.000000 0.000000 0.056240 0.000000
# 6 0.000000 0.000000 0.000000 0.000000 0.000000 0.039418
#
#
# Mechanical properties :
#
#
# Convention : Reuss Voigt Hill
#
# Bulk Modulus (GPa) = 60.14143 71.48464 65.81304
# Shear Modulus (GPa) = 21.04888 22.70927 21.87907
#
# Velocity S-wave (km/s) = 3.43508 3.56799 3.50217
# Velocity P-wave (km/s) = 7.03191 7.55299 7.29710
#
# Compressibility (1/GPa) = 0.01662747
#
# Stress axis : x y z
#
# Youngs Moduli (GPa) = 71.05409 66.75790 35.31473
#
# Poissons Ratio (x) = 0.32573 0.31157
# Poissons Ratio (y) = 0.34669 0.23553
# Poissons Ratio (z) = 0.62688 0.44524
#
# Static dielectric constant tensor:
#      x y z
#    x 3.390950 0.000000 0.000000 
#    y 0.000000 3.128170 0.000000 
#    z 0.000000 0.000000 3.136070 
# 
# 
# High freq. dielectric constant tensor:
#      x y z
#    x 1.704440 0.000000 0.000000 
#    y 0.000000 1.668020 0.000000 
#    z 0.000000 0.000000 1.678600 
# 
# From -- ./inp_files/8412.got.cif
#   From: 2010.06.25/outbox.cif.g09.slc.cpg/sg58_5_cif.got.tgz:8412.got - 2010.06.26 21:38:00.
