data_PCOD8236992
_publ_section_title
;
Structure prediction by ZEFSAII (Michael W. Deem and Ramdas Pophale) SiO2 
 PCOD8236992
Probable space group: P N N M
;
_chemical_formula_sum "Si O2"
_cell_formula_units_Z 64
_cell_length_a 11.785221
_cell_length_b 11.457017
_cell_length_c 24.513878
_cell_angle_alpha 90.000000
_cell_angle_beta 90.000000
_cell_angle_gamma 90.000000
_cell_volume 3309.949051
_symmetry_space_group_name_H-M "P N N M"
_symmetry_group_IT_number 58
_symmetry_cell_setting 'orthorhombic'
loop_
_space_group_symop_operation_xyz
x,y,z
-x,-y,z
1/2+x,1/2-y,1/2-z
1/2-x,1/2+y,1/2-z
-x,-y,-z
x,y,-z
1/2-x,1/2+y,1/2+z
1/2+x,1/2-y,1/2+z
loop_
_atom_site_type_symbol
_atom_site_label
_atom_site_fract_x
_atom_site_fract_y
_atom_site_fract_z
Si Si1 0.259438 0.452484 0.196425
Si Si2 0.913497 0.397458 0.561283
Si Si3 0.447818 0.805410 0.267358
Si Si4 0.684979 0.408952 0.297242
Si Si5 0.466004 0.305892 0.560521
Si Si6 0.100619 0.733628 0.669120
Si Si7 0.164130 0.031428 0.912930
Si Si8 0.913448 0.403328 0.138869
O O1 0.160044 0.390972 0.231538
O O2 0.329252 0.526322 0.240107
O O3 0.347484 0.363383 0.169031
O O4 0.209032 0.534962 0.148030
O O5 0.937550 0.348888 0.500000
O O6 0.929218 0.296170 0.606357
O O7 0.787236 0.447984 0.562706
O O8 0.000000 0.500000 0.576188
O O9 0.413224 0.687578 0.298156
O O10 0.486973 0.779128 0.205475
O O11 0.550424 0.861638 0.300961
O O12 0.809133 0.354537 0.304949
O O13 0.663819 0.495007 0.348090
O O14 0.472824 0.252460 0.500000
O O15 0.591123 0.349731 0.577908
O O16 0.385462 0.418621 0.558039
O O17 0.411200 0.206093 0.598335
O O18 0.000000 0.500000 0.115093
#
# Coordination Sequence:
#
# PCOD8236992 Si02
#       8
#     8   8   8   8   8   8   8   8
#     4  10  22  36  55  86 118 154 191 235 294 359
#     4  10  22  40  60  84 114 155 204 251 294 340
#     4  10  20  36  55  81 117 150 186 239 288 351
#     4  10  20  33  58  86 114 152 189 229 294 352
#     4  11  22  37  60  89 119 155 191 241 305 353
#     4  10  22  35  57  87 115 151 195 236 294 348
#     4  10  21  36  61  90 121 149 192 250 298 353
#     4  10  21  38  56  78 119 154 188 234 282 353
#
# _framework density 19.335643999999998
#
# number of rings (size 3 to 8) (size 9 to 14) (size 15 to 20)
#    0.000    1.875    2.500    1.500    7.000    0.750 
#    0.000    0.625    0.000    0.000    0.000    1.750 
#    0.000    0.000    0.000    0.000    0.000    0.000 
#
# Total GULP energy -793467.148052 kJ/mol
# GULP energy per Si atom -12397.924188 kJ/mol
# Density = 1.929164 g / cm^3
# Si number density = 19.335644 Si / 1000 Ang^3
#
#
#
# Elastic Constant Matrix: (Units=GPa)
#
#
# Indices 1 2 3 4 5 6 
#
# 1 63.7392 25.5621 19.4273 0.0000 0.0000 0.0000
# 2 25.5621 95.5497 47.9681 0.0000 0.0000 0.0000
# 3 19.4273 47.9681 108.9928 0.0000 0.0000 0.0000
# 4 0.0000 0.0000 0.0000 27.6272 0.0000 0.0000
# 5 0.0000 0.0000 0.0000 0.0000 16.7654 0.0000
# 6 0.0000 0.0000 0.0000 0.0000 0.0000 20.6966
#
#
#
# Elastic Compliance Matrix: (Units=1/GPa)
#
#
# Indices 1 2 3 4 5 6 
#
# 1 0.017734 -0.004053 -0.001377 0.000000 0.000000 0.000000
# 2 -0.004053 0.014360 -0.005598 0.000000 0.000000 0.000000
# 3 -0.001377 -0.005598 0.011884 0.000000 0.000000 0.000000
# 4 0.000000 0.000000 0.000000 0.036196 0.000000 0.000000
# 5 0.000000 0.000000 0.000000 0.000000 0.059647 0.000000
# 6 0.000000 0.000000 0.000000 0.000000 0.000000 0.048317
#
#
# Mechanical properties :
#
#
# Convention : Reuss Voigt Hill
#
# Bulk Modulus (GPa) = 45.61492 50.46630 48.04061
# Shear Modulus (GPa) = 22.98839 24.70612 23.84725
#
# Velocity S-wave (km/s) = 3.45180 3.57844 3.51569
# Velocity P-wave (km/s) = 6.28720 6.57499 6.43270
#
# Compressibility (1/GPa) = 0.02192265
#
# Stress axis : x y z
#
# Youngs Moduli (GPa) = 56.38845 69.63738 84.14748
#
# Poissons Ratio (x) = 0.28224 0.11590
# Poissons Ratio (y) = 0.22854 0.47102
# Poissons Ratio (z) = 0.07766 0.38980
#
# Static dielectric constant tensor:
#      x y z
#    x 3.449900 0.000000 0.000000 
#    y 0.000000 3.496200 0.000000 
#    z 0.000000 0.000000 3.441490 
# 
# 
# High freq. dielectric constant tensor:
#      x y z
#    x 1.744390 0.000000 0.000000 
#    y 0.000000 1.741930 0.000000 
#    z 0.000000 0.000000 1.746420 
# 
# From -- ./inp_files/32058.got.cif
#   From: 2010.06.25/outbox.cif.g09.slc.cpg/sg58_17_cif.got.tgz:32058.got - 2010.06.26 21:38:00.
