data_PCOD8236276
_publ_section_title
;
Structure prediction by ZEFSAII (Michael W. Deem and Ramdas Pophale) SiO2 
 PCOD8236276
Probable space group: P N N M
;
_chemical_formula_sum "Si O2"
_cell_formula_units_Z 64
_cell_length_a 12.738831
_cell_length_b 28.998859
_cell_length_c 8.769560
_cell_angle_alpha 90.000000
_cell_angle_beta 90.000000
_cell_angle_gamma 90.000000
_cell_volume 3239.576875
_symmetry_space_group_name_H-M "P N N M"
_symmetry_group_IT_number 58
_symmetry_cell_setting 'orthorhombic'
loop_
_space_group_symop_operation_xyz
x,y,z
-x,-y,z
1/2+x,1/2-y,1/2-z
1/2-x,1/2+y,1/2-z
-x,-y,-z
x,y,-z
1/2-x,1/2+y,1/2+z
1/2+x,1/2-y,1/2+z
loop_
_atom_site_type_symbol
_atom_site_label
_atom_site_fract_x
_atom_site_fract_y
_atom_site_fract_z
Si Si1 0.624345 0.394585 0.180259
Si Si2 0.882537 0.697364 0.326885
Si Si3 0.552239 0.107042 0.678410
Si Si4 0.099161 0.925607 0.677954
Si Si5 0.150547 0.833240 0.826823
Si Si6 0.042929 0.203249 0.679645
Si Si7 0.292662 0.964811 0.179630
Si Si8 0.836123 0.440225 0.819690
O O1 0.522628 0.424733 0.234472
O O2 0.612405 0.341146 0.231008
O O3 0.731828 0.415430 0.248657
O O4 0.629856 0.397010 0.000000
O O5 0.921073 0.689572 0.500000
O O6 0.943419 0.660976 0.220794
O O7 0.759201 0.692478 0.311650
O O8 0.901795 0.749496 0.272647
O O9 0.571606 0.099870 0.500000
O O10 0.643471 0.080264 0.768248
O O11 0.437734 0.089032 0.727664
O O12 0.105807 0.936874 0.500000
O O13 0.148900 0.875863 0.711014
O O14 0.170981 0.963113 0.764657
O O15 0.064296 0.796480 0.774623
O O16 0.130725 0.850501 0.000000
O O17 0.019216 0.200335 0.500000
O O18 0.349065 0.009500 0.247498
O O19 0.294301 0.967134 0.000000
O O20 0.828063 0.445861 0.000000
#
# Coordination Sequence:
#
# PCOD8236276 Si02
#       8
#     8   8   8   8   8   8   8   8
#     4   8  17  36  60  83 112 151 193 236 286 340
#     4  10  21  36  57  84 116 151 190 238 294 345
#     4  11  23  38  60  86 114 150 198 245 286 346
#     4  10  19  35  61  86 111 148 192 236 281 342
#     4  10  19  33  54  82 113 148 187 238 289 334
#     4   9  19  36  57  82 113 154 193 230 285 350
#     4  12  24  38  58  85 117 153 192 240 297 348
#     4  10  22  40  60  84 115 152 195 240 288 349
#
# _framework density 19.755666000000002
#
# number of rings (size 3 to 8) (size 9 to 14) (size 15 to 20)
#    0.000    2.000    1.250    3.375    0.000    5.000 
#    0.000    8.125    0.000    1.500    0.000    0.000 
#    0.000    0.000    0.000    0.000    0.000    0.000 
#
# Total GULP energy -793576.578478 kJ/mol
# GULP energy per Si atom -12399.634039 kJ/mol
# Density = 1.971070 g / cm^3
# Si number density = 19.755666 Si / 1000 Ang^3
#
#
#
# Elastic Constant Matrix: (Units=GPa)
#
#
# Indices 1 2 3 4 5 6 
#
# 1 103.7513 29.0807 25.0701 0.0000 0.0000 0.0000
# 2 29.0807 66.3842 11.5638 0.0000 0.0000 0.0000
# 3 25.0701 11.5638 33.2136 0.0000 0.0000 0.0000
# 4 0.0000 0.0000 0.0000 29.1162 0.0000 0.0000
# 5 0.0000 0.0000 0.0000 0.0000 16.7365 0.0000
# 6 0.0000 0.0000 0.0000 0.0000 0.0000 29.6201
#
#
#
# Elastic Compliance Matrix: (Units=1/GPa)
#
#
# Indices 1 2 3 4 5 6 
#
# 1 0.012790 -0.004174 -0.008201 0.000000 0.000000 0.000000
# 2 -0.004174 0.017399 -0.002907 0.000000 0.000000 0.000000
# 3 -0.008201 -0.002907 0.037310 0.000000 0.000000 0.000000
# 4 0.000000 0.000000 0.000000 0.034345 0.000000 0.000000
# 5 0.000000 0.000000 0.000000 0.000000 0.059750 0.000000
# 6 0.000000 0.000000 0.000000 0.000000 0.000000 0.033761
#
#
# Mechanical properties :
#
#
# Convention : Reuss Voigt Hill
#
# Bulk Modulus (GPa) = 27.07439 37.19759 32.13599
# Shear Modulus (GPa) = 20.98809 24.27020 22.62914
#
# Velocity S-wave (km/s) = 3.26296 3.50883 3.38812
# Velocity P-wave (km/s) = 5.28491 5.94016 5.62209
#
# Compressibility (1/GPa) = 0.03693527
#
# Stress axis : x y z
#
# Youngs Moduli (GPa) = 78.18557 57.47512 26.80233
#
# Poissons Ratio (x) = 0.23992 0.21980
# Poissons Ratio (y) = 0.32638 0.07791
# Poissons Ratio (z) = 0.64118 0.16707
#
# Static dielectric constant tensor:
#      x y z
#    x 3.915640 0.000000 0.000000 
#    y 0.000000 3.600910 0.000000 
#    z 0.000000 0.000000 3.487960 
# 
# 
# High freq. dielectric constant tensor:
#      x y z
#    x 1.777360 0.000000 0.000000 
#    y 0.000000 1.766900 0.000000 
#    z 0.000000 0.000000 1.754340 
# 
# From -- ./inp_files/4775.got.cif
#   From: 2010.06.25/outbox.cif.g09.slc.cpg/sg58_3_cif.got.tgz:4775.got - 2010.06.26 21:38:00.
