data_PCOD8236972
_publ_section_title
;
Structure prediction by ZEFSAII (Michael W. Deem and Ramdas Pophale) SiO2 
 PCOD8236972
Probable space group: P N N M
;
_chemical_formula_sum "Si O2"
_cell_formula_units_Z 64
_cell_length_a 12.965557
_cell_length_b 26.962452
_cell_length_c 9.133548
_cell_angle_alpha 90.000000
_cell_angle_beta 90.000000
_cell_angle_gamma 90.000000
_cell_volume 3192.935013
_symmetry_space_group_name_H-M "P N N M"
_symmetry_group_IT_number 58
_symmetry_cell_setting 'orthorhombic'
loop_
_space_group_symop_operation_xyz
x,y,z
-x,-y,z
1/2+x,1/2-y,1/2-z
1/2-x,1/2+y,1/2-z
-x,-y,-z
x,y,-z
1/2-x,1/2+y,1/2+z
1/2+x,1/2-y,1/2+z
loop_
_atom_site_type_symbol
_atom_site_label
_atom_site_fract_x
_atom_site_fract_y
_atom_site_fract_z
Si Si1 0.670997 0.284691 0.662106
Si Si2 0.366896 0.266915 0.827655
Si Si3 0.503471 0.093137 0.328088
Si Si4 0.593762 0.376234 0.170231
Si Si5 0.639728 0.620743 0.172028
Si Si6 0.197741 0.449861 0.674946
Si Si7 0.018978 0.295872 0.839151
Si Si8 0.222604 0.551683 0.171819
O O1 0.673742 0.308478 0.500000
O O2 0.784587 0.274518 0.725396
O O3 0.607098 0.322095 0.761101
O O4 0.632329 0.227435 0.649712
O O5 0.345968 0.322755 0.773830
O O6 0.470289 0.246437 0.759760
O O7 0.378965 0.268057 0.000000
O O8 0.529436 0.087848 0.500000
O O9 0.583179 0.059408 0.238570
O O10 0.519901 0.149315 0.270768
O O11 0.386466 0.077673 0.293952
O O12 0.478596 0.396493 0.205251
O O13 0.683060 0.413439 0.224460
O O14 0.606188 0.367238 0.000000
O O15 0.719377 0.589407 0.267083
O O16 0.665321 0.614079 0.000000
O O17 0.193856 0.448406 0.500000
O O18 0.234336 0.503156 0.730633
O O19 0.966323 0.299255 0.000000
O O20 0.231886 0.538410 0.000000
#
# Coordination Sequence:
#
# PCOD8236972 Si02
#       8
#     8   8   8   8   8   8   8   8
#     4  10  20  33  53  83 122 159 189 232 293 346
#     4  10  20  35  56  84 118 158 197 237 286 342
#     4  10  21  40  64  89 122 161 201 247 301 366
#     4  10  21  39  64  90 117 156 205 249 289 353
#     4  10  21  40  63  86 121 162 202 247 294 356
#     4  12  26  41  61  89 119 155 202 257 312 362
#     4  10  20  35  57  86 118 154 192 233 285 344
#     4  10  22  41  65  90 116 154 203 253 308 363
#
# _framework density 20.044253999999999
#
# number of rings (size 3 to 8) (size 9 to 14) (size 15 to 20)
#    0.000    1.750    1.250    3.000    0.000    8.000 
#    0.000    3.750    0.000    0.000    0.000    0.000 
#    0.000    0.000    0.000    0.000    0.000    0.000 
#
# Total GULP energy -793318.061181 kJ/mol
# GULP energy per Si atom -12395.594706 kJ/mol
# Density = 1.999863 g / cm^3
# Si number density = 20.044254 Si / 1000 Ang^3
#
#
#
# Elastic Constant Matrix: (Units=GPa)
#
#
# Indices 1 2 3 4 5 6 
#
# 1 73.4719 11.3132 32.0489 0.0000 0.0000 0.0000
# 2 11.3132 84.3062 31.1211 0.0000 0.0000 0.0000
# 3 32.0489 31.1211 55.2569 0.0000 0.0000 0.0000
# 4 0.0000 0.0000 0.0000 24.8571 0.0000 0.0000
# 5 0.0000 0.0000 0.0000 0.0000 21.5541 0.0000
# 6 0.0000 0.0000 0.0000 0.0000 0.0000 35.2811
#
#
#
# Elastic Compliance Matrix: (Units=1/GPa)
#
#
# Indices 1 2 3 4 5 6 
#
# 1 0.018449 0.001861 -0.011749 0.000000 0.000000 0.000000
# 2 0.001861 0.015163 -0.009619 0.000000 0.000000 0.000000
# 3 -0.011749 -0.009619 0.030329 0.000000 0.000000 0.000000
# 4 0.000000 0.000000 0.000000 0.040230 0.000000 0.000000
# 5 0.000000 0.000000 0.000000 0.000000 0.046395 0.000000
# 6 0.000000 0.000000 0.000000 0.000000 0.000000 0.028344
#
#
# Mechanical properties :
#
#
# Convention : Reuss Voigt Hill
#
# Bulk Modulus (GPa) = 40.11644 40.22237 40.16941
# Shear Modulus (GPa) = 22.10128 25.57526 23.83827
#
# Velocity S-wave (km/s) = 3.32418 3.57590 3.45234
# Velocity P-wave (km/s) = 5.89839 6.09588 5.99795
#
# Compressibility (1/GPa) = 0.02492744
#
# Stress axis : x y z
#
# Youngs Moduli (GPa) = 54.20397 65.95160 32.97171
#
# Poissons Ratio (x) = -0.12275 0.38737
# Poissons Ratio (y) = -0.10088 0.31716
# Poissons Ratio (z) = 0.63682 0.63440
#
# Static dielectric constant tensor:
#      x y z
#    x 3.884880 0.000000 0.000000 
#    y 0.000000 3.664680 0.000000 
#    z 0.000000 0.000000 3.498330 
# 
# 
# High freq. dielectric constant tensor:
#      x y z
#    x 1.796680 0.000000 0.000000 
#    y 0.000000 1.786150 0.000000 
#    z 0.000000 0.000000 1.762990 
# 
# From -- ./inp_files/4691.got.cif
#   From: 2010.06.25/outbox.cif.g09.slc.cpg/sg58_3_cif.got.tgz:4691.got - 2010.06.26 21:38:00.
