data_PCOD8236328
_publ_section_title
;
Structure prediction by ZEFSAII (Michael W. Deem and Ramdas Pophale) SiO2 
 PCOD8236328
Probable space group: P N N M
;
_chemical_formula_sum "Si O2"
_cell_formula_units_Z 48
_cell_length_a 29.018080
_cell_length_b 10.123452
_cell_length_c 8.898288
_cell_angle_alpha 90.000000
_cell_angle_beta 90.000000
_cell_angle_gamma 90.000000
_cell_volume 2613.989024
_symmetry_space_group_name_H-M "P N N M"
_symmetry_group_IT_number 58
_symmetry_cell_setting 'orthorhombic'
loop_
_space_group_symop_operation_xyz
x,y,z
-x,-y,z
1/2+x,1/2-y,1/2-z
1/2-x,1/2+y,1/2-z
-x,-y,-z
x,y,-z
1/2-x,1/2+y,1/2+z
1/2+x,1/2-y,1/2+z
loop_
_atom_site_type_symbol
_atom_site_label
_atom_site_fract_x
_atom_site_fract_y
_atom_site_fract_z
Si Si1 0.526321 0.866216 0.173251
Si Si2 0.878659 0.980070 0.173944
Si Si3 0.616367 0.784583 0.673758
Si Si4 0.283313 0.502840 0.177372
Si Si5 0.211457 0.699964 0.322956
Si Si6 0.966840 0.882949 0.675976
O O1 0.572023 0.865760 0.273405
O O2 0.491422 0.751912 0.221487
O O3 0.500000 0.000000 0.205499
O O4 0.541065 0.849934 0.000000
O O5 0.831927 0.945893 0.260668
O O6 0.918830 0.886729 0.235738
O O7 0.893477 0.130695 0.203381
O O8 0.870294 0.950001 0.000000
O O9 0.626482 0.813894 0.500000
O O10 0.659893 0.832249 0.769780
O O11 0.244051 0.594363 0.244854
O O12 0.274881 0.349788 0.224458
O O13 0.283529 0.518113 0.000000
O O14 0.214681 0.680926 0.500000
O O15 0.955996 0.893856 0.500000
O O16 0.000000 0.000000 0.730069
#
# Coordination Sequence:
#
# PCOD8236328 Si02
#       6
#     8   8   8   8   8   8
#     4  10  21  37  55  78 110 145 183 227 277 330
#     4  10  20  34  56  84 111 142 184 230 275 324
#     4  10  20  35  57  82 110 146 186 225 272 330
#     4  10  21  38  60  85 114 146 185 230 278 333
#     4  10  21  38  61  86 113 146 185 230 279 332
#     4  10  19  33  56  81 106 140 183 227 270 322
#
# _framework density 18.362739999999999
#
# number of rings (size 3 to 8) (size 9 to 14) (size 15 to 20)
#    0.000    2.000    1.667    2.000    0.000    4.667 
#    3.000    0.000    0.000    0.000    0.000    0.000 
#    0.000    0.000    0.000    0.000    0.000    0.000 
#
# Total GULP energy -595411.662270 kJ/mol
# GULP energy per Si atom -12404.409631 kJ/mol
# Density = 1.832095 g / cm^3
# Si number density = 18.362740 Si / 1000 Ang^3
#
#
#
# Elastic Constant Matrix: (Units=GPa)
#
#
# Indices 1 2 3 4 5 6 
#
# 1 121.3096 54.4619 49.8697 0.0000 0.0000 0.0000
# 2 54.4619 89.6762 34.0424 0.0000 0.0000 0.0000
# 3 49.8697 34.0424 74.4666 0.0000 0.0000 0.0000
# 4 0.0000 0.0000 0.0000 1.1858 0.0000 0.0000
# 5 0.0000 0.0000 0.0000 0.0000 40.8991 0.0000
# 6 0.0000 0.0000 0.0000 0.0000 0.0000 24.3833
#
#
#
# Elastic Compliance Matrix: (Units=1/GPa)
#
#
# Indices 1 2 3 4 5 6 
#
# 1 0.013444 -0.005744 -0.006377 0.000000 0.000000 0.000000
# 2 -0.005744 0.015947 -0.003444 0.000000 0.000000 0.000000
# 3 -0.006377 -0.003444 0.019274 0.000000 0.000000 0.000000
# 4 0.000000 0.000000 0.000000 0.843316 0.000000 0.000000
# 5 0.000000 0.000000 0.000000 0.000000 0.024450 0.000000
# 6 0.000000 0.000000 0.000000 0.000000 0.000000 0.041012
#
#
# Mechanical properties :
#
#
# Convention : Reuss Voigt Hill
#
# Bulk Modulus (GPa) = 57.02848 62.46671 59.74760
# Shear Modulus (GPa) = 5.02807 23.09887 14.06347
#
# Velocity S-wave (km/s) = 1.65654 3.55057 2.77044
# Velocity P-wave (km/s) = 5.89770 7.13447 6.54537
#
# Compressibility (1/GPa) = 0.01753510
#
# Stress axis : x y z
#
# Youngs Moduli (GPa) = 74.38434 62.70907 51.88347
#
# Poissons Ratio (x) = 0.36018 0.33088
# Poissons Ratio (y) = 0.42724 0.17866
# Poissons Ratio (z) = 0.47438 0.21594
#
# Static dielectric constant tensor:
#      x y z
#    x 3.383080 0.000000 0.000000 
#    y 0.000000 3.277500 0.000000 
#    z 0.000000 0.000000 3.404150 
# 
# 
# High freq. dielectric constant tensor:
#      x y z
#    x 1.720310 0.000000 0.000000 
#    y 0.000000 1.697900 0.000000 
#    z 0.000000 0.000000 1.719160 
# 
# From -- ./inp_files/2917.got.cif
#   From: 2010.06.25/outbox.cif.g09.slc.cpg/sg58_2_cif.got.tgz:2917.got - 2010.06.26 21:38:00.
