data_PCOD8236222
_publ_section_title
;
Structure prediction by ZEFSAII (Michael W. Deem and Ramdas Pophale) SiO2 
 PCOD8236222
Probable space group: P N N M
;
_chemical_formula_sum "Si O2"
_cell_formula_units_Z 56
_cell_length_a 14.826143
_cell_length_b 20.884791
_cell_length_c 9.268961
_cell_angle_alpha 90.000000
_cell_angle_beta 90.000000
_cell_angle_gamma 90.000000
_cell_volume 2870.049407
_symmetry_space_group_name_H-M "P N N M"
_symmetry_group_IT_number 58
_symmetry_cell_setting 'orthorhombic'
loop_
_space_group_symop_operation_xyz
x,y,z
-x,-y,z
1/2+x,1/2-y,1/2-z
1/2-x,1/2+y,1/2-z
-x,-y,-z
x,y,-z
1/2-x,1/2+y,1/2+z
1/2+x,1/2-y,1/2+z
loop_
_atom_site_type_symbol
_atom_site_label
_atom_site_fract_x
_atom_site_fract_y
_atom_site_fract_z
Si Si1 0.978353 0.236774 0.670294
Si Si2 0.752072 0.905579 0.664829
Si Si3 0.921434 0.546442 0.162083
Si Si4 0.434825 0.145962 0.659077
Si Si5 0.816249 0.767231 0.670982
Si Si6 0.167275 0.834801 0.169288
Si Si7 0.244449 0.971230 0.831961
O O1 0.972705 0.227871 0.500000
O O2 0.925930 0.300759 0.718298
O O3 0.925740 0.178722 0.746580
O O4 0.081355 0.241707 0.726516
O O5 0.783341 0.913864 0.500000
O O6 0.642863 0.908005 0.682329
O O7 0.784186 0.836991 0.726572
O O8 0.793964 0.965114 0.753467
O O9 0.843613 0.545742 0.278076
O O10 0.000000 0.500000 0.213813
O O11 0.965564 0.616706 0.163129
O O12 0.886376 0.529105 0.000000
O O13 0.417142 0.177152 0.500000
O O14 0.815186 0.765273 0.500000
O O15 0.749542 0.710719 0.727293
O O16 0.184574 0.909313 0.203109
O O17 0.153392 0.823283 0.000000
O O18 0.248336 0.986092 0.000000
#
# Coordination Sequence:
#
# PCOD8236222 Si02
#       7
#     8   8   8   8   8   8   8
#     4  11  22  36  59  90 115 140 191 253 290 330
#     4  10  19  37  61  79 108 154 194 227 276 348
#     4  10  19  33  52  78 112 150 189 224 273 349
#     4  10  19  34  57  80 109 153 190 224 282 350
#     4   9  19  38  62  83 110 152 196 233 282 342
#     4  10  21  41  61  80 116 160 191 226 291 358
#     4  11  23  36  55  84 118 152 189 242 295 336
#
# _framework density 19.511858
#
# number of rings (size 3 to 8) (size 9 to 14) (size 15 to 20)
#    0.000    1.857    2.857    1.714    0.000    3.714 
#    0.000    3.571    0.000    4.286    0.000    0.000 
#    0.000    0.000    0.000    0.000    0.000    0.000 
#
# Total GULP energy -694225.398958 kJ/mol
# GULP energy per Si atom -12396.882124 kJ/mol
# Density = 1.946745 g / cm^3
# Si number density = 19.511858 Si / 1000 Ang^3
#
#
#
# Elastic Constant Matrix: (Units=GPa)
#
#
# Indices 1 2 3 4 5 6 
#
# 1 61.0784 16.0707 20.7618 0.0000 0.0000 0.0000
# 2 16.0707 104.6045 41.1805 0.0000 0.0000 0.0000
# 3 20.7618 41.1805 58.8258 0.0000 0.0000 0.0000
# 4 0.0000 0.0000 0.0000 33.1394 0.0000 0.0000
# 5 0.0000 0.0000 0.0000 0.0000 25.4647 0.0000
# 6 0.0000 0.0000 0.0000 0.0000 0.0000 26.3239
#
#
#
# Elastic Compliance Matrix: (Units=1/GPa)
#
#
# Indices 1 2 3 4 5 6 
#
# 1 0.018615 -0.000377 -0.006306 0.000000 0.000000 0.000000
# 2 -0.000377 0.013204 -0.009110 0.000000 0.000000 0.000000
# 3 -0.006306 -0.009110 0.025602 0.000000 0.000000 0.000000
# 4 0.000000 0.000000 0.000000 0.030176 0.000000 0.000000
# 5 0.000000 0.000000 0.000000 0.000000 0.039270 0.000000
# 6 0.000000 0.000000 0.000000 0.000000 0.000000 0.037988
#
#
# Mechanical properties :
#
#
# Convention : Reuss Voigt Hill
#
# Bulk Modulus (GPa) = 38.70737 42.28163 40.49450
# Shear Modulus (GPa) = 24.38374 26.75198 25.56786
#
# Velocity S-wave (km/s) = 3.53893 3.70680 3.62384
# Velocity P-wave (km/s) = 6.04811 6.32750 6.18938
#
# Compressibility (1/GPa) = 0.02583488
#
# Stress axis : x y z
#
# Youngs Moduli (GPa) = 53.71968 75.73258 39.05872
#
# Poissons Ratio (x) = 0.02859 0.24629
# Poissons Ratio (y) = 0.02028 0.35584
# Poissons Ratio (z) = 0.33874 0.68995
#
# Static dielectric constant tensor:
#      x y z
#    x 3.552280 0.000000 0.000000 
#    y 0.000000 3.667670 0.000000 
#    z 0.000000 0.000000 3.303440 
# 
# 
# High freq. dielectric constant tensor:
#      x y z
#    x 1.743690 0.000000 0.000000 
#    y 0.000000 1.769100 0.000000 
#    z 0.000000 0.000000 1.736890 
# 
# From -- ./inp_files/6257.got.cif
#   From: 2010.06.25/outbox.cif.g09.slc.cpg/sg58_4_cif.got.tgz:6257.got - 2010.06.26 21:38:00.
