data_PCOD8236246
_publ_section_title
;
Structure prediction by ZEFSAII (Michael W. Deem and Ramdas Pophale) SiO2 
 PCOD8236246
Probable space group: P N N M
;
_chemical_formula_sum "Si O2"
_cell_formula_units_Z 56
_cell_length_a 12.791161
_cell_length_b 14.317789
_cell_length_c 17.193159
_cell_angle_alpha 90.000000
_cell_angle_beta 90.000000
_cell_angle_gamma 90.000000
_cell_volume 3148.774813
_symmetry_space_group_name_H-M "P N N M"
_symmetry_group_IT_number 58
_symmetry_cell_setting 'orthorhombic'
loop_
_space_group_symop_operation_xyz
x,y,z
-x,-y,z
1/2+x,1/2-y,1/2-z
1/2-x,1/2+y,1/2-z
-x,-y,-z
x,y,-z
1/2-x,1/2+y,1/2+z
1/2+x,1/2-y,1/2+z
loop_
_atom_site_type_symbol
_atom_site_label
_atom_site_fract_x
_atom_site_fract_y
_atom_site_fract_z
Si Si1 0.884727 0.408625 0.409715
Si Si2 0.193744 0.222191 0.591798
Si Si3 0.004149 0.895108 0.592455
Si Si4 0.116339 0.593416 0.091269
Si Si5 0.105188 0.395439 0.158911
Si Si6 0.291677 0.286900 0.908928
Si Si7 0.608485 0.100720 0.159636
O O1 0.882265 0.434716 0.500000
O O2 0.808470 0.322417 0.391566
O O3 0.846363 0.498188 0.360767
O O4 0.002614 0.380014 0.387994
O O5 0.187034 0.238349 0.500000
O O6 0.300613 0.171533 0.616090
O O7 0.193098 0.321989 0.634745
O O8 0.096738 0.160755 0.622792
O O9 0.002715 0.896958 0.500000
O O10 0.109054 0.845096 0.622522
O O11 0.000000 0.000000 0.626255
O O12 0.146163 0.497222 0.133878
O O13 0.002137 0.629433 0.115019
O O14 0.120915 0.573308 0.000000
O O15 0.189516 0.317412 0.137624
O O16 0.082927 0.394245 0.249918
O O17 0.275080 0.306012 0.000000
#
# Coordination Sequence:
#
# PCOD8236246 Si02
#       7
#     8   8   8   8   8   8   8
#     4  10  19  34  57  79 104 137 184 229 257 303
#     4  10  19  34  55  78 102 135 177 222 265 305
#     4   9  16  28  49  77 103 126 163 217 270 307
#     4  10  20  36  57  76 103 139 183 223 250 310
#     4  11  22  34  51  79 111 144 171 208 266 324
#     4  10  19  33  54  77 103 137 177 221 260 305
#     4  11  21  33  52  79 111 143 168 218 268 322
#
# _framework density 17.784697000000001
#
# number of rings (size 3 to 8) (size 9 to 14) (size 15 to 20)
#    0.000    1.857    1.429    6.000    0.000    4.571 
#    0.000    0.000    0.000    0.857    0.000    4.000 
#    0.000    0.000    0.000    0.000    0.000    0.000 
#
# Total GULP energy -694556.235070 kJ/mol
# GULP energy per Si atom -12402.789912 kJ/mol
# Density = 1.774422 g / cm^3
# Si number density = 17.784697 Si / 1000 Ang^3
#
#
#
# Elastic Constant Matrix: (Units=GPa)
#
#
# Indices 1 2 3 4 5 6 
#
# 1 92.0680 58.3055 15.6386 0.0000 0.0000 0.0000
# 2 58.3055 118.1321 24.8206 0.0000 0.0000 0.0000
# 3 15.6386 24.8206 39.3967 0.0000 0.0000 0.0000
# 4 0.0000 0.0000 0.0000 15.5748 0.0000 0.0000
# 5 0.0000 0.0000 0.0000 0.0000 11.1516 0.0000
# 6 0.0000 0.0000 0.0000 0.0000 0.0000 27.6443
#
#
#
# Elastic Compliance Matrix: (Units=1/GPa)
#
#
# Indices 1 2 3 4 5 6 
#
# 1 0.015884 -0.007509 -0.001574 0.000000 0.000000 0.000000
# 2 -0.007509 0.013306 -0.005403 0.000000 0.000000 0.000000
# 3 -0.001574 -0.005403 0.029411 0.000000 0.000000 0.000000
# 4 0.000000 0.000000 0.000000 0.064206 0.000000 0.000000
# 5 0.000000 0.000000 0.000000 0.000000 0.089673 0.000000
# 6 0.000000 0.000000 0.000000 0.000000 0.000000 0.036174
#
#
# Mechanical properties :
#
#
# Convention : Reuss Voigt Hill
#
# Bulk Modulus (GPa) = 33.74944 49.68069 41.71506
# Shear Modulus (GPa) = 17.39103 20.92963 19.16033
#
# Velocity S-wave (km/s) = 3.13048 3.43422 3.28586
# Velocity P-wave (km/s) = 5.66431 6.61214 6.15649
#
# Compressibility (1/GPa) = 0.02963012
#
# Stress axis : x y z
#
# Youngs Moduli (GPa) = 62.95483 75.15163 34.00033
#
# Poissons Ratio (x) = 0.56432 0.05353
# Poissons Ratio (y) = 0.47274 0.18369
# Poissons Ratio (z) = 0.09912 0.40601
#
# Static dielectric constant tensor:
#      x y z
#    x 3.208580 0.000000 0.000000 
#    y 0.000000 3.431590 0.000000 
#    z 0.000000 0.000000 3.106740 
# 
# 
# High freq. dielectric constant tensor:
#      x y z
#    x 1.674830 0.000000 0.000000 
#    y 0.000000 1.696060 0.000000 
#    z 0.000000 0.000000 1.670870 
# 
# From -- ./inp_files/21282.got.cif
#   From: 2010.06.25/outbox.cif.g09.slc.cpg/sg58_11_cif.got.tgz:21282.got - 2010.06.26 21:38:00.
