data_PCOD8236229
_publ_section_title
;
Structure prediction by ZEFSAII (Michael W. Deem and Ramdas Pophale) SiO2 
 PCOD8236229
Probable space group: P N N M
;
_chemical_formula_sum "Si O2"
_cell_formula_units_Z 64
_cell_length_a 12.808333
_cell_length_b 29.612077
_cell_length_c 8.977736
_cell_angle_alpha 90.000000
_cell_angle_beta 90.000000
_cell_angle_gamma 90.000000
_cell_volume 3405.087768
_symmetry_space_group_name_H-M "P N N M"
_symmetry_group_IT_number 58
_symmetry_cell_setting 'orthorhombic'
loop_
_space_group_symop_operation_xyz
x,y,z
-x,-y,z
1/2+x,1/2-y,1/2-z
1/2-x,1/2+y,1/2-z
-x,-y,-z
x,y,-z
1/2-x,1/2+y,1/2+z
1/2+x,1/2-y,1/2+z
loop_
_atom_site_type_symbol
_atom_site_label
_atom_site_fract_x
_atom_site_fract_y
_atom_site_fract_z
Si Si1 0.908487 0.912664 0.326157
Si Si2 0.823743 0.567267 0.176746
Si Si3 0.780136 0.467863 0.177703
Si Si4 0.609166 0.803896 0.828735
Si Si5 0.337693 0.670429 0.335180
Si Si6 0.625055 0.623228 0.177816
Si Si7 0.547356 0.896295 0.677065
Si Si8 0.944370 0.212462 0.170232
O O1 0.918800 0.917864 0.500000
O O2 0.837669 0.954443 0.266620
O O3 0.842484 0.868044 0.289227
O O4 0.026533 0.907371 0.262334
O O5 0.806899 0.517042 0.243288
O O6 0.730845 0.599636 0.234150
O O7 0.934743 0.585738 0.231189
O O8 0.819868 0.564663 0.000000
O O9 0.865397 0.431616 0.234882
O O10 0.784061 0.468528 0.000000
O O11 0.733473 0.801265 0.811887
O O12 0.563481 0.848194 0.751809
O O13 0.567961 0.759992 0.748201
O O14 0.573425 0.803719 0.000000
O O15 0.339859 0.647798 0.500000
O O16 0.432637 0.704580 0.317603
O O17 0.620249 0.673045 0.247478
O O18 0.621228 0.628069 0.000000
O O19 0.551337 0.890644 0.500000
O O20 0.905670 0.214536 0.000000
#
# Coordination Sequence:
#
# PCOD8236229 Si02
#       8
#     8   8   8   8   8   8   8   8
#     4   9  16  28  51  78 102 130 171 220 255 291
#     4   9  18  31  50  77 111 147 176 210 260 315
#     4   9  16  28  50  80 106 136 180 222 257 298
#     4  11  22  36  55  79 104 132 170 217 267 314
#     4   9  19  35  53  72  99 133 166 206 258 312
#     4   9  18  33  51  75 108 141 172 213 266 312
#     4  10  19  33  53  76 105 140 180 219 255 305
#     4  10  21  37  56  77 101 134 174 213 259 316
#
# _framework density 18.795404999999999
#
# number of rings (size 3 to 8) (size 9 to 14) (size 15 to 20)
#    0.000    2.500    1.250    1.125    0.000    4.000 
#    0.000    8.125    0.000    3.750    0.000    3.500 
#    0.000    0.000    0.000    0.000    0.000    0.000 
#
# Total GULP energy -793289.196837 kJ/mol
# GULP energy per Si atom -12395.143701 kJ/mol
# Density = 1.875263 g / cm^3
# Si number density = 18.795405 Si / 1000 Ang^3
#
#
#
# Elastic Constant Matrix: (Units=GPa)
#
#
# Indices 1 2 3 4 5 6 
#
# 1 98.3577 62.7262 25.4800 0.0000 0.0000 0.0000
# 2 62.7262 147.2137 31.0477 0.0000 0.0000 0.0000
# 3 25.4800 31.0477 31.7402 0.0000 0.0000 0.0000
# 4 0.0000 0.0000 0.0000 22.8107 0.0000 0.0000
# 5 0.0000 0.0000 0.0000 0.0000 53.5081 0.0000
# 6 0.0000 0.0000 0.0000 0.0000 0.0000 26.9137
#
#
#
# Elastic Compliance Matrix: (Units=1/GPa)
#
#
# Indices 1 2 3 4 5 6 
#
# 1 0.015227 -0.004926 -0.007405 0.000000 0.000000 0.000000
# 2 -0.004926 0.010152 -0.005976 0.000000 0.000000 0.000000
# 3 -0.007405 -0.005976 0.043296 0.000000 0.000000 0.000000
# 4 0.000000 0.000000 0.000000 0.043839 0.000000 0.000000
# 5 0.000000 0.000000 0.000000 0.000000 0.018689 0.000000
# 6 0.000000 0.000000 0.000000 0.000000 0.000000 0.037156
#
#
# Mechanical properties :
#
#
# Convention : Reuss Voigt Hill
#
# Bulk Modulus (GPa) = 31.19100 57.31328 44.25214
# Shear Modulus (GPa) = 23.18464 31.18366 27.18415
#
# Velocity S-wave (km/s) = 3.51597 4.07764 3.80718
# Velocity P-wave (km/s) = 5.75446 7.26147 6.55144
#
# Compressibility (1/GPa) = 0.03206053
#
# Stress axis : x y z
#
# Youngs Moduli (GPa) = 65.67305 98.50013 23.09694
#
# Poissons Ratio (x) = 0.48525 0.17103
# Poissons Ratio (y) = 0.32353 0.13803
# Poissons Ratio (z) = 0.48630 0.58864
#
# Static dielectric constant tensor:
#      x y z
#    x 3.772290 0.000000 0.000000 
#    y 0.000000 3.450670 0.000000 
#    z 0.000000 0.000000 3.224410 
# 
# 
# High freq. dielectric constant tensor:
#      x y z
#    x 1.742190 0.000000 0.000000 
#    y 0.000000 1.727530 0.000000 
#    z 0.000000 0.000000 1.697450 
# 
# From -- ./inp_files/4832.got.cif
#   From: 2010.06.25/outbox.cif.g09.slc.cpg/sg58_3_cif.got.tgz:4832.got - 2010.06.26 21:38:00.
