data_PCOD8236689
_publ_section_title
;
Structure prediction by ZEFSAII (Michael W. Deem and Ramdas Pophale) SiO2 
 PCOD8236689
Probable space group: P N N M
;
_chemical_formula_sum "Si O2"
_cell_formula_units_Z 56
_cell_length_a 13.926668
_cell_length_b 14.072978
_cell_length_c 14.549430
_cell_angle_alpha 90.000000
_cell_angle_beta 90.000000
_cell_angle_gamma 90.000000
_cell_volume 2851.538310
_symmetry_space_group_name_H-M "P N N M"
_symmetry_group_IT_number 58
_symmetry_cell_setting 'orthorhombic'
loop_
_space_group_symop_operation_xyz
x,y,z
-x,-y,z
1/2+x,1/2-y,1/2-z
1/2-x,1/2+y,1/2-z
-x,-y,-z
x,y,-z
1/2-x,1/2+y,1/2+z
1/2+x,1/2-y,1/2+z
loop_
_atom_site_type_symbol
_atom_site_label
_atom_site_fract_x
_atom_site_fract_y
_atom_site_fract_z
Si Si1 0.283465 0.532145 0.274944
Si Si2 0.744669 0.646177 0.395287
Si Si3 0.074715 0.724697 0.896261
Si Si4 0.592515 0.435546 0.894215
Si Si5 0.953236 0.722760 0.394585
Si Si6 0.444704 0.595961 0.606316
Si Si7 0.565292 0.908215 0.765634
O O1 0.292966 0.429596 0.322326
O O2 0.320650 0.526641 0.169655
O O3 0.349022 0.605286 0.332581
O O4 0.175308 0.566953 0.280872
O O5 0.726119 0.609119 0.500000
O O6 0.685628 0.744051 0.381287
O O7 0.855765 0.665073 0.377909
O O8 0.048846 0.633682 0.835651
O O9 0.009565 0.814177 0.869444
O O10 0.055628 0.692247 0.000000
O O11 0.500000 0.500000 0.880157
O O12 0.561702 0.330580 0.862537
O O13 0.628808 0.436926 0.000000
O O14 0.985232 0.719700 0.500000
O O15 0.037905 0.673237 0.338223
O O16 0.500000 0.500000 0.634755
O O17 0.415466 0.593689 0.500000
O O18 0.500000 0.000000 0.779606
#
# Coordination Sequence:
#
# PCOD8236689 Si02
#       7
#     8   8   8   8   8   8   8
#     4  12  22  36  61  92 124 160 198 261 304 357
#     4  10  20  37  64  94 122 159 204 248 308 369
#     4  10  22  40  63  89 123 160 198 251 309 369
#     4  10  23  43  66  93 122 161 209 252 305 367
#     4  10  22  42  64  87 123 166 207 251 302 363
#     4  10  19  35  61  94 122 145 190 257 320 363
#     4  12  26  41  57  89 125 167 215 244 297 365
#
# _framework density 19.638521999999998
#
# number of rings (size 3 to 8) (size 9 to 14) (size 15 to 20)
#    0.000    1.429    2.857    2.571    2.000    3.429 
#    0.000    0.000    0.000    3.429    0.000    0.000 
#    0.000    0.000    0.000    0.000    0.000    0.000 
#
# Total GULP energy -694584.612828 kJ/mol
# GULP energy per Si atom -12403.296658 kJ/mol
# Density = 1.959382 g / cm^3
# Si number density = 19.638522 Si / 1000 Ang^3
#
#
#
# Elastic Constant Matrix: (Units=GPa)
#
#
# Indices 1 2 3 4 5 6 
#
# 1 109.5565 22.2935 48.9346 0.0000 0.0000 0.0000
# 2 22.2935 81.5758 46.8765 0.0000 0.0000 0.0000
# 3 48.9346 46.8765 103.0173 0.0000 0.0000 0.0000
# 4 0.0000 0.0000 0.0000 32.7910 0.0000 0.0000
# 5 0.0000 0.0000 0.0000 0.0000 21.3904 0.0000
# 6 0.0000 0.0000 0.0000 0.0000 0.0000 14.3273
#
#
#
# Elastic Compliance Matrix: (Units=1/GPa)
#
#
# Indices 1 2 3 4 5 6 
#
# 1 0.011586 -0.000005 -0.005501 0.000000 0.000000 0.000000
# 2 -0.000005 0.016599 -0.007551 0.000000 0.000000 0.000000
# 3 -0.005501 -0.007551 0.015756 0.000000 0.000000 0.000000
# 4 0.000000 0.000000 0.000000 0.030496 0.000000 0.000000
# 5 0.000000 0.000000 0.000000 0.000000 0.046750 0.000000
# 6 0.000000 0.000000 0.000000 0.000000 0.000000 0.069797
#
#
# Mechanical properties :
#
#
# Convention : Reuss Voigt Hill
#
# Bulk Modulus (GPa) = 56.09467 58.92876 57.51172
# Shear Modulus (GPa) = 22.41754 25.43807 23.92780
#
# Velocity S-wave (km/s) = 3.38229 3.60295 3.49436
# Velocity P-wave (km/s) = 6.62410 6.88333 6.75496
#
# Compressibility (1/GPa) = 0.01782700
#
# Stress axis : x y z
#
# Youngs Moduli (GPa) = 86.31187 60.24534 63.46776
#
# Poissons Ratio (x) = 0.00031 0.34915
# Poissons Ratio (y) = 0.00044 0.47922
# Poissons Ratio (z) = 0.47481 0.45489
#
# Static dielectric constant tensor:
#      x y z
#    x 3.596450 0.000000 0.000000 
#    y 0.000000 3.525580 0.000000 
#    z 0.000000 0.000000 3.692630 
# 
# 
# High freq. dielectric constant tensor:
#      x y z
#    x 1.765400 0.000000 0.000000 
#    y 0.000000 1.757970 0.000000 
#    z 0.000000 0.000000 1.773470 
# 
# From -- ./inp_files/21268.got.cif
#   From: 2010.06.25/outbox.cif.g09.slc.cpg/sg58_11_cif.got.tgz:21268.got - 2010.06.26 21:38:00.
