data_PCOD8236544
_publ_section_title
;
Structure prediction by ZEFSAII (Michael W. Deem and Ramdas Pophale) SiO2 
 PCOD8236544
Probable space group: P N N M
;
_chemical_formula_sum "Si O2"
_cell_formula_units_Z 48
_cell_length_a 9.976666
_cell_length_b 29.118041
_cell_length_c 8.930601
_cell_angle_alpha 90.000000
_cell_angle_beta 90.000000
_cell_angle_gamma 90.000000
_cell_volume 2594.348250
_symmetry_space_group_name_H-M "P N N M"
_symmetry_group_IT_number 58
_symmetry_cell_setting 'orthorhombic'
loop_
_space_group_symop_operation_xyz
x,y,z
-x,-y,z
1/2+x,1/2-y,1/2-z
1/2-x,1/2+y,1/2-z
-x,-y,-z
x,y,-z
1/2-x,1/2+y,1/2+z
1/2+x,1/2-y,1/2+z
loop_
_atom_site_type_symbol
_atom_site_label
_atom_site_fract_x
_atom_site_fract_y
_atom_site_fract_z
Si Si1 0.983920 0.714987 0.323768
Si Si2 0.377798 0.968717 0.824376
Si Si3 0.145419 0.019987 0.329211
Si Si4 0.707542 0.287732 0.674958
Si Si5 0.533538 0.120458 0.327156
Si Si6 0.276022 0.619830 0.829358
O O1 0.968598 0.710123 0.500000
O O2 0.893847 0.756347 0.266146
O O3 0.929749 0.668429 0.250167
O O4 0.139171 0.724098 0.279835
O O5 0.377570 0.919583 0.743971
O O6 0.500000 0.000000 0.765853
O O7 0.241084 0.994190 0.785384
O O8 0.388238 0.960243 0.000000
O O9 0.195703 0.012682 0.500000
O O10 0.140032 0.074200 0.292340
O O11 0.000000 0.000000 0.303637
O O12 0.682029 0.280761 0.500000
O O13 0.675146 0.340242 0.718666
O O14 0.571517 0.124926 0.500000
O O15 0.378935 0.107848 0.300836
O O16 0.298169 0.636375 0.000000
#
# Coordination Sequence:
#
# PCOD8236544 Si02
#       6
#     8   8   8   8   8   8
#     4  10  21  38  59  84 115 145 182 231 280 331
#     4  11  22  35  56  84 114 148 187 231 276 326
#     4  10  21  38  58  82 113 150 189 232 281 335
#     4  10  21  37  59  85 111 146 187 228 279 335
#     4  10  19  34  59  85 110 144 188 233 278 330
#     4   9  18  34  57  82 109 146 187 228 279 332
#
# _framework density 18.501757000000001
#
# number of rings (size 3 to 8) (size 9 to 14) (size 15 to 20)
#    0.000    2.000    1.667    2.000    0.000    4.333 
#    3.000    0.000    0.000    0.000    0.000    0.000 
#    0.000    0.000    0.000    0.000    0.000    0.000 
#
# Total GULP energy -595414.462008 kJ/mol
# GULP energy per Si atom -12404.467958 kJ/mol
# Density = 1.845965 g / cm^3
# Si number density = 18.501757 Si / 1000 Ang^3
#
#
#
# Elastic Constant Matrix: (Units=GPa)
#
#
# Indices 1 2 3 4 5 6 
#
# 1 71.9820 59.6372 36.9640 0.0000 0.0000 0.0000
# 2 59.6372 125.5689 49.9090 0.0000 0.0000 0.0000
# 3 36.9640 49.9090 78.7026 0.0000 0.0000 0.0000
# 4 0.0000 0.0000 0.0000 34.9992 0.0000 0.0000
# 5 0.0000 0.0000 0.0000 0.0000 25.1512 0.0000
# 6 0.0000 0.0000 0.0000 0.0000 0.0000 31.6813
#
#
#
# Elastic Compliance Matrix: (Units=1/GPa)
#
#
# Indices 1 2 3 4 5 6 
#
# 1 0.024588 -0.009476 -0.005539 0.000000 0.000000 0.000000
# 2 -0.009476 0.014300 -0.004617 0.000000 0.000000 0.000000
# 3 -0.005539 -0.004617 0.018236 0.000000 0.000000 0.000000
# 4 0.000000 0.000000 0.000000 0.028572 0.000000 0.000000
# 5 0.000000 0.000000 0.000000 0.000000 0.039759 0.000000
# 6 0.000000 0.000000 0.000000 0.000000 0.000000 0.031564
#
#
# Mechanical properties :
#
#
# Convention : Reuss Voigt Hill
#
# Bulk Modulus (GPa) = 55.99670 63.25265 59.62467
# Shear Modulus (GPa) = 24.72361 27.01587 25.86974
#
# Velocity S-wave (km/s) = 3.65949 3.82537 3.74335
# Velocity P-wave (km/s) = 6.94169 7.33300 7.14003
#
# Compressibility (1/GPa) = 0.01785819
#
# Stress axis : x y z
#
# Youngs Moduli (GPa) = 40.67097 69.93228 54.83797
#
# Poissons Ratio (x) = 0.66268 0.30373
# Poissons Ratio (y) = 0.38540 0.25321
# Poissons Ratio (z) = 0.22527 0.32291
#
# Static dielectric constant tensor:
#      x y z
#    x 3.423160 0.000000 0.000000 
#    y 0.000000 3.505810 0.000000 
#    z 0.000000 0.000000 3.440940 
# 
# 
# High freq. dielectric constant tensor:
#      x y z
#    x 1.697200 0.000000 0.000000 
#    y 0.000000 1.728200 0.000000 
#    z 0.000000 0.000000 1.725260 
# 
# From -- ./inp_files/2863.got.cif
#   From: 2010.06.25/outbox.cif.g09.slc.cpg/sg58_2_cif.got.tgz:2863.got - 2010.06.26 21:38:00.
