data_PCOD8236995
_publ_section_title
;
Structure prediction by ZEFSAII (Michael W. Deem and Ramdas Pophale) SiO2 
 PCOD8236995
Probable space group: P N N M
;
_chemical_formula_sum "Si O2"
_cell_formula_units_Z 64
_cell_length_a 9.493708
_cell_length_b 13.876463
_cell_length_c 29.237220
_cell_angle_alpha 90.000000
_cell_angle_beta 90.000000
_cell_angle_gamma 90.000000
_cell_volume 3851.684692
_symmetry_space_group_name_H-M "P N N M"
_symmetry_group_IT_number 58
_symmetry_cell_setting 'orthorhombic'
loop_
_space_group_symop_operation_xyz
x,y,z
-x,-y,z
1/2+x,1/2-y,1/2-z
1/2-x,1/2+y,1/2-z
-x,-y,-z
x,y,-z
1/2-x,1/2+y,1/2+z
1/2+x,1/2-y,1/2+z
loop_
_atom_site_type_symbol
_atom_site_label
_atom_site_fract_x
_atom_site_fract_y
_atom_site_fract_z
Si Si1 0.373791 0.568051 0.638550
Si Si2 0.543215 0.156383 0.051266
Si Si3 0.541151 0.223781 0.854010
Si Si4 0.308449 0.417583 0.775387
Si Si5 0.263446 0.726509 0.310848
Si Si6 0.773937 0.476409 0.449483
Si Si7 0.644465 0.043432 0.188688
Si Si8 0.627983 0.368427 0.781091
O O1 0.500000 0.500000 0.655798
O O2 0.383756 0.680680 0.654824
O O3 0.351693 0.553060 0.584754
O O4 0.234352 0.541518 0.666743
O O5 0.539232 0.240056 0.090561
O O6 0.406295 0.091692 0.059189
O O7 0.680096 0.087739 0.056137
O O8 0.541752 0.202650 0.000000
O O9 0.391186 0.205944 0.830727
O O10 0.622153 0.122469 0.850413
O O11 0.628195 0.307895 0.828373
O O12 0.228184 0.343625 0.809877
O O13 0.226279 0.404357 0.728717
O O14 0.467426 0.383410 0.765225
O O15 0.302320 0.527787 0.793102
O O16 0.284196 0.683202 0.259424
O O17 0.712063 0.459602 0.500000
O O18 0.500000 0.000000 0.208119
#
# Coordination Sequence:
#
# PCOD8236995 Si02
#       8
#     8   8   8   8   8   8   8   8
#     4  12  22  31  47  72 104 135 164 204 253 305
#     4   9  16  29  50  76  98 122 165 215 252 296
#     4  11  19  30  52  73  94 136 172 200 251 307
#     4  10  21  34  47  68 101 134 170 216 249 296
#     4  11  20  32  48  69  96 135 175 201 247 302
#     4   9  17  30  49  71 100 129 160 206 256 302
#     4  12  19  31  50  70  97 130 175 211 239 293
#     4  10  20  34  47  70 101 134 170 209 258 297
#
# _framework density 16.616107
#
# number of rings (size 3 to 8) (size 9 to 14) (size 15 to 20)
#    0.000    1.500    6.250    1.500    0.000    0.250 
#    0.000    0.000    0.000    0.000    0.000    7.875 
#    0.000    0.000    0.000    2.750    0.000    1.500 
#
# Total GULP energy -792875.673626 kJ/mol
# GULP energy per Si atom -12388.682400 kJ/mol
# Density = 1.657829 g / cm^3
# Si number density = 16.616107 Si / 1000 Ang^3
#
#
#
# Elastic Constant Matrix: (Units=GPa)
#
#
# Indices 1 2 3 4 5 6 
#
# 1 34.7006 29.2826 32.6778 0.0000 0.0000 0.0000
# 2 29.2826 87.9130 47.0303 0.0000 0.0000 0.0000
# 3 32.6778 47.0303 128.9016 0.0000 0.0000 0.0000
# 4 0.0000 0.0000 0.0000 23.7292 0.0000 0.0000
# 5 0.0000 0.0000 0.0000 0.0000 19.5231 0.0000
# 6 0.0000 0.0000 0.0000 0.0000 0.0000 20.5168
#
#
#
# Elastic Compliance Matrix: (Units=1/GPa)
#
#
# Indices 1 2 3 4 5 6 
#
# 1 0.045132 -0.011074 -0.007401 0.000000 0.000000 0.000000
# 2 -0.011074 0.016851 -0.003341 0.000000 0.000000 0.000000
# 3 -0.007401 -0.003341 0.010853 0.000000 0.000000 0.000000
# 4 0.000000 0.000000 0.000000 0.042142 0.000000 0.000000
# 5 0.000000 0.000000 0.000000 0.000000 0.051221 0.000000
# 6 0.000000 0.000000 0.000000 0.000000 0.000000 0.048740
#
#
# Mechanical properties :
#
#
# Convention : Reuss Voigt Hill
#
# Bulk Modulus (GPa) = 34.24099 52.16630 43.20365
# Shear Modulus (GPa) = 18.63546 22.25546 20.44546
#
# Velocity S-wave (km/s) = 3.35256 3.66374 3.51160
# Velocity P-wave (km/s) = 5.96976 7.02570 6.51915
#
# Compressibility (1/GPa) = 0.02920476
#
# Stress axis : x y z
#
# Youngs Moduli (GPa) = 22.15710 59.34542 92.14021
#
# Poissons Ratio (x) = 0.65716 0.68195
# Poissons Ratio (y) = 0.24536 0.30782
# Poissons Ratio (z) = 0.16399 0.19826
#
# Static dielectric constant tensor:
#      x y z
#    x 3.018170 0.000000 0.000000 
#    y 0.000000 3.177530 0.000000 
#    z 0.000000 0.000000 3.260060 
# 
# 
# High freq. dielectric constant tensor:
#      x y z
#    x 1.624950 0.000000 0.000000 
#    y 0.000000 1.619360 0.000000 
#    z 0.000000 0.000000 1.629760 
# 
# From -- ./inp_files/34823.got.cif
#   From: 2010.06.25/outbox.cif.g09.slc.cpg/sg58_18_cif.got.tgz:34823.got - 2010.06.26 21:38:00.
