data_PCOD8236754
_publ_section_title
;
Structure prediction by ZEFSAII (Michael W. Deem and Ramdas Pophale) SiO2 
 PCOD8236754
Probable space group: P N N M
;
_chemical_formula_sum "Si O2"
_cell_formula_units_Z 40
_cell_length_a 12.149578
_cell_length_b 12.551748
_cell_length_c 13.690227
_cell_angle_alpha 90.000000
_cell_angle_beta 90.000000
_cell_angle_gamma 90.000000
_cell_volume 2087.738279
_symmetry_space_group_name_H-M "P N N M"
_symmetry_group_IT_number 58
_symmetry_cell_setting 'orthorhombic'
loop_
_space_group_symop_operation_xyz
x,y,z
-x,-y,z
1/2+x,1/2-y,1/2-z
1/2-x,1/2+y,1/2-z
-x,-y,-z
x,y,-z
1/2-x,1/2+y,1/2+z
1/2+x,1/2-y,1/2+z
loop_
_atom_site_type_symbol
_atom_site_label
_atom_site_fract_x
_atom_site_fract_y
_atom_site_fract_z
Si Si1 0.471248 0.744253 0.111696
Si Si2 0.704808 0.125002 0.209830
Si Si3 0.358989 0.750156 0.388291
Si Si4 0.162238 0.590188 0.611106
Si Si5 0.037432 0.881621 0.789287
O O1 0.350219 0.785240 0.140866
O O2 0.554894 0.840471 0.132194
O O3 0.505888 0.643079 0.176890
O O4 0.473918 0.706223 0.000000
O O5 0.672177 0.147889 0.322311
O O6 0.834096 0.131672 0.191684
O O7 0.659739 0.008482 0.184434
O O8 0.358392 0.788713 0.500000
O O9 0.270155 0.658690 0.368208
O O10 0.477663 0.702739 0.360277
O O11 0.161658 0.547199 0.500000
O O12 0.000000 0.000000 0.816439
#
# Coordination Sequence:
#
# PCOD8236754 Si02
#       5
#     8   8   8   8   8
#     4  10  22  39  59  86 118 153 195 240 286 342
#     4  11  21  36  61  85 116 148 196 241 285 338
#     4  10  22  38  57  83 118 155 186 231 291 345
#     4  10  19  36  61  84 109 149 195 238 283 334
#     4  11  22  37  59  88 119 152 190 240 292 340
#
# _framework density 19.159489000000001
#
# number of rings (size 3 to 8) (size 9 to 14) (size 15 to 20)
#    0.000    1.600    4.000    1.200    0.000    4.000 
#    0.000    0.000    0.000    9.600    0.000    0.000 
#    0.000    0.000    0.000    0.000    0.000    0.000 
#
# Total GULP energy -496150.946336 kJ/mol
# GULP energy per Si atom -12403.773658 kJ/mol
# Density = 1.911588 g / cm^3
# Si number density = 19.159489 Si / 1000 Ang^3
#
#
#
# Elastic Constant Matrix: (Units=GPa)
#
#
# Indices 1 2 3 4 5 6 
#
# 1 117.3642 15.6362 13.8880 0.0000 0.0000 0.0000
# 2 15.6362 64.5270 31.3382 0.0000 0.0000 0.0000
# 3 13.8880 31.3382 92.3244 0.0000 0.0000 0.0000
# 4 0.0000 0.0000 0.0000 32.0908 0.0000 0.0000
# 5 0.0000 0.0000 0.0000 0.0000 20.2807 0.0000
# 6 0.0000 0.0000 0.0000 0.0000 0.0000 19.2192
#
#
#
# Elastic Compliance Matrix: (Units=1/GPa)
#
#
# Indices 1 2 3 4 5 6 
#
# 1 0.008845 -0.001793 -0.000722 0.000000 0.000000 0.000000
# 2 -0.001793 0.018920 -0.006152 0.000000 0.000000 0.000000
# 3 -0.000722 -0.006152 0.013028 0.000000 0.000000 0.000000
# 4 0.000000 0.000000 0.000000 0.031162 0.000000 0.000000
# 5 0.000000 0.000000 0.000000 0.000000 0.049308 0.000000
# 6 0.000000 0.000000 0.000000 0.000000 0.000000 0.052031
#
#
# Mechanical properties :
#
#
# Convention : Reuss Voigt Hill
#
# Bulk Modulus (GPa) = 42.62790 43.99338 43.31064
# Shear Modulus (GPa) = 25.19561 28.54169 26.86865
#
# Velocity S-wave (km/s) = 3.63029 3.86384 3.74888
# Velocity P-wave (km/s) = 6.31421 6.55112 6.43376
#
# Compressibility (1/GPa) = 0.02345881
#
# Stress axis : x y z
#
# Youngs Moduli (GPa) = 113.06145 52.85479 76.75582
#
# Poissons Ratio (x) = 0.09475 0.05542
# Poissons Ratio (y) = 0.20268 0.47223
# Poissons Ratio (z) = 0.08163 0.32518
#
# Static dielectric constant tensor:
#      x y z
#    x 3.705810 0.000000 0.000000 
#    y 0.000000 3.332350 0.000000 
#    z 0.000000 0.000000 3.555020 
# 
# 
# High freq. dielectric constant tensor:
#      x y z
#    x 1.763310 0.000000 0.000000 
#    y 0.000000 1.727750 0.000000 
#    z 0.000000 0.000000 1.742140 
# 
# From -- ./inp_files/15378.got.cif
#   From: 2010.06.25/outbox.cif.g09.slc.cpg/sg58_8_cif.got.tgz:15378.got - 2010.06.26 21:38:00.
