data_PCOD8236390
_publ_section_title
;
Structure prediction by ZEFSAII (Michael W. Deem and Ramdas Pophale) SiO2 
 PCOD8236390
Probable space group: P N N M
;
_chemical_formula_sum "Si O2"
_cell_formula_units_Z 56
_cell_length_a 11.133231
_cell_length_b 10.998184
_cell_length_c 24.013063
_cell_angle_alpha 90.000000
_cell_angle_beta 90.000000
_cell_angle_gamma 90.000000
_cell_volume 2940.287257
_symmetry_space_group_name_H-M "P N N M"
_symmetry_group_IT_number 58
_symmetry_cell_setting 'orthorhombic'
loop_
_space_group_symop_operation_xyz
x,y,z
-x,-y,z
1/2+x,1/2-y,1/2-z
1/2-x,1/2+y,1/2-z
-x,-y,-z
x,y,-z
1/2-x,1/2+y,1/2+z
1/2+x,1/2-y,1/2+z
loop_
_atom_site_type_symbol
_atom_site_label
_atom_site_fract_x
_atom_site_fract_y
_atom_site_fract_z
Si Si1 0.432507 0.309217 0.564885
Si Si2 0.659792 0.826698 0.338783
Si Si3 0.321499 0.564298 0.435045
Si Si4 0.567077 0.607032 0.726375
Si Si5 0.422087 0.745632 0.192880
Si Si6 0.825956 0.524145 0.249942
Si Si7 0.901307 0.401809 0.640494
O O1 0.413100 0.282395 0.500000
O O2 0.387378 0.186706 0.597479
O O3 0.571528 0.340607 0.577265
O O4 0.354109 0.426871 0.584356
O O5 0.577976 0.725906 0.309826
O O6 0.798298 0.787062 0.336781
O O7 0.638719 0.957325 0.308704
O O8 0.293991 0.561546 0.500000
O O9 0.202095 0.611562 0.404941
O O10 0.500000 0.500000 0.691085
O O11 0.468618 0.629333 0.774492
O O12 0.691083 0.570292 0.754875
O O13 0.411587 0.861716 0.235574
O O14 0.523478 0.777139 0.146765
O O15 0.836500 0.428961 0.300527
O O16 0.000000 0.500000 0.621722
#
# Coordination Sequence:
#
# PCOD8236390 Si02
#       7
#     8   8   8   8   8   8   8
#     4   9  19  34  52  80 111 143 196 246 280 336
#     4  11  21  34  56  80 112 154 188 224 291 339
#     4   9  18  33  54  79 110 151 190 234 294 343
#     4  11  21  33  53  79 114 145 182 223 273 344
#     4  10  21  36  51  80 120 145 183 232 275 336
#     4  10  21  34  51  79 111 149 186 218 276 340
#     4  10  19  34  49  75 118 145 177 232 274 330
#
# _framework density 19.045759
#
# number of rings (size 3 to 8) (size 9 to 14) (size 15 to 20)
#    0.000    2.000    2.857    3.429    4.000    0.286 
#    0.000    0.714    0.000    0.000    0.000    5.000 
#    0.000    0.000    0.000    0.000    0.000    0.000 
#
# Total GULP energy -693905.207366 kJ/mol
# GULP energy per Si atom -12391.164417 kJ/mol
# Density = 1.900241 g / cm^3
# Si number density = 19.045759 Si / 1000 Ang^3
#
#
#
# Elastic Constant Matrix: (Units=GPa)
#
#
# Indices 1 2 3 4 5 6 
#
# 1 97.5092 25.1793 48.4101 0.0000 0.0000 0.0000
# 2 25.1793 39.8417 17.7802 0.0000 0.0000 0.0000
# 3 48.4101 17.7802 71.9662 0.0000 0.0000 0.0000
# 4 0.0000 0.0000 0.0000 23.8776 0.0000 0.0000
# 5 0.0000 0.0000 0.0000 0.0000 36.2588 0.0000
# 6 0.0000 0.0000 0.0000 0.0000 0.0000 24.6545
#
#
#
# Elastic Compliance Matrix: (Units=1/GPa)
#
#
# Indices 1 2 3 4 5 6 
#
# 1 0.016662 -0.006213 -0.009673 0.000000 0.000000 0.000000
# 2 -0.006213 0.030527 -0.003362 0.000000 0.000000 0.000000
# 3 -0.009673 -0.003362 0.021233 0.000000 0.000000 0.000000
# 4 0.000000 0.000000 0.000000 0.041880 0.000000 0.000000
# 5 0.000000 0.000000 0.000000 0.000000 0.027580 0.000000
# 6 0.000000 0.000000 0.000000 0.000000 0.000000 0.040561
#
#
# Mechanical properties :
#
#
# Convention : Reuss Voigt Hill
#
# Bulk Modulus (GPa) = 33.41804 43.56180 38.48992
# Shear Modulus (GPa) = 22.03465 24.82135 23.42800
#
# Velocity S-wave (km/s) = 3.40506 3.61397 3.51107
# Velocity P-wave (km/s) = 5.74835 6.35108 6.05722
#
# Compressibility (1/GPa) = 0.02992396
#
# Stress axis : x y z
#
# Youngs Moduli (GPa) = 60.01547 32.75829 47.09620
#
# Poissons Ratio (x) = 0.20354 0.45558
# Poissons Ratio (y) = 0.37290 0.15835
# Poissons Ratio (z) = 0.58055 0.11015
#
# Static dielectric constant tensor:
#      x y z
#    x 3.608250 0.000000 0.000000 
#    y 0.000000 3.439810 0.000000 
#    z 0.000000 0.000000 3.330550 
# 
# 
# High freq. dielectric constant tensor:
#      x y z
#    x 1.761560 0.000000 0.000000 
#    y 0.000000 1.712500 0.000000 
#    z 0.000000 0.000000 1.708590 
# 
# From -- ./inp_files/29611.got.cif
#   From: 2010.06.25/outbox.cif.g09.slc.cpg/sg58_15_cif.got.tgz:29611.got - 2010.06.26 21:38:00.
