data_PCOD8236722
_publ_section_title
;
Structure prediction by ZEFSAII (Michael W. Deem and Ramdas Pophale) SiO2 
 PCOD8236722
Probable space group: P N N M
;
_chemical_formula_sum "Si O2"
_cell_formula_units_Z 56
_cell_length_a 14.558806
_cell_length_b 23.996516
_cell_length_c 7.672692
_cell_angle_alpha 90.000000
_cell_angle_beta 90.000000
_cell_angle_gamma 90.000000
_cell_volume 2680.536443
_symmetry_space_group_name_H-M "P N N M"
_symmetry_group_IT_number 58
_symmetry_cell_setting 'orthorhombic'
loop_
_space_group_symop_operation_xyz
x,y,z
-x,-y,z
1/2+x,1/2-y,1/2-z
1/2-x,1/2+y,1/2-z
-x,-y,-z
x,y,-z
1/2-x,1/2+y,1/2+z
1/2+x,1/2-y,1/2+z
loop_
_atom_site_type_symbol
_atom_site_label
_atom_site_fract_x
_atom_site_fract_y
_atom_site_fract_z
Si Si1 0.344729 0.374640 0.304698
Si Si2 0.358343 0.167047 0.794135
Si Si3 0.358639 0.532456 0.000000
Si Si4 0.938980 0.674844 0.293177
Si Si5 0.044677 0.913803 0.500000
Si Si6 0.836198 0.569243 0.297214
Si Si7 0.741189 0.230933 0.701862
Si Si8 0.213096 0.548717 0.706253
O O1 0.378900 0.389152 0.500000
O O2 0.429533 0.378440 0.172469
O O3 0.267576 0.417873 0.234742
O O4 0.298802 0.313879 0.309908
O O5 0.458254 0.186177 0.720058
O O6 0.277196 0.208648 0.731976
O O7 0.337388 0.104532 0.729688
O O8 0.363251 0.166042 0.000000
O O9 0.303192 0.541005 0.821554
O O10 0.435753 0.580194 0.000000
O O11 0.405230 0.472694 0.000000
O O12 0.940821 0.674269 0.500000
O O13 0.906942 0.614174 0.215086
O O14 0.868309 0.723269 0.232327
O O15 0.840178 0.581105 0.500000
O O16 0.855552 0.504088 0.255008
O O17 0.764585 0.223056 0.500000
O O18 0.239501 0.550089 0.500000
#
# Coordination Sequence:
#
# PCOD8236722 Si02
#       8
#     8   8   4   8   4   8   8   8
#     4  10  19  36  60  85 112 154 200 249 302 348
#     4   9  20  38  59  83 121 160 198 247 303 360
#     4  11  24  38  58  90 119 160 199 243 312 366
#     4   9  18  36  59  87 111 149 204 247 292 354
#     4  11  22  38  60  89 120 149 206 260 293 362
#     4   8  15  29  58  85 109 146 192 235 291 352
#     4  10  19  36  58  84 119 157 195 251 304 348
#     4  10  20  39  59  83 122 162 194 241 306 366
#
# _framework density 20.891342000000002
#
# number of rings (size 3 to 8) (size 9 to 14) (size 15 to 20)
#    0.000    2.429    2.143    1.286    0.000    1.143 
#    6.429    4.286    0.000    0.857    0.000    0.000 
#    0.000    0.000    0.000    0.000    0.000    0.000 
#
# Total GULP energy -693921.732853 kJ/mol
# GULP energy per Si atom -12391.459515 kJ/mol
# Density = 2.084379 g / cm^3
# Si number density = 20.891342 Si / 1000 Ang^3
#
#
#
# Elastic Constant Matrix: (Units=GPa)
#
#
# Indices 1 2 3 4 5 6 
#
# 1 114.8473 58.2322 20.2658 0.0000 0.0000 0.0000
# 2 58.2322 136.0285 6.4934 0.0000 0.0000 0.0000
# 3 20.2658 6.4934 66.8832 0.0000 0.0000 0.0000
# 4 0.0000 0.0000 0.0000 18.4804 0.0000 0.0000
# 5 0.0000 0.0000 0.0000 0.0000 20.9838 0.0000
# 6 0.0000 0.0000 0.0000 0.0000 0.0000 28.7585
#
#
#
# Elastic Compliance Matrix: (Units=1/GPa)
#
#
# Indices 1 2 3 4 5 6 
#
# 1 0.011720 -0.004870 -0.003078 0.000000 0.000000 0.000000
# 2 -0.004870 0.009409 0.000562 0.000000 0.000000 0.000000
# 3 -0.003078 0.000562 0.015830 0.000000 0.000000 0.000000
# 4 0.000000 0.000000 0.000000 0.054111 0.000000 0.000000
# 5 0.000000 0.000000 0.000000 0.000000 0.047656 0.000000
# 6 0.000000 0.000000 0.000000 0.000000 0.000000 0.034772
#
#
# Mechanical properties :
#
#
# Convention : Reuss Voigt Hill
#
# Bulk Modulus (GPa) = 45.07307 54.19351 49.63329
# Shear Modulus (GPa) = 25.55372 29.16239 27.35806
#
# Velocity S-wave (km/s) = 3.50118 3.74024 3.62268
# Velocity P-wave (km/s) = 6.16167 6.68203 6.42712
#
# Compressibility (1/GPa) = 0.02218620
#
# Stress axis : x y z
#
# Youngs Moduli (GPa) = 85.32595 106.27650 63.17277
#
# Poissons Ratio (x) = 0.51758 0.19446
# Poissons Ratio (y) = 0.41555 -0.03551
# Poissons Ratio (z) = 0.26266 -0.05974
#
# Static dielectric constant tensor:
#      x y z
#    x 3.869100 0.000000 0.000000 
#    y 0.000000 4.003380 0.000000 
#    z 0.000000 0.000000 3.605650 
# 
# 
# High freq. dielectric constant tensor:
#      x y z
#    x 1.793790 0.000000 0.000000 
#    y 0.000000 1.816140 0.000000 
#    z 0.000000 0.000000 1.806430 
# 
# From -- ./inp_files/6493.got.cif
#   From: 2010.06.25/outbox.cif.g09.slc.cpg/sg58_4_cif.got.tgz:6493.got - 2010.06.26 21:38:00.
