data_PCOD8236081
_publ_section_title
;
Structure prediction by ZEFSAII (Michael W. Deem and Ramdas Pophale) SiO2 
 PCOD8236081
Probable space group: P N N M
;
_chemical_formula_sum "Si O2"
_cell_formula_units_Z 40
_cell_length_a 12.503123
_cell_length_b 20.939429
_cell_length_c 8.467530
_cell_angle_alpha 90.000000
_cell_angle_beta 90.000000
_cell_angle_gamma 90.000000
_cell_volume 2216.869265
_symmetry_space_group_name_H-M "P N N M"
_symmetry_group_IT_number 58
_symmetry_cell_setting 'orthorhombic'
loop_
_space_group_symop_operation_xyz
x,y,z
-x,-y,z
1/2+x,1/2-y,1/2-z
1/2-x,1/2+y,1/2-z
-x,-y,-z
x,y,-z
1/2-x,1/2+y,1/2+z
1/2+x,1/2-y,1/2+z
loop_
_atom_site_type_symbol
_atom_site_label
_atom_site_fract_x
_atom_site_fract_y
_atom_site_fract_z
Si Si1 0.512103 0.928005 0.683796
Si Si2 0.672332 0.831653 0.817174
Si Si3 0.833871 0.671475 0.817509
Si Si4 0.391107 0.695739 0.816049
Si Si5 0.384611 0.302269 0.315536
O O1 0.542341 0.926323 0.500000
O O2 0.608373 0.895914 0.779664
O O3 0.400306 0.892350 0.717365
O O4 0.500000 0.000000 0.745693
O O5 0.796517 0.841989 0.773104
O O6 0.624000 0.773550 0.715570
O O7 0.661452 0.813639 0.000000
O O8 0.881473 0.728445 0.712480
O O9 0.710568 0.659459 0.771377
O O10 0.842302 0.692088 0.000000
O O11 0.503884 0.670576 0.750098
O O12 0.383048 0.681045 0.000000
O O13 0.377033 0.315310 0.500000
#
# Coordination Sequence:
#
# PCOD8236081 Si02
#       5
#     8   8   8   8   8
#     4  10  21  37  56  77 107 145 181 218 260 311
#     4  11  21  33  51  77 107 139 177 217 264 315
#     4  10  19  32  51  76 106 138 176 214 259 315
#     4  11  20  32  52  77 107 138 171 216 269 318
#     4  11  20  32  51  76 108 139 171 216 268 317
#
# _framework density 18.043462000000002
#
# number of rings (size 3 to 8) (size 9 to 14) (size 15 to 20)
#    0.000    1.400    2.000    8.400    0.000    1.200 
#    0.000    0.000    0.000    1.200    0.000    8.400 
#    0.000    0.000    0.000    0.000    0.000    0.000 
#
# Total GULP energy -496163.353540 kJ/mol
# GULP energy per Si atom -12404.083838 kJ/mol
# Density = 1.800239 g / cm^3
# Si number density = 18.043462 Si / 1000 Ang^3
#
#
#
# Elastic Constant Matrix: (Units=GPa)
#
#
# Indices 1 2 3 4 5 6 
#
# 1 145.7654 45.0317 23.9306 0.0000 0.0000 0.0000
# 2 45.0317 82.7436 18.1098 0.0000 0.0000 0.0000
# 3 23.9306 18.1098 76.1418 0.0000 0.0000 0.0000
# 4 0.0000 0.0000 0.0000 17.0319 0.0000 0.0000
# 5 0.0000 0.0000 0.0000 0.0000 28.7297 0.0000
# 6 0.0000 0.0000 0.0000 0.0000 0.0000 23.5602
#
#
#
# Elastic Compliance Matrix: (Units=1/GPa)
#
#
# Indices 1 2 3 4 5 6 
#
# 1 0.008438 -0.004232 -0.001645 0.000000 0.000000 0.000000
# 2 -0.004232 0.014872 -0.002207 0.000000 0.000000 0.000000
# 3 -0.001645 -0.002207 0.014175 0.000000 0.000000 0.000000
# 4 0.000000 0.000000 0.000000 0.058713 0.000000 0.000000
# 5 0.000000 0.000000 0.000000 0.000000 0.034807 0.000000
# 6 0.000000 0.000000 0.000000 0.000000 0.000000 0.042445
#
#
# Mechanical properties :
#
#
# Convention : Reuss Voigt Hill
#
# Bulk Modulus (GPa) = 46.91277 53.19944 50.05611
# Shear Modulus (GPa) = 25.41626 28.36961 26.89293
#
# Velocity S-wave (km/s) = 3.75722 3.96952 3.86483
# Velocity P-wave (km/s) = 6.69915 7.11038 6.90782
#
# Compressibility (1/GPa) = 0.02131616
#
# Stress axis : x y z
#
# Youngs Moduli (GPa) = 118.51318 67.24137 70.54450
#
# Poissons Ratio (x) = 0.28457 0.11607
# Poissons Ratio (y) = 0.50155 0.15570
# Poissons Ratio (z) = 0.19500 0.14841
#
# Static dielectric constant tensor:
#      x y z
#    x 3.704120 0.000000 0.000000 
#    y 0.000000 2.925650 0.000000 
#    z 0.000000 0.000000 3.390160 
# 
# 
# High freq. dielectric constant tensor:
#      x y z
#    x 1.718830 0.000000 0.000000 
#    y 0.000000 1.640130 0.000000 
#    z 0.000000 0.000000 1.712810 
# 
# From -- ./inp_files/3998.got.cif
#   From: 2010.06.25/outbox.cif.g09.slc.cpg/sg58_2_cif.got.tgz:3998.got - 2010.06.26 21:38:00.
