data_PCOD8236193
_publ_section_title
;
Structure prediction by ZEFSAII (Michael W. Deem and Ramdas Pophale) SiO2 
 PCOD8236193
Probable space group: P N N M
;
_chemical_formula_sum "Si O2"
_cell_formula_units_Z 44
_cell_length_a 10.568824
_cell_length_b 15.084219
_cell_length_c 13.972620
_cell_angle_alpha 90.000000
_cell_angle_beta 90.000000
_cell_angle_gamma 90.000000
_cell_volume 2227.549394
_symmetry_space_group_name_H-M "P N N M"
_symmetry_group_IT_number 58
_symmetry_cell_setting 'orthorhombic'
loop_
_space_group_symop_operation_xyz
x,y,z
-x,-y,z
1/2+x,1/2-y,1/2-z
1/2-x,1/2+y,1/2-z
-x,-y,-z
x,y,-z
1/2-x,1/2+y,1/2+z
1/2+x,1/2-y,1/2+z
loop_
_atom_site_type_symbol
_atom_site_label
_atom_site_fract_x
_atom_site_fract_y
_atom_site_fract_z
Si Si1 0.449241 0.259281 0.109692
Si Si2 0.419082 0.177704 0.392571
Si Si3 0.155427 0.098234 0.394844
Si Si4 0.165638 0.847185 0.212673
Si Si5 0.000000 0.000000 0.750151
Si Si6 0.549784 0.100116 0.218168
O O1 0.583797 0.308543 0.122360
O O2 0.347882 0.307748 0.179230
O O3 0.470104 0.157507 0.141198
O O4 0.399987 0.262129 0.000000
O O5 0.474064 0.182578 0.500000
O O6 0.304925 0.108283 0.385628
O O7 0.361458 0.272419 0.364990
O O8 0.528623 0.142834 0.323008
O O9 0.120158 0.061743 0.500000
O O10 0.117581 0.026447 0.316906
O O11 0.301355 0.892536 0.196812
O O12 0.055983 0.919539 0.188460
O O13 0.500000 0.000000 0.210786
#
# Coordination Sequence:
#
# PCOD8236193 Si02
#       6
#     8   8   8   8   4   8
#     4   9  19  36  58  82 111 151 192 229 278 340
#     4  10  21  38  58  79 113 157 188 226 284 342
#     4   9  16  31  55  79 106 142 184 227 276 330
#     4  10  21  37  58  82 115 151 191 231 277 336
#     4  10  19  32  55  86 110 140 184 234 274 320
#     4  11  22  36  57  88 118 148 186 240 292 335
#
# _framework density 19.752648000000001
#
# number of rings (size 3 to 8) (size 9 to 14) (size 15 to 20)
#    0.000    2.182    1.818    1.364    0.000    2.182 
#    0.000    0.455    0.000    0.000    0.000    0.000 
#    0.000    0.000    0.000    0.000    0.000    0.000 
#
# Total GULP energy -545500.498310 kJ/mol
# GULP energy per Si atom -12397.738598 kJ/mol
# Density = 1.970769 g / cm^3
# Si number density = 19.752648 Si / 1000 Ang^3
#
#
#
# Elastic Constant Matrix: (Units=GPa)
#
#
# Indices 1 2 3 4 5 6 
#
# 1 50.4535 17.9474 -9.1435 0.0000 0.0000 0.0000
# 2 17.9474 78.9817 6.8818 0.0000 0.0000 0.0000
# 3 -9.1435 6.8818 58.4821 0.0000 0.0000 0.0000
# 4 0.0000 0.0000 0.0000 1.9885 0.0000 0.0000
# 5 0.0000 0.0000 0.0000 0.0000 17.4061 0.0000
# 6 0.0000 0.0000 0.0000 0.0000 0.0000 24.5669
#
#
#
# Elastic Compliance Matrix: (Units=1/GPa)
#
#
# Indices 1 2 3 4 5 6 
#
# 1 0.022525 -0.005482 0.004167 0.000000 0.000000 0.000000
# 2 -0.005482 0.014126 -0.002519 0.000000 0.000000 0.000000
# 3 0.004167 -0.002519 0.018047 0.000000 0.000000 0.000000
# 4 0.000000 0.000000 0.000000 0.502885 0.000000 0.000000
# 5 0.000000 0.000000 0.000000 0.000000 0.057451 0.000000
# 6 0.000000 0.000000 0.000000 0.000000 0.000000 0.040705
#
#
# Mechanical properties :
#
#
# Convention : Reuss Voigt Hill
#
# Bulk Modulus (GPa) = 21.26278 24.36541 22.81409
# Shear Modulus (GPa) = 7.36285 20.27442 13.81863
#
# Velocity S-wave (km/s) = 1.93277 3.20725 2.64783
# Velocity P-wave (km/s) = 3.97098 5.10659 4.57417
#
# Compressibility (1/GPa) = 0.04703053
#
# Stress axis : x y z
#
# Youngs Moduli (GPa) = 44.39460 70.79009 55.41032
#
# Poissons Ratio (x) = 0.38804 -0.23088
# Poissons Ratio (y) = 0.24335 0.13960
# Poissons Ratio (z) = -0.18498 0.17834
#
# Static dielectric constant tensor:
#      x y z
#    x 3.383950 0.000000 0.000000 
#    y 0.000000 3.586650 0.000000 
#    z 0.000000 0.000000 3.517280 
# 
# 
# High freq. dielectric constant tensor:
#      x y z
#    x 1.757690 0.000000 0.000000 
#    y 0.000000 1.774270 0.000000 
#    z 0.000000 0.000000 1.753380 
# 
# From -- ./inp_files/21087.got.cif
#   From: 2010.06.25/outbox.cif.g09.slc.cpg/sg58_11_cif.got.tgz:21087.got - 2010.06.26 21:38:00.
