data_PCOD8236717
_publ_section_title
;
Structure prediction by ZEFSAII (Michael W. Deem and Ramdas Pophale) SiO2 
 PCOD8236717
Probable space group: P N N M
;
_chemical_formula_sum "Si O2"
_cell_formula_units_Z 56
_cell_length_a 17.412099
_cell_length_b 19.114574
_cell_length_c 8.869677
_cell_angle_alpha 90.000000
_cell_angle_beta 90.000000
_cell_angle_gamma 90.000000
_cell_volume 2952.048960
_symmetry_space_group_name_H-M "P N N M"
_symmetry_group_IT_number 58
_symmetry_cell_setting 'orthorhombic'
loop_
_space_group_symop_operation_xyz
x,y,z
-x,-y,z
1/2+x,1/2-y,1/2-z
1/2-x,1/2+y,1/2-z
-x,-y,-z
x,y,-z
1/2-x,1/2+y,1/2+z
1/2+x,1/2-y,1/2+z
loop_
_atom_site_type_symbol
_atom_site_label
_atom_site_fract_x
_atom_site_fract_y
_atom_site_fract_z
Si Si1 0.690480 0.102767 0.822040
Si Si2 0.125502 0.647729 0.177805
Si Si3 0.178129 0.795652 0.820654
Si Si4 0.472570 0.923400 0.677957
Si Si5 0.443108 0.404118 0.322155
Si Si6 0.395050 0.556857 0.322596
Si Si7 0.754902 0.464843 0.822539
O O1 0.737979 0.173249 0.776116
O O2 0.606161 0.102759 0.751179
O O3 0.741267 0.038233 0.763692
O O4 0.682354 0.096718 0.000000
O O5 0.161845 0.718591 0.248657
O O6 0.036869 0.634167 0.223299
O O7 0.172983 0.580697 0.232577
O O8 0.132687 0.653680 0.000000
O O9 0.110301 0.844069 0.751388
O O10 0.171274 0.793856 0.000000
O O11 0.458915 0.927220 0.500000
O O12 0.500000 0.000000 0.735650
O O13 0.434245 0.404257 0.500000
O O14 0.415972 0.479380 0.264726
O O15 0.533245 0.392400 0.281031
O O16 0.376836 0.559559 0.500000
O O17 0.320442 0.578784 0.227274
O O18 0.755979 0.478322 0.000000
#
# Coordination Sequence:
#
# PCOD8236717 Si02
#       7
#     8   8   8   8   8   8   8
#     4  11  21  34  58  85 107 137 182 229 271 318
#     4   9  19  35  54  74 104 146 182 215 261 327
#     4   9  17  33  55  77 102 142 186 218 263 325
#     4  10  19  36  58  81 108 140 182 223 267 326
#     4   8  14  27  50  74  99 130 171 216 258 311
#     4   9  16  29  50  78 102 128 170 220 264 306
#     4  11  20  33  53  78 107 140 178 220 265 317
#
# _framework density 18.969875999999999
#
# number of rings (size 3 to 8) (size 9 to 14) (size 15 to 20)
#    0.000    2.429    2.857    1.714    0.000    0.286 
#    2.571    1.429    0.000    4.286    0.000    0.000 
#    0.000    0.000    0.000    0.000    0.000    0.000 
#
# Total GULP energy -693976.436887 kJ/mol
# GULP energy per Si atom -12392.436373 kJ/mol
# Density = 1.892670 g / cm^3
# Si number density = 18.969876 Si / 1000 Ang^3
#
#
#
# Elastic Constant Matrix: (Units=GPa)
#
#
# Indices 1 2 3 4 5 6 
#
# 1 151.3180 47.9087 35.5392 0.0000 0.0000 0.0000
# 2 47.9087 95.8309 21.5469 0.0000 0.0000 0.0000
# 3 35.5392 21.5469 34.7140 0.0000 0.0000 0.0000
# 4 0.0000 0.0000 0.0000 12.4295 0.0000 0.0000
# 5 0.0000 0.0000 0.0000 0.0000 26.0333 0.0000
# 6 0.0000 0.0000 0.0000 0.0000 0.0000 29.1044
#
#
#
# Elastic Compliance Matrix: (Units=1/GPa)
#
#
# Indices 1 2 3 4 5 6 
#
# 1 0.009361 -0.002934 -0.007762 0.000000 0.000000 0.000000
# 2 -0.002934 0.013048 -0.005094 0.000000 0.000000 0.000000
# 3 -0.007762 -0.005094 0.039915 0.000000 0.000000 0.000000
# 4 0.000000 0.000000 0.000000 0.080453 0.000000 0.000000
# 5 0.000000 0.000000 0.000000 0.000000 0.038412 0.000000
# 6 0.000000 0.000000 0.000000 0.000000 0.000000 0.034359
#
#
# Mechanical properties :
#
#
# Convention : Reuss Voigt Hill
#
# Bulk Modulus (GPa) = 32.52861 54.65028 43.58944
# Shear Modulus (GPa) = 19.42681 25.30468 22.36574
#
# Velocity S-wave (km/s) = 3.20361 3.65628 3.43740
# Velocity P-wave (km/s) = 5.55598 6.83345 6.22755
#
# Compressibility (1/GPa) = 0.03074217
#
# Stress axis : x y z
#
# Youngs Moduli (GPa) = 106.83036 76.64301 25.05320
#
# Poissons Ratio (x) = 0.22491 0.19446
# Poissons Ratio (y) = 0.31349 0.12763
# Poissons Ratio (z) = 0.82919 0.39044
#
# Static dielectric constant tensor:
#      x y z
#    x 3.805410 0.000000 0.000000 
#    y 0.000000 3.641240 0.000000 
#    z 0.000000 0.000000 2.996660 
# 
# 
# High freq. dielectric constant tensor:
#      x y z
#    x 1.758760 0.000000 0.000000 
#    y 0.000000 1.717550 0.000000 
#    z 0.000000 0.000000 1.689740 
# 
# From -- ./inp_files/8192.got.cif
#   From: 2010.06.25/outbox.cif.g09.slc.cpg/sg58_5_cif.got.tgz:8192.got - 2010.06.26 21:38:00.
