data_PCOD8236080
_publ_section_title
;
Structure prediction by ZEFSAII (Michael W. Deem and Ramdas Pophale) SiO2 
 PCOD8236080
Probable space group: P N N M
;
_chemical_formula_sum "Si O2"
_cell_formula_units_Z 48
_cell_length_a 9.143980
_cell_length_b 31.084538
_cell_length_c 8.771724
_cell_angle_alpha 90.000000
_cell_angle_beta 90.000000
_cell_angle_gamma 90.000000
_cell_volume 2493.243197
_symmetry_space_group_name_H-M "P N N M"
_symmetry_group_IT_number 58
_symmetry_cell_setting 'orthorhombic'
loop_
_space_group_symop_operation_xyz
x,y,z
-x,-y,z
1/2+x,1/2-y,1/2-z
1/2-x,1/2+y,1/2-z
-x,-y,-z
x,y,-z
1/2-x,1/2+y,1/2+z
1/2+x,1/2-y,1/2+z
loop_
_atom_site_type_symbol
_atom_site_label
_atom_site_fract_x
_atom_site_fract_y
_atom_site_fract_z
Si Si1 0.840665 0.049212 0.181371
Si Si2 0.168789 0.045661 0.181162
Si Si3 0.839103 0.372700 0.681144
Si Si4 0.332262 0.704904 0.822025
Si Si5 0.645755 0.711560 0.678950
Si Si6 0.666672 0.130484 0.181552
O O1 0.737665 0.086697 0.248318
O O2 0.005783 0.056373 0.241368
O O3 0.783269 0.002196 0.236035
O O4 0.839099 0.051494 0.000000
O O5 0.280931 0.081356 0.244014
O O6 0.166368 0.046600 0.000000
O O7 0.839649 0.372466 0.500000
O O8 0.730725 0.335900 0.735245
O O9 0.002089 0.365332 0.746350
O O10 0.496342 0.713852 0.770551
O O11 0.236206 0.746135 0.779820
O O12 0.329489 0.695363 0.000000
O O13 0.612225 0.707776 0.500000
O O14 0.738988 0.670893 0.738003
O O15 0.662375 0.129289 0.000000
#
# Coordination Sequence:
#
# PCOD8236080 Si02
#       6
#     8   8   8   8   8   8
#     4   8  13  23  40  68 103 132 166 212 257 299
#     4   8  14  24  42  69 101 136 169 207 255 300
#     4  10  19  32  51  75 105 140 173 206 251 302
#     4  11  23  37  55  79 104 132 168 208 250 299
#     4  10  21  37  55  75 101 132 166 206 252 300
#     4   9  17  29  48  74 103 134 169 211 256 302
#
# _framework density 19.252033999999998
#
# number of rings (size 3 to 8) (size 9 to 14) (size 15 to 20)
#    0.000    2.667    0.000    3.500    0.000    6.000 
#    0.000    4.167    0.000    0.000    0.000   11.667 
#    0.000    0.000    0.000    0.000    0.000    0.000 
#
# Total GULP energy -595077.552837 kJ/mol
# GULP energy per Si atom -12397.449017 kJ/mol
# Density = 1.920822 g / cm^3
# Si number density = 19.252034 Si / 1000 Ang^3
#
#
#
# Elastic Constant Matrix: (Units=GPa)
#
#
# Indices 1 2 3 4 5 6 
#
# 1 119.3719 53.5069 15.1558 0.0000 0.0000 0.0000
# 2 53.5069 135.6996 17.4528 0.0000 0.0000 0.0000
# 3 15.1558 17.4528 7.8487 0.0000 0.0000 0.0000
# 4 0.0000 0.0000 0.0000 15.8539 0.0000 0.0000
# 5 0.0000 0.0000 0.0000 0.0000 16.2939 0.0000
# 6 0.0000 0.0000 0.0000 0.0000 0.0000 38.2613
#
#
#
# Elastic Compliance Matrix: (Units=1/GPa)
#
#
# Indices 1 2 3 4 5 6 
#
# 1 0.011620 -0.002375 -0.017157 0.000000 0.000000 0.000000
# 2 -0.002375 0.010806 -0.019443 0.000000 0.000000 0.000000
# 3 -0.017157 -0.019443 0.203773 0.000000 0.000000 0.000000
# 4 0.000000 0.000000 0.000000 0.063076 0.000000 0.000000
# 5 0.000000 0.000000 0.000000 0.000000 0.061373 0.000000
# 6 0.000000 0.000000 0.000000 0.000000 0.000000 0.026136
#
#
# Mechanical properties :
#
#
# Convention : Reuss Voigt Hill
#
# Bulk Modulus (GPa) = 6.74537 48.35013 27.54775
# Shear Modulus (GPa) = 9.91767 25.86880 17.89323
#
# Velocity S-wave (km/s) = 2.27215 3.66962 3.05195
# Velocity P-wave (km/s) = 3.22411 6.56686 5.17293
#
# Compressibility (1/GPa) = 0.14824984
#
# Stress axis : x y z
#
# Youngs Moduli (GPa) = 86.05759 92.53730 4.90742
#
# Poissons Ratio (x) = 0.21980 0.08419
# Poissons Ratio (y) = 0.20441 0.09542
# Poissons Ratio (z) = 1.47645 1.79921
#
# Static dielectric constant tensor:
#      x y z
#    x 3.727830 0.000000 0.000000 
#    y 0.000000 3.902700 0.000000 
#    z 0.000000 0.000000 2.919660 
# 
# 
# High freq. dielectric constant tensor:
#      x y z
#    x 1.757300 0.000000 0.000000 
#    y 0.000000 1.770460 0.000000 
#    z 0.000000 0.000000 1.685100 
# 
# From -- ./inp_files/2975.got.cif
#   From: 2010.06.25/outbox.cif.g09.slc.cpg/sg58_2_cif.got.tgz:2975.got - 2010.06.26 21:38:00.
