data_PCOD8236205
_publ_section_title
;
Structure prediction by ZEFSAII (Michael W. Deem and Ramdas Pophale) SiO2 
 PCOD8236205
Probable space group: P N N M
;
_chemical_formula_sum "Si O2"
_cell_formula_units_Z 64
_cell_length_a 20.350859
_cell_length_b 9.007075
_cell_length_c 19.075900
_cell_angle_alpha 90.000000
_cell_angle_beta 90.000000
_cell_angle_gamma 90.000000
_cell_volume 3496.645153
_symmetry_space_group_name_H-M "P N N M"
_symmetry_group_IT_number 58
_symmetry_cell_setting 'orthorhombic'
loop_
_space_group_symop_operation_xyz
x,y,z
-x,-y,z
1/2+x,1/2-y,1/2-z
1/2-x,1/2+y,1/2-z
-x,-y,-z
x,y,-z
1/2-x,1/2+y,1/2+z
1/2+x,1/2-y,1/2+z
loop_
_atom_site_type_symbol
_atom_site_label
_atom_site_fract_x
_atom_site_fract_y
_atom_site_fract_z
Si Si1 0.693689 0.184132 0.578295
Si Si2 0.629660 0.836607 0.290044
Si Si3 0.494257 0.329774 0.702559
Si Si4 0.041208 0.354645 0.080779
Si Si5 0.718610 0.860397 0.579513
Si Si6 0.062163 0.413049 0.713127
Si Si7 0.745750 0.371639 0.295734
Si Si8 0.302616 0.817646 0.175303
O O1 0.698525 0.251505 0.500000
O O2 0.619212 0.132522 0.594693
O O3 0.722717 0.307545 0.629891
O O4 0.737546 0.034691 0.584659
O O5 0.581923 0.698694 0.282822
O O6 0.658766 0.831068 0.367922
O O7 0.682805 0.815469 0.228622
O O8 0.588666 0.989431 0.278831
O O9 0.500000 0.500000 0.716452
O O10 0.513915 0.285286 0.623739
O O11 0.539492 0.244350 0.757972
O O12 0.000000 0.500000 0.105162
O O13 0.026337 0.321977 0.000000
O O14 0.697819 0.819112 0.500000
O O15 0.780111 0.758876 0.602922
O O16 0.124110 0.383141 0.661579
O O17 0.000000 0.500000 0.676961
O O18 0.695772 0.309207 0.236321
O O19 0.751081 0.551216 0.301890
#
# Coordination Sequence:
#
# PCOD8236205 Si02
#       8
#     8   8   8   8   8   8   8   8
#     4  10  20  34  53  76 104 139 174 211 256 304
#     4   9  19  34  51  69  96 137 170 202 247 302
#     4  11  21  30  46  74  99 122 160 210 254 288
#     4  10  20  34  50  66  95 142 181 202 234 296
#     4  10  20  33  50  74 102 133 170 207 249 302
#     4   9  18  35  53  70  97 131 171 206 247 309
#     4  10  19  33  50  73 100 128 169 209 254 305
#     4  10  20  33  54  75  99 135 170 214 260 303
#
# _framework density 18.303258
#
# number of rings (size 3 to 8) (size 9 to 14) (size 15 to 20)
#    0.000    2.125    0.000    5.625    0.000    7.250 
#    0.000    1.250    0.000    0.750    0.000    2.625 
#    0.000   19.000    0.000    0.000    0.000    0.000 
#
# Total GULP energy -793096.634609 kJ/mol
# GULP energy per Si atom -12392.134916 kJ/mol
# Density = 1.826160 g / cm^3
# Si number density = 18.303258 Si / 1000 Ang^3
#
#
#
# Elastic Constant Matrix: (Units=GPa)
#
#
# Indices 1 2 3 4 5 6 
#
# 1 87.8885 27.7045 28.4733 0.0000 0.0000 0.0000
# 2 27.7045 88.1671 20.3602 0.0000 0.0000 0.0000
# 3 28.4733 20.3602 70.4761 0.0000 0.0000 0.0000
# 4 0.0000 0.0000 0.0000 24.7984 0.0000 0.0000
# 5 0.0000 0.0000 0.0000 0.0000 19.0190 0.0000
# 6 0.0000 0.0000 0.0000 0.0000 0.0000 24.2016
#
#
#
# Elastic Compliance Matrix: (Units=1/GPa)
#
#
# Indices 1 2 3 4 5 6 
#
# 1 0.013933 -0.003298 -0.004676 0.000000 0.000000 0.000000
# 2 -0.003298 0.012934 -0.002404 0.000000 0.000000 0.000000
# 3 -0.004676 -0.002404 0.016773 0.000000 0.000000 0.000000
# 4 0.000000 0.000000 0.000000 0.040325 0.000000 0.000000
# 5 0.000000 0.000000 0.000000 0.000000 0.052579 0.000000
# 6 0.000000 0.000000 0.000000 0.000000 0.000000 0.041320
#
#
# Mechanical properties :
#
#
# Convention : Reuss Voigt Hill
#
# Bulk Modulus (GPa) = 43.70123 44.40084 44.05104
# Shear Modulus (GPa) = 24.24276 24.93670 24.58973
#
# Velocity S-wave (km/s) = 3.64332 3.69510 3.66930
# Velocity P-wave (km/s) = 6.45186 6.52044 6.48624
#
# Compressibility (1/GPa) = 0.02288265
#
# Stress axis : x y z
#
# Youngs Moduli (GPa) = 71.77380 77.31792 59.61983
#
# Poissons Ratio (x) = 0.25501 0.27879
# Poissons Ratio (y) = 0.23672 0.14332
# Poissons Ratio (z) = 0.33563 0.18587
#
# Static dielectric constant tensor:
#      x y z
#    x 3.552860 0.000000 0.000000 
#    y 0.000000 3.359310 0.000000 
#    z 0.000000 0.000000 3.176300 
# 
# 
# High freq. dielectric constant tensor:
#      x y z
#    x 1.708440 0.000000 0.000000 
#    y 0.000000 1.707050 0.000000 
#    z 0.000000 0.000000 1.680180 
# 
# From -- ./inp_files/27565.got.cif
#   From: 2010.06.25/outbox.cif.g09.slc.cpg/sg58_14_cif.got.tgz:27565.got - 2010.06.26 21:38:00.
