data_PCOD8236767
_publ_section_title
;
Structure prediction by ZEFSAII (Michael W. Deem and Ramdas Pophale) SiO2 
 PCOD8236767
Probable space group: P N N M
;
_chemical_formula_sum "Si O2"
_cell_formula_units_Z 48
_cell_length_a 15.099286
_cell_length_b 18.876461
_cell_length_c 8.780885
_cell_angle_alpha 90.000000
_cell_angle_beta 90.000000
_cell_angle_gamma 90.000000
_cell_volume 2502.737355
_symmetry_space_group_name_H-M "P N N M"
_symmetry_group_IT_number 58
_symmetry_cell_setting 'orthorhombic'
loop_
_space_group_symop_operation_xyz
x,y,z
-x,-y,z
1/2+x,1/2-y,1/2-z
1/2-x,1/2+y,1/2-z
-x,-y,-z
x,y,-z
1/2-x,1/2+y,1/2+z
1/2+x,1/2-y,1/2+z
loop_
_atom_site_type_symbol
_atom_site_label
_atom_site_fract_x
_atom_site_fract_y
_atom_site_fract_z
Si Si1 0.618015 0.830284 0.177641
Si Si2 0.721125 0.426191 0.320383
Si Si3 0.023988 0.081641 0.175622
Si Si4 0.630336 0.666050 0.822974
Si Si5 0.282660 0.922371 0.819923
Si Si6 0.469412 0.923119 0.679433
O O1 0.711061 0.865006 0.228486
O O2 0.622155 0.748228 0.217437
O O3 0.540037 0.864276 0.274744
O O4 0.599827 0.844660 0.000000
O O5 0.714303 0.435204 0.500000
O O6 0.623383 0.406362 0.260582
O O7 0.753435 0.501315 0.252246
O O8 0.961113 0.128806 0.279450
O O9 0.013668 0.105346 0.000000
O O10 0.000000 0.000000 0.194137
O O11 0.711101 0.635859 0.726002
O O12 0.650111 0.653935 0.000000
O O13 0.376776 0.900661 0.752250
O O14 0.290761 0.924744 0.000000
O O15 0.458119 0.924525 0.500000
O O16 0.500000 0.000000 0.741482
#
# Coordination Sequence:
#
# PCOD8236767 Si02
#       6
#     8   8   8   8   8   8
#     4  10  22  41  61  85 121 164 202 239 294 363
#     4   9  18  35  61  86 109 150 205 245 278 346
#     4  10  19  36  61  88 114 152 206 247 290 359
#     4  11  24  39  57  89 128 157 193 252 309 350
#     4  11  21  38  65  89 115 158 204 243 290 357
#     4  11  23  38  60  93 125 154 195 252 305 347
#
# _framework density 19.178999999999998
#
# number of rings (size 3 to 8) (size 9 to 14) (size 15 to 20)
#    0.000    1.667    3.333    1.500    0.000    3.667 
#    0.000    2.500    0.000    0.000    0.000    0.000 
#    0.000    0.000    0.000    0.000    0.000    0.000 
#
# Total GULP energy -595410.726093 kJ/mol
# GULP energy per Si atom -12404.390127 kJ/mol
# Density = 1.913535 g / cm^3
# Si number density = 19.179000 Si / 1000 Ang^3
#
#
#
# Elastic Constant Matrix: (Units=GPa)
#
#
# Indices 1 2 3 4 5 6 
#
# 1 167.7179 53.6175 33.0140 0.0000 0.0000 0.0000
# 2 53.6175 110.1113 34.7356 0.0000 0.0000 0.0000
# 3 33.0140 34.7356 50.1057 0.0000 0.0000 0.0000
# 4 0.0000 0.0000 0.0000 23.5780 0.0000 0.0000
# 5 0.0000 0.0000 0.0000 0.0000 29.9016 0.0000
# 6 0.0000 0.0000 0.0000 0.0000 0.0000 27.8855
#
#
#
# Elastic Compliance Matrix: (Units=1/GPa)
#
#
# Indices 1 2 3 4 5 6 
#
# 1 0.007408 -0.002646 -0.003047 0.000000 0.000000 0.000000
# 2 -0.002646 0.012569 -0.006970 0.000000 0.000000 0.000000
# 3 -0.003047 -0.006970 0.026797 0.000000 0.000000 0.000000
# 4 0.000000 0.000000 0.000000 0.042412 0.000000 0.000000
# 5 0.000000 0.000000 0.000000 0.000000 0.033443 0.000000
# 6 0.000000 0.000000 0.000000 0.000000 0.000000 0.035861
#
#
# Mechanical properties :
#
#
# Convention : Reuss Voigt Hill
#
# Bulk Modulus (GPa) = 46.62286 63.40770 55.01528
# Shear Modulus (GPa) = 26.18279 30.04421 28.11350
#
# Velocity S-wave (km/s) = 3.69884 3.96222 3.83279
# Velocity P-wave (km/s) = 6.52718 7.35289 6.95230
#
# Compressibility (1/GPa) = 0.02144871
#
# Stress axis : x y z
#
# Youngs Moduli (GPa) = 134.98826 79.56117 37.31764
#
# Poissons Ratio (x) = 0.21053 0.11369
# Poissons Ratio (y) = 0.35720 0.26010
# Poissons Ratio (z) = 0.41126 0.55453
#
# Static dielectric constant tensor:
#      x y z
#    x 3.674600 0.000000 0.000000 
#    y 0.000000 3.287210 0.000000 
#    z 0.000000 0.000000 3.319570 
# 
# 
# High freq. dielectric constant tensor:
#      x y z
#    x 1.764620 0.000000 0.000000 
#    y 0.000000 1.743750 0.000000 
#    z 0.000000 0.000000 1.730590 
# 
# From -- ./inp_files/5865.got.cif
#   From: 2010.06.25/outbox.cif.g09.slc.cpg/sg58_3_cif.got.tgz:5865.got - 2010.06.26 21:38:00.
