data_PCOD8236215
_publ_section_title
;
Structure prediction by ZEFSAII (Michael W. Deem and Ramdas Pophale) SiO2 
 PCOD8236215
Probable space group: P N N M
;
_chemical_formula_sum "Si O2"
_cell_formula_units_Z 64
_cell_length_a 23.028859
_cell_length_b 18.879508
_cell_length_c 8.721929
_cell_angle_alpha 90.000000
_cell_angle_beta 90.000000
_cell_angle_gamma 90.000000
_cell_volume 3792.063840
_symmetry_space_group_name_H-M "P N N M"
_symmetry_group_IT_number 58
_symmetry_cell_setting 'orthorhombic'
loop_
_space_group_symop_operation_xyz
x,y,z
-x,-y,z
1/2+x,1/2-y,1/2-z
1/2-x,1/2+y,1/2-z
-x,-y,-z
x,y,-z
1/2-x,1/2+y,1/2+z
1/2+x,1/2-y,1/2+z
loop_
_atom_site_type_symbol
_atom_site_label
_atom_site_fract_x
_atom_site_fract_y
_atom_site_fract_z
Si Si1 0.249041 0.987434 0.179105
Si Si2 0.942364 0.150659 0.321423
Si Si3 0.740541 0.157023 0.676929
Si Si4 0.153841 0.763686 0.179561
Si Si5 0.876539 0.006837 0.678937
Si Si6 0.824140 0.794288 0.174147
Si Si7 0.936754 0.876037 0.177124
Si Si8 0.277897 0.126883 0.677554
O O1 0.182532 0.000504 0.226589
O O2 0.287360 0.055690 0.224986
O O3 0.277472 0.920190 0.263928
O O4 0.252775 0.974573 0.000000
O O5 0.956769 0.154454 0.500000
O O6 0.904729 0.218632 0.271161
O O7 0.001642 0.153668 0.227881
O O8 0.907319 0.080089 0.277916
O O9 0.759398 0.152703 0.500000
O O10 0.796035 0.182062 0.772264
O O11 0.686535 0.210539 0.701855
O O12 0.172389 0.683512 0.221981
O O13 0.142806 0.772582 0.000000
O O14 0.861491 0.002947 0.500000
O O15 0.920400 0.944369 0.723158
O O16 0.891069 0.812382 0.205584
O O17 0.785108 0.840145 0.288262
O O18 0.806239 0.814608 0.000000
O O19 0.938333 0.898755 0.000000
O O20 0.280257 0.107027 0.500000
#
# Coordination Sequence:
#
# PCOD8236215 Si02
#       8
#     8   8   8   8   8   8   8   8
#     4  12  22  32  50  76 104 136 172 207 251 303
#     4  11  23  36  51  71 101 141 178 213 251 297
#     4  10  19  33  52  73 101 133 166 207 255 306
#     4  10  20  34  52  75 100 130 170 213 253 301
#     4  11  22  35  49  70 101 138 178 212 247 295
#     4   9  19  34  51  73 100 132 168 208 255 301
#     4  11  22  35  52  74 101 136 176 216 252 297
#     4  10  20  33  52  75 101 132 166 208 258 304
#
# _framework density 16.877351999999998
#
# number of rings (size 3 to 8) (size 9 to 14) (size 15 to 20)
#    0.000    1.500    2.500    3.750    0.000    5.500 
#    0.000    0.000    0.000    0.000    0.000    0.875 
#    0.000    7.000    0.000    0.000    0.000    0.000 
#
# Total GULP energy -793835.630741 kJ/mol
# GULP energy per Si atom -12403.681730 kJ/mol
# Density = 1.683894 g / cm^3
# Si number density = 16.877352 Si / 1000 Ang^3
#
#
#
# Elastic Constant Matrix: (Units=GPa)
#
#
# Indices 1 2 3 4 5 6 
#
# 1 57.5285 28.7999 18.2304 0.0000 0.0000 0.0000
# 2 28.7999 93.6207 24.4632 0.0000 0.0000 0.0000
# 3 18.2304 24.4632 45.7744 0.0000 0.0000 0.0000
# 4 0.0000 0.0000 0.0000 26.8739 0.0000 0.0000
# 5 0.0000 0.0000 0.0000 0.0000 24.7420 0.0000
# 6 0.0000 0.0000 0.0000 0.0000 0.0000 21.3339
#
#
#
# Elastic Compliance Matrix: (Units=1/GPa)
#
#
# Indices 1 2 3 4 5 6 
#
# 1 0.021854 -0.005170 -0.005940 0.000000 0.000000 0.000000
# 2 -0.005170 0.013638 -0.005230 0.000000 0.000000 0.000000
# 3 -0.005940 -0.005230 0.027007 0.000000 0.000000 0.000000
# 4 0.000000 0.000000 0.000000 0.037211 0.000000 0.000000
# 5 0.000000 0.000000 0.000000 0.000000 0.040417 0.000000
# 6 0.000000 0.000000 0.000000 0.000000 0.000000 0.046874
#
#
# Mechanical properties :
#
#
# Convention : Reuss Voigt Hill
#
# Bulk Modulus (GPa) = 33.53647 37.76784 35.65215
# Shear Modulus (GPa) = 21.77505 22.95197 22.36351
#
# Velocity S-wave (km/s) = 3.59582 3.69172 3.64409
# Velocity P-wave (km/s) = 6.09539 6.37167 6.23506
#
# Compressibility (1/GPa) = 0.02981829
#
# Stress axis : x y z
#
# Youngs Moduli (GPa) = 45.75916 73.32217 37.02759
#
# Poissons Ratio (x) = 0.37911 0.21995
# Poissons Ratio (y) = 0.23660 0.19364
# Poissons Ratio (z) = 0.27182 0.38344
#
# Static dielectric constant tensor:
#      x y z
#    x 2.966220 0.000000 0.000000 
#    y 0.000000 3.336460 0.000000 
#    z 0.000000 0.000000 3.261280 
# 
# 
# High freq. dielectric constant tensor:
#      x y z
#    x 1.617730 0.000000 0.000000 
#    y 0.000000 1.649510 0.000000 
#    z 0.000000 0.000000 1.667890 
# 
# From -- ./inp_files/8480.got.cif
#   From: 2010.06.25/outbox.cif.g09.slc.cpg/sg58_5_cif.got.tgz:8480.got - 2010.06.26 21:38:00.
