data_PCOD8236959
_publ_section_title
;
Structure prediction by ZEFSAII (Michael W. Deem and Ramdas Pophale) SiO2 
 PCOD8236959
Probable space group: P N N M
;
_chemical_formula_sum "Si O2"
_cell_formula_units_Z 64
_cell_length_a 8.453427
_cell_length_b 29.535220
_cell_length_c 13.654125
_cell_angle_alpha 90.000000
_cell_angle_beta 90.000000
_cell_angle_gamma 90.000000
_cell_volume 3409.077632
_symmetry_space_group_name_H-M "P N N M"
_symmetry_group_IT_number 58
_symmetry_cell_setting 'orthorhombic'
loop_
_space_group_symop_operation_xyz
x,y,z
-x,-y,z
1/2+x,1/2-y,1/2-z
1/2-x,1/2+y,1/2-z
-x,-y,-z
x,y,-z
1/2-x,1/2+y,1/2+z
1/2+x,1/2-y,1/2+z
loop_
_atom_site_type_symbol
_atom_site_label
_atom_site_fract_x
_atom_site_fract_y
_atom_site_fract_z
Si Si1 0.698932 0.246272 0.116079
Si Si2 0.538190 0.151872 0.109100
Si Si3 0.274591 0.380651 0.244823
Si Si4 0.306363 0.631333 0.615855
Si Si5 0.037799 0.049125 0.783693
Si Si6 0.258637 0.025857 0.611947
Si Si7 0.082965 0.434120 0.889603
Si Si8 0.980198 0.200184 0.768539
O O1 0.580757 0.204339 0.114704
O O2 0.869847 0.235869 0.169139
O O3 0.600324 0.280670 0.186135
O O4 0.723808 0.261983 0.000000
O O5 0.680743 0.123925 0.154470
O O6 0.367701 0.142657 0.158612
O O7 0.526875 0.133556 0.000000
O O8 0.379440 0.424587 0.259275
O O9 0.144376 0.389056 0.162053
O O10 0.364648 0.334923 0.212865
O O11 0.312896 0.634330 0.500000
O O12 0.352326 0.580256 0.647616
O O13 0.424687 0.669822 0.653917
O O14 0.113664 0.040524 0.677956
O O15 0.000000 0.000000 0.833409
O O16 0.199710 0.022217 0.500000
O O17 0.394259 0.063967 0.621077
O O18 0.333340 0.979260 0.651981
O O19 0.136063 0.429863 0.000000
#
# Coordination Sequence:
#
# PCOD8236959 Si02
#       8
#     8   8   8   8   8   8   8   8
#     4  10  20  37  61  89 119 150 190 233 282 346
#     4   9  19  37  60  80 104 141 181 226 278 337
#     4  10  20  33  52  79 111 144 179 229 277 330
#     4  10  21  38  58  80 107 144 188 230 282 340
#     4  11  21  33  51  77 109 143 185 230 279 325
#     4   9  18  32  51  73 100 141 190 232 277 331
#     4   9  17  31  51  73 101 141 186 230 275 326
#     4  10  21  36  60  87 117 151 186 228 285 345
#
# _framework density 18.773406000000001
#
# number of rings (size 3 to 8) (size 9 to 14) (size 15 to 20)
#    0.000    2.250    1.250    2.625    0.000    4.500 
#    0.000    2.500    0.000   12.750    0.000    0.000 
#    0.000    0.000    0.000    0.000    0.000    0.000 
#
# Total GULP energy -792916.556625 kJ/mol
# GULP energy per Si atom -12389.321197 kJ/mol
# Density = 1.873068 g / cm^3
# Si number density = 18.773406 Si / 1000 Ang^3
#
#
#
# Elastic Constant Matrix: (Units=GPa)
#
#
# Indices 1 2 3 4 5 6 
#
# 1 90.1993 44.2409 38.5542 0.0000 0.0000 0.0000
# 2 44.2409 79.8378 45.2953 0.0000 0.0000 0.0000
# 3 38.5542 45.2953 78.1237 0.0000 0.0000 0.0000
# 4 0.0000 0.0000 0.0000 17.4934 0.0000 0.0000
# 5 0.0000 0.0000 0.0000 0.0000 27.7280 0.0000
# 6 0.0000 0.0000 0.0000 0.0000 0.0000 37.2544
#
#
#
# Elastic Compliance Matrix: (Units=1/GPa)
#
#
# Indices 1 2 3 4 5 6 
#
# 1 0.016069 -0.006565 -0.004124 0.000000 0.000000 0.000000
# 2 -0.006565 0.021347 -0.009137 0.000000 0.000000 0.000000
# 3 -0.004124 -0.009137 0.020133 0.000000 0.000000 0.000000
# 4 0.000000 0.000000 0.000000 0.057165 0.000000 0.000000
# 5 0.000000 0.000000 0.000000 0.000000 0.036065 0.000000
# 6 0.000000 0.000000 0.000000 0.000000 0.000000 0.026842
#
#
# Mechanical properties :
#
#
# Convention : Reuss Voigt Hill
#
# Bulk Modulus (GPa) = 55.87359 56.03796 55.95577
# Shear Modulus (GPa) = 22.39760 24.49984 23.44872
#
# Velocity S-wave (km/s) = 3.45780 3.61644 3.53801
# Velocity P-wave (km/s) = 6.76525 6.88132 6.82353
#
# Compressibility (1/GPa) = 0.01789754
#
# Stress axis : x y z
#
# Youngs Moduli (GPa) = 62.23095 46.84503 49.66978
#
# Poissons Ratio (x) = 0.30753 0.20484
# Poissons Ratio (y) = 0.40853 0.45383
# Poissons Ratio (z) = 0.25664 0.42802
#
# Static dielectric constant tensor:
#      x y z
#    x 3.725500 0.000000 0.000000 
#    y 0.000000 3.982980 0.000000 
#    z 0.000000 0.000000 3.440020 
# 
# 
# High freq. dielectric constant tensor:
#      x y z
#    x 1.746580 0.000000 0.000000 
#    y 0.000000 1.716020 0.000000 
#    z 0.000000 0.000000 1.719040 
# 
# From -- ./inp_files/13433.got.cif
#   From: 2010.06.25/outbox.cif.g09.slc.cpg/sg58_7_cif.got.tgz:13433.got - 2010.06.26 21:38:00.
