data_PCOD8236937
_publ_section_title
;
Structure prediction by ZEFSAII (Michael W. Deem and Ramdas Pophale) SiO2 
 PCOD8236937
Probable space group: P N N M
;
_chemical_formula_sum "Si O2"
_cell_formula_units_Z 48
_cell_length_a 9.641574
_cell_length_b 31.129597
_cell_length_c 9.079321
_cell_angle_alpha 90.000000
_cell_angle_beta 90.000000
_cell_angle_gamma 90.000000
_cell_volume 2725.052089
_symmetry_space_group_name_H-M "P N N M"
_symmetry_group_IT_number 58
_symmetry_cell_setting 'orthorhombic'
loop_
_space_group_symop_operation_xyz
x,y,z
-x,-y,z
1/2+x,1/2-y,1/2-z
1/2-x,1/2+y,1/2-z
-x,-y,-z
x,y,-z
1/2-x,1/2+y,1/2+z
1/2+x,1/2-y,1/2+z
loop_
_atom_site_type_symbol
_atom_site_label
_atom_site_fract_x
_atom_site_fract_y
_atom_site_fract_z
Si Si1 0.096268 0.036725 0.172723
Si Si2 0.910454 0.458967 0.673666
Si Si3 0.099245 0.130682 0.828138
Si Si4 0.589421 0.782951 0.332975
Si Si5 0.612969 0.877740 0.330378
Si Si6 0.088322 0.213976 0.327844
O O1 0.253682 0.033062 0.231832
O O2 0.029629 0.084000 0.204862
O O3 0.104036 0.028359 0.000000
O O4 0.000000 0.000000 0.247301
O O5 0.917171 0.449411 0.500000
O O6 0.973602 0.417708 0.762153
O O7 0.000000 0.500000 0.717648
O O8 0.254908 0.126612 0.773122
O O9 0.025843 0.170422 0.745198
O O10 0.098011 0.141141 0.000000
O O11 0.571969 0.766265 0.500000
O O12 0.533419 0.832080 0.320226
O O13 0.750592 0.779923 0.285298
O O14 0.497902 0.754685 0.224922
O O15 0.654907 0.886667 0.500000
O O16 0.069602 0.208510 0.500000
#
# Coordination Sequence:
#
# PCOD8236937 Si02
#       6
#     8   8   8   8   8   8
#     4   8  14  26  45  67  89 116 151 188 225 267
#     4   9  17  29  46  68  92 120 156 193 231 280
#     4   9  16  28  48  69  92 124 158 192 233 282
#     4   9  19  34  50  71  97 125 160 198 238 287
#     4   9  17  30  48  69  94 123 158 196 234 284
#     4  10  20  33  51  74  98 126 161 200 241 286
#
# _framework density 17.614341
#
# number of rings (size 3 to 8) (size 9 to 14) (size 15 to 20)
#    0.000    3.000    0.000    3.500    0.000    4.333 
#    0.000    1.667    0.000   16.500    0.000    0.000 
#    0.000    0.000    0.000    0.000    0.000    0.000 
#
# Total GULP energy -594747.817475 kJ/mol
# GULP energy per Si atom -12390.579531 kJ/mol
# Density = 1.757425 g / cm^3
# Si number density = 17.614341 Si / 1000 Ang^3
#
#
#
# Elastic Constant Matrix: (Units=GPa)
#
#
# Indices 1 2 3 4 5 6 
#
# 1 48.5055 53.6408 30.6448 0.0000 0.0000 0.0000
# 2 53.6408 165.9995 68.7656 0.0000 0.0000 0.0000
# 3 30.6448 68.7656 73.1387 0.0000 0.0000 0.0000
# 4 0.0000 0.0000 0.0000 32.5413 0.0000 0.0000
# 5 0.0000 0.0000 0.0000 0.0000 17.3308 0.0000
# 6 0.0000 0.0000 0.0000 0.0000 0.0000 27.3220
#
#
#
# Elastic Compliance Matrix: (Units=1/GPa)
#
#
# Indices 1 2 3 4 5 6 
#
# 1 0.033803 -0.008281 -0.006377 0.000000 0.000000 0.000000
# 2 -0.008281 0.011896 -0.007715 0.000000 0.000000 0.000000
# 3 -0.006377 -0.007715 0.023598 0.000000 0.000000 0.000000
# 4 0.000000 0.000000 0.000000 0.030730 0.000000 0.000000
# 5 0.000000 0.000000 0.000000 0.000000 0.057701 0.000000
# 6 0.000000 0.000000 0.000000 0.000000 0.000000 0.036600
#
#
# Mechanical properties :
#
#
# Convention : Reuss Voigt Hill
#
# Bulk Modulus (GPa) = 40.73210 65.97178 53.35194
# Shear Modulus (GPa) = 20.22164 24.41166 22.31665
#
# Velocity S-wave (km/s) = 3.39192 3.72680 3.56330
# Velocity P-wave (km/s) = 6.20603 7.48689 6.87635
#
# Compressibility (1/GPa) = 0.02455066
#
# Stress axis : x y z
#
# Youngs Moduli (GPa) = 29.58284 84.06142 42.37581
#
# Poissons Ratio (x) = 0.69614 0.27024
# Poissons Ratio (y) = 0.24499 0.32693
# Poissons Ratio (z) = 0.18866 0.64853
#
# Static dielectric constant tensor:
#      x y z
#    x 2.971960 0.000000 0.000000 
#    y 0.000000 3.932970 0.000000 
#    z 0.000000 0.000000 3.223500 
# 
# 
# High freq. dielectric constant tensor:
#      x y z
#    x 1.628120 0.000000 0.000000 
#    y 0.000000 1.704250 0.000000 
#    z 0.000000 0.000000 1.674140 
# 
# From -- ./inp_files/4334.got.cif
#   From: 2010.06.25/outbox.cif.g09.slc.cpg/sg58_3_cif.got.tgz:4334.got - 2010.06.26 21:38:00.
