data_PCOD8236434
_publ_section_title
;
Structure prediction by ZEFSAII (Michael W. Deem and Ramdas Pophale) SiO2 
 PCOD8236434
Probable space group: P N N M
;
_chemical_formula_sum "Si O2"
_cell_formula_units_Z 40
_cell_length_a 29.015651
_cell_length_b 7.951304
_cell_length_c 8.987501
_cell_angle_alpha 90.000000
_cell_angle_beta 90.000000
_cell_angle_gamma 90.000000
_cell_volume 2073.526684
_symmetry_space_group_name_H-M "P N N M"
_symmetry_group_IT_number 58
_symmetry_cell_setting 'orthorhombic'
loop_
_space_group_symop_operation_xyz
x,y,z
-x,-y,z
1/2+x,1/2-y,1/2-z
1/2-x,1/2+y,1/2-z
-x,-y,-z
x,y,-z
1/2-x,1/2+y,1/2+z
1/2+x,1/2-y,1/2+z
loop_
_atom_site_type_symbol
_atom_site_label
_atom_site_fract_x
_atom_site_fract_y
_atom_site_fract_z
Si Si1 0.106275 0.674709 0.327394
Si Si2 0.299926 0.672370 0.674771
Si Si3 0.297367 0.323381 0.827741
Si Si4 0.887704 0.694046 0.323017
Si Si5 0.052054 0.992964 0.322350
O O1 0.095133 0.685876 0.500000
O O2 0.160598 0.696834 0.297357
O O3 0.092216 0.487998 0.270568
O O4 0.076226 0.825305 0.253929
O O5 0.307322 0.683878 0.500000
O O6 0.306671 0.483138 0.726693
O O7 0.249271 0.732919 0.722695
O O8 0.337123 0.789399 0.754276
O O9 0.295789 0.379668 0.000000
O O10 0.882385 0.700030 0.500000
O O11 0.921157 0.841473 0.264150
O O12 0.053227 0.992159 0.500000
O O13 0.000000 0.000000 0.262114
#
# Coordination Sequence:
#
# PCOD8236434 Si02
#       5
#     8   8   8   8   8
#     4   9  17  31  52  78 107 141 180 220 271 326
#     4  11  22  34  53  81 110 142 185 226 264 325
#     4  10  20  35  52  74 109 145 179 220 267 320
#     4  10  19  34  56  77 110 150 177 222 279 322
#     4   9  17  30  52  83 112 140 182 232 274 318
#
# _framework density 19.290804999999999
#
# number of rings (size 3 to 8) (size 9 to 14) (size 15 to 20)
#    0.000    2.200    2.000    1.800    0.000    4.000 
#    0.000    5.000    0.000    0.600    0.000    1.400 
#    0.000    0.000    0.000    0.000    0.000    0.000 
#
# Total GULP energy -495907.624070 kJ/mol
# GULP energy per Si atom -12397.690602 kJ/mol
# Density = 1.924690 g / cm^3
# Si number density = 19.290805 Si / 1000 Ang^3
#
#
#
# Elastic Constant Matrix: (Units=GPa)
#
#
# Indices 1 2 3 4 5 6 
#
# 1 137.3745 72.9011 15.1779 0.0000 0.0000 0.0000
# 2 72.9011 180.8280 19.7314 0.0000 0.0000 0.0000
# 3 15.1779 19.7314 21.9364 0.0000 0.0000 0.0000
# 4 0.0000 0.0000 0.0000 14.4928 0.0000 0.0000
# 5 0.0000 0.0000 0.0000 0.0000 19.8155 0.0000
# 6 0.0000 0.0000 0.0000 0.0000 0.0000 29.3959
#
#
#
# Elastic Compliance Matrix: (Units=1/GPa)
#
#
# Indices 1 2 3 4 5 6 
#
# 1 0.009492 -0.003449 -0.003466 0.000000 0.000000 0.000000
# 2 -0.003449 0.007385 -0.004256 0.000000 0.000000 0.000000
# 3 -0.003466 -0.004256 0.051813 0.000000 0.000000 0.000000
# 4 0.000000 0.000000 0.000000 0.069000 0.000000 0.000000
# 5 0.000000 0.000000 0.000000 0.000000 0.050465 0.000000
# 6 0.000000 0.000000 0.000000 0.000000 0.000000 0.034018
#
#
# Mechanical properties :
#
#
# Convention : Reuss Voigt Hill
#
# Bulk Modulus (GPa) = 21.57577 61.75109 41.66343
# Shear Modulus (GPa) = 19.23334 28.22940 23.73137
#
# Velocity S-wave (km/s) = 3.16099 3.82954 3.51121
# Velocity P-wave (km/s) = 4.95290 7.18568 6.17111
#
# Compressibility (1/GPa) = 0.04634829
#
# Stress axis : x y z
#
# Youngs Moduli (GPa) = 105.34700 135.41111 19.30026
#
# Poissons Ratio (x) = 0.46699 0.06689
# Poissons Ratio (y) = 0.36331 0.08215
# Poissons Ratio (z) = 0.36511 0.57636
#
# Static dielectric constant tensor:
#      x y z
#    x 3.743940 0.000000 0.000000 
#    y 0.000000 3.946140 0.000000 
#    z 0.000000 0.000000 3.066330 
# 
# 
# High freq. dielectric constant tensor:
#      x y z
#    x 1.752480 0.000000 0.000000 
#    y 0.000000 1.768430 0.000000 
#    z 0.000000 0.000000 1.695330 
# 
# From -- ./inp_files/2612.got.cif
#   From: 2010.06.25/outbox.cif.g09.slc.cpg/sg58_2_cif.got.tgz:2612.got - 2010.06.26 21:38:00.
