data_PCOD8236336
_publ_section_title
;
Structure prediction by ZEFSAII (Michael W. Deem and Ramdas Pophale) SiO2 
 PCOD8236336
Probable space group: P N N M
;
_chemical_formula_sum "Si O2"
_cell_formula_units_Z 40
_cell_length_a 25.221712
_cell_length_b 8.997754
_cell_length_c 9.012178
_cell_angle_alpha 90.000000
_cell_angle_beta 90.000000
_cell_angle_gamma 90.000000
_cell_volume 2045.212501
_symmetry_space_group_name_H-M "P N N M"
_symmetry_group_IT_number 58
_symmetry_cell_setting 'orthorhombic'
loop_
_space_group_symop_operation_xyz
x,y,z
-x,-y,z
1/2+x,1/2-y,1/2-z
1/2-x,1/2+y,1/2-z
-x,-y,-z
x,y,-z
1/2-x,1/2+y,1/2+z
1/2+x,1/2-y,1/2+z
loop_
_atom_site_type_symbol
_atom_site_label
_atom_site_fract_x
_atom_site_fract_y
_atom_site_fract_z
Si Si1 0.900810 0.279926 0.824267
Si Si2 0.385368 0.909235 0.827492
Si Si3 0.310742 0.385101 0.825879
Si Si4 0.282086 0.718934 0.171970
Si Si5 0.515795 0.170884 0.663476
O O1 0.881567 0.437524 0.760630
O O2 0.866230 0.148649 0.754470
O O3 0.962366 0.244398 0.783018
O O4 0.893084 0.286474 0.000000
O O5 0.332870 0.817976 0.791506
O O6 0.435541 0.808468 0.776507
O O7 0.391795 0.944736 0.000000
O O8 0.294140 0.550637 0.782376
O O9 0.266577 0.270005 0.771888
O O10 0.318954 0.365546 0.000000
O O11 0.265969 0.731480 0.000000
O O12 0.533307 0.227317 0.500000
O O13 0.500000 0.000000 0.653482
#
# Coordination Sequence:
#
# PCOD8236336 Si02
#       5
#     8   8   8   8   8
#     4  10  20  35  55  80 111 143 177 220 265 312
#     4  10  19  33  56  83 110 142 180 220 262 312
#     4  11  23  38  57  79 104 138 178 219 265 317
#     4  10  23  40  55  78 110 139 173 219 269 319
#     4   8  16  31  51  77 109 143 178 217 261 308
#
# _framework density 19.557870999999999
#
# number of rings (size 3 to 8) (size 9 to 14) (size 15 to 20)
#    0.000    2.200    0.000    4.200    0.000   10.800 
#    0.000    1.000    0.000    6.000    0.000    0.000 
#    0.000    0.000    0.000    0.000    0.000    0.000 
#
# Total GULP energy -496025.353014 kJ/mol
# GULP energy per Si atom -12400.633825 kJ/mol
# Density = 1.951336 g / cm^3
# Si number density = 19.557871 Si / 1000 Ang^3
#
#
#
# Elastic Constant Matrix: (Units=GPa)
#
#
# Indices 1 2 3 4 5 6 
#
# 1 40.9622 -14.1660 9.9207 0.0000 0.0000 0.0000
# 2 -14.1660 39.9802 8.8170 0.0000 0.0000 0.0000
# 3 9.9207 8.8170 64.6161 0.0000 0.0000 0.0000
# 4 0.0000 0.0000 0.0000 20.1894 0.0000 0.0000
# 5 0.0000 0.0000 0.0000 0.0000 35.9132 0.0000
# 6 0.0000 0.0000 0.0000 0.0000 0.0000 24.5693
#
#
#
# Elastic Compliance Matrix: (Units=1/GPa)
#
#
# Indices 1 2 3 4 5 6 
#
# 1 0.030095 0.012045 -0.006264 0.000000 0.000000 0.000000
# 2 0.012045 0.030609 -0.006026 0.000000 0.000000 0.000000
# 3 -0.006264 -0.006026 0.017260 0.000000 0.000000 0.000000
# 4 0.000000 0.000000 0.000000 0.049531 0.000000 0.000000
# 5 0.000000 0.000000 0.000000 0.000000 0.027845 0.000000
# 6 0.000000 0.000000 0.000000 0.000000 0.000000 0.040701
#
#
# Mechanical properties :
#
#
# Convention : Reuss Voigt Hill
#
# Bulk Modulus (GPa) = 12.90753 17.18912 15.04832
# Shear Modulus (GPa) = 22.48640 25.53352 24.00996
#
# Velocity S-wave (km/s) = 3.39446 3.61714 3.50757
# Velocity P-wave (km/s) = 4.68797 5.12376 4.91070
#
# Compressibility (1/GPa) = 0.07747417
#
# Stress axis : x y z
#
# Youngs Moduli (GPa) = 33.22768 32.67000 57.93732
#
# Poissons Ratio (x) = -0.39351 0.36293
# Poissons Ratio (y) = -0.40023 0.34913
# Poissons Ratio (z) = 0.20815 0.19687
#
# Static dielectric constant tensor:
#      x y z
#    x 4.050300 0.000000 0.000000 
#    y 0.000000 3.351260 0.000000 
#    z 0.000000 0.000000 3.606190 
# 
# 
# High freq. dielectric constant tensor:
#      x y z
#    x 1.778200 0.000000 0.000000 
#    y 0.000000 1.736320 0.000000 
#    z 0.000000 0.000000 1.766750 
# 
# From -- ./inp_files/2436.got.cif
#   From: 2010.06.25/outbox.cif.g09.slc.cpg/sg58_2_cif.got.tgz:2436.got - 2010.06.26 21:38:00.
