data_PCOD8236757
_publ_section_title
;
Structure prediction by ZEFSAII (Michael W. Deem and Ramdas Pophale) SiO2 
 PCOD8236757
Probable space group: P N N M
;
_chemical_formula_sum "Si O2"
_cell_formula_units_Z 64
_cell_length_a 19.308620
_cell_length_b 18.408419
_cell_length_c 8.995360
_cell_angle_alpha 90.000000
_cell_angle_beta 90.000000
_cell_angle_gamma 90.000000
_cell_volume 3197.321258
_symmetry_space_group_name_H-M "P N N M"
_symmetry_group_IT_number 58
_symmetry_cell_setting 'orthorhombic'
loop_
_space_group_symop_operation_xyz
x,y,z
-x,-y,z
1/2+x,1/2-y,1/2-z
1/2-x,1/2+y,1/2-z
-x,-y,-z
x,y,-z
1/2-x,1/2+y,1/2+z
1/2+x,1/2-y,1/2+z
loop_
_atom_site_type_symbol
_atom_site_label
_atom_site_fract_x
_atom_site_fract_y
_atom_site_fract_z
Si Si1 0.030004 0.807293 0.826626
Si Si2 0.677878 0.636982 0.677081
Si Si3 0.838058 0.438256 0.672808
Si Si4 0.797400 0.983530 0.327202
Si Si5 0.415933 0.912053 0.827862
Si Si6 0.605705 0.352635 0.827944
Si Si7 0.685956 0.213808 0.823952
Si Si8 0.954697 0.358816 0.173646
O O1 0.103888 0.834917 0.765152
O O2 0.021778 0.722704 0.789894
O O3 0.968559 0.851314 0.749985
O O4 0.025308 0.822907 0.000000
O O5 0.680640 0.630506 0.500000
O O6 0.691937 0.557974 0.741668
O O7 0.736925 0.693537 0.734311
O O8 0.823830 0.424009 0.500000
O O9 0.766538 0.439257 0.760575
O O10 0.877535 0.513149 0.700523
O O11 0.883228 0.373200 0.740646
O O12 0.784103 0.999271 0.500000
O O13 0.864229 0.932765 0.303043
O O14 0.366595 0.848176 0.768692
O O15 0.486154 0.912681 0.733097
O O16 0.435912 0.901678 0.000000
O O17 0.658732 0.291414 0.762323
O O18 0.593552 0.335309 0.000000
O O19 0.688615 0.214903 0.000000
O O20 0.942239 0.371578 0.000000
#
# Coordination Sequence:
#
# PCOD8236757 Si02
#       8
#     8   8   8   8   8   8   8   8
#     4  10  23  40  62  89 119 156 200 251 297 348
#     4  10  21  41  65  86 115 159 203 241 292 359
#     4  11  23  39  59  86 121 162 203 241 289 363
#     4  11  24  40  61  91 121 153 195 252 309 350
#     4  10  19  36  61  85 113 158 205 238 284 359
#     4  10  22  40  64  87 117 158 197 242 299 359
#     4   9  17  35  63  86 109 151 200 238 283 351
#     4  11  23  37  56  89 127 157 194 249 301 347
#
# _framework density 20.016755
#
# number of rings (size 3 to 8) (size 9 to 14) (size 15 to 20)
#    0.000    1.750    2.500    1.500    1.750    5.000 
#    0.000    3.125    0.000    0.000    0.000    0.000 
#    0.000    0.000    0.000    0.000    0.000    0.000 
#
# Total GULP energy -793781.158269 kJ/mol
# GULP energy per Si atom -12402.830598 kJ/mol
# Density = 1.997120 g / cm^3
# Si number density = 20.016755 Si / 1000 Ang^3
#
#
#
# Elastic Constant Matrix: (Units=GPa)
#
#
# Indices 1 2 3 4 5 6 
#
# 1 138.8170 21.7917 32.7626 0.0000 0.0000 0.0000
# 2 21.7917 33.7746 12.5947 0.0000 0.0000 0.0000
# 3 32.7626 12.5947 38.4293 0.0000 0.0000 0.0000
# 4 0.0000 0.0000 0.0000 23.5998 0.0000 0.0000
# 5 0.0000 0.0000 0.0000 0.0000 36.0489 0.0000
# 6 0.0000 0.0000 0.0000 0.0000 0.0000 32.7670
#
#
#
# Elastic Compliance Matrix: (Units=1/GPa)
#
#
# Indices 1 2 3 4 5 6 
#
# 1 0.009366 -0.003492 -0.006841 0.000000 0.000000 0.000000
# 2 -0.003492 0.035033 -0.008504 0.000000 0.000000 0.000000
# 3 -0.006841 -0.008504 0.034641 0.000000 0.000000 0.000000
# 4 0.000000 0.000000 0.000000 0.042373 0.000000 0.000000
# 5 0.000000 0.000000 0.000000 0.000000 0.027740 0.000000
# 6 0.000000 0.000000 0.000000 0.000000 0.000000 0.030519
#
#
# Mechanical properties :
#
#
# Convention : Reuss Voigt Hill
#
# Bulk Modulus (GPa) = 24.17463 38.36874 31.27169
# Shear Modulus (GPa) = 21.63240 28.07461 24.85350
#
# Velocity S-wave (km/s) = 3.29099 3.74913 3.52751
# Velocity P-wave (km/s) = 5.15211 6.16046 5.67871
#
# Compressibility (1/GPa) = 0.04136568
#
# Stress axis : x y z
#
# Youngs Moduli (GPa) = 106.76383 28.54483 28.86757
#
# Poissons Ratio (x) = 0.09969 0.19748
# Poissons Ratio (y) = 0.37286 0.24549
# Poissons Ratio (z) = 0.73034 0.24275
#
# Static dielectric constant tensor:
#      x y z
#    x 3.855670 0.000000 0.000000 
#    y 0.000000 3.623510 0.000000 
#    z 0.000000 0.000000 3.442340 
# 
# 
# High freq. dielectric constant tensor:
#      x y z
#    x 1.793510 0.000000 0.000000 
#    y 0.000000 1.782350 0.000000 
#    z 0.000000 0.000000 1.762740 
# 
# From -- ./inp_files/9277.got.cif
#   From: 2010.06.25/outbox.cif.g09.slc.cpg/sg58_5_cif.got.tgz:9277.got - 2010.06.26 21:38:00.
