data_PCOD8236652
_publ_section_title
;
Structure prediction by ZEFSAII (Michael W. Deem and Ramdas Pophale) SiO2 
 PCOD8236652
Probable space group: P N N M
;
_chemical_formula_sum "Si O2"
_cell_formula_units_Z 64
_cell_length_a 22.815024
_cell_length_b 15.700767
_cell_length_c 8.764498
_cell_angle_alpha 90.000000
_cell_angle_beta 90.000000
_cell_angle_gamma 90.000000
_cell_volume 3139.560417
_symmetry_space_group_name_H-M "P N N M"
_symmetry_group_IT_number 58
_symmetry_cell_setting 'orthorhombic'
loop_
_space_group_symop_operation_xyz
x,y,z
-x,-y,z
1/2+x,1/2-y,1/2-z
1/2-x,1/2+y,1/2-z
-x,-y,-z
x,y,-z
1/2-x,1/2+y,1/2+z
1/2+x,1/2-y,1/2+z
loop_
_atom_site_type_symbol
_atom_site_label
_atom_site_fract_x
_atom_site_fract_y
_atom_site_fract_z
Si Si1 0.547691 0.566634 0.679279
Si Si2 0.315631 0.687314 0.672208
Si Si3 0.860330 0.652009 0.672052
Si Si4 0.758189 0.074684 0.827454
Si Si5 0.430368 0.241829 0.680955
Si Si6 0.152694 0.025795 0.325981
Si Si7 0.806637 0.241319 0.322400
Si Si8 0.009800 0.403523 0.322350
O O1 0.500000 0.500000 0.752009
O O2 0.540573 0.564175 0.500000
O O3 0.542337 0.665839 0.733558
O O4 0.611184 0.533605 0.725664
O O5 0.329864 0.660151 0.500000
O O6 0.344420 0.778212 0.702854
O O7 0.350736 0.624649 0.784130
O O8 0.245150 0.688702 0.698149
O O9 0.858070 0.690291 0.500000
O O10 0.811983 0.577621 0.687332
O O11 0.922432 0.612723 0.710154
O O12 0.789127 0.162316 0.781495
O O13 0.780876 0.001177 0.714732
O O14 0.776890 0.052917 0.000000
O O15 0.420771 0.241212 0.500000
O O16 0.368587 0.223017 0.763914
O O17 0.473267 0.165460 0.727379
O O18 0.136198 0.011608 0.500000
O O19 0.811488 0.214132 0.500000
O O20 0.993107 0.394171 0.500000
O O21 0.000000 0.500000 0.264921
#
# Coordination Sequence:
#
# PCOD8236652 Si02
#       8
#     8   8   8   8   8   8   8   8
#     4  10  23  42  62  88 125 167 209 252 309 374
#     4  10  22  38  59  87 121 159 197 242 305 369
#     4   9  20  39  62  87 117 155 202 251 304 359
#     4  10  19  35  59  85 119 158 196 246 303 359
#     4  11  23  39  64  93 125 166 206 259 313 362
#     4  12  24  37  58  91 127 159 202 249 298 360
#     4  10  20  37  60  87 116 154 201 247 299 364
#     4  10  23  43  64  88 121 162 209 259 308 365
#
# _framework density 20.385017999999999
#
# number of rings (size 3 to 8) (size 9 to 14) (size 15 to 20)
#    0.000    1.750    1.250    2.625    1.750    4.500 
#    0.000    2.500    0.000    0.000    0.000    0.000 
#    0.000    0.000    0.000    0.000    0.000    0.000 
#
# Total GULP energy -793456.114224 kJ/mol
# GULP energy per Si atom -12397.751785 kJ/mol
# Density = 2.033862 g / cm^3
# Si number density = 20.385018 Si / 1000 Ang^3
#
#
#
# Elastic Constant Matrix: (Units=GPa)
#
#
# Indices 1 2 3 4 5 6 
#
# 1 117.5233 47.4472 25.9305 0.0000 0.0000 0.0000
# 2 47.4472 111.3207 24.5187 0.0000 0.0000 0.0000
# 3 25.9305 24.5187 28.9053 0.0000 0.0000 0.0000
# 4 0.0000 0.0000 0.0000 29.7345 0.0000 0.0000
# 5 0.0000 0.0000 0.0000 0.0000 25.6239 0.0000
# 6 0.0000 0.0000 0.0000 0.0000 0.0000 25.9607
#
#
#
# Elastic Compliance Matrix: (Units=1/GPa)
#
#
# Indices 1 2 3 4 5 6 
#
# 1 0.011480 -0.003228 -0.007561 0.000000 0.000000 0.000000
# 2 -0.003228 0.011954 -0.007245 0.000000 0.000000 0.000000
# 3 -0.007561 -0.007245 0.047524 0.000000 0.000000 0.000000
# 4 0.000000 0.000000 0.000000 0.033631 0.000000 0.000000
# 5 0.000000 0.000000 0.000000 0.000000 0.039026 0.000000
# 6 0.000000 0.000000 0.000000 0.000000 0.000000 0.038520
#
#
# Mechanical properties :
#
#
# Convention : Reuss Voigt Hill
#
# Bulk Modulus (GPa) = 28.66003 50.39357 39.52680
# Shear Modulus (GPa) = 21.75498 26.92068 24.33783
#
# Velocity S-wave (km/s) = 3.27035 3.63796 3.45905
# Velocity P-wave (km/s) = 5.32449 6.51313 5.94857
#
# Compressibility (1/GPa) = 0.03489180
#
# Stress axis : x y z
#
# Youngs Moduli (GPa) = 87.10518 83.65062 21.04218
#
# Poissons Ratio (x) = 0.27001 0.15910
# Poissons Ratio (y) = 0.28117 0.15244
# Poissons Ratio (z) = 0.65859 0.60601
#
# Static dielectric constant tensor:
#      x y z
#    x 3.831330 0.000000 0.000000 
#    y 0.000000 3.701460 0.000000 
#    z 0.000000 0.000000 3.628180 
# 
# 
# High freq. dielectric constant tensor:
#      x y z
#    x 1.800900 0.000000 0.000000 
#    y 0.000000 1.790230 0.000000 
#    z 0.000000 0.000000 1.793410 
# 
# From -- ./inp_files/9934.got.cif
#   From: 2010.06.25/outbox.cif.g09.slc.cpg/sg58_5_cif.got.tgz:9934.got - 2010.06.26 21:38:00.
