data_PCOD8236394
_publ_section_title
;
Structure prediction by ZEFSAII (Michael W. Deem and Ramdas Pophale) SiO2 
 PCOD8236394
Probable space group: P N N M
;
_chemical_formula_sum "Si O2"
_cell_formula_units_Z 64
_cell_length_a 23.165792
_cell_length_b 19.029560
_cell_length_c 8.588463
_cell_angle_alpha 90.000000
_cell_angle_beta 90.000000
_cell_angle_gamma 90.000000
_cell_volume 3786.093616
_symmetry_space_group_name_H-M "P N N M"
_symmetry_group_IT_number 58
_symmetry_cell_setting 'orthorhombic'
loop_
_space_group_symop_operation_xyz
x,y,z
-x,-y,z
1/2+x,1/2-y,1/2-z
1/2-x,1/2+y,1/2-z
-x,-y,-z
x,y,-z
1/2-x,1/2+y,1/2+z
1/2+x,1/2-y,1/2+z
loop_
_atom_site_type_symbol
_atom_site_label
_atom_site_fract_x
_atom_site_fract_y
_atom_site_fract_z
Si Si1 0.331889 0.784697 0.818788
Si Si2 0.746635 0.000048 0.680277
Si Si3 0.122409 0.505571 0.320875
Si Si4 0.064931 0.640677 0.819385
Si Si5 0.259906 0.656953 0.818917
Si Si6 0.718637 0.638545 0.682740
Si Si7 0.345563 0.238014 0.818529
Si Si8 0.942012 0.637301 0.681743
O O1 0.317813 0.702618 0.784830
O O2 0.279710 0.832066 0.751770
O O3 0.393422 0.808732 0.750564
O O4 0.335219 0.801758 0.000000
O O5 0.755391 0.016222 0.500000
O O6 0.679058 0.003702 0.717458
O O7 0.784465 0.056356 0.775748
O O8 0.771989 0.923573 0.725386
O O9 0.142219 0.506653 0.500000
O O10 0.089434 0.576780 0.281674
O O11 0.078861 0.441950 0.288809
O O12 0.098188 0.711810 0.773753
O O13 0.998014 0.652144 0.783395
O O14 0.073882 0.623483 0.000000
O O15 0.207330 0.685761 0.717373
O O16 0.241916 0.664521 0.000000
O O17 0.712392 0.650538 0.500000
O O18 0.667805 0.682316 0.765406
O O19 0.359138 0.236696 0.000000
O O20 0.955797 0.650098 0.500000
#
# Coordination Sequence:
#
# PCOD8236394 Si02
#       8
#     8   8   8   8   8   8   8   8
#     4   8  15  31  51  70  94 129 168 204 250 298
#     4  11  20  30  49  78 108 137 170 206 249 302
#     4  11  21  34  50  71 101 138 178 214 250 296
#     4  12  24  36  49  70 100 137 174 214 257 303
#     4   9  18  32  51  74 103 135 165 206 254 304
#     4  10  19  34  53  73 101 135 168 208 257 304
#     4  11  21  34  52  74  98 130 171 214 255 304
#     4  10  20  35  52  71  96 135 178 214 250 300
#
# _framework density 16.903964999999999
#
# number of rings (size 3 to 8) (size 9 to 14) (size 15 to 20)
#    0.000    1.750    2.500    4.500    0.000    3.000 
#    0.000    0.625    0.000    0.000    0.000    0.875 
#    0.000    7.000    0.000    0.000    0.000    0.000 
#
# Total GULP energy -793637.993766 kJ/mol
# GULP energy per Si atom -12400.593653 kJ/mol
# Density = 1.686549 g / cm^3
# Si number density = 16.903965 Si / 1000 Ang^3
#
#
#
# Elastic Constant Matrix: (Units=GPa)
#
#
# Indices 1 2 3 4 5 6 
#
# 1 61.6664 35.5085 13.6108 0.0000 0.0000 0.0000
# 2 35.5085 103.3121 22.1062 0.0000 0.0000 0.0000
# 3 13.6108 22.1062 43.9967 0.0000 0.0000 0.0000
# 4 0.0000 0.0000 0.0000 23.7763 0.0000 0.0000
# 5 0.0000 0.0000 0.0000 0.0000 23.3369 0.0000
# 6 0.0000 0.0000 0.0000 0.0000 0.0000 25.2520
#
#
#
# Elastic Compliance Matrix: (Units=1/GPa)
#
#
# Indices 1 2 3 4 5 6 
#
# 1 0.020601 -0.006406 -0.003155 0.000000 0.000000 0.000000
# 2 -0.006406 0.012837 -0.004468 0.000000 0.000000 0.000000
# 3 -0.003155 -0.004468 0.025950 0.000000 0.000000 0.000000
# 4 0.000000 0.000000 0.000000 0.042059 0.000000 0.000000
# 5 0.000000 0.000000 0.000000 0.000000 0.042851 0.000000
# 6 0.000000 0.000000 0.000000 0.000000 0.000000 0.039601
#
#
# Mechanical properties :
#
#
# Convention : Reuss Voigt Hill
#
# Bulk Modulus (GPa) = 31.91730 39.04735 35.48232
# Shear Modulus (GPa) = 22.48209 23.65634 23.06922
#
# Velocity S-wave (km/s) = 3.65086 3.74499 3.69822
# Velocity P-wave (km/s) = 6.05758 6.46913 6.26673
#
# Compressibility (1/GPa) = 0.03133097
#
# Stress axis : x y z
#
# Youngs Moduli (GPa) = 48.54137 77.89901 38.53557
#
# Poissons Ratio (x) = 0.49899 0.12156
# Poissons Ratio (y) = 0.31094 0.17219
# Poissons Ratio (z) = 0.15313 0.34809
#
# Static dielectric constant tensor:
#      x y z
#    x 3.087120 0.000000 0.000000 
#    y 0.000000 3.353120 0.000000 
#    z 0.000000 0.000000 3.098030 
# 
# 
# High freq. dielectric constant tensor:
#      x y z
#    x 1.621850 0.000000 0.000000 
#    y 0.000000 1.650580 0.000000 
#    z 0.000000 0.000000 1.650870 
# 
# From -- ./inp_files/8494.got.cif
#   From: 2010.06.25/outbox.cif.g09.slc.cpg/sg58_5_cif.got.tgz:8494.got - 2010.06.26 21:38:00.
