data_PCOD8236614
_publ_section_title
;
Structure prediction by ZEFSAII (Michael W. Deem and Ramdas Pophale) SiO2 
 PCOD8236614
Probable space group: P N N M
;
_chemical_formula_sum "Si O2"
_cell_formula_units_Z 56
_cell_length_a 14.843707
_cell_length_b 21.067050
_cell_length_c 8.781841
_cell_angle_alpha 90.000000
_cell_angle_beta 90.000000
_cell_angle_gamma 90.000000
_cell_volume 2746.196877
_symmetry_space_group_name_H-M "P N N M"
_symmetry_group_IT_number 58
_symmetry_cell_setting 'orthorhombic'
loop_
_space_group_symop_operation_xyz
x,y,z
-x,-y,z
1/2+x,1/2-y,1/2-z
1/2-x,1/2+y,1/2-z
-x,-y,-z
x,y,-z
1/2-x,1/2+y,1/2+z
1/2+x,1/2-y,1/2+z
loop_
_atom_site_type_symbol
_atom_site_label
_atom_site_fract_x
_atom_site_fract_y
_atom_site_fract_z
Si Si1 0.568168 0.856381 0.671984
Si Si2 0.237716 0.598562 0.319545
Si Si3 0.927174 0.544418 0.172108
Si Si4 0.229363 0.972515 0.318778
Si Si5 0.695790 0.263708 0.679703
Si Si6 0.002803 0.240118 0.324015
Si Si7 0.661520 0.660296 0.820597
O O1 0.594938 0.836756 0.500000
O O2 0.640033 0.907220 0.738148
O O3 0.467263 0.884802 0.673212
O O4 0.566472 0.796704 0.784563
O O5 0.228752 0.594819 0.500000
O O6 0.299108 0.539478 0.259269
O O7 0.277864 0.665770 0.263306
O O8 0.829031 0.543984 0.245765
O O9 0.000000 0.500000 0.258857
O O10 0.915612 0.518228 0.000000
O O11 0.221926 0.979671 0.500000
O O12 0.171709 0.912066 0.260040
O O13 0.700263 0.261020 0.500000
O O14 0.592788 0.253293 0.727373
O O15 0.763622 0.209820 0.748541
O O16 0.029201 0.241669 0.500000
O O17 0.942010 0.178661 0.282416
O O18 0.678403 0.661108 0.000000
#
# Coordination Sequence:
#
# PCOD8236614 Si02
#       7
#     8   8   8   8   8   8   8
#     4  11  20  34  58  83 112 153 196 232 285 357
#     4  11  22  37  57  83 119 152 187 242 299 341
#     4   9  16  28  49  79 108 140 186 229 267 339
#     4  10  19  35  58  80 110 153 198 235 283 354
#     4  10  21  41  63  83 113 159 200 234 292 358
#     4  11  22  38  59  88 118 146 193 253 298 337
#     4   9  19  38  61  83 115 157 193 236 294 354
#
# _framework density 20.391836000000001
#
# number of rings (size 3 to 8) (size 9 to 14) (size 15 to 20)
#    0.000    1.857    2.857    2.143    0.000    3.429 
#    0.000    6.429    0.000    4.286    0.000    0.000 
#    0.000    0.000    0.000    0.000    0.000    0.000 
#
# Total GULP energy -693974.074598 kJ/mol
# GULP energy per Si atom -12392.394189 kJ/mol
# Density = 2.034542 g / cm^3
# Si number density = 20.391836 Si / 1000 Ang^3
#
#
#
# Elastic Constant Matrix: (Units=GPa)
#
#
# Indices 1 2 3 4 5 6 
#
# 1 48.0350 12.7101 7.0614 0.0000 0.0000 0.0000
# 2 12.7101 115.5122 22.9379 0.0000 0.0000 0.0000
# 3 7.0614 22.9379 32.5634 0.0000 0.0000 0.0000
# 4 0.0000 0.0000 0.0000 29.1913 0.0000 0.0000
# 5 0.0000 0.0000 0.0000 0.0000 18.6731 0.0000
# 6 0.0000 0.0000 0.0000 0.0000 0.0000 28.5319
#
#
#
# Elastic Compliance Matrix: (Units=1/GPa)
#
#
# Indices 1 2 3 4 5 6 
#
# 1 0.021786 -0.001696 -0.003529 0.000000 0.000000 0.000000
# 2 -0.001696 0.010197 -0.006815 0.000000 0.000000 0.000000
# 3 -0.003529 -0.006815 0.036275 0.000000 0.000000 0.000000
# 4 0.000000 0.000000 0.000000 0.034257 0.000000 0.000000
# 5 0.000000 0.000000 0.000000 0.000000 0.053553 0.000000
# 6 0.000000 0.000000 0.000000 0.000000 0.000000 0.035048
#
#
# Mechanical properties :
#
#
# Convention : Reuss Voigt Hill
#
# Bulk Modulus (GPa) = 22.63639 31.28105 26.95872
# Shear Modulus (GPa) = 21.74637 25.50601 23.62619
#
# Velocity S-wave (km/s) = 3.26916 3.54049 3.40753
# Velocity P-wave (km/s) = 5.03733 5.66452 5.36010
#
# Compressibility (1/GPa) = 0.04417666
#
# Stress axis : x y z
#
# Youngs Moduli (GPa) = 45.90142 98.06760 27.56699
#
# Poissons Ratio (x) = 0.16635 0.09729
# Poissons Ratio (y) = 0.07786 0.18787
# Poissons Ratio (z) = 0.16200 0.66834
#
# Static dielectric constant tensor:
#      x y z
#    x 3.587920 0.000000 0.000000 
#    y 0.000000 4.028200 0.000000 
#    z 0.000000 0.000000 3.265780 
# 
# 
# High freq. dielectric constant tensor:
#      x y z
#    x 1.780970 0.000000 0.000000 
#    y 0.000000 1.809720 0.000000 
#    z 0.000000 0.000000 1.758470 
# 
# From -- ./inp_files/6332.got.cif
#   From: 2010.06.25/outbox.cif.g09.slc.cpg/sg58_4_cif.got.tgz:6332.got - 2010.06.26 21:38:00.
