data_PCOD8236453
_publ_section_title
;
Structure prediction by ZEFSAII (Michael W. Deem and Ramdas Pophale) SiO2 
 PCOD8236453
Probable space group: P N N M
;
_chemical_formula_sum "Si O2"
_cell_formula_units_Z 48
_cell_length_a 17.413141
_cell_length_b 9.045336
_cell_length_c 17.273521
_cell_angle_alpha 90.000000
_cell_angle_beta 90.000000
_cell_angle_gamma 90.000000
_cell_volume 2720.712756
_symmetry_space_group_name_H-M "P N N M"
_symmetry_group_IT_number 58
_symmetry_cell_setting 'orthorhombic'
loop_
_space_group_symop_operation_xyz
x,y,z
-x,-y,z
1/2+x,1/2-y,1/2-z
1/2-x,1/2+y,1/2-z
-x,-y,-z
x,y,-z
1/2-x,1/2+y,1/2+z
1/2+x,1/2-y,1/2+z
loop_
_atom_site_type_symbol
_atom_site_label
_atom_site_fract_x
_atom_site_fract_y
_atom_site_fract_z
Si Si1 0.336198 0.676242 0.209416
Si Si2 0.967087 0.837046 0.590059
Si Si3 0.952377 0.350998 0.710695
Si Si4 0.920244 0.580786 0.086066
Si Si5 0.463670 0.649683 0.671059
Si Si6 0.684850 0.003296 0.273000
O O1 0.382966 0.679478 0.128632
O O2 0.391463 0.611702 0.275136
O O3 0.306360 0.840315 0.229742
O O4 0.266457 0.562977 0.204648
O O5 0.959065 0.798227 0.500000
O O6 0.027269 0.721104 0.627842
O O7 0.000000 0.000000 0.603662
O O8 0.862176 0.391570 0.716516
O O9 0.000000 0.500000 0.724234
O O10 0.973919 0.237877 0.778484
O O11 0.935163 0.755161 0.098299
O O12 0.859371 0.518567 0.146307
O O13 0.000000 0.500000 0.098849
O O14 0.887465 0.555819 0.000000
O O15 0.500000 0.500000 0.638167
#
# Coordination Sequence:
#
# PCOD8236453 Si02
#       6
#     8   8   8   8   8   8
#     4  10  22  34  55  83 110 146 183 231 277 329
#     4  10  22  39  59  85 116 150 190 233 284 341
#     4  11  17  36  58  81 106 143 192 234 272 328
#     4  10  19  35  56  78 106 144 182 220 274 332
#     4  10  19  34  56  82 109 139 187 234 264 321
#     4  11  21  35  55  83 112 141 188 232 280 333
#
# _framework density 17.642436
#
# number of rings (size 3 to 8) (size 9 to 14) (size 15 to 20)
#    0.000    1.667    6.667    2.000    4.667    1.333 
#    0.000    0.000    0.000    4.000    0.000    0.000 
#    0.000    0.000    0.000    0.000    0.000    0.000 
#
# Total GULP energy -595130.861646 kJ/mol
# GULP energy per Si atom -12398.559618 kJ/mol
# Density = 1.760228 g / cm^3
# Si number density = 17.642436 Si / 1000 Ang^3
#
#
#
# Elastic Constant Matrix: (Units=GPa)
#
#
# Indices 1 2 3 4 5 6 
#
# 1 84.9385 46.9831 40.2217 0.0000 0.0000 0.0000
# 2 46.9831 97.5723 42.3768 0.0000 0.0000 0.0000
# 3 40.2217 42.3768 104.3809 0.0000 0.0000 0.0000
# 4 0.0000 0.0000 0.0000 29.6262 0.0000 0.0000
# 5 0.0000 0.0000 0.0000 0.0000 17.3390 0.0000
# 6 0.0000 0.0000 0.0000 0.0000 0.0000 37.9043
#
#
#
# Elastic Compliance Matrix: (Units=1/GPa)
#
#
# Indices 1 2 3 4 5 6 
#
# 1 0.017317 -0.006605 -0.003991 0.000000 0.000000 0.000000
# 2 -0.006605 0.014962 -0.003529 0.000000 0.000000 0.000000
# 3 -0.003991 -0.003529 0.012551 0.000000 0.000000 0.000000
# 4 0.000000 0.000000 0.000000 0.033754 0.000000 0.000000
# 5 0.000000 0.000000 0.000000 0.000000 0.057673 0.000000
# 6 0.000000 0.000000 0.000000 0.000000 0.000000 0.026382
#
#
# Mechanical properties :
#
#
# Convention : Reuss Voigt Hill
#
# Bulk Modulus (GPa) = 60.31722 60.67277 60.49499
# Shear Modulus (GPa) = 25.45613 27.46124 26.45869
#
# Velocity S-wave (km/s) = 3.80266 3.94959 3.87682
# Velocity P-wave (km/s) = 7.31733 7.43397 7.37588
#
# Compressibility (1/GPa) = 0.01657901
#
# Stress axis : x y z
#
# Youngs Moduli (GPa) = 57.74779 66.83616 79.67445
#
# Poissons Ratio (x) = 0.44144 0.31800
# Poissons Ratio (y) = 0.38142 0.28119
# Poissons Ratio (z) = 0.23049 0.23588
#
# Static dielectric constant tensor:
#      x y z
#    x 3.419640 0.000000 0.000000 
#    y 0.000000 3.182570 0.000000 
#    z 0.000000 0.000000 3.220470 
# 
# 
# High freq. dielectric constant tensor:
#      x y z
#    x 1.670180 0.000000 0.000000 
#    y 0.000000 1.693960 0.000000 
#    z 0.000000 0.000000 1.668100 
# 
# From -- ./inp_files/25417.got.cif
#   From: 2010.06.25/outbox.cif.g09.slc.cpg/sg58_13_cif.got.tgz:25417.got - 2010.06.26 21:38:00.
