data_PCOD8236072
_publ_section_title
;
Structure prediction by ZEFSAII (Michael W. Deem and Ramdas Pophale) SiO2 
 PCOD8236072
Probable space group: P N N M
;
_chemical_formula_sum "Si O2"
_cell_formula_units_Z 48
_cell_length_a 14.672677
_cell_length_b 20.427411
_cell_length_c 9.079251
_cell_angle_alpha 90.000000
_cell_angle_beta 90.000000
_cell_angle_gamma 90.000000
_cell_volume 2721.276722
_symmetry_space_group_name_H-M "P N N M"
_symmetry_group_IT_number 58
_symmetry_cell_setting 'orthorhombic'
loop_
_space_group_symop_operation_xyz
x,y,z
-x,-y,z
1/2+x,1/2-y,1/2-z
1/2-x,1/2+y,1/2-z
-x,-y,-z
x,y,-z
1/2-x,1/2+y,1/2+z
1/2+x,1/2-y,1/2+z
loop_
_atom_site_type_symbol
_atom_site_label
_atom_site_fract_x
_atom_site_fract_y
_atom_site_fract_z
Si Si1 0.609042 0.318043 0.172679
Si Si2 0.925536 0.949706 0.172047
Si Si3 0.814466 0.339684 0.173335
Si Si4 0.937680 0.557480 0.671767
Si Si5 0.008605 0.694808 0.675079
Si Si6 0.221626 0.529628 0.330286
O O1 0.563237 0.380182 0.250087
O O2 0.715438 0.310566 0.216202
O O3 0.555967 0.253898 0.226862
O O4 0.599226 0.329250 0.000000
O O5 0.827261 0.981564 0.206973
O O6 0.940621 0.937909 0.000000
O O7 0.000000 0.000000 0.235624
O O8 0.891949 0.296262 0.252138
O O9 0.821949 0.413892 0.230530
O O10 0.830980 0.338418 0.000000
O O11 0.959253 0.562204 0.500000
O O12 0.831986 0.538231 0.701378
O O13 0.000000 0.500000 0.741562
O O14 0.961595 0.628430 0.738502
O O15 0.019493 0.694439 0.500000
O O16 0.208331 0.551327 0.500000
#
# Coordination Sequence:
#
# PCOD8236072 Si02
#       6
#     8   8   8   8   8   8
#     4   9  20  36  52  73 101 137 173 203 248 308
#     4   9  18  33  53  78 101 127 168 214 255 294
#     4  10  19  32  50  74 100 130 166 206 255 299
#     4   9  15  26  49  76  94 120 166 206 238 288
#     4  10  19  34  53  72  98 134 173 207 244 302
#     4   9  16  30  51  72  96 130 166 203 249 301
#
# _framework density 17.638780000000001
#
# number of rings (size 3 to 8) (size 9 to 14) (size 15 to 20)
#    0.000    2.667    1.667    0.500    0.000    1.667 
#    3.000    1.667    0.000    0.000    0.000    0.000 
#    0.000    0.000    0.000    0.000    0.000    0.000 
#
# Total GULP energy -595087.828496 kJ/mol
# GULP energy per Si atom -12397.663094 kJ/mol
# Density = 1.759863 g / cm^3
# Si number density = 17.638780 Si / 1000 Ang^3
#
#
#
# Elastic Constant Matrix: (Units=GPa)
#
#
# Indices 1 2 3 4 5 6 
#
# 1 130.3789 89.9482 34.7970 0.0000 0.0000 0.0000
# 2 89.9482 139.2690 34.4490 0.0000 0.0000 0.0000
# 3 34.7970 34.4490 32.9394 0.0000 0.0000 0.0000
# 4 0.0000 0.0000 0.0000 22.2783 0.0000 0.0000
# 5 0.0000 0.0000 0.0000 0.0000 23.2009 0.0000
# 6 0.0000 0.0000 0.0000 0.0000 0.0000 34.2580
#
#
#
# Elastic Compliance Matrix: (Units=1/GPa)
#
#
# Indices 1 2 3 4 5 6 
#
# 1 0.015189 -0.007879 -0.007805 0.000000 0.000000 0.000000
# 2 -0.007879 0.013773 -0.006081 0.000000 0.000000 0.000000
# 3 -0.007805 -0.006081 0.044964 0.000000 0.000000 0.000000
# 4 0.000000 0.000000 0.000000 0.044887 0.000000 0.000000
# 5 0.000000 0.000000 0.000000 0.000000 0.043102 0.000000
# 6 0.000000 0.000000 0.000000 0.000000 0.000000 0.029190
#
#
# Mechanical properties :
#
#
# Convention : Reuss Voigt Hill
#
# Bulk Modulus (GPa) = 32.89986 68.99730 50.94858
# Shear Modulus (GPa) = 20.42753 25.50698 22.96726
#
# Velocity S-wave (km/s) = 3.40678 3.80685 3.61236
# Velocity P-wave (km/s) = 5.84529 7.65014 6.80779
#
# Compressibility (1/GPa) = 0.03039526
#
# Stress axis : x y z
#
# Youngs Moduli (GPa) = 65.83722 72.60340 22.24012
#
# Poissons Ratio (x) = 0.57206 0.17359
# Poissons Ratio (y) = 0.51875 0.13524
# Poissons Ratio (z) = 0.51387 0.44151
#
# Static dielectric constant tensor:
#      x y z
#    x 3.480050 0.000000 0.000000 
#    y 0.000000 3.267600 0.000000 
#    z 0.000000 0.000000 3.055080 
# 
# 
# High freq. dielectric constant tensor:
#      x y z
#    x 1.692090 0.000000 0.000000 
#    y 0.000000 1.666530 0.000000 
#    z 0.000000 0.000000 1.658080 
# 
# From -- ./inp_files/5844.got.cif
#   From: 2010.06.25/outbox.cif.g09.slc.cpg/sg58_3_cif.got.tgz:5844.got - 2010.06.26 21:38:00.
