data_PCOD8236198
_publ_section_title
;
Structure prediction by ZEFSAII (Michael W. Deem and Ramdas Pophale) SiO2 
 PCOD8236198
Probable space group: P N N M
;
_chemical_formula_sum "Si O2"
_cell_formula_units_Z 64
_cell_length_a 19.460804
_cell_length_b 11.954257
_cell_length_c 13.842993
_cell_angle_alpha 90.000000
_cell_angle_beta 90.000000
_cell_angle_gamma 90.000000
_cell_volume 3220.426312
_symmetry_space_group_name_H-M "P N N M"
_symmetry_group_IT_number 58
_symmetry_cell_setting 'orthorhombic'
loop_
_space_group_symop_operation_xyz
x,y,z
-x,-y,z
1/2+x,1/2-y,1/2-z
1/2-x,1/2+y,1/2-z
-x,-y,-z
x,y,-z
1/2-x,1/2+y,1/2+z
1/2+x,1/2-y,1/2+z
loop_
_atom_site_type_symbol
_atom_site_label
_atom_site_fract_x
_atom_site_fract_y
_atom_site_fract_z
Si Si1 0.742280 0.594320 0.390148
Si Si2 0.574815 0.475793 0.164743
Si Si3 0.542298 0.236999 0.894715
Si Si4 0.696216 0.391087 0.713839
Si Si5 0.889265 0.212987 0.605082
Si Si6 0.078895 0.526023 0.886121
Si Si7 0.326712 0.204759 0.702757
Si Si8 0.642504 0.156473 0.260478
O O1 0.767769 0.610469 0.500000
O O2 0.716433 0.466210 0.378633
O O3 0.685200 0.689208 0.367491
O O4 0.802175 0.607575 0.312746
O O5 0.500000 0.500000 0.214104
O O6 0.568552 0.364996 0.100145
O O7 0.633715 0.461506 0.243072
O O8 0.597717 0.580285 0.100258
O O9 0.461393 0.225338 0.877358
O O10 0.575404 0.173574 0.804962
O O11 0.561521 0.184984 0.000000
O O12 0.759272 0.375337 0.790698
O O13 0.668749 0.268303 0.685893
O O14 0.858868 0.247473 0.500000
O O15 0.837496 0.251043 0.688136
O O16 0.106317 0.640217 0.837061
O O17 0.126255 0.426589 0.847113
O O18 0.000000 0.500000 0.859265
O O19 0.089295 0.535944 0.000000
#
# Coordination Sequence:
#
# PCOD8236198 Si02
#       8
#     8   8   8   8   8   8   8   8
#     4  11  22  39  63  88 119 161 203 253 311 369
#     4   9  17  33  57  85 118 152 190 242 303 360
#     4   9  17  31  55  89 121 151 189 236 295 366
#     4  10  21  38  60  86 120 156 197 252 311 358
#     4  10  19  32  56  88 120 153 190 237 300 362
#     4  11  24  43  66  89 120 167 215 255 300 364
#     4  11  22  40  60  86 125 162 208 253 302 364
#     4  10  21  39  61  87 119 159 198 253 306 363
#
# _framework density 19.873144
#
# number of rings (size 3 to 8) (size 9 to 14) (size 15 to 20)
#    0.000    1.875    2.500    1.875    0.000    2.500 
#    0.000    6.250    0.000    3.000    0.000    0.000 
#    0.000    0.000    0.000    0.000    0.000    0.000 
#
# Total GULP energy -793170.205295 kJ/mol
# GULP energy per Si atom -12393.284458 kJ/mol
# Density = 1.982791 g / cm^3
# Si number density = 19.873144 Si / 1000 Ang^3
#
#
#
# Elastic Constant Matrix: (Units=GPa)
#
#
# Indices 1 2 3 4 5 6 
#
# 1 75.7872 20.6446 32.5530 0.0000 0.0000 0.0000
# 2 20.6446 81.8709 36.2181 0.0000 0.0000 0.0000
# 3 32.5530 36.2181 88.0526 0.0000 0.0000 0.0000
# 4 0.0000 0.0000 0.0000 17.7510 0.0000 0.0000
# 5 0.0000 0.0000 0.0000 0.0000 21.9803 0.0000
# 6 0.0000 0.0000 0.0000 0.0000 0.0000 27.5640
#
#
#
# Elastic Compliance Matrix: (Units=1/GPa)
#
#
# Indices 1 2 3 4 5 6 
#
# 1 0.015881 -0.001720 -0.005164 0.000000 0.000000 0.000000
# 2 -0.001720 0.015118 -0.005582 0.000000 0.000000 0.000000
# 3 -0.005164 -0.005582 0.015562 0.000000 0.000000 0.000000
# 4 0.000000 0.000000 0.000000 0.056335 0.000000 0.000000
# 5 0.000000 0.000000 0.000000 0.000000 0.045495 0.000000
# 6 0.000000 0.000000 0.000000 0.000000 0.000000 0.036279
#
#
# Mechanical properties :
#
#
# Convention : Reuss Voigt Hill
#
# Bulk Modulus (GPa) = 46.23540 47.17133 46.70336
# Shear Modulus (GPa) = 23.06141 23.87874 23.47008
#
# Velocity S-wave (km/s) = 3.41021 3.47011 3.44029
# Velocity P-wave (km/s) = 6.23071 6.31216 6.27157
#
# Compressibility (1/GPa) = 0.02162845
#
# Stress axis : x y z
#
# Youngs Moduli (GPa) = 62.96654 66.14802 64.25915
#
# Poissons Ratio (x) = 0.11380 0.33182
# Poissons Ratio (y) = 0.10832 0.35871
# Poissons Ratio (z) = 0.32514 0.36925
#
# Static dielectric constant tensor:
#      x y z
#    x 3.749730 0.000000 0.000000 
#    y 0.000000 3.684190 0.000000 
#    z 0.000000 0.000000 3.361270 
# 
# 
# High freq. dielectric constant tensor:
#      x y z
#    x 1.779210 0.000000 0.000000 
#    y 0.000000 1.777660 0.000000 
#    z 0.000000 0.000000 1.753560 
# 
# From -- ./inp_files/22944.got.cif
#   From: 2010.06.25/outbox.cif.g09.slc.cpg/sg58_12_cif.got.tgz:22944.got - 2010.06.26 21:38:00.
