data_PCOD8236428
_publ_section_title
;
Structure prediction by ZEFSAII (Michael W. Deem and Ramdas Pophale) SiO2 
 PCOD8236428
Probable space group: P N N M
;
_chemical_formula_sum "Si O2"
_cell_formula_units_Z 40
_cell_length_a 9.779090
_cell_length_b 19.162698
_cell_length_c 12.277337
_cell_angle_alpha 90.000000
_cell_angle_beta 90.000000
_cell_angle_gamma 90.000000
_cell_volume 2300.696201
_symmetry_space_group_name_H-M "P N N M"
_symmetry_group_IT_number 58
_symmetry_cell_setting 'orthorhombic'
loop_
_space_group_symop_operation_xyz
x,y,z
-x,-y,z
1/2+x,1/2-y,1/2-z
1/2-x,1/2+y,1/2-z
-x,-y,-z
x,y,-z
1/2-x,1/2+y,1/2+z
1/2+x,1/2-y,1/2+z
loop_
_atom_site_type_symbol
_atom_site_label
_atom_site_fract_x
_atom_site_fract_y
_atom_site_fract_z
Si Si1 0.479328 0.686530 0.624361
Si Si2 0.710282 0.193369 0.123167
Si Si3 0.474160 0.843752 0.311818
Si Si4 0.138679 0.041385 0.500000
Si Si5 0.291590 0.648657 0.814175
Si Si6 0.112619 0.442216 0.000000
O O1 0.452084 0.663371 0.500000
O O2 0.636200 0.672234 0.658935
O O3 0.452831 0.768653 0.634154
O O4 0.376872 0.643502 0.701772
O O5 0.603020 0.151774 0.196738
O O6 0.686445 0.276264 0.131138
O O7 0.682828 0.170103 0.000000
O O8 0.631633 0.863513 0.291228
O O9 0.402212 0.897227 0.391758
O O10 0.153338 0.089101 0.606465
O O11 0.242815 0.978185 0.500000
O O12 0.000000 0.000000 0.500000
O O13 0.000000 0.500000 0.000000
#
# Coordination Sequence:
#
# PCOD8236428 Si02
#       6
#     8   8   8   4   8   4
#     4   9  18  33  55  81 114 143 176 235 282 328
#     4   9  18  33  57  81 112 143 177 236 279 326
#     4  10  19  34  55  82 109 144 190 225 277 327
#     4  12  26  38  56  82 116 154 184 232 272 334
#     4  10  19  36  53  80 115 144 183 226 282 323
#     4  12  22  38  60  78 112 154 186 224 270 331
#
# _framework density 17.386040999999999
#
# number of rings (size 3 to 8) (size 9 to 14) (size 15 to 20)
#    0.000    2.000    4.000    0.000    2.800    0.800 
#    0.000    0.000    0.000    2.400    0.000    0.000 
#    0.000    0.000    0.000    0.000    0.000    0.000 
#
# Total GULP energy -496002.058350 kJ/mol
# GULP energy per Si atom -12400.051459 kJ/mol
# Density = 1.734647 g / cm^3
# Si number density = 17.386041 Si / 1000 Ang^3
#
#
#
# Elastic Constant Matrix: (Units=GPa)
#
#
# Indices 1 2 3 4 5 6 
#
# 1 143.6692 61.8182 87.1680 0.0000 0.0000 0.0000
# 2 61.8182 72.6488 57.3631 0.0000 0.0000 0.0000
# 3 87.1680 57.3631 139.2196 0.0000 0.0000 0.0000
# 4 0.0000 0.0000 0.0000 18.8022 0.0000 0.0000
# 5 0.0000 0.0000 0.0000 0.0000 36.2599 0.0000
# 6 0.0000 0.0000 0.0000 0.0000 0.0000 32.0191
#
#
#
# Elastic Compliance Matrix: (Units=1/GPa)
#
#
# Indices 1 2 3 4 5 6 
#
# 1 0.013262 -0.007009 -0.005416 0.000000 0.000000 0.000000
# 2 -0.007009 0.024106 -0.005544 0.000000 0.000000 0.000000
# 3 -0.005416 -0.005544 0.012858 0.000000 0.000000 0.000000
# 4 0.000000 0.000000 0.000000 0.053185 0.000000 0.000000
# 5 0.000000 0.000000 0.000000 0.000000 0.027579 0.000000
# 6 0.000000 0.000000 0.000000 0.000000 0.000000 0.031231
#
#
# Mechanical properties :
#
#
# Convention : Reuss Voigt Hill
#
# Bulk Modulus (GPa) = 69.98346 85.35957 77.67151
# Shear Modulus (GPa) = 24.63991 27.36215 26.00103
#
# Velocity S-wave (km/s) = 3.76869 3.97142 3.87138
# Velocity P-wave (km/s) = 7.69918 8.38050 8.04705
#
# Compressibility (1/GPa) = 0.01428909
#
# Stress axis : x y z
#
# Youngs Moduli (GPa) = 75.40325 41.48265 77.77058
#
# Poissons Ratio (x) = 0.29074 0.42119
# Poissons Ratio (y) = 0.52847 0.43119
# Poissons Ratio (z) = 0.40837 0.23000
#
# Static dielectric constant tensor:
#      x y z
#    x 3.344760 0.000000 0.000000 
#    y 0.000000 2.994180 0.000000 
#    z 0.000000 0.000000 3.347260 
# 
# 
# High freq. dielectric constant tensor:
#      x y z
#    x 1.681640 0.000000 0.000000 
#    y 0.000000 1.643340 0.000000 
#    z 0.000000 0.000000 1.676610 
# 
# From -- ./inp_files/12917.got.cif
#   From: 2010.06.25/outbox.cif.g09.slc.cpg/sg58_7_cif.got.tgz:12917.got - 2010.06.26 21:38:00.
