data_PCOD8236025
_publ_section_title
;
Structure prediction by ZEFSAII (Michael W. Deem and Ramdas Pophale) SiO2 
 PCOD8236025
Probable space group: P N N M
;
_chemical_formula_sum "Si O2"
_cell_formula_units_Z 32
_cell_length_a 12.898396
_cell_length_b 14.171203
_cell_length_c 9.172328
_cell_angle_alpha 90.000000
_cell_angle_beta 90.000000
_cell_angle_gamma 90.000000
_cell_volume 1676.571202
_symmetry_space_group_name_H-M "P N N M"
_symmetry_group_IT_number 58
_symmetry_cell_setting 'orthorhombic'
loop_
_space_group_symop_operation_xyz
x,y,z
-x,-y,z
1/2+x,1/2-y,1/2-z
1/2-x,1/2+y,1/2-z
-x,-y,-z
x,y,-z
1/2-x,1/2+y,1/2+z
1/2+x,1/2-y,1/2+z
loop_
_atom_site_type_symbol
_atom_site_label
_atom_site_fract_x
_atom_site_fract_y
_atom_site_fract_z
Si Si1 0.592850 0.927047 0.840372
Si Si2 0.779749 0.598547 0.672545
Si Si3 0.451684 0.404879 0.671406
Si Si4 0.041355 0.292574 0.829333
O O1 0.562483 0.846190 0.725889
O O2 0.500000 0.000000 0.854384
O O3 0.691168 0.989488 0.788480
O O4 0.614080 0.881252 0.000000
O O5 0.791618 0.615816 0.500000
O O6 0.663801 0.614613 0.732581
O O7 0.854509 0.673148 0.751424
O O8 0.500000 0.500000 0.741406
O O9 0.439324 0.419526 0.500000
O O10 0.526980 0.317678 0.707429
O O11 0.051503 0.311677 0.000000
#
# Coordination Sequence:
#
# PCOD8236025 Si02
#       4
#     8   8   8   8
#     4   8  15  29  50  73  97 129 165 199 239 292
#     4   9  18  34  54  73  98 134 169 202 244 295
#     4   9  19  35  52  72 100 134 171 205 241 293
#     4  10  19  31  52  79 102 127 163 210 254 290
#
# _framework density 19.086575
#
# number of rings (size 3 to 8) (size 9 to 14) (size 15 to 20)
#    0.000    3.000    0.000    2.250    0.000    6.500 
#    0.000    5.000    0.000    6.750    0.000    0.000 
#    0.000    0.000    0.000    0.000    0.000    0.000 
#
# Total GULP energy -396605.040384 kJ/mol
# GULP energy per Si atom -12393.907512 kJ/mol
# Density = 1.904313 g / cm^3
# Si number density = 19.086575 Si / 1000 Ang^3
#
#
#
# Elastic Constant Matrix: (Units=GPa)
#
#
# Indices 1 2 3 4 5 6 
#
# 1 122.7847 62.2477 40.2676 0.0000 0.0000 0.0000
# 2 62.2477 127.2726 53.4095 0.0000 0.0000 0.0000
# 3 40.2676 53.4095 62.8174 0.0000 0.0000 0.0000
# 4 0.0000 0.0000 0.0000 20.0183 0.0000 0.0000
# 5 0.0000 0.0000 0.0000 0.0000 16.6037 0.0000
# 6 0.0000 0.0000 0.0000 0.0000 0.0000 26.1458
#
#
#
# Elastic Compliance Matrix: (Units=1/GPa)
#
#
# Indices 1 2 3 4 5 6 
#
# 1 0.011443 -0.003916 -0.004006 0.000000 0.000000 0.000000
# 2 -0.003916 0.013555 -0.009015 0.000000 0.000000 0.000000
# 3 -0.004006 -0.009015 0.026152 0.000000 0.000000 0.000000
# 4 0.000000 0.000000 0.000000 0.049954 0.000000 0.000000
# 5 0.000000 0.000000 0.000000 0.000000 0.060227 0.000000
# 6 0.000000 0.000000 0.000000 0.000000 0.000000 0.038247
#
#
# Mechanical properties :
#
#
# Convention : Reuss Voigt Hill
#
# Bulk Modulus (GPa) = 57.88112 69.41381 63.64746
# Shear Modulus (GPa) = 20.90185 23.01689 21.95937
#
# Velocity S-wave (km/s) = 3.31283 3.47640 3.39560
# Velocity P-wave (km/s) = 6.71003 7.24987 6.98517
#
# Compressibility (1/GPa) = 0.01727679
#
# Stress axis : x y z
#
# Youngs Moduli (GPa) = 87.38762 73.77094 38.23738
#
# Poissons Ratio (x) = 0.28886 0.15319
# Poissons Ratio (y) = 0.34217 0.34472
# Poissons Ratio (z) = 0.35010 0.66507
#
# Static dielectric constant tensor:
#      x y z
#    x 3.730190 0.000000 0.000000 
#    y 0.000000 3.648830 0.000000 
#    z 0.000000 0.000000 3.253180 
# 
# 
# High freq. dielectric constant tensor:
#      x y z
#    x 1.738720 0.000000 0.000000 
#    y 0.000000 1.737300 0.000000 
#    z 0.000000 0.000000 1.710760 
# 
# From -- ./inp_files/3492.got.cif
#   From: 2010.06.25/outbox.cif.g09.slc.cpg/sg58_2_cif.got.tgz:3492.got - 2010.06.26 21:38:00.
