data_PCOD8236913
_publ_section_title
;
Structure prediction by ZEFSAII (Michael W. Deem and Ramdas Pophale) SiO2 
 PCOD8236913
Probable space group: P N N M
;
_chemical_formula_sum "Si O2"
_cell_formula_units_Z 48
_cell_length_a 12.430274
_cell_length_b 22.062419
_cell_length_c 9.153243
_cell_angle_alpha 90.000000
_cell_angle_beta 90.000000
_cell_angle_gamma 90.000000
_cell_volume 2510.202873
_symmetry_space_group_name_H-M "P N N M"
_symmetry_group_IT_number 58
_symmetry_cell_setting 'orthorhombic'
loop_
_space_group_symop_operation_xyz
x,y,z
-x,-y,z
1/2+x,1/2-y,1/2-z
1/2-x,1/2+y,1/2-z
-x,-y,-z
x,y,-z
1/2-x,1/2+y,1/2+z
1/2+x,1/2-y,1/2+z
loop_
_atom_site_type_symbol
_atom_site_label
_atom_site_fract_x
_atom_site_fract_y
_atom_site_fract_z
Si Si1 0.983827 0.068289 0.327146
Si Si2 0.375981 0.009476 0.669851
Si Si3 0.249558 0.896118 0.325992
Si Si4 0.366934 0.677019 0.829172
Si Si5 0.865610 0.359124 0.828112
Si Si6 0.582360 0.202427 0.673775
O O1 0.977658 0.061949 0.500000
O O2 0.873561 0.100250 0.270411
O O3 0.081501 0.112505 0.280409
O O4 0.000000 0.000000 0.261717
O O5 0.346486 0.009828 0.500000
O O6 0.346127 0.074211 0.740734
O O7 0.500000 0.000000 0.698386
O O8 0.308777 0.955027 0.742144
O O9 0.256261 0.896733 0.500000
O O10 0.313229 0.835951 0.271604
O O11 0.240274 0.679455 0.791956
O O12 0.420076 0.730871 0.739862
O O13 0.388579 0.687373 0.000000
O O14 0.973301 0.328620 0.764897
O O15 0.882806 0.367227 0.000000
O O16 0.580617 0.207737 0.500000
#
# Coordination Sequence:
#
# PCOD8236913 Si02
#       6
#     8   8   8   8   8   8
#     4   9  17  30  48  72 100 126 158 207 258 294
#     4   9  13  22  42  69  97 121 151 198 249 285
#     4   9  16  26  44  70  98 126 159 200 247 293
#     4  10  21  34  50  72 100 132 165 199 243 296
#     4   9  17  30  47  70  99 127 159 201 244 286
#     4  10  20  33  49  72 101 132 165 200 240 288
#
# _framework density 19.121962
#
# number of rings (size 3 to 8) (size 9 to 14) (size 15 to 20)
#    0.000    2.667    1.667    1.000    2.333    4.000 
#    0.000    0.000    0.000    0.500    0.000    5.833 
#    0.000    0.000    0.000    0.000    0.000    0.000 
#
# Total GULP energy -594827.294585 kJ/mol
# GULP energy per Si atom -12392.235304 kJ/mol
# Density = 1.907844 g / cm^3
# Si number density = 19.121962 Si / 1000 Ang^3
#
#
#
# Elastic Constant Matrix: (Units=GPa)
#
#
# Indices 1 2 3 4 5 6 
#
# 1 135.3912 45.2237 12.8229 0.0000 0.0000 0.0000
# 2 45.2237 147.3303 21.1674 0.0000 0.0000 0.0000
# 3 12.8229 21.1674 10.8979 0.0000 0.0000 0.0000
# 4 0.0000 0.0000 0.0000 19.9274 0.0000 0.0000
# 5 0.0000 0.0000 0.0000 0.0000 9.4689 0.0000
# 6 0.0000 0.0000 0.0000 0.0000 0.0000 31.9769
#
#
#
# Elastic Compliance Matrix: (Units=1/GPa)
#
#
# Indices 1 2 3 4 5 6 
#
# 1 0.008590 -0.001643 -0.006916 0.000000 0.000000 0.000000
# 2 -0.001643 0.009729 -0.016964 0.000000 0.000000 0.000000
# 3 -0.006916 -0.016964 0.132847 0.000000 0.000000 0.000000
# 4 0.000000 0.000000 0.000000 0.050182 0.000000 0.000000
# 5 0.000000 0.000000 0.000000 0.000000 0.105609 0.000000
# 6 0.000000 0.000000 0.000000 0.000000 0.000000 0.031273
#
#
# Mechanical properties :
#
#
# Convention : Reuss Voigt Hill
#
# Bulk Modulus (GPa) = 9.98794 50.22749 30.10771
# Shear Modulus (GPa) = 11.83018 26.56832 19.19925
#
# Velocity S-wave (km/s) = 2.49001 3.73153 3.17210
# Velocity P-wave (km/s) = 3.67443 6.69998 5.40329
#
# Compressibility (1/GPa) = 0.10012070
#
# Stress axis : x y z
#
# Youngs Moduli (GPa) = 116.41692 102.78502 7.52748
#
# Poissons Ratio (x) = 0.16889 0.05206
# Poissons Ratio (y) = 0.19128 0.12769
# Poissons Ratio (z) = 0.80510 1.74361
#
# Static dielectric constant tensor:
#      x y z
#    x 3.731560 0.000000 0.000000 
#    y 0.000000 3.700150 0.000000 
#    z 0.000000 0.000000 2.674730 
# 
# 
# High freq. dielectric constant tensor:
#      x y z
#    x 1.760440 0.000000 0.000000 
#    y 0.000000 1.759340 0.000000 
#    z 0.000000 0.000000 1.648640 
# 
# From -- ./inp_files/4260.got.cif
#   From: 2010.06.25/outbox.cif.g09.slc.cpg/sg58_3_cif.got.tgz:4260.got - 2010.06.26 21:38:00.
