data_PCOD8236507
_publ_section_title
;
Structure prediction by ZEFSAII (Michael W. Deem and Ramdas Pophale) SiO2 
 PCOD8236507
Probable space group: P N N M
;
_chemical_formula_sum "Si O2"
_cell_formula_units_Z 56
_cell_length_a 19.202085
_cell_length_b 11.893949
_cell_length_c 13.335057
_cell_angle_alpha 90.000000
_cell_angle_beta 90.000000
_cell_angle_gamma 90.000000
_cell_volume 3045.575262
_symmetry_space_group_name_H-M "P N N M"
_symmetry_group_IT_number 58
_symmetry_cell_setting 'orthorhombic'
loop_
_space_group_symop_operation_xyz
x,y,z
-x,-y,z
1/2+x,1/2-y,1/2-z
1/2-x,1/2+y,1/2-z
-x,-y,-z
x,y,-z
1/2-x,1/2+y,1/2+z
1/2+x,1/2-y,1/2+z
loop_
_atom_site_type_symbol
_atom_site_label
_atom_site_fract_x
_atom_site_fract_y
_atom_site_fract_z
Si Si1 0.163392 0.945031 0.196232
Si Si2 0.925017 0.863221 0.884575
Si Si3 0.428387 0.049952 0.749133
Si Si4 0.210313 0.833095 0.388018
Si Si5 0.072293 0.765469 0.112834
Si Si6 0.297021 0.073428 0.882542
Si Si7 0.132561 0.367031 0.112072
O O1 0.103127 0.037275 0.185121
O O2 0.238794 0.992604 0.165577
O O3 0.162503 0.902391 0.311414
O O4 0.143166 0.836433 0.129144
O O5 0.889031 0.751477 0.839006
O O6 0.008208 0.853030 0.877230
O O7 0.901072 0.886057 0.000000
O O8 0.436574 0.172129 0.698884
O O9 0.372685 0.046472 0.838248
O O10 0.500000 0.000000 0.794476
O O11 0.405783 0.970019 0.660464
O O12 0.177967 0.843158 0.500000
O O13 0.220101 0.702768 0.358134
O O14 0.285691 0.889561 0.383981
O O15 0.074010 0.713660 0.000000
O O16 0.298919 0.049444 0.000000
O O17 0.103285 0.361354 0.000000
#
# Coordination Sequence:
#
# PCOD8236507 Si02
#       7
#     8   8   8   8   8   8   8
#     4  12  21  37  64  88 115 151 195 242 293 348
#     4  10  20  35  58  87 121 155 188 235 296 356
#     4  12  23  37  59  86 118 160 199 242 292 342
#     4  10  21  38  60  85 117 155 196 238 290 351
#     4  11  23  36  56  93 125 150 189 245 299 348
#     4  11  23  40  60  84 115 158 201 238 285 349
#     4  10  19  34  57  86 118 154 191 233 294 357
#
# _framework density 18.387331
#
# number of rings (size 3 to 8) (size 9 to 14) (size 15 to 20)
#    0.000    1.143    5.714    2.143    0.000    2.000 
#    0.000    0.000    0.000    3.429    0.000    0.000 
#    0.000    0.000    0.000    0.000    0.000    0.000 
#
# Total GULP energy -694316.983161 kJ/mol
# GULP energy per Si atom -12398.517556 kJ/mol
# Density = 1.834548 g / cm^3
# Si number density = 18.387331 Si / 1000 Ang^3
#
#
#
# Elastic Constant Matrix: (Units=GPa)
#
#
# Indices 1 2 3 4 5 6 
#
# 1 94.3152 39.4262 40.9776 0.0000 0.0000 0.0000
# 2 39.4262 89.6976 43.9823 0.0000 0.0000 0.0000
# 3 40.9776 43.9823 87.3078 0.0000 0.0000 0.0000
# 4 0.0000 0.0000 0.0000 31.5563 0.0000 0.0000
# 5 0.0000 0.0000 0.0000 0.0000 28.6832 0.0000
# 6 0.0000 0.0000 0.0000 0.0000 0.0000 36.8742
#
#
#
# Elastic Compliance Matrix: (Units=1/GPa)
#
#
# Indices 1 2 3 4 5 6 
#
# 1 0.014315 -0.003981 -0.004713 0.000000 0.000000 0.000000
# 2 -0.003981 0.015913 -0.006148 0.000000 0.000000 0.000000
# 3 -0.004713 -0.006148 0.016763 0.000000 0.000000 0.000000
# 4 0.000000 0.000000 0.000000 0.031689 0.000000 0.000000
# 5 0.000000 0.000000 0.000000 0.000000 0.034864 0.000000
# 6 0.000000 0.000000 0.000000 0.000000 0.000000 0.027119
#
#
# Mechanical properties :
#
#
# Convention : Reuss Voigt Hill
#
# Bulk Modulus (GPa) = 57.78135 57.78810 57.78472
# Shear Modulus (GPa) = 28.39051 29.21838 28.80445
#
# Velocity S-wave (km/s) = 3.93367 3.99061 3.96224
# Velocity P-wave (km/s) = 7.21973 7.26153 7.24066
#
# Compressibility (1/GPa) = 0.01730662
#
# Stress axis : x y z
#
# Youngs Moduli (GPa) = 69.85878 62.84202 59.65569
#
# Poissons Ratio (x) = 0.25017 0.28116
# Poissons Ratio (y) = 0.27810 0.36676
# Poissons Ratio (z) = 0.32925 0.38635
#
# Static dielectric constant tensor:
#      x y z
#    x 3.656680 0.000000 0.000000 
#    y 0.000000 3.469840 0.000000 
#    z 0.000000 0.000000 3.287290 
# 
# 
# High freq. dielectric constant tensor:
#      x y z
#    x 1.714720 0.000000 0.000000 
#    y 0.000000 1.720900 0.000000 
#    z 0.000000 0.000000 1.691930 
# 
# From -- ./inp_files/14581.got.cif
#   From: 2010.06.25/outbox.cif.g09.slc.cpg/sg58_8_cif.got.tgz:14581.got - 2010.06.26 21:38:00.
