data_PCOD8236602
_publ_section_title
;
Structure prediction by ZEFSAII (Michael W. Deem and Ramdas Pophale) SiO2 
 PCOD8236602
Probable space group: P N N M
;
_chemical_formula_sum "Si O2"
_cell_formula_units_Z 56
_cell_length_a 10.756564
_cell_length_b 21.718276
_cell_length_c 12.865227
_cell_angle_alpha 90.000000
_cell_angle_beta 90.000000
_cell_angle_gamma 90.000000
_cell_volume 3005.497472
_symmetry_space_group_name_H-M "P N N M"
_symmetry_group_IT_number 58
_symmetry_cell_setting 'orthorhombic'
loop_
_space_group_symop_operation_xyz
x,y,z
-x,-y,z
1/2+x,1/2-y,1/2-z
1/2-x,1/2+y,1/2-z
-x,-y,-z
x,y,-z
1/2-x,1/2+y,1/2+z
1/2+x,1/2-y,1/2+z
loop_
_atom_site_type_symbol
_atom_site_label
_atom_site_fract_x
_atom_site_fract_y
_atom_site_fract_z
Si Si1 0.241165 0.243501 0.384981
Si Si2 0.370595 0.402434 0.123346
Si Si3 0.117042 0.141604 0.274797
Si Si4 0.385991 0.953848 0.118782
Si Si5 0.142969 0.342999 0.235688
Si Si6 0.525249 0.258609 0.384208
Si Si7 0.639441 0.493499 0.286582
O O1 0.186099 0.242873 0.500000
O O2 0.226158 0.174705 0.339271
O O3 0.161711 0.291474 0.321528
O O4 0.379503 0.268195 0.383284
O O5 0.499620 0.369352 0.150246
O O6 0.264310 0.358875 0.169257
O O7 0.362009 0.469333 0.177605
O O8 0.355622 0.411180 0.000000
O O9 0.170915 0.077518 0.233413
O O10 0.084656 0.185401 0.178524
O O11 0.412969 0.901253 0.203700
O O12 0.500000 0.000000 0.135196
O O13 0.248254 0.982082 0.137997
O O14 0.386004 0.929049 0.000000
O O15 0.047660 0.310974 0.156635
O O16 0.580156 0.263434 0.500000
O O17 0.500000 0.500000 0.337342
#
# Coordination Sequence:
#
# PCOD8236602 Si02
#       7
#     8   8   8   8   8   8   8
#     4  10  20  34  55  80 107 144 184 226 275 326
#     4  10  19  35  57  82 111 146 183 223 276 332
#     4  10  20  35  55  82 112 141 180 230 275 324
#     4  10  22  39  60  84 112 148 187 230 282 335
#     4  10  20  37  57  78 111 147 183 227 274 330
#     4  10  21  36  56  80 110 147 182 223 274 325
#     4   9  21  37  57  85 113 145 182 231 279 329
#
# _framework density 18.632522999999999
#
# number of rings (size 3 to 8) (size 9 to 14) (size 15 to 20)
#    0.000    2.143    1.429    1.286    2.000    4.000 
#    0.000    0.000    0.000    2.143    0.000    0.000 
#    0.000    0.000    0.000    0.000    0.000    0.000 
#
# Total GULP energy -694124.987625 kJ/mol
# GULP energy per Si atom -12395.089065 kJ/mol
# Density = 1.859011 g / cm^3
# Si number density = 18.632523 Si / 1000 Ang^3
#
#
#
# Elastic Constant Matrix: (Units=GPa)
#
#
# Indices 1 2 3 4 5 6 
#
# 1 44.6132 13.2326 22.8061 0.0000 0.0000 0.0000
# 2 13.2326 103.1544 41.4919 0.0000 0.0000 0.0000
# 3 22.8061 41.4919 115.7768 0.0000 0.0000 0.0000
# 4 0.0000 0.0000 0.0000 22.6580 0.0000 0.0000
# 5 0.0000 0.0000 0.0000 0.0000 18.2720 0.0000
# 6 0.0000 0.0000 0.0000 0.0000 0.0000 21.8888
#
#
#
# Elastic Compliance Matrix: (Units=1/GPa)
#
#
# Indices 1 2 3 4 5 6 
#
# 1 0.025106 -0.001439 -0.004430 0.000000 0.000000 0.000000
# 2 -0.001439 0.011409 -0.003805 0.000000 0.000000 0.000000
# 3 -0.004430 -0.003805 0.010874 0.000000 0.000000 0.000000
# 4 0.000000 0.000000 0.000000 0.044135 0.000000 0.000000
# 5 0.000000 0.000000 0.000000 0.000000 0.054729 0.000000
# 6 0.000000 0.000000 0.000000 0.000000 0.000000 0.045686
#
#
# Mechanical properties :
#
#
# Convention : Reuss Voigt Hill
#
# Bulk Modulus (GPa) = 35.66194 46.51172 41.08683
# Shear Modulus (GPa) = 22.66202 24.96466 23.81334
#
# Velocity S-wave (km/s) = 3.49128 3.66436 3.57886
# Velocity P-wave (km/s) = 5.95258 6.55135 6.25913
#
# Compressibility (1/GPa) = 0.02804110
#
# Stress axis : x y z
#
# Youngs Moduli (GPa) = 39.83079 87.64658 91.96485
#
# Poissons Ratio (x) = 0.12610 0.40739
# Poissons Ratio (y) = 0.05731 0.34997
# Poissons Ratio (z) = 0.17645 0.33354
#
# Static dielectric constant tensor:
#      x y z
#    x 3.380280 0.000000 0.000000 
#    y 0.000000 3.562900 0.000000 
#    z 0.000000 0.000000 3.568860 
# 
# 
# High freq. dielectric constant tensor:
#      x y z
#    x 1.715860 0.000000 0.000000 
#    y 0.000000 1.731180 0.000000 
#    z 0.000000 0.000000 1.726700 
# 
# From -- ./inp_files/14558.got.cif
#   From: 2010.06.25/outbox.cif.g09.slc.cpg/sg58_8_cif.got.tgz:14558.got - 2010.06.26 21:38:00.
