data_PCOD8236456
_publ_section_title
;
Structure prediction by ZEFSAII (Michael W. Deem and Ramdas Pophale) SiO2 
 PCOD8236456
Probable space group: P N N M
;
_chemical_formula_sum "Si O2"
_cell_formula_units_Z 64
_cell_length_a 23.019745
_cell_length_b 15.468863
_cell_length_c 9.194283
_cell_angle_alpha 90.000000
_cell_angle_beta 90.000000
_cell_angle_gamma 90.000000
_cell_volume 3273.985629
_symmetry_space_group_name_H-M "P N N M"
_symmetry_group_IT_number 58
_symmetry_cell_setting 'orthorhombic'
loop_
_space_group_symop_operation_xyz
x,y,z
-x,-y,z
1/2+x,1/2-y,1/2-z
1/2-x,1/2+y,1/2-z
-x,-y,-z
x,y,-z
1/2-x,1/2+y,1/2+z
1/2+x,1/2-y,1/2+z
loop_
_atom_site_type_symbol
_atom_site_label
_atom_site_fract_x
_atom_site_fract_y
_atom_site_fract_z
Si Si1 0.453345 0.428395 0.829255
Si Si2 0.305868 0.685474 0.663867
Si Si3 0.859017 0.626545 0.835863
Si Si4 0.744507 0.066216 0.835096
Si Si5 0.432363 0.253396 0.672862
Si Si6 0.160666 0.031562 0.329573
Si Si7 0.799395 0.253807 0.164925
Si Si8 0.988490 0.595885 0.172144
O O1 0.500000 0.500000 0.777542
O O2 0.461418 0.338199 0.745060
O O3 0.390236 0.465559 0.789541
O O4 0.460430 0.410031 0.000000
O O5 0.298791 0.651322 0.500000
O O6 0.336543 0.776804 0.667561
O O7 0.349625 0.623979 0.753732
O O8 0.241537 0.687055 0.734769
O O9 0.820521 0.569258 0.727759
O O10 0.924582 0.624661 0.778142
O O11 0.854901 0.588960 0.000000
O O12 0.777137 0.156658 0.825560
O O13 0.778561 0.000131 0.734228
O O14 0.741911 0.032428 0.000000
O O15 0.437165 0.265374 0.500000
O O16 0.365488 0.242742 0.722500
O O17 0.466031 0.167870 0.729522
O O18 0.165592 0.045361 0.500000
O O19 0.795752 0.288677 0.000000
O O20 0.000000 0.500000 0.237309
O O21 0.994114 0.592606 0.000000
#
# Coordination Sequence:
#
# PCOD8236456 Si02
#       8
#     8   8   8   8   8   8   8   8
#     4  10  23  40  57  83 118 156 196 239 294 358
#     4  10  21  34  53  83 116 148 186 234 284 341
#     4   9  19  36  57  82 112 150 190 230 286 343
#     4  10  19  34  56  82 112 145 184 236 284 333
#     4  10  20  36  61  88 116 155 199 244 288 339
#     4  11  22  36  56  82 115 151 190 232 287 351
#     4   9  18  34  54  80 111 145 189 232 282 342
#     4   9  19  36  58  85 115 148 193 242 285 339
#
# _framework density 19.548038999999999
#
# number of rings (size 3 to 8) (size 9 to 14) (size 15 to 20)
#    0.000    2.250    1.250    1.125    1.750    3.250 
#    0.000    3.125    0.000    1.500    0.000    0.000 
#    0.000    0.000    0.000    0.000    0.000    0.000 
#
# Total GULP energy -793577.053530 kJ/mol
# GULP energy per Si atom -12399.641461 kJ/mol
# Density = 1.950355 g / cm^3
# Si number density = 19.548039 Si / 1000 Ang^3
#
#
#
# Elastic Constant Matrix: (Units=GPa)
#
#
# Indices 1 2 3 4 5 6 
#
# 1 128.6192 45.2981 38.4549 0.0000 0.0000 0.0000
# 2 45.2981 93.2081 37.7506 0.0000 0.0000 0.0000
# 3 38.4549 37.7506 76.9831 0.0000 0.0000 0.0000
# 4 0.0000 0.0000 0.0000 28.3836 0.0000 0.0000
# 5 0.0000 0.0000 0.0000 0.0000 22.7243 0.0000
# 6 0.0000 0.0000 0.0000 0.0000 0.0000 23.0896
#
#
#
# Elastic Compliance Matrix: (Units=1/GPa)
#
#
# Indices 1 2 3 4 5 6 
#
# 1 0.009995 -0.003538 -0.003258 0.000000 0.000000 0.000000
# 2 -0.003538 0.014640 -0.005412 0.000000 0.000000 0.000000
# 3 -0.003258 -0.005412 0.017271 0.000000 0.000000 0.000000
# 4 0.000000 0.000000 0.000000 0.035232 0.000000 0.000000
# 5 0.000000 0.000000 0.000000 0.000000 0.044006 0.000000
# 6 0.000000 0.000000 0.000000 0.000000 0.000000 0.043310
#
#
# Mechanical properties :
#
#
# Convention : Reuss Voigt Hill
#
# Bulk Modulus (GPa) = 57.17278 60.20196 58.68737
# Shear Modulus (GPa) = 25.68078 26.65995 26.17036
#
# Velocity S-wave (km/s) = 3.62847 3.69700 3.66289
# Velocity P-wave (km/s) = 6.84582 7.00625 6.92650
#
# Compressibility (1/GPa) = 0.01749084
#
# Stress axis : x y z
#
# Youngs Moduli (GPa) = 100.05058 68.30628 57.90057
#
# Poissons Ratio (x) = 0.24167 0.18863
# Poissons Ratio (y) = 0.35398 0.31334
# Poissons Ratio (z) = 0.32594 0.36966
#
# Static dielectric constant tensor:
#      x y z
#    x 3.651940 0.000000 0.000000 
#    y 0.000000 3.631770 0.000000 
#    z 0.000000 0.000000 3.508900 
# 
# 
# High freq. dielectric constant tensor:
#      x y z
#    x 1.763880 0.000000 0.000000 
#    y 0.000000 1.762090 0.000000 
#    z 0.000000 0.000000 1.745470 
# 
# From -- ./inp_files/9936.got.cif
#   From: 2010.06.25/outbox.cif.g09.slc.cpg/sg58_5_cif.got.tgz:9936.got - 2010.06.26 21:38:00.
