data_PCOD8236085
_publ_section_title
;
Structure prediction by ZEFSAII (Michael W. Deem and Ramdas Pophale) SiO2 
 PCOD8236085
Probable space group: P N N M
;
_chemical_formula_sum "Si O2"
_cell_formula_units_Z 64
_cell_length_a 20.741875
_cell_length_b 19.410715
_cell_length_c 8.970440
_cell_angle_alpha 90.000000
_cell_angle_beta 90.000000
_cell_angle_gamma 90.000000
_cell_volume 3611.630329
_symmetry_space_group_name_H-M "P N N M"
_symmetry_group_IT_number 58
_symmetry_cell_setting 'orthorhombic'
loop_
_space_group_symop_operation_xyz
x,y,z
-x,-y,z
1/2+x,1/2-y,1/2-z
1/2-x,1/2+y,1/2-z
-x,-y,-z
x,y,-z
1/2-x,1/2+y,1/2+z
1/2+x,1/2-y,1/2+z
loop_
_atom_site_type_symbol
_atom_site_label
_atom_site_fract_x
_atom_site_fract_y
_atom_site_fract_z
Si Si1 0.939561 0.213921 0.326259
Si Si2 0.375611 0.424973 0.172990
Si Si3 0.068383 0.208001 0.823777
Si Si4 0.751716 0.424493 0.329493
Si Si5 0.314008 0.783651 0.825995
Si Si6 0.619160 0.422013 0.824400
Si Si7 0.256192 0.922888 0.170898
Si Si8 0.692484 0.783070 0.827926
O O1 0.953977 0.225863 0.500000
O O2 0.928380 0.132939 0.290590
O O3 0.877471 0.257649 0.274644
O O4 0.000630 0.239715 0.231497
O O5 0.399772 0.500312 0.226848
O O6 0.308181 0.402932 0.242824
O O7 0.360942 0.429073 0.000000
O O8 0.126215 0.254922 0.765424
O O9 0.072704 0.130629 0.760079
O O10 0.071097 0.206479 0.000000
O O11 0.725988 0.423935 0.500000
O O12 0.692681 0.406400 0.220987
O O13 0.780935 0.499842 0.288361
O O14 0.806048 0.366143 0.308396
O O15 0.311006 0.866102 0.794685
O O16 0.247420 0.750118 0.773193
O O17 0.324008 0.766958 0.000000
O O18 0.610653 0.410690 0.000000
O O19 0.236214 0.918870 0.000000
O O20 0.704328 0.761555 0.000000
#
# Coordination Sequence:
#
# PCOD8236085 Si02
#       8
#     8   8   8   8   8   8   8   8
#     4  10  21  37  54  76 107 143 179 219 265 318
#     4   9  18  32  52  77 108 142 176 211 255 316
#     4  12  25  38  52  73 104 143 184 228 270 315
#     4   9  17  31  52  81 111 138 170 210 261 314
#     4  11  21  34  55  80 107 140 178 221 264 313
#     4  10  19  32  51  77 107 142 178 214 258 313
#     4   9  18  31  51  80 111 138 170 215 260 309
#     4  10  19  33  57  82 107 138 174 217 264 317
#
# _framework density 17.720528999999999
#
# number of rings (size 3 to 8) (size 9 to 14) (size 15 to 20)
#    0.000    2.000    2.500    1.875    0.000    2.500 
#    0.000    2.500    0.000    0.750    0.000    5.250 
#    0.000    0.000    0.000    0.000    0.000    0.000 
#
# Total GULP energy -793468.396914 kJ/mol
# GULP energy per Si atom -12397.943702 kJ/mol
# Density = 1.768020 g / cm^3
# Si number density = 17.720529 Si / 1000 Ang^3
#
#
#
# Elastic Constant Matrix: (Units=GPa)
#
#
# Indices 1 2 3 4 5 6 
#
# 1 109.7982 50.1865 47.8892 0.0000 0.0000 0.0000
# 2 50.1865 85.3718 32.9627 0.0000 0.0000 0.0000
# 3 47.8892 32.9627 76.2413 0.0000 0.0000 0.0000
# 4 0.0000 0.0000 0.0000 16.3268 0.0000 0.0000
# 5 0.0000 0.0000 0.0000 0.0000 28.6296 0.0000
# 6 0.0000 0.0000 0.0000 0.0000 0.0000 18.9647
#
#
#
# Elastic Compliance Matrix: (Units=1/GPa)
#
#
# Indices 1 2 3 4 5 6 
#
# 1 0.014816 -0.006142 -0.006651 0.000000 0.000000 0.000000
# 2 -0.006142 0.016607 -0.003322 0.000000 0.000000 0.000000
# 3 -0.006651 -0.003322 0.018730 0.000000 0.000000 0.000000
# 4 0.000000 0.000000 0.000000 0.061249 0.000000 0.000000
# 5 0.000000 0.000000 0.000000 0.000000 0.034929 0.000000
# 6 0.000000 0.000000 0.000000 0.000000 0.000000 0.052729
#
#
# Mechanical properties :
#
#
# Convention : Reuss Voigt Hill
#
# Bulk Modulus (GPa) = 55.79327 59.27647 57.53487
# Shear Modulus (GPa) = 21.07370 22.14243 21.60806
#
# Velocity S-wave (km/s) = 3.45226 3.53871 3.49575
# Velocity P-wave (km/s) = 6.88798 7.08661 6.98800
#
# Compressibility (1/GPa) = 0.01792331
#
# Stress axis : x y z
#
# Youngs Moduli (GPa) = 67.49660 60.21735 53.38998
#
# Poissons Ratio (x) = 0.36983 0.35509
# Poissons Ratio (y) = 0.41453 0.17737
# Poissons Ratio (z) = 0.44891 0.20005
#
# Static dielectric constant tensor:
#      x y z
#    x 3.048740 0.000000 0.000000 
#    y 0.000000 3.752030 0.000000 
#    z 0.000000 0.000000 3.295860 
# 
# 
# High freq. dielectric constant tensor:
#      x y z
#    x 1.655250 0.000000 0.000000 
#    y 0.000000 1.693760 0.000000 
#    z 0.000000 0.000000 1.686710 
# 
# From -- ./inp_files/8250.got.cif
#   From: 2010.06.25/outbox.cif.g09.slc.cpg/sg58_5_cif.got.tgz:8250.got - 2010.06.26 21:38:00.
