data_PCOD8236154
_publ_section_title
;
Structure prediction by ZEFSAII (Michael W. Deem and Ramdas Pophale) SiO2 
 PCOD8236154
Probable space group: P N N M
;
_chemical_formula_sum "Si O2"
_cell_formula_units_Z 64
_cell_length_a 10.842400
_cell_length_b 34.887928
_cell_length_c 9.381356
_cell_angle_alpha 90.000000
_cell_angle_beta 90.000000
_cell_angle_gamma 90.000000
_cell_volume 3548.674938
_symmetry_space_group_name_H-M "P N N M"
_symmetry_group_IT_number 58
_symmetry_cell_setting 'orthorhombic'
loop_
_space_group_symop_operation_xyz
x,y,z
-x,-y,z
1/2+x,1/2-y,1/2-z
1/2-x,1/2+y,1/2-z
-x,-y,-z
x,y,-z
1/2-x,1/2+y,1/2+z
1/2+x,1/2-y,1/2+z
loop_
_atom_site_type_symbol
_atom_site_label
_atom_site_fract_x
_atom_site_fract_y
_atom_site_fract_z
Si Si1 0.726649 0.067578 0.830206
Si Si2 0.343577 0.642483 0.337679
Si Si3 0.376762 0.361028 0.665497
Si Si4 0.240959 0.076306 0.340518
Si Si5 0.141967 0.008972 0.158926
Si Si6 0.139396 0.231311 0.166370
Si Si7 0.509609 0.042923 0.340563
Si Si8 0.856369 0.224567 0.170122
O O1 0.796403 0.104800 0.766270
O O2 0.591138 0.068665 0.764205
O O3 0.790302 0.028327 0.776760
O O4 0.722374 0.069091 0.000000
O O5 0.304306 0.634472 0.500000
O O6 0.481869 0.628143 0.308930
O O7 0.257687 0.617842 0.234006
O O8 0.332007 0.687083 0.302463
O O9 0.347515 0.358532 0.500000
O O10 0.345635 0.319077 0.728386
O O11 0.187806 0.080184 0.500000
O O12 0.158528 0.045856 0.256712
O O13 0.379215 0.062541 0.343184
O O14 0.192635 0.018156 0.000000
O O15 0.000000 0.000000 0.150463
O O16 0.242222 0.253684 0.256999
O O17 0.995360 0.240293 0.209720
O O18 0.157478 0.240976 0.000000
O O19 0.566913 0.041459 0.500000
O O20 0.500000 0.000000 0.278013
O O21 0.840948 0.226975 0.000000
#
# Coordination Sequence:
#
# PCOD8236154 Si02
#       8
#     8   8   8   8   8   8   8   8
#     4  10  19  32  54  78  98 127 176 221 251 302
#     4   9  18  36  59  78 105 139 172 216 264 312
#     4   8  16  34  57  80 105 135 171 214 266 310
#     4  11  22  35  52  74 102 137 176 215 260 315
#     4  10  20  33  52  77 102 131 168 214 263 307
#     4   9  19  36  58  85 113 146 184 221 271 328
#     4  10  21  38  52  65 100 146 174 206 264 314
#     4   9  18  35  59  83 113 149 180 219 270 327
#
# _framework density 18.0349
#
# number of rings (size 3 to 8) (size 9 to 14) (size 15 to 20)
#    0.000    2.500    1.250    2.625    0.000    4.500 
#    2.250    4.375    0.000    0.000    0.000    0.000 
#    0.000    0.000    0.000    0.000    0.000    0.000 
#
# Total GULP energy -793275.051519 kJ/mol
# GULP energy per Si atom -12394.922680 kJ/mol
# Density = 1.799385 g / cm^3
# Si number density = 18.034900 Si / 1000 Ang^3
#
#
#
# Elastic Constant Matrix: (Units=GPa)
#
#
# Indices 1 2 3 4 5 6 
#
# 1 66.7646 35.4566 26.7461 0.0000 0.0000 0.0000
# 2 35.4566 88.6483 38.1881 0.0000 0.0000 0.0000
# 3 26.7461 38.1881 55.3635 0.0000 0.0000 0.0000
# 4 0.0000 0.0000 0.0000 316.2240 0.0000 0.0000
# 5 0.0000 0.0000 0.0000 0.0000 32.8724 0.0000
# 6 0.0000 0.0000 0.0000 0.0000 0.0000 32.9058
#
#
#
# Elastic Compliance Matrix: (Units=1/GPa)
#
#
# Indices 1 2 3 4 5 6 
#
# 1 0.020325 -0.005548 -0.005992 0.000000 0.000000 0.000000
# 2 -0.005548 0.017564 -0.009435 0.000000 0.000000 0.000000
# 3 -0.005992 -0.009435 0.027465 0.000000 0.000000 0.000000
# 4 0.000000 0.000000 0.000000 0.003162 0.000000 0.000000
# 5 0.000000 0.000000 0.000000 0.000000 0.030421 0.000000
# 6 0.000000 0.000000 0.000000 0.000000 0.000000 0.030390
#
#
# Mechanical properties :
#
#
# Convention : Reuss Voigt Hill
#
# Bulk Modulus (GPa) = 42.72775 45.72867 44.22821
# Shear Modulus (GPa) = 27.92081 83.75946 55.84014
#
# Velocity S-wave (km/s) = 3.93893 6.82230 5.57041
# Velocity P-wave (km/s) = 6.66558 9.35249 8.12093
#
# Compressibility (1/GPa) = 0.02340399
#
# Stress axis : x y z
#
# Youngs Moduli (GPa) = 49.20089 56.93482 36.40982
#
# Poissons Ratio (x) = 0.31588 0.21817
# Poissons Ratio (y) = 0.27297 0.34352
# Poissons Ratio (z) = 0.29482 0.53717
#
# Static dielectric constant tensor:
#      x y z
#    x 3.286460 0.000000 0.000000 
#    y 0.000000 3.422990 0.000000 
#    z 0.000000 0.000000 3.314720 
# 
# 
# High freq. dielectric constant tensor:
#      x y z
#    x 1.695510 0.000000 0.000000 
#    y 0.000000 1.700920 0.000000 
#    z 0.000000 0.000000 1.681530 
# 
# From -- ./inp_files/4702.got.cif
#   From: 2010.06.25/outbox.cif.g09.slc.cpg/sg58_3_cif.got.tgz:4702.got - 2010.06.26 21:38:00.
