data_PCOD8236197
_publ_section_title
;
Structure prediction by ZEFSAII (Michael W. Deem and Ramdas Pophale) SiO2 
 PCOD8236197
Probable space group: P N N M
;
_chemical_formula_sum "Si O2"
_cell_formula_units_Z 56
_cell_length_a 11.856156
_cell_length_b 12.564386
_cell_length_c 19.361934
_cell_angle_alpha 90.000000
_cell_angle_beta 90.000000
_cell_angle_gamma 90.000000
_cell_volume 2884.256703
_symmetry_space_group_name_H-M "P N N M"
_symmetry_group_IT_number 58
_symmetry_cell_setting 'orthorhombic'
loop_
_space_group_symop_operation_xyz
x,y,z
-x,-y,z
1/2+x,1/2-y,1/2-z
1/2-x,1/2+y,1/2-z
-x,-y,-z
x,y,-z
1/2-x,1/2+y,1/2+z
1/2+x,1/2-y,1/2+z
loop_
_atom_site_type_symbol
_atom_site_label
_atom_site_fract_x
_atom_site_fract_y
_atom_site_fract_z
Si Si1 0.545725 0.199384 0.419346
Si Si2 0.125514 0.265817 0.319733
Si Si3 0.385247 0.293002 0.183544
Si Si4 0.675633 0.085573 0.692166
Si Si5 0.620570 0.044967 0.079935
Si Si6 0.146685 0.657501 0.184725
Si Si7 0.756306 0.842934 0.921543
O O1 0.529927 0.171677 0.500000
O O2 0.627729 0.112694 0.383869
O O3 0.424137 0.193660 0.382716
O O4 0.610481 0.314484 0.410267
O O5 0.122319 0.330326 0.246868
O O6 0.148200 0.348872 0.380006
O O7 0.222407 0.179035 0.326312
O O8 0.015880 0.192653 0.335648
O O9 0.312845 0.401522 0.194835
O O10 0.397047 0.225955 0.252652
O O11 0.322101 0.229159 0.124744
O O12 0.635515 0.966062 0.706665
O O13 0.500000 0.000000 0.105838
O O14 0.725345 0.965116 0.095591
O O15 0.612988 0.073920 0.000000
O O16 0.721434 0.817709 0.000000
#
# Coordination Sequence:
#
# PCOD8236197 Si02
#       7
#     8   8   8   8   8   8   8
#     4  10  21  38  60  84 113 150 194 238 278 334
#     4  11  22  36  58  82 115 148 184 235 284 342
#     4  10  20  36  56  83 114 145 186 234 283 335
#     4  10  22  37  58  82 110 149 193 232 279 338
#     4  10  19  32  56  87 112 144 187 231 284 341
#     4  11  23  37  55  83 113 150 190 232 285 339
#     4   9  18  34  58  85 113 146 188 234 281 334
#
# _framework density 19.415749000000002
#
# number of rings (size 3 to 8) (size 9 to 14) (size 15 to 20)
#    0.000    1.857    2.857    1.286    0.000    2.286 
#    0.000    0.714    0.000    2.571    0.000    6.000 
#    0.000    0.000    0.000    0.000    0.000    0.000 
#
# Total GULP energy -693894.294395 kJ/mol
# GULP energy per Si atom -12390.969543 kJ/mol
# Density = 1.937156 g / cm^3
# Si number density = 19.415749 Si / 1000 Ang^3
#
#
#
# Elastic Constant Matrix: (Units=GPa)
#
#
# Indices 1 2 3 4 5 6 
#
# 1 115.8879 19.7441 35.1031 0.0000 0.0000 0.0000
# 2 19.7441 41.4016 23.5343 0.0000 0.0000 0.0000
# 3 35.1031 23.5343 75.3576 0.0000 0.0000 0.0000
# 4 0.0000 0.0000 0.0000 23.1926 0.0000 0.0000
# 5 0.0000 0.0000 0.0000 0.0000 30.6133 0.0000
# 6 0.0000 0.0000 0.0000 0.0000 0.0000 -21.9937
#
#
#
# Elastic Compliance Matrix: (Units=1/GPa)
#
#
# Indices 1 2 3 4 5 6 
#
# 1 0.010280 -0.002651 -0.003961 0.000000 0.000000 0.000000
# 2 -0.002651 0.030051 -0.008150 0.000000 0.000000 0.000000
# 3 -0.003961 -0.008150 0.017660 0.000000 0.000000 0.000000
# 4 0.000000 0.000000 0.000000 0.043117 0.000000 0.000000
# 5 0.000000 0.000000 0.000000 0.000000 0.032666 0.000000
# 6 0.000000 0.000000 0.000000 0.000000 0.000000 -0.045467
#
#
# Mechanical properties :
#
#
# Convention : Reuss Voigt Hill
#
# Bulk Modulus (GPa) = 35.12765 43.26778 39.19772
# Shear Modulus (GPa) = 39.27112 16.64681 27.95896
#
# Velocity S-wave (km/s) = 4.50226 2.93129 3.79887
# Velocity P-wave (km/s) = 6.72003 5.81291 6.28286
#
# Compressibility (1/GPa) = 0.02846760
#
# Stress axis : x y z
#
# Youngs Moduli (GPa) = 97.27158 33.27708 56.62390
#
# Poissons Ratio (x) = 0.08822 0.22428
# Poissons Ratio (y) = 0.25788 0.46148
# Poissons Ratio (z) = 0.38528 0.27121
#
# Static dielectric constant tensor:
#      x y z
#    x 3.911840 0.000000 0.000000 
#    y 0.000000 3.407990 0.000000 
#    z 0.000000 0.000000 3.623430 
# 
# 
# High freq. dielectric constant tensor:
#      x y z
#    x 1.764250 0.000000 0.000000 
#    y 0.000000 1.726340 0.000000 
#    z 0.000000 0.000000 1.763250 
# 
# From -- ./inp_files/29626.got.cif
#   From: 2010.06.25/outbox.cif.g09.slc.cpg/sg58_15_cif.got.tgz:29626.got - 2010.06.26 21:38:00.
