data_PCOD8236232
_publ_section_title
;
Structure prediction by ZEFSAII (Michael W. Deem and Ramdas Pophale) SiO2 
 PCOD8236232
Probable space group: P N N M
;
_chemical_formula_sum "Si O2"
_cell_formula_units_Z 56
_cell_length_a 19.176349
_cell_length_b 19.009065
_cell_length_c 8.900520
_cell_angle_alpha 90.000000
_cell_angle_beta 90.000000
_cell_angle_gamma 90.000000
_cell_volume 3244.457288
_symmetry_space_group_name_H-M "P N N M"
_symmetry_group_IT_number 58
_symmetry_cell_setting 'orthorhombic'
loop_
_space_group_symop_operation_xyz
x,y,z
-x,-y,z
1/2+x,1/2-y,1/2-z
1/2-x,1/2+y,1/2-z
-x,-y,-z
x,y,-z
1/2-x,1/2+y,1/2+z
1/2+x,1/2-y,1/2+z
loop_
_atom_site_type_symbol
_atom_site_label
_atom_site_fract_x
_atom_site_fract_y
_atom_site_fract_z
Si Si1 0.656108 0.724517 0.827326
Si Si2 0.793705 0.479797 0.822690
Si Si3 0.865122 0.741054 0.675930
Si Si4 0.735090 0.345135 0.673784
Si Si5 0.437314 0.053639 0.826417
Si Si6 0.483120 0.203868 0.176692
Si Si7 0.754663 0.622109 0.325775
O O1 0.697051 0.797133 0.799264
O O2 0.575456 0.738061 0.785056
O O3 0.684424 0.663253 0.720424
O O4 0.664708 0.700866 0.000000
O O5 0.745737 0.417514 0.760602
O O6 0.872075 0.476140 0.763019
O O7 0.759288 0.552517 0.772227
O O8 0.794633 0.475524 0.000000
O O9 0.864845 0.758942 0.500000
O O10 0.833524 0.807155 0.763287
O O11 0.821295 0.670757 0.709280
O O12 0.942748 0.729094 0.741676
O O13 0.723474 0.361841 0.500000
O O14 0.461051 0.128263 0.756312
O O15 0.500000 0.000000 0.807407
O O16 0.414509 0.061618 0.000000
O O17 0.491743 0.193173 0.000000
O O18 0.750712 0.601877 0.500000
#
# Coordination Sequence:
#
# PCOD8236232 Si02
#       7
#     8   8   8   8   8   8   8
#     4   9  17  32  53  75 101 135 177 217 259 310
#     4  12  23  34  51  76 107 140 178 221 265 310
#     4   9  18  33  54  79 105 136 176 215 256 310
#     4  10  19  34  54  75 103 138 178 218 262 313
#     4  10  19  33  53  77 109 147 179 207 254 319
#     4   9  16  30  52  77 105 139 173 210 255 311
#     4  10  20  34  52  75 104 137 177 219 263 314
#
# _framework density 17.260206
#
# number of rings (size 3 to 8) (size 9 to 14) (size 15 to 20)
#    0.000    2.143    1.429    3.000    0.000    3.714 
#    0.000    1.429    0.000    0.857    0.000    6.000 
#    0.000    0.000    0.000    0.000    0.000    0.000 
#
# Total GULP energy -694549.514836 kJ/mol
# GULP energy per Si atom -12402.669908 kJ/mol
# Density = 1.722092 g / cm^3
# Si number density = 17.260206 Si / 1000 Ang^3
#
#
#
# Elastic Constant Matrix: (Units=GPa)
#
#
# Indices 1 2 3 4 5 6 
#
# 1 91.4041 53.2013 33.3042 0.0000 0.0000 0.0000
# 2 53.2013 104.8793 55.0455 0.0000 0.0000 0.0000
# 3 33.3042 55.0455 83.9562 0.0000 0.0000 0.0000
# 4 0.0000 0.0000 0.0000 27.5316 0.0000 0.0000
# 5 0.0000 0.0000 0.0000 0.0000 23.3650 0.0000
# 6 0.0000 0.0000 0.0000 0.0000 0.0000 19.1867
#
#
#
# Elastic Compliance Matrix: (Units=1/GPa)
#
#
# Indices 1 2 3 4 5 6 
#
# 1 0.015652 -0.007137 -0.001530 0.000000 0.000000 0.000000
# 2 -0.007137 0.017791 -0.008834 0.000000 0.000000 0.000000
# 3 -0.001530 -0.008834 0.018310 0.000000 0.000000 0.000000
# 4 0.000000 0.000000 0.000000 0.036322 0.000000 0.000000
# 5 0.000000 0.000000 0.000000 0.000000 0.042799 0.000000
# 6 0.000000 0.000000 0.000000 0.000000 0.000000 0.052119
#
#
# Mechanical properties :
#
#
# Convention : Reuss Voigt Hill
#
# Bulk Modulus (GPa) = 59.69314 62.59351 61.14332
# Shear Modulus (GPa) = 22.36364 23.26257 22.81310
#
# Velocity S-wave (km/s) = 3.60346 3.67516 3.63949
# Velocity P-wave (km/s) = 7.20920 7.37241 7.29126
#
# Compressibility (1/GPa) = 0.01675234
#
# Stress axis : x y z
#
# Youngs Moduli (GPa) = 63.89112 56.20726 54.61614
#
# Poissons Ratio (x) = 0.40113 0.08354
# Poissons Ratio (y) = 0.45597 0.48247
# Poissons Ratio (z) = 0.09773 0.49652
#
# Static dielectric constant tensor:
#      x y z
#    x 3.261380 0.000000 0.000000 
#    y 0.000000 3.158050 0.000000 
#    z 0.000000 0.000000 3.119660 
# 
# 
# High freq. dielectric constant tensor:
#      x y z
#    x 1.660780 0.000000 0.000000 
#    y 0.000000 1.660940 0.000000 
#    z 0.000000 0.000000 1.655860 
# 
# From -- ./inp_files/9168.got.cif
#   From: 2010.06.25/outbox.cif.g09.slc.cpg/sg58_5_cif.got.tgz:9168.got - 2010.06.26 21:38:00.
