data_PCOD8236480
_publ_section_title
;
Structure prediction by ZEFSAII (Michael W. Deem and Ramdas Pophale) SiO2 
 PCOD8236480
Probable space group: P N N M
;
_chemical_formula_sum "Si O2"
_cell_formula_units_Z 64
_cell_length_a 14.405227
_cell_length_b 25.245393
_cell_length_c 9.291280
_cell_angle_alpha 90.000000
_cell_angle_beta 90.000000
_cell_angle_gamma 90.000000
_cell_volume 3378.919073
_symmetry_space_group_name_H-M "P N N M"
_symmetry_group_IT_number 58
_symmetry_cell_setting 'orthorhombic'
loop_
_space_group_symop_operation_xyz
x,y,z
-x,-y,z
1/2+x,1/2-y,1/2-z
1/2-x,1/2+y,1/2-z
-x,-y,-z
x,y,-z
1/2-x,1/2+y,1/2+z
1/2+x,1/2-y,1/2+z
loop_
_atom_site_type_symbol
_atom_site_label
_atom_site_fract_x
_atom_site_fract_y
_atom_site_fract_z
Si Si1 0.046597 0.554198 0.168641
Si Si2 0.107408 0.993381 0.169800
Si Si3 0.206598 0.886896 0.170663
Si Si4 0.215873 0.189622 0.667258
Si Si5 0.742616 0.428029 0.170136
Si Si6 0.037729 0.253174 0.662695
Si Si7 0.140886 0.774250 0.171378
Si Si8 0.412467 0.872607 0.834775
O O1 0.154693 0.551798 0.210353
O O2 0.000000 0.500000 0.222241
O O3 0.996852 0.603163 0.245178
O O4 0.033267 0.562920 0.000000
O O5 0.143783 0.935982 0.222499
O O6 0.166267 0.037399 0.250458
O O7 0.121706 0.000542 0.000000
O O8 0.000000 0.000000 0.213132
O O9 0.162685 0.832790 0.233621
O O10 0.313048 0.893558 0.224514
O O11 0.208504 0.882819 0.000000
O O12 0.239558 0.187068 0.500000
O O13 0.232173 0.131429 0.732283
O O14 0.285043 0.232722 0.736705
O O15 0.110928 0.206995 0.695590
O O16 0.724096 0.431182 0.000000
O O17 0.999035 0.248091 0.500000
O O18 0.958252 0.245677 0.778069
O O19 0.087698 0.309428 0.683164
O O20 0.143172 0.775283 0.000000
O O21 0.426559 0.889275 0.000000
#
# Coordination Sequence:
#
# PCOD8236480 Si02
#       8
#     8   8   8   8   8   8   8   8
#     4  10  21  36  55  82 114 142 176 228 279 320
#     4  10  22  38  56  80 111 143 180 233 281 313
#     4   9  18  35  57  79 106 143 184 220 265 328
#     4   9  18  35  56  77 107 144 179 215 264 326
#     4  10  21  37  56  78 107 146 185 219 267 334
#     4  10  20  34  52  78 108 136 173 227 274 309
#     4  10  19  35  59  81 105 145 186 218 265 332
#     4  10  19  34  57  81 107 142 183 222 264 328
#
# _framework density 18.940968999999999
#
# number of rings (size 3 to 8) (size 9 to 14) (size 15 to 20)
#    0.000    2.250    1.250    1.500    1.750    2.500 
#    0.000    2.500    0.000    0.000    0.000    0.000 
#    0.000    0.000    0.000    0.000    0.000    0.000 
#
# Total GULP energy -793653.006442 kJ/mol
# GULP energy per Si atom -12400.828226 kJ/mol
# Density = 1.889786 g / cm^3
# Si number density = 18.940969 Si / 1000 Ang^3
#
#
#
# Elastic Constant Matrix: (Units=GPa)
#
#
# Indices 1 2 3 4 5 6 
#
# 1 133.5162 74.0214 34.0362 0.0000 0.0000 0.0000
# 2 74.0214 140.4661 33.8765 0.0000 0.0000 0.0000
# 3 34.0362 33.8765 26.3448 0.0000 0.0000 0.0000
# 4 0.0000 0.0000 0.0000 23.0326 0.0000 0.0000
# 5 0.0000 0.0000 0.0000 0.0000 26.9119 0.0000
# 6 0.0000 0.0000 0.0000 0.0000 0.0000 39.1985
#
#
#
# Elastic Compliance Matrix: (Units=1/GPa)
#
#
# Indices 1 2 3 4 5 6 
#
# 1 0.012485 -0.003898 -0.011118 0.000000 0.000000 0.000000
# 2 -0.003898 0.011536 -0.009799 0.000000 0.000000 0.000000
# 3 -0.011118 -0.009799 0.064922 0.000000 0.000000 0.000000
# 4 0.000000 0.000000 0.000000 0.043417 0.000000 0.000000
# 5 0.000000 0.000000 0.000000 0.000000 0.037158 0.000000
# 6 0.000000 0.000000 0.000000 0.000000 0.000000 0.025511
#
#
# Mechanical properties :
#
#
# Convention : Reuss Voigt Hill
#
# Bulk Modulus (GPa) = 25.43584 64.91058 45.17321
# Shear Modulus (GPa) = 19.39774 28.38812 23.89293
#
# Velocity S-wave (km/s) = 3.20365 3.87559 3.55553
# Velocity P-wave (km/s) = 5.20986 7.37369 6.38412
#
# Compressibility (1/GPa) = 0.03931460
#
# Stress axis : x y z
#
# Youngs Moduli (GPa) = 80.09729 86.68220 15.40321
#
# Poissons Ratio (x) = 0.33788 0.17125
# Poissons Ratio (y) = 0.31221 0.15093
# Poissons Ratio (z) = 0.89048 0.84937
#
# Static dielectric constant tensor:
#      x y z
#    x 3.482510 0.000000 0.000000 
#    y 0.000000 3.783590 0.000000 
#    z 0.000000 0.000000 3.093990 
# 
# 
# High freq. dielectric constant tensor:
#      x y z
#    x 1.746680 0.000000 0.000000 
#    y 0.000000 1.751150 0.000000 
#    z 0.000000 0.000000 1.697580 
# 
# From -- ./inp_files/6805.got.cif
#   From: 2010.06.25/outbox.cif.g09.slc.cpg/sg58_4_cif.got.tgz:6805.got - 2010.06.26 21:38:00.
