data_PCOD8236383
_publ_section_title
;
Structure prediction by ZEFSAII (Michael W. Deem and Ramdas Pophale) SiO2 
 PCOD8236383
Probable space group: P N N M
;
_chemical_formula_sum "Si O2"
_cell_formula_units_Z 56
_cell_length_a 12.862584
_cell_length_b 14.795758
_cell_length_c 13.247915
_cell_angle_alpha 90.000000
_cell_angle_beta 90.000000
_cell_angle_gamma 90.000000
_cell_volume 2521.232962
_symmetry_space_group_name_H-M "P N N M"
_symmetry_group_IT_number 58
_symmetry_cell_setting 'orthorhombic'
loop_
_space_group_symop_operation_xyz
x,y,z
-x,-y,z
1/2+x,1/2-y,1/2-z
1/2-x,1/2+y,1/2-z
-x,-y,-z
x,y,-z
1/2-x,1/2+y,1/2+z
1/2+x,1/2-y,1/2+z
loop_
_atom_site_type_symbol
_atom_site_label
_atom_site_fract_x
_atom_site_fract_y
_atom_site_fract_z
Si Si1 0.026845 0.096369 0.309140
Si Si2 0.629710 0.391342 0.608740
Si Si3 0.638277 0.929847 0.111961
Si Si4 0.245913 0.156595 0.616280
Si Si5 0.384890 0.989953 0.315760
Si Si6 0.915712 0.693711 0.115029
Si Si7 0.896787 0.262019 0.259704
O O1 0.056699 0.069487 0.194930
O O2 0.122517 0.145040 0.365503
O O3 0.926774 0.163083 0.303053
O O4 0.000000 0.000000 0.362645
O O5 0.573702 0.404505 0.500000
O O6 0.738138 0.441974 0.609356
O O7 0.651833 0.284383 0.627452
O O8 0.608383 0.828296 0.144638
O O9 0.601003 0.003052 0.194054
O O10 0.591957 0.949168 0.000000
O O11 0.263848 0.183880 0.500000
O O12 0.290521 0.234483 0.691855
O O13 0.303689 0.062870 0.642706
O O14 0.344632 0.890295 0.347009
O O15 0.500000 0.000000 0.365162
O O16 0.017535 0.698642 0.183716
O O17 0.951387 0.679067 0.000000
#
# Coordination Sequence:
#
# PCOD8236383 Si02
#       7
#     8   8   8   8   8   8   8
#     4  11  24  43  65  97 137 172 211 275 341 400
#     4   9  19  39  62  83 115 161 212 260 310 382
#     4  10  20  38  59  84 121 166 208 252 317 389
#     4  11  23  42  66  96 133 170 218 277 334 398
#     4  11  20  35  58  96 124 160 208 273 327 382
#     4  10  19  33  59  89 115 151 209 270 321 372
#     4  10  21  40  64  92 123 172 221 268 321 393
#
# _framework density 22.211352999999999
#
# number of rings (size 3 to 8) (size 9 to 14) (size 15 to 20)
#    0.000    1.714    5.714    0.857    0.000    3.714 
#    0.000    1.429    0.000    3.429    0.000    0.000 
#    0.000    0.000    0.000    0.000    0.000    0.000 
#
# Total GULP energy -693985.549361 kJ/mol
# GULP energy per Si atom -12392.599096 kJ/mol
# Density = 2.216080 g / cm^3
# Si number density = 22.211353 Si / 1000 Ang^3
#
#
#
# Elastic Constant Matrix: (Units=GPa)
#
#
# Indices 1 2 3 4 5 6 
#
# 1 66.2668 20.3621 5.1596 0.0000 0.0000 0.0000
# 2 20.3621 78.4480 -0.1148 0.0000 0.0000 0.0000
# 3 5.1596 -0.1148 99.8866 0.0000 0.0000 0.0000
# 4 0.0000 0.0000 0.0000 21.4316 0.0000 0.0000
# 5 0.0000 0.0000 0.0000 0.0000 21.0947 0.0000
# 6 0.0000 0.0000 0.0000 0.0000 0.0000 30.0073
#
#
#
# Elastic Compliance Matrix: (Units=1/GPa)
#
#
# Indices 1 2 3 4 5 6 
#
# 1 0.016471 -0.004277 -0.000856 0.000000 0.000000 0.000000
# 2 -0.004277 0.013858 0.000237 0.000000 0.000000 0.000000
# 3 -0.000856 0.000237 0.010056 0.000000 0.000000 0.000000
# 4 0.000000 0.000000 0.000000 0.046660 0.000000 0.000000
# 5 0.000000 0.000000 0.000000 0.000000 0.047405 0.000000
# 6 0.000000 0.000000 0.000000 0.000000 0.000000 0.033325
#
#
# Mechanical properties :
#
#
# Convention : Reuss Voigt Hill
#
# Bulk Modulus (GPa) = 32.68634 32.82391 32.75512
# Shear Modulus (GPa) = 26.62916 29.11969 27.87443
#
# Velocity S-wave (km/s) = 3.46627 3.62474 3.54639
# Velocity P-wave (km/s) = 5.54689 5.68581 5.61678
#
# Compressibility (1/GPa) = 0.03059382
#
# Stress axis : x y z
#
# Youngs Moduli (GPa) = 60.71196 72.16222 99.44481
#
# Poissons Ratio (x) = 0.30861 0.08510
# Poissons Ratio (y) = 0.25964 -0.02355
# Poissons Ratio (z) = 0.05195 -0.01709
#
# Static dielectric constant tensor:
#      x y z
#    x 3.825030 0.000000 0.000000 
#    y 0.000000 3.919280 0.000000 
#    z 0.000000 0.000000 4.258230 
# 
# 
# High freq. dielectric constant tensor:
#      x y z
#    x 1.858640 0.000000 0.000000 
#    y 0.000000 1.854620 0.000000 
#    z 0.000000 0.000000 1.878540 
# 
# From -- ./inp_files/22321.got.cif
#   From: 2010.06.25/outbox.cif.g09.slc.cpg/sg58_12_cif.got.tgz:22321.got - 2010.06.26 21:38:00.
