data_PCOD8236174
_publ_section_title
;
Structure prediction by ZEFSAII (Michael W. Deem and Ramdas Pophale) SiO2 
 PCOD8236174
Probable space group: P N N M
;
_chemical_formula_sum "Si O2"
_cell_formula_units_Z 56
_cell_length_a 14.631844
_cell_length_b 21.620334
_cell_length_c 9.108277
_cell_angle_alpha 90.000000
_cell_angle_beta 90.000000
_cell_angle_gamma 90.000000
_cell_volume 2881.361115
_symmetry_space_group_name_H-M "P N N M"
_symmetry_group_IT_number 58
_symmetry_cell_setting 'orthorhombic'
loop_
_space_group_symop_operation_xyz
x,y,z
-x,-y,z
1/2+x,1/2-y,1/2-z
1/2-x,1/2+y,1/2-z
-x,-y,-z
x,y,-z
1/2-x,1/2+y,1/2+z
1/2+x,1/2-y,1/2+z
loop_
_atom_site_type_symbol
_atom_site_label
_atom_site_fract_x
_atom_site_fract_y
_atom_site_fract_z
Si Si1 0.387202 0.057510 0.674518
Si Si2 0.798413 0.694060 0.824956
Si Si3 0.118583 0.839689 0.172983
Si Si4 0.914537 0.579386 0.825560
Si Si5 0.694646 0.411250 0.166428
Si Si6 0.583944 0.310480 0.328340
Si Si7 0.908433 0.033418 0.667047
O O1 0.382898 0.052210 0.500000
O O2 0.480049 0.092222 0.723877
O O3 0.298305 0.095637 0.728984
O O4 0.385096 0.987365 0.737224
O O5 0.698929 0.698852 0.751484
O O6 0.848205 0.632418 0.763971
O O7 0.860444 0.751228 0.770529
O O8 0.787335 0.693217 0.000000
O O9 0.117050 0.909838 0.229598
O O10 0.023223 0.805431 0.212245
O O11 0.136324 0.840394 0.000000
O O12 0.909697 0.580465 0.000000
O O13 0.623646 0.372827 0.260527
O O14 0.673105 0.484139 0.174582
O O15 0.687213 0.387072 0.000000
O O16 0.596483 0.317009 0.500000
O O17 0.922060 0.057684 0.500000
O O18 0.000000 0.000000 0.723700
#
# Coordination Sequence:
#
# PCOD8236174 Si02
#       7
#     8   8   8   8   8   8   8
#     4   8  14  25  48  81 106 127 164 219 273 316
#     4  10  21  38  58  76 103 146 188 225 270 330
#     4  11  23  38  57  83 114 146 184 231 284 336
#     4   8  14  28  50  76 104 131 168 219 270 318
#     4  10  19  32  54  83 111 142 184 230 272 324
#     4  10  23  39  53  75 109 146 182 222 275 330
#     4  10  19  33  56  85 114 146 185 228 279 334
#
# _framework density 19.435258999999999
#
# number of rings (size 3 to 8) (size 9 to 14) (size 15 to 20)
#    0.000    2.429    1.429    2.143    0.000    5.429 
#    0.000    2.857    0.000    0.857    0.000    3.000 
#    0.000    0.000    0.000    0.000    0.000    0.000 
#
# Total GULP energy -694210.623239 kJ/mol
# GULP energy per Si atom -12396.618272 kJ/mol
# Density = 1.939102 g / cm^3
# Si number density = 19.435259 Si / 1000 Ang^3
#
#
#
# Elastic Constant Matrix: (Units=GPa)
#
#
# Indices 1 2 3 4 5 6 
#
# 1 160.5569 50.2269 42.0893 0.0000 0.0000 0.0000
# 2 50.2269 80.3804 30.6923 0.0000 0.0000 0.0000
# 3 42.0893 30.6923 30.5219 0.0000 0.0000 0.0000
# 4 0.0000 0.0000 0.0000 18.8177 0.0000 0.0000
# 5 0.0000 0.0000 0.0000 0.0000 19.1293 0.0000
# 6 0.0000 0.0000 0.0000 0.0000 0.0000 31.8305
#
#
#
# Elastic Compliance Matrix: (Units=1/GPa)
#
#
# Indices 1 2 3 4 5 6 
#
# 1 0.009876 -0.001576 -0.012034 0.000000 0.000000 0.000000
# 2 -0.001576 0.020447 -0.018387 0.000000 0.000000 0.000000
# 3 -0.012034 -0.018387 0.067848 0.000000 0.000000 0.000000
# 4 0.000000 0.000000 0.000000 0.053142 0.000000 0.000000
# 5 0.000000 0.000000 0.000000 0.000000 0.052276 0.000000
# 6 0.000000 0.000000 0.000000 0.000000 0.000000 0.031416
#
#
# Mechanical properties :
#
#
# Convention : Reuss Voigt Hill
#
# Bulk Modulus (GPa) = 29.26048 57.49733 43.37891
# Shear Modulus (GPa) = 16.10869 23.85221 19.98045
#
# Velocity S-wave (km/s) = 2.88208 3.50703 3.20980
# Velocity P-wave (km/s) = 5.11500 6.78582 6.00877
#
# Compressibility (1/GPa) = 0.03417579
#
# Stress axis : x y z
#
# Youngs Moduli (GPa) = 101.25522 48.90755 14.73884
#
# Poissons Ratio (x) = 0.07709 0.17737
# Poissons Ratio (y) = 0.15960 0.27101
# Poissons Ratio (z) = 1.21850 0.89928
#
# Static dielectric constant tensor:
#      x y z
#    x 3.991910 0.000000 0.000000 
#    y 0.000000 3.499220 0.000000 
#    z 0.000000 0.000000 3.122010 
# 
# 
# High freq. dielectric constant tensor:
#      x y z
#    x 1.781270 0.000000 0.000000 
#    y 0.000000 1.743170 0.000000 
#    z 0.000000 0.000000 1.709990 
# 
# From -- ./inp_files/6421.got.cif
#   From: 2010.06.25/outbox.cif.g09.slc.cpg/sg58_4_cif.got.tgz:6421.got - 2010.06.26 21:38:00.
