data_PCOD8236052
_publ_section_title
;
Structure prediction by ZEFSAII (Michael W. Deem and Ramdas Pophale) SiO2 
 PCOD8236052
Probable space group: P N N M
;
_chemical_formula_sum "Si O2"
_cell_formula_units_Z 48
_cell_length_a 19.143606
_cell_length_b 15.057788
_cell_length_c 9.332979
_cell_angle_alpha 90.000000
_cell_angle_beta 90.000000
_cell_angle_gamma 90.000000
_cell_volume 2690.327893
_symmetry_space_group_name_H-M "P N N M"
_symmetry_group_IT_number 58
_symmetry_cell_setting 'orthorhombic'
loop_
_space_group_symop_operation_xyz
x,y,z
-x,-y,z
1/2+x,1/2-y,1/2-z
1/2-x,1/2+y,1/2-z
-x,-y,-z
x,y,-z
1/2-x,1/2+y,1/2+z
1/2+x,1/2-y,1/2+z
loop_
_atom_site_type_symbol
_atom_site_label
_atom_site_fract_x
_atom_site_fract_y
_atom_site_fract_z
Si Si1 0.578198 0.729906 0.831602
Si Si2 0.171779 0.125364 0.670133
Si Si3 0.075202 0.465317 0.832891
Si Si4 0.922689 0.712381 0.668759
Si Si5 0.329835 0.131411 0.667882
Si Si6 0.074761 0.970566 0.329619
O O1 0.500172 0.757495 0.787794
O O2 0.633322 0.789082 0.749155
O O3 0.592047 0.629226 0.781066
O O4 0.589919 0.741715 0.000000
O O5 0.170011 0.122099 0.500000
O O6 0.131226 0.212905 0.723502
O O7 0.250910 0.126015 0.726347
O O8 0.133723 0.037256 0.730992
O O9 0.097318 0.378196 0.747276
O O10 0.132856 0.538819 0.797155
O O11 0.000000 0.500000 0.779426
O O12 0.072303 0.441604 0.000000
O O13 0.916327 0.697070 0.500000
O O14 0.332864 0.152509 0.500000
O O15 0.071259 0.975718 0.500000
O O16 0.000000 0.000000 0.266253
#
# Coordination Sequence:
#
# PCOD8236052 Si02
#       6
#     8   8   8   8   8   8
#     4  10  19  31  54  83 103 127 169 217 258 295
#     4   9  18  33  52  76 105 135 168 209 260 308
#     4  10  20  34  52  75 103 139 177 206 245 306
#     4  10  19  32  54  81 103 129 170 217 260 300
#     4  10  21  36  52  72 105 143 171 204 254 309
#     4   9  15  28  52  79 102 125 163 214 256 297
#
# _framework density 17.841691000000001
#
# number of rings (size 3 to 8) (size 9 to 14) (size 15 to 20)
#    0.000    2.333    3.333    0.000    0.000    2.333 
#    0.000    2.500    0.000    2.500    0.000    0.000 
#    0.000    0.000    0.000    0.000    0.000    0.000 
#
# Total GULP energy -595248.058075 kJ/mol
# GULP energy per Si atom -12401.001210 kJ/mol
# Density = 1.780108 g / cm^3
# Si number density = 17.841691 Si / 1000 Ang^3
#
#
#
# Elastic Constant Matrix: (Units=GPa)
#
#
# Indices 1 2 3 4 5 6 
#
# 1 169.3146 96.2964 33.2438 0.0000 0.0000 0.0000
# 2 96.2964 177.5183 45.0911 0.0000 0.0000 0.0000
# 3 33.2438 45.0911 23.2262 0.0000 0.0000 0.0000
# 4 0.0000 0.0000 0.0000 8.1407 0.0000 0.0000
# 5 0.0000 0.0000 0.0000 0.0000 16.1163 0.0000
# 6 0.0000 0.0000 0.0000 0.0000 0.0000 33.4936
#
#
#
# Elastic Compliance Matrix: (Units=1/GPa)
#
#
# Indices 1 2 3 4 5 6 
#
# 1 0.009048 -0.003193 -0.006751 0.000000 0.000000 0.000000
# 2 -0.003193 0.012241 -0.019193 0.000000 0.000000 0.000000
# 3 -0.006751 -0.019193 0.089979 0.000000 0.000000 0.000000
# 4 0.000000 0.000000 0.000000 0.122839 0.000000 0.000000
# 5 0.000000 0.000000 0.000000 0.000000 0.062049 0.000000
# 6 0.000000 0.000000 0.000000 0.000000 0.000000 0.029856
#
#
# Mechanical properties :
#
#
# Convention : Reuss Voigt Hill
#
# Bulk Modulus (GPa) = 18.87055 79.92465 49.39760
# Shear Modulus (GPa) = 12.43933 24.57865 18.50899
#
# Velocity S-wave (km/s) = 2.64333 3.71563 3.22437
# Velocity P-wave (km/s) = 4.46272 7.95623 6.45049
#
# Compressibility (1/GPa) = 0.05299262
#
# Stress axis : x y z
#
# Youngs Moduli (GPa) = 110.52409 81.69415 11.11371
#
# Poissons Ratio (x) = 0.26088 0.07502
# Poissons Ratio (y) = 0.35294 0.21331
# Poissons Ratio (z) = 0.74611 1.56799
#
# Static dielectric constant tensor:
#      x y z
#    x 3.493600 0.000000 0.000000 
#    y 0.000000 3.445410 0.000000 
#    z 0.000000 0.000000 2.887770 
# 
# 
# High freq. dielectric constant tensor:
#      x y z
#    x 1.695580 0.000000 0.000000 
#    y 0.000000 1.706250 0.000000 
#    z 0.000000 0.000000 1.646550 
# 
# From -- ./inp_files/5902.got.cif
#   From: 2010.06.25/outbox.cif.g09.slc.cpg/sg58_3_cif.got.tgz:5902.got - 2010.06.26 21:38:00.
