data_PCOD8236000
_publ_section_title
;
Structure prediction by ZEFSAII (Michael W. Deem and Ramdas Pophale) SiO2 
 PCOD8236000
Probable space group: P N N M
;
_chemical_formula_sum "Si O2"
_cell_formula_units_Z 64
_cell_length_a 29.183033
_cell_length_b 12.092778
_cell_length_c 8.857507
_cell_angle_alpha 90.000000
_cell_angle_beta 90.000000
_cell_angle_gamma 90.000000
_cell_volume 3125.849114
_symmetry_space_group_name_H-M "P N N M"
_symmetry_group_IT_number 58
_symmetry_cell_setting 'orthorhombic'
loop_
_space_group_symop_operation_xyz
x,y,z
-x,-y,z
1/2+x,1/2-y,1/2-z
1/2-x,1/2+y,1/2-z
-x,-y,-z
x,y,-z
1/2-x,1/2+y,1/2+z
1/2+x,1/2-y,1/2+z
loop_
_atom_site_type_symbol
_atom_site_label
_atom_site_fract_x
_atom_site_fract_y
_atom_site_fract_z
Si Si1 0.936255 0.543913 0.171342
Si Si2 0.615970 0.360200 0.322446
Si Si3 0.723682 0.966603 0.177918
Si Si4 0.160970 0.369622 0.830122
Si Si5 0.966571 0.760604 0.672957
Si Si6 0.938645 0.319229 0.675516
Si Si7 0.683381 0.520833 0.821374
Si Si8 0.837779 0.264449 0.678825
O O1 0.881167 0.545318 0.177270
O O2 0.955426 0.635102 0.284088
O O3 0.953632 0.425343 0.226745
O O4 0.953153 0.566668 0.000000
O O5 0.617828 0.380043 0.500000
O O6 0.644601 0.250976 0.275135
O O7 0.562748 0.345639 0.274278
O O8 0.636803 0.464163 0.235750
O O9 0.773709 0.957323 0.249924
O O10 0.693613 0.864199 0.241863
O O11 0.700744 0.083439 0.223101
O O12 0.728933 0.960492 0.000000
O O13 0.180725 0.361878 0.000000
O O14 0.952876 0.781311 0.500000
O O15 0.021648 0.774109 0.697070
O O16 0.934972 0.354192 0.500000
O O17 0.890207 0.273537 0.736599
O O18 0.682823 0.647966 0.765515
O O19 0.685881 0.512275 0.000000
O O20 0.837809 0.269393 0.500000
#
# Coordination Sequence:
#
# PCOD8236000 Si02
#       8
#     8   8   8   8   8   8   8   8
#     4  10  19  31  50  81 122 159 191 238 298 353
#     4  10  22  41  61  84 120 157 197 246 297 351
#     4  11  22  38  62  89 117 152 192 239 299 355
#     4   9  19  35  55  82 115 152 189 234 287 344
#     4  10  20  33  56  86 116 154 202 248 295 357
#     4  10  19  35  57  83 115 156 204 249 296 355
#     4  11  24  42  63  86 116 155 200 245 295 354
#     4   9  21  41  62  85 118 157 195 245 297 346
#
# _framework density 20.474435
#
# number of rings (size 3 to 8) (size 9 to 14) (size 15 to 20)
#    0.000    2.000    1.250    3.000    1.750    5.000 
#    0.000    3.750    0.000    3.750    0.000    0.000 
#    0.000    0.000    0.000    0.000    0.000    0.000 
#
# Total GULP energy -793605.664015 kJ/mol
# GULP energy per Si atom -12400.088500 kJ/mol
# Density = 2.042783 g / cm^3
# Si number density = 20.474435 Si / 1000 Ang^3
#
#
#
# Elastic Constant Matrix: (Units=GPa)
#
#
# Indices 1 2 3 4 5 6 
#
# 1 106.8606 30.0313 25.1415 0.0000 0.0000 0.0000
# 2 30.0313 70.6462 22.2399 0.0000 0.0000 0.0000
# 3 25.1415 22.2399 67.4549 0.0000 0.0000 0.0000
# 4 0.0000 0.0000 0.0000 23.0561 0.0000 0.0000
# 5 0.0000 0.0000 0.0000 0.0000 31.5446 0.0000
# 6 0.0000 0.0000 0.0000 0.0000 0.0000 20.5935
#
#
#
# Elastic Compliance Matrix: (Units=1/GPa)
#
#
# Indices 1 2 3 4 5 6 
#
# 1 0.011108 -0.003815 -0.002883 0.000000 0.000000 0.000000
# 2 -0.003815 0.017104 -0.004218 0.000000 0.000000 0.000000
# 3 -0.002883 -0.004218 0.017290 0.000000 0.000000 0.000000
# 4 0.000000 0.000000 0.000000 0.043372 0.000000 0.000000
# 5 0.000000 0.000000 0.000000 0.000000 0.031701 0.000000
# 6 0.000000 0.000000 0.000000 0.000000 0.000000 0.048559
#
#
# Mechanical properties :
#
#
# Convention : Reuss Voigt Hill
#
# Bulk Modulus (GPa) = 42.24256 44.42078 43.33167
# Shear Modulus (GPa) = 25.14395 26.20878 25.67637
#
# Velocity S-wave (km/s) = 3.50818 3.58169 3.54513
# Velocity P-wave (km/s) = 6.08986 6.23278 6.16173
#
# Compressibility (1/GPa) = 0.02367281
#
# Stress axis : x y z
#
# Youngs Moduli (GPa) = 90.02360 58.46476 57.83822
#
# Poissons Ratio (x) = 0.22302 0.16672
# Poissons Ratio (y) = 0.34340 0.24393
# Poissons Ratio (z) = 0.25950 0.24658
#
# Static dielectric constant tensor:
#      x y z
#    x 3.897300 0.000000 0.000000 
#    y 0.000000 3.544790 0.000000 
#    z 0.000000 0.000000 3.531330 
# 
# 
# High freq. dielectric constant tensor:
#      x y z
#    x 1.810950 0.000000 0.000000 
#    y 0.000000 1.776030 0.000000 
#    z 0.000000 0.000000 1.789850 
# 
# From -- ./inp_files/4728.got.cif
#   From: 2010.06.25/outbox.cif.g09.slc.cpg/sg58_3_cif.got.tgz:4728.got - 2010.06.26 21:38:00.
