data_PCOD8236696
_publ_section_title
;
Structure prediction by ZEFSAII (Michael W. Deem and Ramdas Pophale) SiO2 
 PCOD8236696
Probable space group: P N N M
;
_chemical_formula_sum "Si O2"
_cell_formula_units_Z 64
_cell_length_a 11.942303
_cell_length_b 17.076208
_cell_length_c 13.730583
_cell_angle_alpha 90.000000
_cell_angle_beta 90.000000
_cell_angle_gamma 90.000000
_cell_volume 2800.067494
_symmetry_space_group_name_H-M "P N N M"
_symmetry_group_IT_number 58
_symmetry_cell_setting 'orthorhombic'
loop_
_space_group_symop_operation_xyz
x,y,z
-x,-y,z
1/2+x,1/2-y,1/2-z
1/2-x,1/2+y,1/2-z
-x,-y,-z
x,y,-z
1/2-x,1/2+y,1/2+z
1/2+x,1/2-y,1/2+z
loop_
_atom_site_type_symbol
_atom_site_label
_atom_site_fract_x
_atom_site_fract_y
_atom_site_fract_z
Si Si1 0.766663 0.573131 0.393558
Si Si2 0.430677 0.183838 0.712402
Si Si3 0.409476 0.629219 0.199997
Si Si4 0.607880 0.706631 0.886973
Si Si5 0.010478 0.910491 0.107012
Si Si6 0.845957 0.634012 0.113346
Si Si7 0.262978 0.758323 0.112396
Si Si8 0.208443 0.525476 0.792568
O O1 0.800299 0.539912 0.500000
O O2 0.640962 0.606722 0.395261
O O3 0.822559 0.656926 0.369730
O O4 0.795089 0.506589 0.317551
O O5 0.426268 0.217733 0.822641
O O6 0.557313 0.174243 0.676174
O O7 0.367521 0.246880 0.643164
O O8 0.374310 0.098538 0.704552
O O9 0.520530 0.634777 0.132981
O O10 0.444505 0.639651 0.313110
O O11 0.331381 0.702444 0.182167
O O12 0.336568 0.550461 0.180923
O O13 0.730430 0.676352 0.856911
O O14 0.602153 0.730831 0.000000
O O15 0.956175 0.895552 0.000000
O O16 0.000000 0.000000 0.139046
O O17 0.833565 0.541143 0.134148
O O18 0.873487 0.644137 0.000000
O O19 0.275497 0.733495 0.000000
#
# Coordination Sequence:
#
# PCOD8236696 Si02
#       8
#     8   8   8   8   8   8   8   8
#     4  10  21  40  65  96 137 180 230 284 341 417
#     4  11  25  44  74 100 141 187 231 293 352 423
#     4  11  23  40  69 100 141 183 230 289 352 420
#     4  11  27  48  72 104 143 189 241 297 358 422
#     4  10  19  35  63 100 137 174 224 285 342 402
#     4  11  26  48  72 103 143 185 240 298 352 419
#     4  10  22  41  67 101 133 183 240 284 340 420
#     4  11  24  40  69 108 137 187 229 290 357 424
#
# _framework density 22.856591999999999
#
# number of rings (size 3 to 8) (size 9 to 14) (size 15 to 20)
#    0.000    1.375    1.250    3.375    5.250    4.000 
#    0.000    3.750    0.000    1.500    0.000    0.000 
#    0.000    0.000    0.000    0.000    0.000    0.000 
#
# Total GULP energy -793380.043171 kJ/mol
# GULP energy per Si atom -12396.563175 kJ/mol
# Density = 2.280457 g / cm^3
# Si number density = 22.856592 Si / 1000 Ang^3
#
#
#
# Elastic Constant Matrix: (Units=GPa)
#
#
# Indices 1 2 3 4 5 6 
#
# 1 113.4889 21.1312 47.5252 0.0000 0.0000 0.0000
# 2 21.1312 69.0464 34.4895 0.0000 0.0000 0.0000
# 3 47.5252 34.4895 106.7463 0.0000 0.0000 0.0000
# 4 0.0000 0.0000 0.0000 41.0004 0.0000 0.0000
# 5 0.0000 0.0000 0.0000 0.0000 31.6497 0.0000
# 6 0.0000 0.0000 0.0000 0.0000 0.0000 28.6238
#
#
#
# Elastic Compliance Matrix: (Units=1/GPa)
#
#
# Indices 1 2 3 4 5 6 
#
# 1 0.010899 -0.001087 -0.004501 0.000000 0.000000 0.000000
# 2 -0.001087 0.017379 -0.005131 0.000000 0.000000 0.000000
# 3 -0.004501 -0.005131 0.013030 0.000000 0.000000 0.000000
# 4 0.000000 0.000000 0.000000 0.024390 0.000000 0.000000
# 5 0.000000 0.000000 0.000000 0.000000 0.031596 0.000000
# 6 0.000000 0.000000 0.000000 0.000000 0.000000 0.034936
#
#
# Mechanical properties :
#
#
# Convention : Reuss Voigt Hill
#
# Bulk Modulus (GPa) = 50.33014 55.06371 52.69693
# Shear Modulus (GPa) = 31.19339 32.66384 31.92862
#
# Velocity S-wave (km/s) = 3.69825 3.78442 3.74158
# Velocity P-wave (km/s) = 6.34853 6.57564 6.46308
#
# Compressibility (1/GPa) = 0.01986881
#
# Stress axis : x y z
#
# Youngs Moduli (GPa) = 91.75368 57.54164 76.74734
#
# Poissons Ratio (x) = 0.06256 0.34544
# Poissons Ratio (y) = 0.09975 0.39379
# Poissons Ratio (z) = 0.41299 0.29525
#
# Static dielectric constant tensor:
#      x y z
#    x 4.417310 0.000000 0.000000 
#    y 0.000000 4.250250 0.000000 
#    z 0.000000 0.000000 4.148670 
# 
# 
# High freq. dielectric constant tensor:
#      x y z
#    x 1.902140 0.000000 0.000000 
#    y 0.000000 1.904690 0.000000 
#    z 0.000000 0.000000 1.908090 
# 
# From -- ./inp_files/21508.got.cif
#   From: 2010.06.25/outbox.cif.g09.slc.cpg/sg58_11_cif.got.tgz:21508.got - 2010.06.26 21:38:00.
