data_PCOD8236077
_publ_section_title
;
Structure prediction by ZEFSAII (Michael W. Deem and Ramdas Pophale) SiO2 
 PCOD8236077
Probable space group: P N N M
;
_chemical_formula_sum "Si O2"
_cell_formula_units_Z 64
_cell_length_a 18.488375
_cell_length_b 22.892518
_cell_length_c 9.155145
_cell_angle_alpha 90.000000
_cell_angle_beta 90.000000
_cell_angle_gamma 90.000000
_cell_volume 3874.873534
_symmetry_space_group_name_H-M "P N N M"
_symmetry_group_IT_number 58
_symmetry_cell_setting 'orthorhombic'
loop_
_space_group_symop_operation_xyz
x,y,z
-x,-y,z
1/2+x,1/2-y,1/2-z
1/2-x,1/2+y,1/2-z
-x,-y,-z
x,y,-z
1/2-x,1/2+y,1/2+z
1/2+x,1/2-y,1/2+z
loop_
_atom_site_type_symbol
_atom_site_label
_atom_site_fract_x
_atom_site_fract_y
_atom_site_fract_z
Si Si1 0.923351 0.523459 0.169127
Si Si2 0.710213 0.340912 0.168367
Si Si3 0.796050 0.050706 0.172510
Si Si4 0.151808 0.257758 0.165724
Si Si5 0.784933 0.453722 0.165796
Si Si6 0.923479 0.854774 0.166022
Si Si7 0.841290 0.622545 0.327165
Si Si8 0.957768 0.056998 0.827651
O O1 0.867697 0.470482 0.194941
O O2 0.901284 0.578509 0.266217
O O3 0.000000 0.500000 0.224241
O O4 0.926062 0.543022 0.000000
O O5 0.717245 0.281301 0.263683
O O6 0.777981 0.384065 0.194074
O O7 0.639253 0.377110 0.224175
O O8 0.701361 0.323138 0.000000
O O9 0.739381 0.101492 0.220355
O O10 0.876421 0.062972 0.236766
O O11 0.768898 0.988781 0.230409
O O12 0.798002 0.046418 0.000000
O O13 0.078667 0.216907 0.172046
O O14 0.140544 0.315100 0.259559
O O15 0.172007 0.274422 0.000000
O O16 0.762271 0.468591 0.000000
O O17 0.999331 0.883493 0.215433
O O18 0.905792 0.875357 0.000000
O O19 0.849020 0.626260 0.500000
O O20 0.951390 0.050327 0.000000
O O21 0.000000 0.000000 0.764758
#
# Coordination Sequence:
#
# PCOD8236077 Si02
#       8
#     8   8   8   8   8   8   8   8
#     4   9  18  33  53  74  97 125 160 198 240 292
#     4   9  16  27  45  68  95 122 153 193 236 280
#     4   9  18  29  46  71  95 124 159 193 232 278
#     4   9  18  31  50  70  89 122 166 200 232 278
#     4   9  17  29  46  70  98 124 152 193 241 284
#     4   8  16  28  44  67  91 123 164 197 228 273
#     4  10  19  32  51  74  98 124 157 199 246 288
#     4   9  15  25  44  69  98 127 158 195 230 270
#
# _framework density 16.516667000000002
#
# number of rings (size 3 to 8) (size 9 to 14) (size 15 to 20)
#    0.750    2.250    0.000    1.500    0.000    2.750 
#    0.000    0.625    2.750    2.250    0.000    0.000 
#    0.000    0.000    0.000    0.000    0.000    0.000 
#
# Total GULP energy -792849.200059 kJ/mol
# GULP energy per Si atom -12388.268751 kJ/mol
# Density = 1.647907 g / cm^3
# Si number density = 16.516667 Si / 1000 Ang^3
#
#
#
# Elastic Constant Matrix: (Units=GPa)
#
#
# Indices 1 2 3 4 5 6 
#
# 1 99.4812 56.1120 29.3630 0.0000 0.0000 0.0000
# 2 56.1120 114.5739 42.5726 0.0000 0.0000 0.0000
# 3 29.3630 42.5726 54.6947 0.0000 0.0000 0.0000
# 4 0.0000 0.0000 0.0000 26.5600 0.0000 0.0000
# 5 0.0000 0.0000 0.0000 0.0000 14.9522 0.0000
# 6 0.0000 0.0000 0.0000 0.0000 0.0000 18.5348
#
#
#
# Elastic Compliance Matrix: (Units=1/GPa)
#
#
# Indices 1 2 3 4 5 6 
#
# 1 0.014258 -0.005823 -0.003122 0.000000 0.000000 0.000000
# 2 -0.005823 0.014657 -0.008283 0.000000 0.000000 0.000000
# 3 -0.003122 -0.008283 0.026407 0.000000 0.000000 0.000000
# 4 0.000000 0.000000 0.000000 0.037651 0.000000 0.000000
# 5 0.000000 0.000000 0.000000 0.000000 0.066880 0.000000
# 6 0.000000 0.000000 0.000000 0.000000 0.000000 0.053953
#
#
# Mechanical properties :
#
#
# Convention : Reuss Voigt Hill
#
# Bulk Modulus (GPa) = 47.92408 58.31611 53.12009
# Shear Modulus (GPa) = 19.59125 21.38953 20.49039
#
# Velocity S-wave (km/s) = 3.44779 3.60255 3.52602
# Velocity P-wave (km/s) = 6.70285 7.25869 6.98630
#
# Compressibility (1/GPa) = 0.02086634
#
# Stress axis : x y z
#
# Youngs Moduli (GPa) = 70.13631 68.22553 37.86923
#
# Poissons Ratio (x) = 0.39725 0.11824
# Poissons Ratio (y) = 0.40838 0.31367
# Poissons Ratio (z) = 0.21899 0.56510
#
# Static dielectric constant tensor:
#      x y z
#    x 3.115370 0.000000 0.000000 
#    y 0.000000 3.006390 0.000000 
#    z 0.000000 0.000000 3.041070 
# 
# 
# High freq. dielectric constant tensor:
#      x y z
#    x 1.611900 0.000000 0.000000 
#    y 0.000000 1.627820 0.000000 
#    z 0.000000 0.000000 1.630510 
# 
# From -- ./inp_files/8503.got.cif
#   From: 2010.06.25/outbox.cif.g09.slc.cpg/sg58_5_cif.got.tgz:8503.got - 2010.06.26 21:38:00.
