data_PCOD8236578
_publ_section_title
;
Structure prediction by ZEFSAII (Michael W. Deem and Ramdas Pophale) SiO2 
 PCOD8236578
Probable space group: P N N M
;
_chemical_formula_sum "Si O2"
_cell_formula_units_Z 48
_cell_length_a 25.797554
_cell_length_b 4.993131
_cell_length_c 19.042771
_cell_angle_alpha 90.000000
_cell_angle_beta 90.000000
_cell_angle_gamma 90.000000
_cell_volume 2452.910122
_symmetry_space_group_name_H-M "P N N M"
_symmetry_group_IT_number 58
_symmetry_cell_setting 'orthorhombic'
loop_
_space_group_symop_operation_xyz
x,y,z
-x,-y,z
1/2+x,1/2-y,1/2-z
1/2-x,1/2+y,1/2-z
-x,-y,-z
x,y,-z
1/2-x,1/2+y,1/2+z
1/2+x,1/2-y,1/2+z
loop_
_atom_site_type_symbol
_atom_site_label
_atom_site_fract_x
_atom_site_fract_y
_atom_site_fract_z
Si Si1 0.731378 0.446548 0.578146
Si Si2 0.964384 0.748574 0.424259
Si Si3 0.388035 0.078764 0.280612
Si Si4 0.722397 0.915877 0.779042
Si Si5 0.661690 0.947366 0.578009
Si Si6 0.559310 0.407894 0.220648
O O1 0.754950 0.401088 0.500000
O O2 0.776096 0.403013 0.635960
O O3 0.709638 0.745453 0.585865
O O4 0.683807 0.243723 0.591474
O O5 0.936122 0.687967 0.500000
O O6 0.926088 0.816855 0.359484
O O7 0.000000 0.500000 0.400957
O O8 0.000000 0.000000 0.437076
O O9 0.333718 0.987037 0.246507
O O10 0.382285 0.117520 0.364507
O O11 0.403817 0.353581 0.243887
O O12 0.430875 0.849045 0.269534
O O13 0.734391 0.624146 0.747750
O O14 0.636868 0.923862 0.500000
O O15 0.500000 0.500000 0.226667
#
# Coordination Sequence:
#
# PCOD8236578 Si02
#       6
#     8   8   8   8   8   8
#     4  10  19  35  55  82 119 155 183 227 284 339
#     4   9  17  33  57  80 105 143 191 237 283 337
#     4  12  22  36  61  86 114 154 195 237 296 344
#     4  12  21  36  57  86 120 148 185 240 283 352
#     4  10  20  35  58  85 112 147 195 233 274 352
#     4  11  23  39  57  84 116 152 199 248 290 337
#
# _framework density 19.568591999999999
#
# number of rings (size 3 to 8) (size 9 to 14) (size 15 to 20)
#    0.000    1.333    3.333    4.500    0.000    0.000 
#    0.000    1.667    0.000    3.000    0.000    0.000 
#    0.000    0.000    0.000    0.000    0.000    0.000 
#
# Total GULP energy -595079.328413 kJ/mol
# GULP energy per Si atom -12397.486009 kJ/mol
# Density = 1.952405 g / cm^3
# Si number density = 19.568592 Si / 1000 Ang^3
#
#
#
# Elastic Constant Matrix: (Units=GPa)
#
#
# Indices 1 2 3 4 5 6 
#
# 1 45.3150 10.5379 51.1007 0.0000 0.0000 0.0000
# 2 10.5379 100.0662 36.3391 0.0000 0.0000 0.0000
# 3 51.1007 36.3391 192.0218 0.0000 0.0000 0.0000
# 4 0.0000 0.0000 0.0000 28.8990 0.0000 0.0000
# 5 0.0000 0.0000 0.0000 0.0000 32.4543 0.0000
# 6 0.0000 0.0000 0.0000 0.0000 0.0000 28.1563
#
#
#
# Elastic Compliance Matrix: (Units=1/GPa)
#
#
# Indices 1 2 3 4 5 6 
#
# 1 0.031538 -0.000294 -0.008337 0.000000 0.000000 0.000000
# 2 -0.000294 0.010734 -0.001953 0.000000 0.000000 0.000000
# 3 -0.008337 -0.001953 0.007796 0.000000 0.000000 0.000000
# 4 0.000000 0.000000 0.000000 0.034603 0.000000 0.000000
# 5 0.000000 0.000000 0.000000 0.000000 0.030813 0.000000
# 6 0.000000 0.000000 0.000000 0.000000 0.000000 0.035516
#
#
# Mechanical properties :
#
#
# Convention : Reuss Voigt Hill
#
# Bulk Modulus (GPa) = 34.60265 59.26206 46.93235
# Shear Modulus (GPa) = 27.50271 33.86362 30.68317
#
# Velocity S-wave (km/s) = 3.75300 4.16445 3.96407
# Velocity P-wave (km/s) = 6.04162 7.31256 6.70726
#
# Compressibility (1/GPa) = 0.02889952
#
# Stress axis : x y z
#
# Youngs Moduli (GPa) = 31.70803 93.16544 128.26969
#
# Poissons Ratio (x) = 0.02735 1.06942
# Poissons Ratio (y) = 0.00931 0.25053
# Poissons Ratio (z) = 0.26436 0.18197
#
# Static dielectric constant tensor:
#      x y z
#    x 3.046670 0.000000 0.000000 
#    y 0.000000 3.736110 0.000000 
#    z 0.000000 0.000000 4.193890 
# 
# 
# High freq. dielectric constant tensor:
#      x y z
#    x 1.697740 0.000000 0.000000 
#    y 0.000000 1.787930 0.000000 
#    z 0.000000 0.000000 1.784920 
# 
# From -- ./inp_files/27629.got.cif
#   From: 2010.06.25/outbox.cif.g09.slc.cpg/sg58_14_cif.got.tgz:27629.got - 2010.06.26 21:38:00.
