data_PCOD8236871
_publ_section_title
;
Structure prediction by ZEFSAII (Michael W. Deem and Ramdas Pophale) SiO2 
 PCOD8236871
Probable space group: P N N M
;
_chemical_formula_sum "Si O2"
_cell_formula_units_Z 48
_cell_length_a 24.101136
_cell_length_b 12.150630
_cell_length_c 8.875124
_cell_angle_alpha 90.000000
_cell_angle_beta 90.000000
_cell_angle_gamma 90.000000
_cell_volume 2599.026689
_symmetry_space_group_name_H-M "P N N M"
_symmetry_group_IT_number 58
_symmetry_cell_setting 'orthorhombic'
loop_
_space_group_symop_operation_xyz
x,y,z
-x,-y,z
1/2+x,1/2-y,1/2-z
1/2-x,1/2+y,1/2-z
-x,-y,-z
x,y,-z
1/2-x,1/2+y,1/2+z
1/2+x,1/2-y,1/2+z
loop_
_atom_site_type_symbol
_atom_site_label
_atom_site_fract_x
_atom_site_fract_y
_atom_site_fract_z
Si Si1 0.357213 0.362333 0.821542
Si Si2 0.114738 0.519893 0.678520
Si Si3 0.667574 0.396495 0.820961
Si Si4 0.217553 0.660842 0.677179
Si Si5 0.081128 0.282879 0.679861
Si Si6 0.043029 0.719964 0.320346
O O1 0.344500 0.482363 0.752634
O O2 0.308805 0.277763 0.774537
O O3 0.416911 0.318382 0.762233
O O4 0.359786 0.369862 0.000000
O O5 0.110849 0.516817 0.500000
O O6 0.175561 0.563202 0.725831
O O7 0.104215 0.398532 0.745329
O O8 0.067431 0.603517 0.738638
O O9 0.726326 0.352455 0.767655
O O10 0.619966 0.314896 0.759751
O O11 0.667535 0.399340 0.000000
O O12 0.229701 0.656874 0.500000
O O13 0.080935 0.285845 0.500000
O O14 0.018974 0.262786 0.742556
O O15 0.042643 0.719052 0.500000
#
# Coordination Sequence:
#
# PCOD8236871 Si02
#       6
#     8   8   8   8   8   8
#     4   8  16  30  44  62  90 122 150 179 224 276
#     4   8  14  25  42  64  87 114 150 189 222 258
#     4  10  20  30  43  68  97 118 145 190 229 259
#     4   9  18  32  48  62  86 125 159 181 214 270
#     4   9  16  24  39  67  94 113 142 188 231 260
#     4   8  13  24  42  62  89 121 145 175 227 278
#
# _framework density 18.468453
#
# number of rings (size 3 to 8) (size 9 to 14) (size 15 to 20)
#    0.000    3.333    0.000    2.500    2.333    2.667 
#    0.000    3.333    0.000    0.000    0.000    7.000 
#    0.000    6.667    0.000    0.000    0.000    0.000 
#
# Total GULP energy -594903.396675 kJ/mol
# GULP energy per Si atom -12393.820764 kJ/mol
# Density = 1.842642 g / cm^3
# Si number density = 18.468453 Si / 1000 Ang^3
#
#
#
# Elastic Constant Matrix: (Units=GPa)
#
#
# Indices 1 2 3 4 5 6 
#
# 1 169.4962 102.9262 11.1976 0.0000 0.0000 0.0000
# 2 102.9262 177.4055 10.7500 0.0000 0.0000 0.0000
# 3 11.1976 10.7500 4.0705 0.0000 0.0000 0.0000
# 4 0.0000 0.0000 0.0000 8.5717 0.0000 0.0000
# 5 0.0000 0.0000 0.0000 0.0000 21.4946 0.0000
# 6 0.0000 0.0000 0.0000 0.0000 0.0000 24.7428
#
#
#
# Elastic Compliance Matrix: (Units=1/GPa)
#
#
# Indices 1 2 3 4 5 6 
#
# 1 0.009748 -0.004799 -0.014143 0.000000 0.000000 0.000000
# 2 -0.004799 0.009073 -0.010761 0.000000 0.000000 0.000000
# 3 -0.014143 -0.010761 0.312994 0.000000 0.000000 0.000000
# 4 0.000000 0.000000 0.000000 0.116664 0.000000 0.000000
# 5 0.000000 0.000000 0.000000 0.000000 0.046523 0.000000
# 6 0.000000 0.000000 0.000000 0.000000 0.000000 0.040416
#
#
# Mechanical properties :
#
#
# Convention : Reuss Voigt Hill
#
# Bulk Modulus (GPa) = 3.67093 66.74666 35.20880
# Shear Modulus (GPa) = 7.29260 26.03503 16.66381
#
# Velocity S-wave (km/s) = 1.98928 3.75867 3.00707
# Velocity P-wave (km/s) = 2.69598 7.41999 5.58232
#
# Compressibility (1/GPa) = 0.27241019
#
# Stress axis : x y z
#
# Youngs Moduli (GPa) = 102.58368 110.21858 3.19495
#
# Poissons Ratio (x) = 0.52890 0.04519
# Poissons Ratio (y) = 0.49226 0.03438
# Poissons Ratio (z) = 1.45087 1.18601
#
# Static dielectric constant tensor:
#      x y z
#    x 3.579350 0.000000 0.000000 
#    y 0.000000 3.934880 0.000000 
#    z 0.000000 0.000000 2.625030 
# 
# 
# High freq. dielectric constant tensor:
#      x y z
#    x 1.727720 0.000000 0.000000 
#    y 0.000000 1.727020 0.000000 
#    z 0.000000 0.000000 1.635180 
# 
# From -- ./inp_files/4180.got.cif
#   From: 2010.06.25/outbox.cif.g09.slc.cpg/sg58_3_cif.got.tgz:4180.got - 2010.06.26 21:38:00.
