data_PCOD8236233
_publ_section_title
;
Structure prediction by ZEFSAII (Michael W. Deem and Ramdas Pophale) SiO2 
 PCOD8236233
Probable space group: P N N M
;
_chemical_formula_sum "Si O2"
_cell_formula_units_Z 48
_cell_length_a 14.176599
_cell_length_b 18.670906
_cell_length_c 9.226788
_cell_angle_alpha 90.000000
_cell_angle_beta 90.000000
_cell_angle_gamma 90.000000
_cell_volume 2442.238030
_symmetry_space_group_name_H-M "P N N M"
_symmetry_group_IT_number 58
_symmetry_cell_setting 'orthorhombic'
loop_
_space_group_symop_operation_xyz
x,y,z
-x,-y,z
1/2+x,1/2-y,1/2-z
1/2-x,1/2+y,1/2-z
-x,-y,-z
x,y,-z
1/2-x,1/2+y,1/2+z
1/2+x,1/2-y,1/2+z
loop_
_atom_site_type_symbol
_atom_site_label
_atom_site_fract_x
_atom_site_fract_y
_atom_site_fract_z
Si Si1 0.681824 0.014803 0.831533
Si Si2 0.949370 0.897319 0.670825
Si Si3 0.186903 0.225694 0.672482
Si Si4 0.147150 0.647315 0.673186
Si Si5 0.639145 0.543803 0.829187
Si Si6 0.936561 0.645510 0.330898
O O1 0.763789 0.058890 0.751486
O O2 0.588186 0.062200 0.800128
O O3 0.671032 0.933694 0.774618
O O4 0.705495 0.014243 0.000000
O O5 0.945227 0.902631 0.500000
O O6 0.895221 0.827941 0.726769
O O7 0.060241 0.896901 0.715821
O O8 0.897530 0.967549 0.730658
O O9 0.204384 0.221920 0.500000
O O10 0.283991 0.205032 0.752500
O O11 0.146890 0.302292 0.727399
O O12 0.155323 0.653939 0.500000
O O13 0.040860 0.662994 0.730588
O O14 0.657976 0.543775 0.000000
O O15 0.942977 0.660655 0.500000
#
# Coordination Sequence:
#
# PCOD8236233 Si02
#       6
#     8   8   8   8   8   8
#     4  10  19  33  53  78 106 137 174 216 257 303
#     4   8  15  28  48  73 101 133 168 206 251 304
#     4  10  19  35  57  77 102 138 177 215 260 311
#     4  10  20  36  57  78 103 137 175 214 257 309
#     4   9  16  29  50  76 103 133 172 213 252 301
#     4   9  20  36  54  76 104 141 177 207 254 319
#
# _framework density 19.654102999999999
#
# number of rings (size 3 to 8) (size 9 to 14) (size 15 to 20)
#    0.000    2.667    1.667    1.500    0.000    3.333 
#    0.000    6.667    0.000    2.000    0.000    0.000 
#    0.000    0.000    0.000    0.000    0.000    0.000 
#
# Total GULP energy -594758.485357 kJ/mol
# GULP energy per Si atom -12390.801778 kJ/mol
# Density = 1.960937 g / cm^3
# Si number density = 19.654103 Si / 1000 Ang^3
#
#
#
# Elastic Constant Matrix: (Units=GPa)
#
#
# Indices 1 2 3 4 5 6 
#
# 1 146.9886 43.1926 33.8891 0.0000 0.0000 0.0000
# 2 43.1926 72.9306 17.4600 0.0000 0.0000 0.0000
# 3 33.8891 17.4600 27.2948 0.0000 0.0000 0.0000
# 4 0.0000 0.0000 0.0000 18.0692 0.0000 0.0000
# 5 0.0000 0.0000 0.0000 0.0000 31.1642 0.0000
# 6 0.0000 0.0000 0.0000 0.0000 0.0000 29.2711
#
#
#
# Elastic Compliance Matrix: (Units=1/GPa)
#
#
# Indices 1 2 3 4 5 6 
#
# 1 0.010265 -0.003576 -0.010458 0.000000 0.000000 0.000000
# 2 -0.003576 0.017437 -0.006714 0.000000 0.000000 0.000000
# 3 -0.010458 -0.006714 0.053916 0.000000 0.000000 0.000000
# 4 0.000000 0.000000 0.000000 0.055343 0.000000 0.000000
# 5 0.000000 0.000000 0.000000 0.000000 0.032088 0.000000
# 6 0.000000 0.000000 0.000000 0.000000 0.000000 0.034163
#
#
# Mechanical properties :
#
#
# Convention : Reuss Voigt Hill
#
# Bulk Modulus (GPa) = 24.92364 48.47746 36.70055
# Shear Modulus (GPa) = 19.37366 25.87905 22.62636
#
# Velocity S-wave (km/s) = 3.14304 3.63261 3.39666
# Velocity P-wave (km/s) = 5.08727 6.50487 5.83925
#
# Compressibility (1/GPa) = 0.04012255
#
# Stress axis : x y z
#
# Youngs Moduli (GPa) = 97.41767 57.34978 18.54726
#
# Poissons Ratio (x) = 0.20507 0.19396
# Poissons Ratio (y) = 0.34834 0.12453
# Poissons Ratio (z) = 1.01877 0.38507
#
# Static dielectric constant tensor:
#      x y z
#    x 3.840570 0.000000 0.000000 
#    y 0.000000 3.793240 0.000000 
#    z 0.000000 0.000000 3.065350 
# 
# 
# High freq. dielectric constant tensor:
#      x y z
#    x 1.779520 0.000000 0.000000 
#    y 0.000000 1.762160 0.000000 
#    z 0.000000 0.000000 1.712270 
# 
# From -- ./inp_files/5794.got.cif
#   From: 2010.06.25/outbox.cif.g09.slc.cpg/sg58_3_cif.got.tgz:5794.got - 2010.06.26 21:38:00.
