data_PCOD8236298
_publ_section_title
;
Structure prediction by ZEFSAII (Michael W. Deem and Ramdas Pophale) SiO2 
 PCOD8236298
Probable space group: P N N M
;
_chemical_formula_sum "Si O2"
_cell_formula_units_Z 40
_cell_length_a 25.841434
_cell_length_b 8.950848
_cell_length_c 8.888169
_cell_angle_alpha 90.000000
_cell_angle_beta 90.000000
_cell_angle_gamma 90.000000
_cell_volume 2055.857913
_symmetry_space_group_name_H-M "P N N M"
_symmetry_group_IT_number 58
_symmetry_cell_setting 'orthorhombic'
loop_
_space_group_symop_operation_xyz
x,y,z
-x,-y,z
1/2+x,1/2-y,1/2-z
1/2-x,1/2+y,1/2-z
-x,-y,-z
x,y,-z
1/2-x,1/2+y,1/2+z
1/2+x,1/2-y,1/2+z
loop_
_atom_site_type_symbol
_atom_site_label
_atom_site_fract_x
_atom_site_fract_y
_atom_site_fract_z
Si Si1 0.806658 0.164022 0.174918
Si Si2 0.003892 0.168186 0.679214
Si Si3 0.704613 0.349722 0.824348
Si Si4 0.394735 0.834308 0.178659
Si Si5 0.400864 0.170152 0.821305
O O1 0.757239 0.264418 0.211165
O O2 0.855291 0.225838 0.264038
O O3 0.794325 0.998159 0.227486
O O4 0.819869 0.163317 0.000000
O O5 0.005307 0.165210 0.500000
O O6 0.055925 0.244511 0.743035
O O7 0.955068 0.263202 0.737054
O O8 0.000000 0.000000 0.742921
O O9 0.657297 0.247111 0.767857
O O10 0.698539 0.388887 0.000000
O O11 0.394945 0.002651 0.243469
O O12 0.397740 0.841105 0.000000
O O13 0.398922 0.170678 0.000000
#
# Coordination Sequence:
#
# PCOD8236298 Si02
#       5
#     8   8   8   8   8
#     4  11  23  37  55  81 110 139 175 218 264 318
#     4   9  16  27  49  81 110 137 176 225 268 306
#     4  10  21  37  56  77 104 139 177 218 264 314
#     4   9  17  31  53  81 107 135 180 229 266 306
#     4  10  19  33  55  80 109 144 178 217 266 317
#
# _framework density 19.456596000000001
#
# number of rings (size 3 to 8) (size 9 to 14) (size 15 to 20)
#    0.000    2.200    0.000    3.600    0.000    8.800 
#    0.000    1.000    0.000    7.800    0.000    0.000 
#    0.000    0.000    0.000    0.000    0.000    0.000 
#
# Total GULP energy -496103.152438 kJ/mol
# GULP energy per Si atom -12402.578811 kJ/mol
# Density = 1.941231 g / cm^3
# Si number density = 19.456596 Si / 1000 Ang^3
#
#
#
# Elastic Constant Matrix: (Units=GPa)
#
#
# Indices 1 2 3 4 5 6 
#
# 1 86.5098 -1.0102 22.0405 0.0000 0.0000 0.0000
# 2 -1.0102 100.5015 20.2003 0.0000 0.0000 0.0000
# 3 22.0405 20.2003 9.6432 0.0000 0.0000 0.0000
# 4 0.0000 0.0000 0.0000 18.9987 0.0000 0.0000
# 5 0.0000 0.0000 0.0000 0.0000 18.0554 0.0000
# 6 0.0000 0.0000 0.0000 0.0000 0.0000 35.4265
#
#
#
# Elastic Compliance Matrix: (Units=1/GPa)
#
#
# Indices 1 2 3 4 5 6 
#
# 1 -0.471253 -0.382114 1.877543 0.000000 0.000000 0.000000
# 2 -0.382114 -0.292650 1.486400 0.000000 0.000000 0.000000
# 3 1.877543 1.486400 -7.301298 0.000000 0.000000 0.000000
# 4 0.000000 0.000000 0.000000 0.052635 0.000000 0.000000
# 5 0.000000 0.000000 0.000000 0.000000 0.055385 0.000000
# 6 0.000000 0.000000 0.000000 0.000000 0.000000 0.028227
#
#
# Mechanical properties :
#
#
# Convention : Reuss Voigt Hill
#
# Bulk Modulus (GPa) = -0.47584 31.01287 15.26852
# Shear Modulus (GPa) = -0.34263 24.85769 12.25753
#
# Velocity S-wave (km/s) = -0.42010 3.57823 2.51269
# Velocity P-wave (km/s) = 0.69311 5.74854 4.03518
#
# Compressibility (1/GPa) = -2.10154421
#
# Stress axis : x y z
#
# Youngs Moduli (GPa) = -2.12200 -3.41705 -0.13696
#
# Poissons Ratio (x) = -1.30570 0.25715
# Poissons Ratio (y) = -0.81085 0.20358
# Poissons Ratio (z) = 3.98415 5.07910
#
# Static dielectric constant tensor:
#      x y z
#    x 3.769580 0.000000 0.000000 
#    y 0.000000 3.792580 0.000000 
#    z 0.000000 0.000000 3.040590 
# 
# 
# High freq. dielectric constant tensor:
#      x y z
#    x 1.778130 0.000000 0.000000 
#    y 0.000000 1.778140 0.000000 
#    z 0.000000 0.000000 1.704060 
# 
# From -- ./inp_files/2423.got.cif
#   From: 2010.06.25/outbox.cif.g09.slc.cpg/sg58_2_cif.got.tgz:2423.got - 2010.06.26 21:38:00.
