data_PCOD8236124
_publ_section_title
;
Structure prediction by ZEFSAII (Michael W. Deem and Ramdas Pophale) SiO2 
 PCOD8236124
Probable space group: P N N M
;
_chemical_formula_sum "Si O2"
_cell_formula_units_Z 64
_cell_length_a 20.704663
_cell_length_b 19.306812
_cell_length_c 9.011745
_cell_angle_alpha 90.000000
_cell_angle_beta 90.000000
_cell_angle_gamma 90.000000
_cell_volume 3602.364283
_symmetry_space_group_name_H-M "P N N M"
_symmetry_group_IT_number 58
_symmetry_cell_setting 'orthorhombic'
loop_
_space_group_symop_operation_xyz
x,y,z
-x,-y,z
1/2+x,1/2-y,1/2-z
1/2-x,1/2+y,1/2-z
-x,-y,-z
x,y,-z
1/2-x,1/2+y,1/2+z
1/2+x,1/2-y,1/2+z
loop_
_atom_site_type_symbol
_atom_site_label
_atom_site_fract_x
_atom_site_fract_y
_atom_site_fract_z
Si Si1 0.940783 0.951602 0.827612
Si Si2 0.638594 0.822251 0.329009
Si Si3 0.010735 0.313479 0.171138
Si Si4 0.004676 0.173487 0.675184
Si Si5 0.309043 0.470669 0.328738
Si Si6 0.687016 0.965137 0.323153
Si Si7 0.560778 0.041596 0.324201
Si Si8 0.868973 0.170923 0.175273
O O1 0.942702 0.882005 0.730273
O O2 0.874938 0.990614 0.789480
O O3 0.945391 0.931741 0.000000
O O4 0.000000 0.000000 0.780026
O O5 0.656223 0.821549 0.500000
O O6 0.563079 0.836574 0.303172
O O7 0.678602 0.886454 0.258419
O O8 0.657372 0.745747 0.265550
O O9 0.055895 0.377509 0.219250
O O10 0.029121 0.248763 0.273316
O O11 0.021513 0.292639 0.000000
O O12 0.998804 0.172021 0.500000
O O13 0.936078 0.153483 0.745854
O O14 0.290576 0.480193 0.500000
O O15 0.253433 0.502466 0.229501
O O16 0.317310 0.389078 0.289640
O O17 0.686048 0.964510 0.500000
O O18 0.627828 0.011414 0.261074
O O19 0.558794 0.032840 0.500000
O O20 0.500000 0.000000 0.255316
O O21 0.884474 0.174201 0.000000
#
# Coordination Sequence:
#
# PCOD8236124 Si02
#       8
#     8   8   8   8   8   8   8   8
#     4  10  19  36  58  76  97 135 182 216 250 312
#     4   8  14  27  52  78  98 129 174 218 252 299
#     4   9  16  30  53  77 105 140 180 216 252 305
#     4  11  21  31  49  81 113 134 164 218 279 315
#     4  10  21  36  54  76 104 139 177 214 258 320
#     4  10  19  32  52  81 111 136 172 220 267 307
#     4   9  15  28  54  83 104 133 181 223 250 298
#     4   9  17  34  56  75  97 135 183 216 251 311
#
# _framework density 17.766110000000001
#
# number of rings (size 3 to 8) (size 9 to 14) (size 15 to 20)
#    0.000    2.500    2.500    1.875    0.000    1.250 
#    0.000    4.375    0.000    3.750    0.000    0.000 
#    0.000    0.000    0.000    0.000    0.000    0.000 
#
# Total GULP energy -793334.626995 kJ/mol
# GULP energy per Si atom -12395.853547 kJ/mol
# Density = 1.772567 g / cm^3
# Si number density = 17.766110 Si / 1000 Ang^3
#
#
#
# Elastic Constant Matrix: (Units=GPa)
#
#
# Indices 1 2 3 4 5 6 
#
# 1 82.4819 57.9436 22.8894 0.0000 0.0000 0.0000
# 2 57.9436 146.3078 39.1375 0.0000 0.0000 0.0000
# 3 22.8894 39.1375 45.5427 0.0000 0.0000 0.0000
# 4 0.0000 0.0000 0.0000 15.2418 0.0000 0.0000
# 5 0.0000 0.0000 0.0000 0.0000 19.3514 0.0000
# 6 0.0000 0.0000 0.0000 0.0000 0.0000 25.5199
#
#
#
# Elastic Compliance Matrix: (Units=1/GPa)
#
#
# Indices 1 2 3 4 5 6 
#
# 1 0.017248 -0.005859 -0.003634 0.000000 0.000000 0.000000
# 2 -0.005859 0.010865 -0.006393 0.000000 0.000000 0.000000
# 3 -0.003634 -0.006393 0.029277 0.000000 0.000000 0.000000
# 4 0.000000 0.000000 0.000000 0.065609 0.000000 0.000000
# 5 0.000000 0.000000 0.000000 0.000000 0.051676 0.000000
# 6 0.000000 0.000000 0.000000 0.000000 0.000000 0.039185
#
#
# Mechanical properties :
#
#
# Convention : Reuss Voigt Hill
#
# Bulk Modulus (GPa) = 39.03189 57.14147 48.08668
# Shear Modulus (GPa) = 19.67177 22.31342 20.99259
#
# Velocity S-wave (km/s) = 3.33117 3.54779 3.44118
# Velocity P-wave (km/s) = 6.06738 7.00110 6.55090
#
# Compressibility (1/GPa) = 0.02562007
#
# Stress axis : x y z
#
# Youngs Moduli (GPa) = 57.97709 92.03648 34.15618
#
# Poissons Ratio (x) = 0.53923 0.12412
# Poissons Ratio (y) = 0.33968 0.21834
# Poissons Ratio (z) = 0.21068 0.58835
#
# Static dielectric constant tensor:
#      x y z
#    x 3.073140 0.000000 0.000000 
#    y 0.000000 3.732640 0.000000 
#    z 0.000000 0.000000 2.914910 
# 
# 
# High freq. dielectric constant tensor:
#      x y z
#    x 1.657600 0.000000 0.000000 
#    y 0.000000 1.710570 0.000000 
#    z 0.000000 0.000000 1.649710 
# 
# From -- ./inp_files/8295.got.cif
#   From: 2010.06.25/outbox.cif.g09.slc.cpg/sg58_5_cif.got.tgz:8295.got - 2010.06.26 21:38:00.
