data_PCOD8236257
_publ_section_title
;
Structure prediction by ZEFSAII (Michael W. Deem and Ramdas Pophale) SiO2 
 PCOD8236257
Probable space group: P N N M
;
_chemical_formula_sum "Si O2"
_cell_formula_units_Z 40
_cell_length_a 10.256098
_cell_length_b 23.799205
_cell_length_c 8.999153
_cell_angle_alpha 90.000000
_cell_angle_beta 90.000000
_cell_angle_gamma 90.000000
_cell_volume 2196.576068
_symmetry_space_group_name_H-M "P N N M"
_symmetry_group_IT_number 58
_symmetry_cell_setting 'orthorhombic'
loop_
_space_group_symop_operation_xyz
x,y,z
-x,-y,z
1/2+x,1/2-y,1/2-z
1/2-x,1/2+y,1/2-z
-x,-y,-z
x,y,-z
1/2-x,1/2+y,1/2+z
1/2+x,1/2-y,1/2+z
loop_
_atom_site_type_symbol
_atom_site_label
_atom_site_fract_x
_atom_site_fract_y
_atom_site_fract_z
Si Si1 0.966137 0.636820 0.331541
Si Si2 0.302840 0.353979 0.176503
Si Si3 0.842082 0.271619 0.668635
Si Si4 0.523708 0.437761 0.176650
Si Si5 0.717742 0.876812 0.324307
O O1 0.948403 0.615671 0.500000
O O2 0.834172 0.626952 0.242982
O O3 0.009838 0.702942 0.327056
O O4 0.083478 0.601422 0.252855
O O5 0.340558 0.291449 0.231899
O O6 0.412391 0.396202 0.238318
O O7 0.293437 0.356463 0.000000
O O8 0.788110 0.272739 0.500000
O O9 0.752047 0.312641 0.770112
O O10 0.500000 0.500000 0.241427
O O11 0.665027 0.416577 0.229722
O O12 0.517654 0.438134 0.000000
O O13 0.700731 0.877586 0.500000
#
# Coordination Sequence:
#
# PCOD8236257 Si02
#       5
#     8   8   8   8   8
#     4   9  19  34  50  75 109 137 169 215 268 315
#     4  10  19  33  54  79 106 138 179 221 264 320
#     4   8  18  31  48  76 110 137 166 214 268 316
#     4   9  19  35  55  80 108 139 180 227 267 308
#     4   9  17  31  55  79 103 139 177 214 264 320
#
# _framework density 18.210159999999998
#
# number of rings (size 3 to 8) (size 9 to 14) (size 15 to 20)
#    1.200    1.800    0.000    0.600    2.800    0.800 
#    0.000    3.000    0.000   11.400    0.000    0.000 
#    0.000    0.000    0.000    0.000    0.000    0.000 
#
# Total GULP energy -495580.183395 kJ/mol
# GULP energy per Si atom -12389.504585 kJ/mol
# Density = 1.816871 g / cm^3
# Si number density = 18.210160 Si / 1000 Ang^3
#
#
#
# Elastic Constant Matrix: (Units=GPa)
#
#
# Indices 1 2 3 4 5 6 
#
# 1 103.5665 21.8748 20.0081 0.0000 0.0000 0.0000
# 2 21.8748 75.3644 11.7617 0.0000 0.0000 0.0000
# 3 20.0081 11.7617 41.9107 0.0000 0.0000 0.0000
# 4 0.0000 0.0000 0.0000 14.5959 0.0000 0.0000
# 5 0.0000 0.0000 0.0000 0.0000 20.4242 0.0000
# 6 0.0000 0.0000 0.0000 0.0000 0.0000 27.9828
#
#
#
# Elastic Compliance Matrix: (Units=1/GPa)
#
#
# Indices 1 2 3 4 5 6 
#
# 1 0.011069 -0.002497 -0.004583 0.000000 0.000000 0.000000
# 2 -0.002497 0.014440 -0.002860 0.000000 0.000000 0.000000
# 3 -0.004583 -0.002860 0.026851 0.000000 0.000000 0.000000
# 4 0.000000 0.000000 0.000000 0.068513 0.000000 0.000000
# 5 0.000000 0.000000 0.000000 0.000000 0.048962 0.000000
# 6 0.000000 0.000000 0.000000 0.000000 0.000000 0.035736
#
#
# Mechanical properties :
#
#
# Convention : Reuss Voigt Hill
#
# Bulk Modulus (GPa) = 30.79010 36.45898 33.62454
# Shear Modulus (GPa) = 21.16154 23.74703 22.45429
#
# Velocity S-wave (km/s) = 3.41262 3.61509 3.51531
# Velocity P-wave (km/s) = 5.69850 6.12289 5.91450
#
# Compressibility (1/GPa) = 0.03247797
#
# Stress axis : x y z
#
# Youngs Moduli (GPa) = 90.34590 69.25148 37.24262
#
# Poissons Ratio (x) = 0.17295 0.17069
# Poissons Ratio (y) = 0.22563 0.10652
# Poissons Ratio (z) = 0.41408 0.19807
#
# Static dielectric constant tensor:
#      x y z
#    x 3.264200 0.000000 0.000000 
#    y 0.000000 3.301620 0.000000 
#    z 0.000000 0.000000 3.097490 
# 
# 
# High freq. dielectric constant tensor:
#      x y z
#    x 1.701880 0.000000 0.000000 
#    y 0.000000 1.681080 0.000000 
#    z 0.000000 0.000000 1.687180 
# 
# From -- ./inp_files/2617.got.cif
#   From: 2010.06.25/outbox.cif.g09.slc.cpg/sg58_2_cif.got.tgz:2617.got - 2010.06.26 21:38:00.
