data_PCOD8236979
_publ_section_title
;
Structure prediction by ZEFSAII (Michael W. Deem and Ramdas Pophale) SiO2 
 PCOD8236979
Probable space group: P N N M
;
_chemical_formula_sum "Si O2"
_cell_formula_units_Z 64
_cell_length_a 20.549549
_cell_length_b 19.497127
_cell_length_c 8.830964
_cell_angle_alpha 90.000000
_cell_angle_beta 90.000000
_cell_angle_gamma 90.000000
_cell_volume 3538.189015
_symmetry_space_group_name_H-M "P N N M"
_symmetry_group_IT_number 58
_symmetry_cell_setting 'orthorhombic'
loop_
_space_group_symop_operation_xyz
x,y,z
-x,-y,z
1/2+x,1/2-y,1/2-z
1/2-x,1/2+y,1/2-z
-x,-y,-z
x,y,-z
1/2-x,1/2+y,1/2+z
1/2+x,1/2-y,1/2+z
loop_
_atom_site_type_symbol
_atom_site_label
_atom_site_fract_x
_atom_site_fract_y
_atom_site_fract_z
Si Si1 0.271398 0.928762 0.822882
Si Si2 0.064930 0.204401 0.178445
Si Si3 0.270711 0.069516 0.677151
Si Si4 0.188868 0.704758 0.677128
Si Si5 0.620322 0.428052 0.822121
Si Si6 0.310950 0.793121 0.678112
Si Si7 0.433069 0.297663 0.177474
Si Si8 0.378512 0.430829 0.322197
O O1 0.313776 0.866935 0.756525
O O2 0.196300 0.916098 0.778956
O O3 0.296679 0.999863 0.752741
O O4 0.282322 0.932424 0.000000
O O5 0.078663 0.127408 0.232219
O O6 0.124249 0.253188 0.225786
O O7 0.001356 0.232913 0.264552
O O8 0.053117 0.204933 0.000000
O O9 0.280261 0.062000 0.500000
O O10 0.313221 0.132486 0.737520
O O11 0.195733 0.082357 0.721434
O O12 0.197205 0.690511 0.500000
O O13 0.248866 0.750389 0.738006
O O14 0.122073 0.742622 0.716848
O O15 0.596492 0.502344 0.766725
O O16 0.607871 0.420210 0.000000
O O17 0.305508 0.804388 0.500000
O O18 0.421335 0.367534 0.268067
O O19 0.434686 0.313873 0.000000
O O20 0.387446 0.442885 0.500000
#
# Coordination Sequence:
#
# PCOD8236979 Si02
#       8
#     8   8   8   8   8   8   8   8
#     4  10  20  33  55  84 114 144 180 227 274 325
#     4  11  23  38  56  79 111 148 184 227 274 326
#     4  10  20  33  55  84 114 144 180 227 274 325
#     4  10  20  36  58  82 110 144 183 227 275 324
#     4  10  20  34  53  79 111 147 186 225 268 322
#     4  10  20  36  58  82 110 144 183 227 275 324
#     4  11  23  38  56  79 111 148 184 227 274 326
#     4  10  20  34  53  79 111 147 186 225 268 322
#
# _framework density 18.088349999999998
#
# number of rings (size 3 to 8) (size 9 to 14) (size 15 to 20)
#    0.000    1.750    2.500    2.250    0.000    5.000 
#    0.000    2.500    0.000    0.750    0.000    5.250 
#    0.000    0.000    0.000    0.000    0.000    0.000 
#
# Total GULP energy -793979.006349 kJ/mol
# GULP energy per Si atom -12405.921974 kJ/mol
# Density = 1.804718 g / cm^3
# Si number density = 18.088350 Si / 1000 Ang^3
#
#
#
# Elastic Constant Matrix: (Units=GPa)
#
#
# Indices 1 2 3 4 5 6 
#
# 1 92.4814 51.5436 32.2118 0.0000 0.0000 0.0000
# 2 51.5436 123.8691 37.2473 0.0000 0.0000 0.0000
# 3 32.2118 37.2473 51.3646 0.0000 0.0000 0.0000
# 4 0.0000 0.0000 0.0000 36.7231 0.0000 0.0000
# 5 0.0000 0.0000 0.0000 0.0000 24.4054 0.0000
# 6 0.0000 0.0000 0.0000 0.0000 0.0000 22.0857
#
#
#
# Elastic Compliance Matrix: (Units=1/GPa)
#
#
# Indices 1 2 3 4 5 6 
#
# 1 0.015606 -0.004541 -0.006494 0.000000 0.000000 0.000000
# 2 -0.004541 0.011646 -0.005597 0.000000 0.000000 0.000000
# 3 -0.006494 -0.005597 0.027600 0.000000 0.000000 0.000000
# 4 0.000000 0.000000 0.000000 0.027231 0.000000 0.000000
# 5 0.000000 0.000000 0.000000 0.000000 0.040975 0.000000
# 6 0.000000 0.000000 0.000000 0.000000 0.000000 0.045278
#
#
# Mechanical properties :
#
#
# Convention : Reuss Voigt Hill
#
# Bulk Modulus (GPa) = 46.32336 56.63563 51.47950
# Shear Modulus (GPa) = 23.94702 26.42366 25.18534
#
# Velocity S-wave (km/s) = 3.64248 3.82620 3.73547
# Velocity P-wave (km/s) = 6.58447 7.13430 6.86490
#
# Compressibility (1/GPa) = 0.02158738
#
# Stress axis : x y z
#
# Youngs Moduli (GPa) = 64.07910 85.86857 36.23222
#
# Poissons Ratio (x) = 0.38994 0.23528
# Poissons Ratio (y) = 0.29099 0.20280
# Poissons Ratio (z) = 0.41611 0.48062
#
# Static dielectric constant tensor:
#      x y z
#    x 3.250950 0.000000 0.000000 
#    y 0.000000 3.324970 0.000000 
#    z 0.000000 0.000000 3.316980 
# 
# 
# High freq. dielectric constant tensor:
#      x y z
#    x 1.677820 0.000000 0.000000 
#    y 0.000000 1.702360 0.000000 
#    z 0.000000 0.000000 1.710500 
# 
# From -- ./inp_files/9254.got.cif
#   From: 2010.06.25/outbox.cif.g09.slc.cpg/sg58_5_cif.got.tgz:9254.got - 2010.06.26 21:38:00.
