data_PCOD8236622
_publ_section_title
;
Structure prediction by ZEFSAII (Michael W. Deem and Ramdas Pophale) SiO2 
 PCOD8236622
Probable space group: P N N M
;
_chemical_formula_sum "Si O2"
_cell_formula_units_Z 64
_cell_length_a 17.547087
_cell_length_b 15.923588
_cell_length_c 12.362059
_cell_angle_alpha 90.000000
_cell_angle_beta 90.000000
_cell_angle_gamma 90.000000
_cell_volume 3454.114849
_symmetry_space_group_name_H-M "P N N M"
_symmetry_group_IT_number 58
_symmetry_cell_setting 'orthorhombic'
loop_
_space_group_symop_operation_xyz
x,y,z
-x,-y,z
1/2+x,1/2-y,1/2-z
1/2-x,1/2+y,1/2-z
-x,-y,-z
x,y,-z
1/2-x,1/2+y,1/2+z
1/2+x,1/2-y,1/2+z
loop_
_atom_site_type_symbol
_atom_site_label
_atom_site_fract_x
_atom_site_fract_y
_atom_site_fract_z
Si Si1 0.753702 0.769696 0.622755
Si Si2 0.522146 0.808534 0.871789
Si Si3 0.642746 0.946189 0.878922
Si Si4 0.364242 0.869512 0.810210
Si Si5 0.368403 0.311192 0.754463
Si Si6 0.256928 0.906859 0.375425
Si Si7 0.912819 0.023481 0.873287
Si Si8 0.790203 0.930642 0.739303
O O1 0.739928 0.796827 0.500000
O O2 0.798349 0.681585 0.627889
O O3 0.670976 0.758715 0.678112
O O4 0.804060 0.841675 0.681164
O O5 0.570131 0.891577 0.843655
O O6 0.441620 0.816670 0.810953
O O7 0.561226 0.726747 0.820437
O O8 0.510093 0.795620 0.000000
O O9 0.714291 0.921756 0.808181
O O10 0.621227 0.043924 0.873021
O O11 0.665355 0.922037 0.000000
O O12 0.335576 0.889313 0.688827
O O13 0.306591 0.339179 0.843260
O O14 0.396625 0.386775 0.679357
O O15 0.277689 0.898107 0.500000
O O16 0.222681 0.998468 0.351137
O O17 0.861307 0.952430 0.816251
O O18 0.892059 0.027199 0.000000
O O19 0.000000 0.000000 0.854123
#
# Coordination Sequence:
#
# PCOD8236622 Si02
#       8
#     8   8   8   8   8   8   8   8
#     4  11  21  36  57  84 114 150 193 239 288 338
#     4  11  21  35  57  86 120 148 184 237 290 340
#     4  10  19  35  58  82 110 147 189 231 281 334
#     4  10  22  35  56  83 113 146 187 235 285 343
#     4  10  21  37  59  83 116 151 194 240 287 344
#     4   9  19  38  58  76 106 149 192 234 284 342
#     4  10  22  40  61  86 120 158 197 242 291 344
#     4  10  20  35  58  84 111 149 193 238 279 343
#
# _framework density 18.528625999999999
#
# number of rings (size 3 to 8) (size 9 to 14) (size 15 to 20)
#    0.000    1.875    1.250    3.750    1.750    1.000 
#    0.000    1.875    0.000    3.750    0.000    0.000 
#    0.000    0.000    0.000    0.000    0.000    0.000 
#
# Total GULP energy -793727.785725 kJ/mol
# GULP energy per Si atom -12401.996652 kJ/mol
# Density = 1.848645 g / cm^3
# Si number density = 18.528626 Si / 1000 Ang^3
#
#
#
# Elastic Constant Matrix: (Units=GPa)
#
#
# Indices 1 2 3 4 5 6 
#
# 1 91.1484 20.0392 45.5148 0.0000 0.0000 0.0000
# 2 20.0392 81.3621 37.7115 0.0000 0.0000 0.0000
# 3 45.5148 37.7115 117.9170 0.0000 0.0000 0.0000
# 4 0.0000 0.0000 0.0000 25.2422 0.0000 0.0000
# 5 0.0000 0.0000 0.0000 0.0000 22.0190 0.0000
# 6 0.0000 0.0000 0.0000 0.0000 0.0000 28.8544
#
#
#
# Elastic Compliance Matrix: (Units=1/GPa)
#
#
# Indices 1 2 3 4 5 6 
#
# 1 0.013671 -0.001082 -0.004931 0.000000 0.000000 0.000000
# 2 -0.001082 0.014515 -0.004225 0.000000 0.000000 0.000000
# 3 -0.004931 -0.004225 0.011735 0.000000 0.000000 0.000000
# 4 0.000000 0.000000 0.000000 0.039616 0.000000 0.000000
# 5 0.000000 0.000000 0.000000 0.000000 0.045415 0.000000
# 6 0.000000 0.000000 0.000000 0.000000 0.000000 0.034657
#
#
# Mechanical properties :
#
#
# Convention : Reuss Voigt Hill
#
# Bulk Modulus (GPa) = 51.42238 55.21761 53.32000
# Shear Modulus (GPa) = 26.80008 27.70061 27.25035
#
# Velocity S-wave (km/s) = 3.80730 3.87074 3.83915
# Velocity P-wave (km/s) = 6.86590 7.05994 6.96360
#
# Compressibility (1/GPa) = 0.01944678
#
# Stress axis : x y z
#
# Youngs Moduli (GPa) = 73.14640 68.89293 85.21532
#
# Poissons Ratio (x) = 0.07452 0.42020
# Poissons Ratio (y) = 0.07912 0.36001
# Poissons Ratio (z) = 0.36069 0.29105
#
# Static dielectric constant tensor:
#      x y z
#    x 3.354530 0.000000 0.000000 
#    y 0.000000 3.481230 0.000000 
#    z 0.000000 0.000000 3.336930 
# 
# 
# High freq. dielectric constant tensor:
#      x y z
#    x 1.715290 0.000000 0.000000 
#    y 0.000000 1.724970 0.000000 
#    z 0.000000 0.000000 1.717140 
# 
# From -- ./inp_files/15910.got.cif
#   From: 2010.06.25/outbox.cif.g09.slc.cpg/sg58_8_cif.got.tgz:15910.got - 2010.06.26 21:38:00.
