data_PCOD8236319
_publ_section_title
;
Structure prediction by ZEFSAII (Michael W. Deem and Ramdas Pophale) SiO2 
 PCOD8236319
Probable space group: P N N M
;
_chemical_formula_sum "Si O2"
_cell_formula_units_Z 56
_cell_length_a 23.952237
_cell_length_b 13.381587
_cell_length_c 8.696985
_cell_angle_alpha 90.000000
_cell_angle_beta 90.000000
_cell_angle_gamma 90.000000
_cell_volume 2787.548442
_symmetry_space_group_name_H-M "P N N M"
_symmetry_group_IT_number 58
_symmetry_cell_setting 'orthorhombic'
loop_
_space_group_symop_operation_xyz
x,y,z
-x,-y,z
1/2+x,1/2-y,1/2-z
1/2-x,1/2+y,1/2-z
-x,-y,-z
x,y,-z
1/2-x,1/2+y,1/2+z
1/2+x,1/2-y,1/2+z
loop_
_atom_site_type_symbol
_atom_site_label
_atom_site_fract_x
_atom_site_fract_y
_atom_site_fract_z
Si Si1 0.558357 0.305553 0.678195
Si Si2 0.725540 0.233090 0.819097
Si Si3 0.667304 0.421107 0.319667
Si Si4 0.170853 0.867029 0.681036
Si Si5 0.941632 0.450647 0.318585
Si Si6 0.128693 0.383261 0.181132
Si Si7 0.555346 0.725108 0.180577
O O1 0.544805 0.304148 0.500000
O O2 0.603566 0.390448 0.718988
O O3 0.582357 0.198233 0.731106
O O4 0.500750 0.329582 0.763506
O O5 0.708915 0.333643 0.730502
O O6 0.788357 0.206489 0.772450
O O7 0.686196 0.141275 0.767789
O O8 0.720751 0.250870 0.000000
O O9 0.675232 0.441033 0.500000
O O10 0.682931 0.519003 0.224854
O O11 0.179546 0.851743 0.500000
O O12 0.108442 0.838598 0.735122
O O13 0.931103 0.457007 0.500000
O O14 0.891698 0.508056 0.232823
O O15 0.940758 0.337865 0.254591
O O16 0.000000 0.500000 0.271410
O O17 0.140266 0.378965 0.000000
O O18 0.552424 0.731247 0.000000
#
# Coordination Sequence:
#
# PCOD8236319 Si02
#       7
#     8   8   8   8   8   8   8
#     4   9  19  35  57  84 116 153 195 241 296 356
#     4  11  23  41  65  89 116 156 202 249 301 359
#     4  10  22  42  65  90 119 155 197 245 297 358
#     4  11  24  42  61  87 122 158 199 250 303 356
#     4  10  19  33  55  85 121 160 201 245 297 359
#     4  10  20  35  57  87 120 158 200 248 300 357
#     4  10  22  37  56  84 120 158 198 248 299 352
#
# _framework density 20.089337
#
# number of rings (size 3 to 8) (size 9 to 14) (size 15 to 20)
#    0.000    1.857    1.429    3.429    0.000    6.571 
#    0.000    7.143    0.000    0.000    0.000    0.000 
#    0.000    0.000    0.000    0.000    0.000    0.000 
#
# Total GULP energy -694646.804043 kJ/mol
# GULP energy per Si atom -12404.407215 kJ/mol
# Density = 2.004361 g / cm^3
# Si number density = 20.089337 Si / 1000 Ang^3
#
#
#
# Elastic Constant Matrix: (Units=GPa)
#
#
# Indices 1 2 3 4 5 6 
#
# 1 110.2561 28.4823 28.9896 0.0000 0.0000 0.0000
# 2 28.4823 79.5429 12.2609 0.0000 0.0000 0.0000
# 3 28.9896 12.2609 52.6310 0.0000 0.0000 0.0000
# 4 0.0000 0.0000 0.0000 24.5920 0.0000 0.0000
# 5 0.0000 0.0000 0.0000 0.0000 35.0984 0.0000
# 6 0.0000 0.0000 0.0000 0.0000 0.0000 27.1656
#
#
#
# Elastic Compliance Matrix: (Units=1/GPa)
#
#
# Indices 1 2 3 4 5 6 
#
# 1 0.011347 -0.003215 -0.005501 0.000000 0.000000 0.000000
# 2 -0.003215 0.013951 -0.001479 0.000000 0.000000 0.000000
# 3 -0.005501 -0.001479 0.022375 0.000000 0.000000 0.000000
# 4 0.000000 0.000000 0.000000 0.040664 0.000000 0.000000
# 5 0.000000 0.000000 0.000000 0.000000 0.028491 0.000000
# 6 0.000000 0.000000 0.000000 0.000000 0.000000 0.036811
#
#
# Mechanical properties :
#
#
# Convention : Reuss Voigt Hill
#
# Bulk Modulus (GPa) = 36.65376 42.43281 39.54329
# Shear Modulus (GPa) = 27.30408 28.88436 28.09422
#
# Velocity S-wave (km/s) = 3.69064 3.79594 3.74366
# Velocity P-wave (km/s) = 6.03706 6.35454 6.19783
#
# Compressibility (1/GPa) = 0.02728233
#
# Stress axis : x y z
#
# Youngs Moduli (GPa) = 88.13159 71.67912 44.69330
#
# Poissons Ratio (x) = 0.23045 0.24585
# Poissons Ratio (y) = 0.28335 0.06611
# Poissons Ratio (z) = 0.48480 0.10602
#
# Static dielectric constant tensor:
#      x y z
#    x 3.736750 0.000000 0.000000 
#    y 0.000000 3.620090 0.000000 
#    z 0.000000 0.000000 3.519770 
# 
# 
# High freq. dielectric constant tensor:
#      x y z
#    x 1.786250 0.000000 0.000000 
#    y 0.000000 1.779260 0.000000 
#    z 0.000000 0.000000 1.782290 
# 
# From -- ./inp_files/9035.got.cif
#   From: 2010.06.25/outbox.cif.g09.slc.cpg/sg58_5_cif.got.tgz:9035.got - 2010.06.26 21:38:00.
