data_PCOD8236613
_publ_section_title
;
Structure prediction by ZEFSAII (Michael W. Deem and Ramdas Pophale) SiO2 
 PCOD8236613
Probable space group: P N N M
;
_chemical_formula_sum "Si O2"
_cell_formula_units_Z 48
_cell_length_a 13.211335
_cell_length_b 15.052337
_cell_length_c 13.056154
_cell_angle_alpha 90.000000
_cell_angle_beta 90.000000
_cell_angle_gamma 90.000000
_cell_volume 2596.365933
_symmetry_space_group_name_H-M "P N N M"
_symmetry_group_IT_number 58
_symmetry_cell_setting 'orthorhombic'
loop_
_space_group_symop_operation_xyz
x,y,z
-x,-y,z
1/2+x,1/2-y,1/2-z
1/2-x,1/2+y,1/2-z
-x,-y,-z
x,y,-z
1/2-x,1/2+y,1/2+z
1/2+x,1/2-y,1/2+z
loop_
_atom_site_type_symbol
_atom_site_label
_atom_site_fract_x
_atom_site_fract_y
_atom_site_fract_z
Si Si1 0.062286 0.117289 0.381557
Si Si2 0.362320 0.149461 0.881015
Si Si3 0.705581 0.198999 0.615525
Si Si4 0.722957 0.042264 0.116348
Si Si5 0.147996 0.943184 0.691880
Si Si6 0.921490 0.692023 0.308832
O O1 0.032960 0.106094 0.500000
O O2 0.107064 0.214006 0.359961
O O3 0.961183 0.103010 0.314857
O O4 0.145126 0.043981 0.349746
O O5 0.272736 0.216527 0.851576
O O6 0.459485 0.173060 0.813209
O O7 0.328727 0.050477 0.853864
O O8 0.392054 0.160258 0.000000
O O9 0.665123 0.209319 0.500000
O O10 0.771603 0.109706 0.623313
O O11 0.609084 0.193045 0.689554
O O12 0.818852 0.059272 0.189258
O O13 0.638999 0.118010 0.128402
O O14 0.763074 0.040518 0.000000
#
# Coordination Sequence:
#
# PCOD8236613 Si02
#       6
#     8   8   8   8   8   8
#     4  11  20  34  56  82 107 138 187 233 269 315
#     4  10  19  35  58  80 106 143 185 225 269 322
#     4  10  20  36  56  79 112 149 183 223 275 327
#     4  10  21  36  54  81 112 142 179 226 272 322
#     4  10  20  34  55  80 108 142 182 225 270 323
#     4  11  21  33  58  85 109 140 187 228 271 319
#
# _framework density 18.487379000000001
#
# number of rings (size 3 to 8) (size 9 to 14) (size 15 to 20)
#    0.000    1.667    1.667    5.000    0.000    1.333 
#    0.000    2.500    0.000   10.000    0.000    0.000 
#    0.000    0.000    0.000    0.000    0.000    0.000 
#
# Total GULP energy -595401.492046 kJ/mol
# GULP energy per Si atom -12404.197751 kJ/mol
# Density = 1.844530 g / cm^3
# Si number density = 18.487379 Si / 1000 Ang^3
#
#
#
# Elastic Constant Matrix: (Units=GPa)
#
#
# Indices 1 2 3 4 5 6 
#
# 1 60.8479 27.5025 47.3382 0.0000 0.0000 0.0000
# 2 27.5025 127.1245 38.5306 0.0000 0.0000 0.0000
# 3 47.3382 38.5306 104.7698 0.0000 0.0000 0.0000
# 4 0.0000 0.0000 0.0000 25.7066 0.0000 0.0000
# 5 0.0000 0.0000 0.0000 0.0000 26.1305 0.0000
# 6 0.0000 0.0000 0.0000 0.0000 0.0000 20.0997
#
#
#
# Elastic Compliance Matrix: (Units=1/GPa)
#
#
# Indices 1 2 3 4 5 6 
#
# 1 0.025936 -0.002318 -0.010866 0.000000 0.000000 0.000000
# 2 -0.002318 0.009060 -0.002285 0.000000 0.000000 0.000000
# 3 -0.010866 -0.002285 0.015295 0.000000 0.000000 0.000000
# 4 0.000000 0.000000 0.000000 0.038900 0.000000 0.000000
# 5 0.000000 0.000000 0.000000 0.000000 0.038269 0.000000
# 6 0.000000 0.000000 0.000000 0.000000 0.000000 0.049752
#
#
# Mechanical properties :
#
#
# Convention : Reuss Voigt Hill
#
# Bulk Modulus (GPa) = 51.67080 57.72055 54.69568
# Shear Modulus (GPa) = 23.29910 26.34543 24.82226
#
# Velocity S-wave (km/s) = 3.55388 3.77908 3.66821
# Velocity P-wave (km/s) = 6.69701 7.09445 6.89860
#
# Compressibility (1/GPa) = 0.01935329
#
# Stress axis : x y z
#
# Youngs Moduli (GPa) = 38.55712 110.37255 65.38200
#
# Poissons Ratio (x) = 0.25579 0.71045
# Poissons Ratio (y) = 0.08936 0.14939
# Poissons Ratio (z) = 0.41897 0.25219
#
# Static dielectric constant tensor:
#      x y z
#    x 3.130680 0.000000 0.000000 
#    y 0.000000 3.739460 0.000000 
#    z 0.000000 0.000000 3.400260 
# 
# 
# High freq. dielectric constant tensor:
#      x y z
#    x 1.694070 0.000000 0.000000 
#    y 0.000000 1.742350 0.000000 
#    z 0.000000 0.000000 1.711600 
# 
# From -- ./inp_files/15562.got.cif
#   From: 2010.06.25/outbox.cif.g09.slc.cpg/sg58_8_cif.got.tgz:15562.got - 2010.06.26 21:38:00.
