data_PCOD8236482
_publ_section_title
;
Structure prediction by ZEFSAII (Michael W. Deem and Ramdas Pophale) SiO2 
 PCOD8236482
Probable space group: P N N M
;
_chemical_formula_sum "Si O2"
_cell_formula_units_Z 64
_cell_length_a 12.700440
_cell_length_b 28.511369
_cell_length_c 8.656518
_cell_angle_alpha 90.000000
_cell_angle_beta 90.000000
_cell_angle_gamma 90.000000
_cell_volume 3134.585169
_symmetry_space_group_name_H-M "P N N M"
_symmetry_group_IT_number 58
_symmetry_cell_setting 'orthorhombic'
loop_
_space_group_symop_operation_xyz
x,y,z
-x,-y,z
1/2+x,1/2-y,1/2-z
1/2-x,1/2+y,1/2-z
-x,-y,-z
x,y,-z
1/2-x,1/2+y,1/2+z
1/2+x,1/2-y,1/2+z
loop_
_atom_site_type_symbol
_atom_site_label
_atom_site_fract_x
_atom_site_fract_y
_atom_site_fract_z
Si Si1 0.941477 0.410524 0.819898
Si Si2 0.129449 0.092582 0.322784
Si Si3 0.004078 0.823356 0.681070
Si Si4 0.799605 0.344330 0.677087
Si Si5 0.768000 0.476201 0.321966
Si Si6 0.170054 0.242372 0.822738
Si Si7 0.272200 0.327293 0.320041
Si Si8 0.662888 0.077475 0.820923
O O1 0.916308 0.361359 0.728026
O O2 0.860547 0.451694 0.774818
O O3 0.057621 0.427187 0.777722
O O4 0.934547 0.400570 0.000000
O O5 0.122709 0.077445 0.500000
O O6 0.226241 0.127664 0.295683
O O7 0.153000 0.045274 0.224615
O O8 0.026415 0.122650 0.272512
O O9 0.985151 0.815398 0.500000
O O10 0.124511 0.814981 0.722871
O O11 0.932889 0.786138 0.772030
O O12 0.776662 0.359131 0.500000
O O13 0.776363 0.289204 0.697697
O O14 0.790886 0.465854 0.500000
O O15 0.766290 0.531603 0.287956
O O16 0.183736 0.288580 0.719175
O O17 0.155410 0.257387 0.000000
O O18 0.299642 0.326515 0.500000
O O19 0.229724 0.377760 0.267130
O O20 0.631492 0.081592 0.000000
#
# Coordination Sequence:
#
# PCOD8236482 Si02
#       8
#     8   8   8   8   8   8   8   8
#     4  11  21  32  53  84 114 145 182 227 279 331
#     4   9  17  31  54  83 111 138 175 224 272 321
#     4  10  21  39  62  86 114 147 182 224 277 333
#     4   9  17  31  53  80 110 143 179 221 268 324
#     4  10  19  34  57  81 109 146 186 228 273 327
#     4  10  21  38  61  87 113 145 186 229 277 332
#     4  11  24  41  60  82 112 149 189 233 278 326
#     4  10  23  40  54  74 108 150 191 229 275 330
#
# _framework density 20.417373999999999
#
# number of rings (size 3 to 8) (size 9 to 14) (size 15 to 20)
#    0.000    2.000    0.000    5.250    0.000    7.500 
#    0.000    1.875    0.000    3.750    0.000    0.000 
#    0.000    0.000    0.000    0.000    0.000    0.000 
#
# Total GULP energy -793403.389448 kJ/mol
# GULP energy per Si atom -12396.927960 kJ/mol
# Density = 2.037090 g / cm^3
# Si number density = 20.417374 Si / 1000 Ang^3
#
#
#
# Elastic Constant Matrix: (Units=GPa)
#
#
# Indices 1 2 3 4 5 6 
#
# 1 55.5223 35.0328 15.2461 0.0000 0.0000 0.0000
# 2 35.0328 126.8051 34.6109 0.0000 0.0000 0.0000
# 3 15.2461 34.6109 66.3454 0.0000 0.0000 0.0000
# 4 0.0000 0.0000 0.0000 27.4622 0.0000 0.0000
# 5 0.0000 0.0000 0.0000 0.0000 17.8004 0.0000
# 6 0.0000 0.0000 0.0000 0.0000 0.0000 25.9871
#
#
#
# Elastic Compliance Matrix: (Units=1/GPa)
#
#
# Indices 1 2 3 4 5 6 
#
# 1 0.022087 -0.005500 -0.002206 0.000000 0.000000 0.000000
# 2 -0.005500 0.010565 -0.004248 0.000000 0.000000 0.000000
# 3 -0.002206 -0.004248 0.017796 0.000000 0.000000 0.000000
# 4 0.000000 0.000000 0.000000 0.036414 0.000000 0.000000
# 5 0.000000 0.000000 0.000000 0.000000 0.056178 0.000000
# 6 0.000000 0.000000 0.000000 0.000000 0.000000 0.038481
#
#
# Mechanical properties :
#
#
# Convention : Reuss Voigt Hill
#
# Bulk Modulus (GPa) = 37.67946 46.49471 42.08708
# Shear Modulus (GPa) = 23.33457 25.16881 24.25169
#
# Velocity S-wave (km/s) = 3.38432 3.51481 3.45018
# Velocity P-wave (km/s) = 5.81086 6.26845 6.04399
#
# Compressibility (1/GPa) = 0.02653966
#
# Stress axis : x y z
#
# Youngs Moduli (GPa) = 45.27587 94.65277 56.19371
#
# Poissons Ratio (x) = 0.52057 0.12399
# Poissons Ratio (y) = 0.24901 0.23869
# Poissons Ratio (z) = 0.09990 0.40205
#
# Static dielectric constant tensor:
#      x y z
#    x 3.533070 0.000000 0.000000 
#    y 0.000000 3.912470 0.000000 
#    z 0.000000 0.000000 3.645330 
# 
# 
# High freq. dielectric constant tensor:
#      x y z
#    x 1.772310 0.000000 0.000000 
#    y 0.000000 1.798120 0.000000 
#    z 0.000000 0.000000 1.804470 
# 
# From -- ./inp_files/4809.got.cif
#   From: 2010.06.25/outbox.cif.g09.slc.cpg/sg58_3_cif.got.tgz:4809.got - 2010.06.26 21:38:00.
