data_PCOD8236032
_publ_section_title
;
Structure prediction by ZEFSAII (Michael W. Deem and Ramdas Pophale) SiO2 
 PCOD8236032
Probable space group: P N N M
;
_chemical_formula_sum "Si O2"
_cell_formula_units_Z 40
_cell_length_a 8.132285
_cell_length_b 8.127634
_cell_length_c 27.732792
_cell_angle_alpha 90.000000
_cell_angle_beta 90.000000
_cell_angle_gamma 90.000000
_cell_volume 1833.033167
_symmetry_space_group_name_H-M "P N N M"
_symmetry_group_IT_number 58
_symmetry_cell_setting 'orthorhombic'
loop_
_space_group_symop_operation_xyz
x,y,z
-x,-y,z
1/2+x,1/2-y,1/2-z
1/2-x,1/2+y,1/2-z
-x,-y,-z
x,y,-z
1/2-x,1/2+y,1/2+z
1/2+x,1/2-y,1/2+z
loop_
_atom_site_type_symbol
_atom_site_label
_atom_site_fract_x
_atom_site_fract_y
_atom_site_fract_z
Si Si1 0.388962 0.744639 0.000000
Si Si2 0.750607 0.395480 0.219958
Si Si3 0.753692 0.236858 0.399675
Si Si4 0.000000 0.500000 0.574038
Si Si5 0.000000 0.000000 0.351378
Si Si6 0.743776 0.598977 0.000000
Si Si7 0.584238 0.237860 0.303371
O O1 0.388845 0.866870 0.045398
O O2 0.555346 0.644467 0.000000
O O3 0.243370 0.603643 0.000000
O O4 0.600211 0.371813 0.182343
O O5 0.677327 0.380629 0.273903
O O6 0.830386 0.573051 0.215423
O O7 0.890503 0.260118 0.208157
O O8 0.677205 0.185591 0.452070
O O9 0.607446 0.258047 0.360966
O O10 0.860632 0.403584 0.396525
O O11 0.872653 0.088261 0.385976
#
# Coordination Sequence:
#
# PCOD8236032 Si02
#       7
#     4   8   8   4   4   4   8
#     4   8  14  26  46  72 105 145 186 241 287 331
#     4  10  21  38  57  82 115 148 189 237 284 342
#     4  10  19  31  52  82 114 151 190 235 285 338
#     4   9  16  26  44  76 110 138 188 238 284 333
#     4  10  20  35  56  78 110 145 184 228 286 352
#     4   9  16  30  50  75 113 151 192 233 279 338
#     4  10  21  36  57  82 115 152 190 234 288 342
#
# _framework density 21.821753999999999
#
# number of rings (size 3 to 8) (size 9 to 14) (size 15 to 20)
#    0.000    2.400    0.000    5.400    0.000    3.200 
#    0.000    0.000    0.000   10.800    0.000    0.000 
#    0.000   58.400    0.000    0.000    0.000    0.500 
#
# Total GULP energy -495607.456493 kJ/mol
# GULP energy per Si atom -12390.186412 kJ/mol
# Density = 2.177209 g / cm^3
# Si number density = 21.821754 Si / 1000 Ang^3
#
#
#
# Elastic Constant Matrix: (Units=GPa)
#
#
# Indices 1 2 3 4 5 6 
#
# 1 76.0606 7.2669 44.6325 0.0000 0.0000 0.0000
# 2 7.2669 77.4267 31.0688 0.0000 0.0000 0.0000
# 3 44.6325 31.0688 160.9758 0.0000 0.0000 0.0000
# 4 0.0000 0.0000 0.0000 36.1691 0.0000 0.0000
# 5 0.0000 0.0000 0.0000 0.0000 14.3794 0.0000
# 6 0.0000 0.0000 0.0000 0.0000 0.0000 15.2876
#
#
#
# Elastic Compliance Matrix: (Units=1/GPa)
#
#
# Indices 1 2 3 4 5 6 
#
# 1 0.015708 0.000296 -0.004413 0.000000 0.000000 0.000000
# 2 0.000296 0.014005 -0.002785 0.000000 0.000000 0.000000
# 3 -0.004413 -0.002785 0.007973 0.000000 0.000000 0.000000
# 4 0.000000 0.000000 0.000000 0.027648 0.000000 0.000000
# 5 0.000000 0.000000 0.000000 0.000000 0.069544 0.000000
# 6 0.000000 0.000000 0.000000 0.000000 0.000000 0.065412
#
#
# Mechanical properties :
#
#
# Convention : Reuss Voigt Hill
#
# Bulk Modulus (GPa) = 41.86931 53.37772 47.62351
# Shear Modulus (GPa) = 22.51694 28.60022 25.55858
#
# Velocity S-wave (km/s) = 3.21574 3.62419 3.42606
# Velocity P-wave (km/s) = 5.74601 6.48281 6.12550
#
# Compressibility (1/GPa) = 0.02388384
#
# Stress axis : x y z
#
# Youngs Moduli (GPa) = 63.66023 71.40184 125.42177
#
# Poissons Ratio (x) = -0.02116 0.55343
# Poissons Ratio (y) = -0.01886 0.34933
# Poissons Ratio (z) = 0.28090 0.19887
#
# Static dielectric constant tensor:
#      x y z
#    x 3.784140 0.000000 0.000000 
#    y 0.000000 4.221540 0.000000 
#    z 0.000000 0.000000 4.625310 
# 
# 
# High freq. dielectric constant tensor:
#      x y z
#    x 1.823510 0.000000 0.000000 
#    y 0.000000 1.854630 0.000000 
#    z 0.000000 0.000000 1.860550 
# 
# From -- ./inp_files/33208.got.cif
#   From: 2010.06.25/outbox.cif.g09.slc.cpg/sg58_17_cif.got.tgz:33208.got - 2010.06.26 21:38:00.
