data_PCOD8236403
_publ_section_title
;
Structure prediction by ZEFSAII (Michael W. Deem and Ramdas Pophale) SiO2 
 PCOD8236403
Probable space group: P N N M
;
_chemical_formula_sum "Si O2"
_cell_formula_units_Z 64
_cell_length_a 23.638150
_cell_length_b 15.184425
_cell_length_c 8.889192
_cell_angle_alpha 90.000000
_cell_angle_beta 90.000000
_cell_angle_gamma 90.000000
_cell_volume 3190.612937
_symmetry_space_group_name_H-M "P N N M"
_symmetry_group_IT_number 58
_symmetry_cell_setting 'orthorhombic'
loop_
_space_group_symop_operation_xyz
x,y,z
-x,-y,z
1/2+x,1/2-y,1/2-z
1/2-x,1/2+y,1/2-z
-x,-y,-z
x,y,-z
1/2-x,1/2+y,1/2+z
1/2+x,1/2-y,1/2+z
loop_
_atom_site_type_symbol
_atom_site_label
_atom_site_fract_x
_atom_site_fract_y
_atom_site_fract_z
Si Si1 0.744122 0.240180 0.322725
Si Si2 0.040269 0.422663 0.179498
Si Si3 0.248971 0.074842 0.331042
Si Si4 0.669290 0.075885 0.679493
Si Si5 0.521836 0.752436 0.677675
Si Si6 0.540233 0.417156 0.327976
Si Si7 0.640499 0.690091 0.324872
Si Si8 0.631035 0.513830 0.831380
O O1 0.739014 0.244414 0.500000
O O2 0.732952 0.338187 0.261732
O O3 0.700061 0.165794 0.260627
O O4 0.807295 0.214355 0.278697
O O5 0.104756 0.428186 0.239907
O O6 0.000000 0.500000 0.240616
O O7 0.010987 0.335420 0.245701
O O8 0.041450 0.423027 0.000000
O O9 0.264650 0.105713 0.500000
O O10 0.299738 0.014043 0.263169
O O11 0.196554 0.009288 0.332024
O O12 0.671809 0.076900 0.500000
O O13 0.515050 0.749894 0.500000
O O14 0.492440 0.665493 0.743591
O O15 0.588742 0.755870 0.715410
O O16 0.500000 0.500000 0.313405
O O17 0.558797 0.400476 0.500000
O O18 0.595874 0.430235 0.227299
O O19 0.657042 0.695498 0.500000
O O20 0.619557 0.592284 0.285635
O O21 0.611894 0.540247 0.000000
#
# Coordination Sequence:
#
# PCOD8236403 Si02
#       8
#     8   8   8   8   8   8   8   8
#     4  11  23  39  59  89 120 153 196 243 295 353
#     4   9  18  32  54  82 110 145 190 238 291 341
#     4  10  22  40  59  82 116 156 193 238 299 358
#     4   9  19  37  57  83 121 151 183 244 300 342
#     4   9  19  33  52  83 116 148 192 241 285 345
#     4  10  19  34  53  80 118 154 191 234 284 349
#     4  11  21  37  60  85 117 154 193 241 299 353
#     4  11  22  37  56  83 120 154 194 242 292 355
#
# _framework density 20.058843
#
# number of rings (size 3 to 8) (size 9 to 14) (size 15 to 20)
#    0.000    2.000    2.500    1.125    3.500    1.250 
#    0.000    0.000    0.000    0.000    0.000    0.875 
#    0.000    0.000    0.000    0.000    0.000    0.000 
#
# Total GULP energy -793380.647717 kJ/mol
# GULP energy per Si atom -12396.572621 kJ/mol
# Density = 2.001319 g / cm^3
# Si number density = 20.058843 Si / 1000 Ang^3
#
#
#
# Elastic Constant Matrix: (Units=GPa)
#
#
# Indices 1 2 3 4 5 6 
#
# 1 135.1737 54.8001 20.7987 0.0000 0.0000 0.0000
# 2 54.8001 126.4179 20.5980 0.0000 0.0000 0.0000
# 3 20.7987 20.5980 40.2212 0.0000 0.0000 0.0000
# 4 0.0000 0.0000 0.0000 20.5310 0.0000 0.0000
# 5 0.0000 0.0000 0.0000 0.0000 25.0671 0.0000
# 6 0.0000 0.0000 0.0000 0.0000 0.0000 36.2420
#
#
#
# Elastic Compliance Matrix: (Units=1/GPa)
#
#
# Indices 1 2 3 4 5 6 
#
# 1 0.009294 -0.003541 -0.002992 0.000000 0.000000 0.000000
# 2 -0.003541 0.009980 -0.003280 0.000000 0.000000 0.000000
# 3 -0.002992 -0.003280 0.028089 0.000000 0.000000 0.000000
# 4 0.000000 0.000000 0.000000 0.048707 0.000000 0.000000
# 5 0.000000 0.000000 0.000000 0.000000 0.039893 0.000000
# 6 0.000000 0.000000 0.000000 0.000000 0.000000 0.027592
#
#
# Mechanical properties :
#
#
# Convention : Reuss Voigt Hill
#
# Bulk Modulus (GPa) = 36.05346 54.91182 45.48264
# Shear Modulus (GPa) = 25.98385 30.07575 28.02980
#
# Velocity S-wave (km/s) = 3.60304 3.87638 3.74221
# Velocity P-wave (km/s) = 5.94324 6.88984 6.43397
#
# Compressibility (1/GPa) = 0.02773659
#
# Stress axis : x y z
#
# Youngs Moduli (GPa) = 107.59688 100.20357 35.60054
#
# Poissons Ratio (x) = 0.35484 0.10653
# Poissons Ratio (y) = 0.38102 0.11675
# Poissons Ratio (z) = 0.32198 0.32863
#
# Static dielectric constant tensor:
#      x y z
#    x 3.810890 0.000000 0.000000 
#    y 0.000000 3.901440 0.000000 
#    z 0.000000 0.000000 3.263410 
# 
# 
# High freq. dielectric constant tensor:
#      x y z
#    x 1.795770 0.000000 0.000000 
#    y 0.000000 1.789170 0.000000 
#    z 0.000000 0.000000 1.734940 
# 
# From -- ./inp_files/9968.got.cif
#   From: 2010.06.25/outbox.cif.g09.slc.cpg/sg58_5_cif.got.tgz:9968.got - 2010.06.26 21:38:00.
