data_PCOD8236834
_publ_section_title
;
Structure prediction by ZEFSAII (Michael W. Deem and Ramdas Pophale) SiO2 
 PCOD8236834
Probable space group: P N N M
;
_chemical_formula_sum "Si O2"
_cell_formula_units_Z 40
_cell_length_a 4.930675
_cell_length_b 25.668664
_cell_length_c 14.027365
_cell_angle_alpha 90.000000
_cell_angle_beta 90.000000
_cell_angle_gamma 90.000000
_cell_volume 1775.357178
_symmetry_space_group_name_H-M "P N N M"
_symmetry_group_IT_number 58
_symmetry_cell_setting 'orthorhombic'
loop_
_space_group_symop_operation_xyz
x,y,z
-x,-y,z
1/2+x,1/2-y,1/2-z
1/2-x,1/2+y,1/2-z
-x,-y,-z
x,y,-z
1/2-x,1/2+y,1/2+z
1/2+x,1/2-y,1/2+z
loop_
_atom_site_type_symbol
_atom_site_label
_atom_site_fract_x
_atom_site_fract_y
_atom_site_fract_z
Si Si1 0.957284 0.217100 0.236067
Si Si2 0.580787 0.618803 0.387807
Si Si3 0.598681 0.645293 0.101564
Si Si4 0.577754 0.944001 0.813656
Si Si5 0.597390 0.922538 0.395262
O O1 0.748190 0.264664 0.222273
O O2 0.988289 0.178066 0.145832
O O3 0.809834 0.185582 0.319689
O O4 0.643031 0.620258 0.500000
O O5 0.337805 0.579076 0.366795
O O6 0.838891 0.597759 0.329365
O O7 0.288315 0.627850 0.115579
O O8 0.785013 0.594193 0.105696
O O9 0.633861 0.673660 0.000000
O O10 0.643364 0.955752 0.701113
O O11 0.500000 0.000000 0.859451
O O12 0.658014 0.950062 0.500000
#
# Coordination Sequence:
#
# PCOD8236834 Si02
#       5
#     8   8   8   8   8
#     4  12  24  40  67  94 127 167 216 270 332 399
#     4  12  27  47  67  96 138 177 224 281 330 383
#     4  10  20  37  62  88 122 162 204 255 318 388
#     4  12  24  43  71  99 133 178 226 275 332 396
#     4  10  19  37  64  93 126 165 204 257 327 384
#
# _framework density 22.530676
#
# number of rings (size 3 to 8) (size 9 to 14) (size 15 to 20)
#    0.000    0.800    4.000    3.600    0.000    4.400 
#    0.000    0.000    0.000    6.000    0.000    0.000 
#    0.000    0.000    0.000    0.000    0.000    0.000 
#
# Total GULP energy -495657.583610 kJ/mol
# GULP energy per Si atom -12391.439590 kJ/mol
# Density = 2.247940 g / cm^3
# Si number density = 22.530676 Si / 1000 Ang^3
#
#
#
# Elastic Constant Matrix: (Units=GPa)
#
#
# Indices 1 2 3 4 5 6 
#
# 1 88.6182 4.3131 4.5854 0.0000 0.0000 0.0000
# 2 4.3131 68.8518 21.6735 0.0000 0.0000 0.0000
# 3 4.5854 21.6735 111.3943 0.0000 0.0000 0.0000
# 4 0.0000 0.0000 0.0000 6.9281 0.0000 0.0000
# 5 0.0000 0.0000 0.0000 0.0000 29.2821 0.0000
# 6 0.0000 0.0000 0.0000 0.0000 0.0000 28.0279
#
#
#
# Elastic Compliance Matrix: (Units=1/GPa)
#
#
# Indices 1 2 3 4 5 6 
#
# 1 0.011332 -0.000600 -0.000350 0.000000 0.000000 0.000000
# 2 -0.000600 0.015503 -0.002992 0.000000 0.000000 0.000000
# 3 -0.000350 -0.002992 0.009574 0.000000 0.000000 0.000000
# 4 0.000000 0.000000 0.000000 0.144339 0.000000 0.000000
# 5 0.000000 0.000000 0.000000 0.000000 0.034151 0.000000
# 6 0.000000 0.000000 0.000000 0.000000 0.000000 0.035679
#
#
# Mechanical properties :
#
#
# Convention : Reuss Voigt Hill
#
# Bulk Modulus (GPa) = 35.05567 36.66761 35.86164
# Shear Modulus (GPa) = 18.65895 28.73379 23.69637
#
# Velocity S-wave (km/s) = 2.88089 3.57503 3.24657
# Velocity P-wave (km/s) = 5.16323 5.77503 5.47768
#
# Compressibility (1/GPa) = 0.02852605
#
# Stress axis : x y z
#
# Youngs Moduli (GPa) = 88.24837 64.50257 104.45395
#
# Poissons Ratio (x) = 0.03869 0.03653
# Poissons Ratio (y) = 0.05293 0.31250
# Poissons Ratio (z) = 0.03087 0.19297
#
# Static dielectric constant tensor:
#      x y z
#    x 4.161570 0.000000 0.000000 
#    y 0.000000 3.885060 0.000000 
#    z 0.000000 0.000000 4.297070 
# 
# 
# High freq. dielectric constant tensor:
#      x y z
#    x 1.901210 0.000000 0.000000 
#    y 0.000000 1.861790 0.000000 
#    z 0.000000 0.000000 1.898980 
# 
# From -- ./inp_files/18517.got.cif
#   From: 2010.06.25/outbox.cif.g09.slc.cpg/sg58_10_cif.got.tgz:18517.got - 2010.06.26 21:38:00.
