data_PCOD8236098
_publ_section_title
;
Structure prediction by ZEFSAII (Michael W. Deem and Ramdas Pophale) SiO2 
 PCOD8236098
Probable space group: P N N M
;
_chemical_formula_sum "Si O2"
_cell_formula_units_Z 64
_cell_length_a 14.232173
_cell_length_b 28.428089
_cell_length_c 8.491185
_cell_angle_alpha 90.000000
_cell_angle_beta 90.000000
_cell_angle_gamma 90.000000
_cell_volume 3435.478094
_symmetry_space_group_name_H-M "P N N M"
_symmetry_group_IT_number 58
_symmetry_cell_setting 'orthorhombic'
loop_
_space_group_symop_operation_xyz
x,y,z
-x,-y,z
1/2+x,1/2-y,1/2-z
1/2-x,1/2+y,1/2-z
-x,-y,-z
x,y,-z
1/2-x,1/2+y,1/2+z
1/2+x,1/2-y,1/2+z
loop_
_atom_site_type_symbol
_atom_site_label
_atom_site_fract_x
_atom_site_fract_y
_atom_site_fract_z
Si Si1 0.257818 0.946550 0.815001
Si Si2 0.606829 0.877562 0.315294
Si Si3 0.890812 0.121396 0.685927
Si Si4 0.245637 0.804174 0.185686
Si Si5 0.746088 0.446400 0.315933
Si Si6 0.746773 0.300998 0.814867
Si Si7 0.397540 0.623925 0.813941
Si Si8 0.892957 0.627562 0.184700
O O1 0.159564 0.921751 0.773212
O O2 0.343004 0.921726 0.722902
O O3 0.254149 0.000104 0.757384
O O4 0.276938 0.942160 0.000000
O O5 0.614274 0.888167 0.500000
O O6 0.657372 0.920168 0.226066
O O7 0.656771 0.828119 0.273245
O O8 0.500044 0.874834 0.257164
O O9 0.887292 0.112578 0.500000
O O10 0.839840 0.170265 0.726155
O O11 0.996834 0.123752 0.752270
O O12 0.250858 0.751387 0.256201
O O13 0.343481 0.830126 0.221687
O O14 0.226020 0.804913 0.000000
O O15 0.727904 0.444098 0.500000
O O16 0.656012 0.423685 0.232034
O O17 0.659203 0.330982 0.744654
O O18 0.733459 0.296604 0.000000
O O19 0.399628 0.627361 0.000000
O O20 0.886150 0.638097 0.000000
#
# Coordination Sequence:
#
# PCOD8236098 Si02
#       8
#     8   8   8   8   8   8   8   8
#     4  10  21  36  52  73 104 136 164 204 256 301
#     4   9  19  36  55  74 101 135 168 206 250 296
#     4  10  20  34  53  76 101 132 171 210 247 293
#     4  10  19  32  52  75 102 136 168 204 252 299
#     4  10  21  35  53  77 102 130 166 208 252 299
#     4   8  16  33  53  73 100 134 168 202 248 301
#     4   9  19  36  55  74 101 135 168 206 250 296
#     4  10  20  34  53  76 101 132 171 210 247 293
#
# _framework density 18.62914
#
# number of rings (size 3 to 8) (size 9 to 14) (size 15 to 20)
#    0.000    2.500    0.000    4.125    0.000    6.000 
#    0.000   10.000    0.000    0.000    0.000    0.000 
#    0.000    0.000    0.000    0.000    0.000    0.000 
#
# Total GULP energy -793618.876843 kJ/mol
# GULP energy per Si atom -12400.294951 kJ/mol
# Density = 1.858674 g / cm^3
# Si number density = 18.629140 Si / 1000 Ang^3
#
#
#
# Elastic Constant Matrix: (Units=GPa)
#
#
# Indices 1 2 3 4 5 6 
#
# 1 161.3349 62.0571 4.6455 0.0000 0.0000 0.0000
# 2 62.0571 158.0873 3.9725 0.0000 0.0000 0.0000
# 3 4.6455 3.9725 17.7876 0.0000 0.0000 0.0000
# 4 0.0000 0.0000 0.0000 26.3587 0.0000 0.0000
# 5 0.0000 0.0000 0.0000 0.0000 17.3196 0.0000
# 6 0.0000 0.0000 0.0000 0.0000 0.0000 11.2916
#
#
#
# Elastic Compliance Matrix: (Units=1/GPa)
#
#
# Indices 1 2 3 4 5 6 
#
# 1 0.007329 -0.002845 -0.001279 0.000000 0.000000 0.000000
# 2 -0.002845 0.007466 -0.000924 0.000000 0.000000 0.000000
# 3 -0.001279 -0.000924 0.056759 0.000000 0.000000 0.000000
# 4 0.000000 0.000000 0.000000 0.037938 0.000000 0.000000
# 5 0.000000 0.000000 0.000000 0.000000 0.057738 0.000000
# 6 0.000000 0.000000 0.000000 0.000000 0.000000 0.088562
#
#
# Mechanical properties :
#
#
# Convention : Reuss Voigt Hill
#
# Bulk Modulus (GPa) = 16.27126 53.17335 34.72231
# Shear Modulus (GPa) = 17.45966 28.76296 23.11131
#
# Velocity S-wave (km/s) = 3.06473 3.93361 3.52604
# Velocity P-wave (km/s) = 4.61267 7.01685 5.93771
#
# Compressibility (1/GPa) = 0.06145806
#
# Stress axis : x y z
#
# Youngs Moduli (GPa) = 136.43597 133.94657 17.61828
#
# Poissons Ratio (x) = 0.38108 0.02253
# Poissons Ratio (y) = 0.38817 0.01628
# Poissons Ratio (z) = 0.17448 0.12381
#
# Static dielectric constant tensor:
#      x y z
#    x 3.611490 0.000000 0.000000 
#    y 0.000000 3.614520 0.000000 
#    z 0.000000 0.000000 3.260740 
# 
# 
# High freq. dielectric constant tensor:
#      x y z
#    x 1.726100 0.000000 0.000000 
#    y 0.000000 1.725780 0.000000 
#    z 0.000000 0.000000 1.714150 
# 
# From -- ./inp_files/7176.got.cif
#   From: 2010.06.25/outbox.cif.g09.slc.cpg/sg58_4_cif.got.tgz:7176.got - 2010.06.26 21:38:00.
