data_PCOD8236140
_publ_section_title
;
Structure prediction by ZEFSAII (Michael W. Deem and Ramdas Pophale) SiO2 
 PCOD8236140
Probable space group: P N N M
;
_chemical_formula_sum "Si O2"
_cell_formula_units_Z 56
_cell_length_a 14.321136
_cell_length_b 22.620703
_cell_length_c 8.868688
_cell_angle_alpha 90.000000
_cell_angle_beta 90.000000
_cell_angle_gamma 90.000000
_cell_volume 2873.048408
_symmetry_space_group_name_H-M "P N N M"
_symmetry_group_IT_number 58
_symmetry_cell_setting 'orthorhombic'
loop_
_space_group_symop_operation_xyz
x,y,z
-x,-y,z
1/2+x,1/2-y,1/2-z
1/2-x,1/2+y,1/2-z
-x,-y,-z
x,y,-z
1/2-x,1/2+y,1/2+z
1/2+x,1/2-y,1/2+z
loop_
_atom_site_type_symbol
_atom_site_label
_atom_site_fract_x
_atom_site_fract_y
_atom_site_fract_z
Si Si1 0.390431 0.220474 0.327475
Si Si2 0.295188 0.114641 0.825742
Si Si3 0.786505 0.607923 0.176656
Si Si4 0.091362 0.845652 0.675878
Si Si5 0.897529 0.716956 0.171467
Si Si6 0.605868 0.994794 0.321091
Si Si7 0.405463 0.652180 0.323956
O O1 0.355694 0.219758 0.500000
O O2 0.325197 0.179582 0.226158
O O3 0.384286 0.286397 0.265002
O O4 0.495605 0.195842 0.316502
O O5 0.183423 0.109906 0.798647
O O6 0.348379 0.065906 0.730744
O O7 0.319967 0.106323 0.000000
O O8 0.675390 0.608034 0.206546
O O9 0.833724 0.666700 0.250801
O O10 0.833042 0.549007 0.246389
O O11 0.809713 0.608394 0.000000
O O12 0.082043 0.831004 0.500000
O O13 0.995224 0.874580 0.737073
O O14 0.885120 0.782073 0.244688
O O15 0.863839 0.722960 0.000000
O O16 0.606683 0.994645 0.500000
O O17 0.500000 0.000000 0.260175
O O18 0.431773 0.657908 0.500000
#
# Coordination Sequence:
#
# PCOD8236140 Si02
#       7
#     8   8   8   8   8   8   8
#     4  10  19  32  53  81 112 145 178 214 264 327
#     4  11  22  36  55  78 106 142 183 229 274 312
#     4   9  17  31  52  77 104 136 174 216 265 317
#     4  10  19  32  53  81 110 139 175 221 268 317
#     4   8  14  28  51  76 102 134 171 209 254 313
#     4  10  21  38  59  80 104 139 180 219 265 325
#     4   9  19  35  53  75 106 142 178 220 272 324
#
# _framework density 19.491492000000001
#
# number of rings (size 3 to 8) (size 9 to 14) (size 15 to 20)
#    0.000    2.429    0.000    3.857    0.000    6.000 
#    0.000    2.143    0.000    9.429    0.000    0.000 
#    0.000    0.000    0.000    0.000    0.000    0.000 
#
# Total GULP energy -694266.337953 kJ/mol
# GULP energy per Si atom -12397.613178 kJ/mol
# Density = 1.944713 g / cm^3
# Si number density = 19.491492 Si / 1000 Ang^3
#
#
#
# Elastic Constant Matrix: (Units=GPa)
#
#
# Indices 1 2 3 4 5 6 
#
# 1 128.7892 50.1854 33.3557 0.0000 0.0000 0.0000
# 2 50.1854 60.7090 13.4838 0.0000 0.0000 0.0000
# 3 33.3557 13.4838 29.1242 0.0000 0.0000 0.0000
# 4 0.0000 0.0000 0.0000 18.0072 0.0000 0.0000
# 5 0.0000 0.0000 0.0000 0.0000 27.8972 0.0000
# 6 0.0000 0.0000 0.0000 0.0000 0.0000 33.3900
#
#
#
# Elastic Compliance Matrix: (Units=1/GPa)
#
#
# Indices 1 2 3 4 5 6 
#
# 1 0.014614 -0.009322 -0.012422 0.000000 0.000000 0.000000
# 2 -0.009322 0.024306 -0.000577 0.000000 0.000000 0.000000
# 3 -0.012422 -0.000577 0.048829 0.000000 0.000000 0.000000
# 4 0.000000 0.000000 0.000000 0.055533 0.000000 0.000000
# 5 0.000000 0.000000 0.000000 0.000000 0.035846 0.000000
# 6 0.000000 0.000000 0.000000 0.000000 0.000000 0.029949
#
#
# Mechanical properties :
#
#
# Convention : Reuss Voigt Hill
#
# Bulk Modulus (GPa) = 23.19721 45.85247 34.52484
# Shear Modulus (GPa) = 18.65056 23.96541 21.30798
#
# Velocity S-wave (km/s) = 3.09667 3.51027 3.30994
# Velocity P-wave (km/s) = 4.97120 6.32493 5.68848
#
# Compressibility (1/GPa) = 0.04310863
#
# Stress axis : x y z
#
# Youngs Moduli (GPa) = 68.42608 41.14175 20.47954
#
# Poissons Ratio (x) = 0.38352 0.25439
# Poissons Ratio (y) = 0.63787 0.01181
# Poissons Ratio (z) = 0.84997 0.02373
#
# Static dielectric constant tensor:
#      x y z
#    x 3.810330 0.000000 0.000000 
#    y 0.000000 3.437170 0.000000 
#    z 0.000000 0.000000 3.282900 
# 
# 
# High freq. dielectric constant tensor:
#      x y z
#    x 1.773230 0.000000 0.000000 
#    y 0.000000 1.738040 0.000000 
#    z 0.000000 0.000000 1.728960 
# 
# From -- ./inp_files/6308.got.cif
#   From: 2010.06.25/outbox.cif.g09.slc.cpg/sg58_4_cif.got.tgz:6308.got - 2010.06.26 21:38:00.
