data_PCOD8236693
_publ_section_title
;
Structure prediction by ZEFSAII (Michael W. Deem and Ramdas Pophale) SiO2 
 PCOD8236693
Probable space group: P N N M
;
_chemical_formula_sum "Si O2"
_cell_formula_units_Z 44
_cell_length_a 5.007523
_cell_length_b 31.698329
_cell_length_c 13.497723
_cell_angle_alpha 90.000000
_cell_angle_beta 90.000000
_cell_angle_gamma 90.000000
_cell_volume 2142.495077
_symmetry_space_group_name_H-M "P N N M"
_symmetry_group_IT_number 58
_symmetry_cell_setting 'orthorhombic'
loop_
_space_group_symop_operation_xyz
x,y,z
-x,-y,z
1/2+x,1/2-y,1/2-z
1/2-x,1/2+y,1/2-z
-x,-y,-z
x,y,-z
1/2-x,1/2+y,1/2+z
1/2+x,1/2-y,1/2+z
loop_
_atom_site_type_symbol
_atom_site_label
_atom_site_fract_x
_atom_site_fract_y
_atom_site_fract_z
Si Si1 0.182364 0.277622 0.235577
Si Si2 0.250064 0.529837 0.000000
Si Si3 0.147838 0.345889 0.606787
Si Si4 0.745927 0.645379 0.884725
Si Si5 0.147272 0.100015 0.109643
Si Si6 0.257789 0.094454 0.321894
O O1 0.384137 0.238865 0.246463
O O2 0.252394 0.311797 0.317550
O O3 0.214300 0.304132 0.133243
O O4 0.500000 0.500000 0.000000
O O5 0.251842 0.557364 0.098969
O O6 0.000000 0.500000 0.000000
O O7 0.181801 0.324340 0.500000
O O8 0.339012 0.386726 0.613798
O O9 0.840317 0.359362 0.620411
O O10 0.455608 0.630544 0.849388
O O11 0.957378 0.617967 0.821933
O O12 0.788873 0.635848 0.000000
O O13 0.207415 0.073874 0.211482
O O14 0.202522 0.078088 0.000000
#
# Coordination Sequence:
#
# PCOD8236693 Si02
#       6
#     8   4   8   8   8   8
#     4  12  24  36  54  79 120 159 206 266 318 367
#     4  12  26  42  66 104 136 160 198 254 334 384
#     4  10  20  35  55  78 111 146 202 254 309 350
#     4  12  23  40  62  90 116 168 220 257 310 382
#     4  10  19  35  62  91 110 151 206 257 285 354
#     4  12  21  41  68  90 127 164 205 258 306 384
#
# _framework density 20.536801000000001
#
# number of rings (size 3 to 8) (size 9 to 14) (size 15 to 20)
#    0.000    0.727    5.455    3.273    0.000    1.455 
#    0.000    0.000    0.000    1.091    0.000    0.000 
#    0.000    0.000    0.000    0.000    0.000    0.000 
#
# Total GULP energy -545308.238076 kJ/mol
# GULP energy per Si atom -12393.369047 kJ/mol
# Density = 2.049006 g / cm^3
# Si number density = 20.536801 Si / 1000 Ang^3
#
#
#
# Elastic Constant Matrix: (Units=GPa)
#
#
# Indices 1 2 3 4 5 6 
#
# 1 101.6649 22.3608 10.7159 0.0000 0.0000 0.0000
# 2 22.3608 70.5522 30.1350 0.0000 0.0000 0.0000
# 3 10.7159 30.1350 141.3530 0.0000 0.0000 0.0000
# 4 0.0000 0.0000 0.0000 30.9040 0.0000 0.0000
# 5 0.0000 0.0000 0.0000 0.0000 26.8215 0.0000
# 6 0.0000 0.0000 0.0000 0.0000 0.0000 26.4072
#
#
#
# Elastic Compliance Matrix: (Units=1/GPa)
#
#
# Indices 1 2 3 4 5 6 
#
# 1 0.010574 -0.003311 -0.000096 0.000000 0.000000 0.000000
# 2 -0.003311 0.016630 -0.003294 0.000000 0.000000 0.000000
# 3 -0.000096 -0.003294 0.007784 0.000000 0.000000 0.000000
# 4 0.000000 0.000000 0.000000 0.032358 0.000000 0.000000
# 5 0.000000 0.000000 0.000000 0.000000 0.037284 0.000000
# 6 0.000000 0.000000 0.000000 0.000000 0.000000 0.037868
#
#
# Mechanical properties :
#
#
# Convention : Reuss Voigt Hill
#
# Bulk Modulus (GPa) = 46.32375 48.88816 47.60595
# Shear Modulus (GPa) = 30.65670 33.51711 32.08690
#
# Velocity S-wave (km/s) = 3.86783 4.04425 3.95702
# Velocity P-wave (km/s) = 6.52321 6.75757 6.64142
#
# Compressibility (1/GPa) = 0.02158720
#
# Stress axis : x y z
#
# Youngs Moduli (GPa) = 94.56734 60.13124 128.46701
#
# Poissons Ratio (x) = 0.19907 0.01232
# Poissons Ratio (y) = 0.31307 0.42323
# Poissons Ratio (z) = 0.00907 0.19810
#
# Static dielectric constant tensor:
#      x y z
#    x 3.840170 0.000000 0.000000 
#    y 0.000000 3.335120 0.000000 
#    z 0.000000 0.000000 4.409160 
# 
# 
# High freq. dielectric constant tensor:
#      x y z
#    x 1.825400 0.000000 0.000000 
#    y 0.000000 1.740840 0.000000 
#    z 0.000000 0.000000 1.833480 
# 
# From -- ./inp_files/18554.got.cif
#   From: 2010.06.25/outbox.cif.g09.slc.cpg/sg58_10_cif.got.tgz:18554.got - 2010.06.26 21:38:00.
