data_PCOD8236961
_publ_section_title
;
Structure prediction by ZEFSAII (Michael W. Deem and Ramdas Pophale) SiO2 
 PCOD8236961
Probable space group: P N N M
;
_chemical_formula_sum "Si O2"
_cell_formula_units_Z 48
_cell_length_a 14.030465
_cell_length_b 13.460462
_cell_length_c 13.606285
_cell_angle_alpha 90.000000
_cell_angle_beta 90.000000
_cell_angle_gamma 90.000000
_cell_volume 2569.635921
_symmetry_space_group_name_H-M "P N N M"
_symmetry_group_IT_number 58
_symmetry_cell_setting 'orthorhombic'
loop_
_space_group_symop_operation_xyz
x,y,z
-x,-y,z
1/2+x,1/2-y,1/2-z
1/2-x,1/2+y,1/2-z
-x,-y,-z
x,y,-z
1/2-x,1/2+y,1/2+z
1/2+x,1/2-y,1/2+z
loop_
_atom_site_type_symbol
_atom_site_label
_atom_site_fract_x
_atom_site_fract_y
_atom_site_fract_z
Si Si1 0.927056 0.709194 0.613837
Si Si2 0.278844 0.941428 0.197422
Si Si3 0.921378 0.084738 0.893094
Si Si4 0.863036 0.367494 0.386216
Si Si5 0.292413 0.343498 0.890000
Si Si6 0.015390 0.883758 0.695286
O O1 0.914383 0.724661 0.500000
O O2 0.838606 0.647095 0.650948
O O3 0.028155 0.659323 0.640803
O O4 0.923704 0.819412 0.663481
O O5 0.181445 0.958900 0.137581
O O6 0.264027 0.910696 0.311452
O O7 0.335272 0.044625 0.188285
O O8 0.951697 0.157608 0.803542
O O9 0.913402 0.138911 0.000000
O O10 0.000000 0.000000 0.903823
O O11 0.857583 0.403220 0.500000
O O12 0.790068 0.275379 0.368861
O O13 0.404142 0.370203 0.887208
O O14 0.253613 0.366416 0.000000
O O15 0.000000 0.000000 0.706619
#
# Coordination Sequence:
#
# PCOD8236961 Si02
#       6
#     8   8   8   8   8   8
#     4  10  20  33  52  80 107 133 177 233 278 317
#     4  11  20  32  56  82 105 135 181 227 268 315
#     4   9  18  32  50  75 106 137 171 212 262 321
#     4   9  18  35  56  77 104 136 172 221 277 323
#     4   9  20  35  50  73 106 141 175 213 264 328
#     4   9  18  33  52  73 101 139 179 221 271 323
#
# _framework density 18.679690000000001
#
# number of rings (size 3 to 8) (size 9 to 14) (size 15 to 20)
#    0.000    2.500    0.000    3.500    0.000    6.667 
#    0.000    2.500    0.000   12.000    0.000    0.000 
#    0.000    0.000    0.000    0.000    0.000    0.000 
#
# Total GULP energy -594659.076334 kJ/mol
# GULP energy per Si atom -12388.730757 kJ/mol
# Density = 1.863717 g / cm^3
# Si number density = 18.679690 Si / 1000 Ang^3
#
#
#
# Elastic Constant Matrix: (Units=GPa)
#
#
# Indices 1 2 3 4 5 6 
#
# 1 71.3470 28.7559 38.7958 0.0000 0.0000 0.0000
# 2 28.7559 94.0173 54.2679 0.0000 0.0000 0.0000
# 3 38.7958 54.2679 132.4457 0.0000 0.0000 0.0000
# 4 0.0000 0.0000 0.0000 28.0384 0.0000 0.0000
# 5 0.0000 0.0000 0.0000 0.0000 24.7000 0.0000
# 6 0.0000 0.0000 0.0000 0.0000 0.0000 24.7910
#
#
#
# Elastic Compliance Matrix: (Units=1/GPa)
#
#
# Indices 1 2 3 4 5 6 
#
# 1 0.017337 -0.003106 -0.003806 0.000000 0.000000 0.000000
# 2 -0.003106 0.014488 -0.005026 0.000000 0.000000 0.000000
# 3 -0.003806 -0.005026 0.010725 0.000000 0.000000 0.000000
# 4 0.000000 0.000000 0.000000 0.035665 0.000000 0.000000
# 5 0.000000 0.000000 0.000000 0.000000 0.040486 0.000000
# 6 0.000000 0.000000 0.000000 0.000000 0.000000 0.040337
#
#
# Mechanical properties :
#
#
# Convention : Reuss Voigt Hill
#
# Bulk Modulus (GPa) = 53.55261 60.16105 56.85683
# Shear Modulus (GPa) = 26.43568 27.23858 26.83713
#
# Velocity S-wave (km/s) = 3.76601 3.82277 3.79450
# Velocity P-wave (km/s) = 6.90229 7.19454 7.04993
#
# Compressibility (1/GPa) = 0.01867323
#
# Stress axis : x y z
#
# Youngs Moduli (GPa) = 57.67915 69.02464 93.24443
#
# Poissons Ratio (x) = 0.21439 0.35487
# Poissons Ratio (y) = 0.17915 0.46867
# Poissons Ratio (z) = 0.21951 0.34694
#
# Static dielectric constant tensor:
#      x y z
#    x 3.418860 0.000000 0.000000 
#    y 0.000000 3.418910 0.000000 
#    z 0.000000 0.000000 3.877240 
# 
# 
# High freq. dielectric constant tensor:
#      x y z
#    x 1.710920 0.000000 0.000000 
#    y 0.000000 1.705270 0.000000 
#    z 0.000000 0.000000 1.733870 
# 
# From -- ./inp_files/22130.got.cif
#   From: 2010.06.25/outbox.cif.g09.slc.cpg/sg58_12_cif.got.tgz:22130.got - 2010.06.26 21:38:00.
