data_PCOD8236145
_publ_section_title
;
Structure prediction by ZEFSAII (Michael W. Deem and Ramdas Pophale) SiO2 
 PCOD8236145
Probable space group: P N N M
;
_chemical_formula_sum "Si O2"
_cell_formula_units_Z 56
_cell_length_a 9.304331
_cell_length_b 20.431649
_cell_length_c 16.216451
_cell_angle_alpha 90.000000
_cell_angle_beta 90.000000
_cell_angle_gamma 90.000000
_cell_volume 3082.793149
_symmetry_space_group_name_H-M "P N N M"
_symmetry_group_IT_number 58
_symmetry_cell_setting 'orthorhombic'
loop_
_space_group_symop_operation_xyz
x,y,z
-x,-y,z
1/2+x,1/2-y,1/2-z
1/2-x,1/2+y,1/2-z
-x,-y,-z
x,y,-z
1/2-x,1/2+y,1/2+z
1/2+x,1/2-y,1/2+z
loop_
_atom_site_type_symbol
_atom_site_label
_atom_site_fract_x
_atom_site_fract_y
_atom_site_fract_z
Si Si1 0.778036 0.374382 0.708541
Si Si2 0.003436 0.423954 0.413612
Si Si3 0.337306 0.496392 0.210343
Si Si4 0.613882 0.055356 0.410790
Si Si5 0.240807 0.874296 0.821881
Si Si6 0.963576 0.806112 0.100609
Si Si7 0.030443 0.325741 0.803378
O O1 0.904572 0.410184 0.662289
O O2 0.701480 0.430221 0.761338
O O3 0.670725 0.342795 0.642510
O O4 0.868618 0.321603 0.763599
O O5 0.951769 0.391213 0.500000
O O6 0.000000 0.500000 0.425956
O O7 0.163107 0.397733 0.397755
O O8 0.500000 0.500000 0.182904
O O9 0.254191 0.476298 0.128682
O O10 0.314749 0.440583 0.278922
O O11 0.656797 0.085586 0.500000
O O12 0.538382 0.107358 0.352698
O O13 0.500000 0.000000 0.425139
O O14 0.336739 0.826672 0.762422
O O15 0.108772 0.835341 0.861421
O O16 0.950688 0.731812 0.130714
O O17 0.958674 0.811020 0.000000
#
# Coordination Sequence:
#
# PCOD8236145 Si02
#       7
#     8   8   8   8   8   8   8
#     4  11  21  37  58  85 112 152 197 231 285 345
#     4  10  19  32  53  81 114 148 189 239 283 326
#     4  11  20  36  57  85 120 148 188 236 292 344
#     4  10  20  36  62  91 110 140 191 247 290 331
#     4  10  21  36  58  84 112 152 196 235 281 348
#     4  12  24  39  56  84 121 155 190 238 285 336
#     4  10  22  39  63  81 114 152 201 230 283 343
#
# _framework density 18.165344000000001
#
# number of rings (size 3 to 8) (size 9 to 14) (size 15 to 20)
#    0.000    1.429    4.286    2.143    0.000    0.286 
#    0.000    0.714    0.000    0.000    0.000    0.000 
#    0.000    0.000    0.000    0.000    0.000    0.000 
#
# Total GULP energy -693831.751368 kJ/mol
# GULP energy per Si atom -12389.852703 kJ/mol
# Density = 1.812400 g / cm^3
# Si number density = 18.165344 Si / 1000 Ang^3
#
#
#
# Elastic Constant Matrix: (Units=GPa)
#
#
# Indices 1 2 3 4 5 6 
#
# 1 118.8600 33.0939 47.0830 0.0000 0.0000 0.0000
# 2 33.0939 64.9032 30.4464 0.0000 0.0000 0.0000
# 3 47.0830 30.4464 118.6086 0.0000 0.0000 0.0000
# 4 0.0000 0.0000 0.0000 32.4643 0.0000 0.0000
# 5 0.0000 0.0000 0.0000 0.0000 25.2313 0.0000
# 6 0.0000 0.0000 0.0000 0.0000 0.0000 98.9892
#
#
#
# Elastic Compliance Matrix: (Units=1/GPa)
#
#
# Indices 1 2 3 4 5 6 
#
# 1 0.010818 -0.003981 -0.003272 0.000000 0.000000 0.000000
# 2 -0.003981 0.018982 -0.003292 0.000000 0.000000 0.000000
# 3 -0.003272 -0.003292 0.010575 0.000000 0.000000 0.000000
# 4 0.000000 0.000000 0.000000 0.030803 0.000000 0.000000
# 5 0.000000 0.000000 0.000000 0.000000 0.039633 0.000000
# 6 0.000000 0.000000 0.000000 0.000000 0.000000 0.010102
#
#
# Mechanical properties :
#
#
# Convention : Reuss Voigt Hill
#
# Bulk Modulus (GPa) = 51.85713 58.17985 55.01849
# Shear Modulus (GPa) = 33.68529 44.12018 38.90274
#
# Velocity S-wave (km/s) = 4.31091 4.93364 4.63275
# Velocity P-wave (km/s) = 7.30670 8.03442 7.67919
#
# Compressibility (1/GPa) = 0.01928375
#
# Stress axis : x y z
#
# Youngs Moduli (GPa) = 92.43915 52.68185 94.56057
#
# Poissons Ratio (x) = 0.20972 0.30944
# Poissons Ratio (y) = 0.36799 0.31132
# Poissons Ratio (z) = 0.30250 0.17344
#
# Static dielectric constant tensor:
#      x y z
#    x 3.319680 0.000000 0.000000 
#    y 0.000000 3.302340 0.000000 
#    z 0.000000 0.000000 4.843350 
# 
# 
# High freq. dielectric constant tensor:
#      x y z
#    x 1.712530 0.000000 0.000000 
#    y 0.000000 1.697230 0.000000 
#    z 0.000000 0.000000 1.712910 
# 
# From -- ./inp_files/20106.got.cif
#   From: 2010.06.25/outbox.cif.g09.slc.cpg/sg58_11_cif.got.tgz:20106.got - 2010.06.26 21:38:00.
