data_PCOD8236813
_publ_section_title
;
Structure prediction by ZEFSAII (Michael W. Deem and Ramdas Pophale) SiO2 
 PCOD8236813
Probable space group: P N N M
;
_chemical_formula_sum "Si O2"
_cell_formula_units_Z 64
_cell_length_a 8.946523
_cell_length_b 14.744190
_cell_length_c 24.045166
_cell_angle_alpha 90.000000
_cell_angle_beta 90.000000
_cell_angle_gamma 90.000000
_cell_volume 3171.779451
_symmetry_space_group_name_H-M "P N N M"
_symmetry_group_IT_number 58
_symmetry_cell_setting 'orthorhombic'
loop_
_space_group_symop_operation_xyz
x,y,z
-x,-y,z
1/2+x,1/2-y,1/2-z
1/2-x,1/2+y,1/2-z
-x,-y,-z
x,y,-z
1/2-x,1/2+y,1/2+z
1/2+x,1/2-y,1/2+z
loop_
_atom_site_type_symbol
_atom_site_label
_atom_site_fract_x
_atom_site_fract_y
_atom_site_fract_z
Si Si1 0.920331 0.095648 0.343767
Si Si2 0.299150 0.306523 0.403075
Si Si3 0.925394 0.906129 0.115908
Si Si4 0.663789 0.981913 0.623202
Si Si5 0.375237 0.646179 0.060773
Si Si6 0.845680 0.313151 0.199039
Si Si7 0.824431 0.505811 0.435472
Si Si8 0.939074 0.826281 0.765385
O O1 0.992282 0.156401 0.393472
O O2 0.951346 0.138869 0.283679
O O3 0.744096 0.075050 0.354933
O O4 0.000000 0.000000 0.345324
O O5 0.478391 0.324302 0.413193
O O6 0.222237 0.238455 0.446553
O O7 0.273154 0.257767 0.344032
O O8 0.219914 0.403570 0.402564
O O9 0.939193 0.893909 0.182207
O O10 0.755688 0.916468 0.092383
O O11 0.000000 0.000000 0.097941
O O12 0.764908 0.936525 0.575781
O O13 0.638715 0.913411 0.674491
O O14 0.500000 0.000000 0.597747
O O15 0.445589 0.626249 0.000000
O O16 0.732963 0.318614 0.250095
O O17 0.004891 0.274674 0.218850
O O18 0.777306 0.512075 0.500000
O O19 0.000000 0.500000 0.428319
#
# Coordination Sequence:
#
# PCOD8236813 Si02
#       8
#     8   8   8   8   8   8   8   8
#     4  10  19  37  62  79 115 154 192 236 293 351
#     4   9  18  38  56  82 112 148 191 234 285 353
#     4   9  20  34  58  82 111 149 195 233 285 355
#     4  10  22  39  55  86 117 148 190 241 298 348
#     4  10  20  37  62  86 109 151 202 243 291 355
#     4  10  22  36  57  84 115 149 192 230 289 348
#     4  10  21  37  57  84 117 150 191 246 296 345
#     4  11  20  37  57  84 116 151 188 238 288 348
#
# _framework density 20.177945999999999
#
# number of rings (size 3 to 8) (size 9 to 14) (size 15 to 20)
#    0.000    2.125    3.750    0.750    1.750    6.250 
#    0.000    0.625    0.000    0.000    0.000    0.000 
#    0.000    0.000    0.000    0.000    0.000    0.000 
#
# Total GULP energy -792957.849615 kJ/mol
# GULP energy per Si atom -12389.966400 kJ/mol
# Density = 2.013202 g / cm^3
# Si number density = 20.177946 Si / 1000 Ang^3
#
#
#
# Elastic Constant Matrix: (Units=GPa)
#
#
# Indices 1 2 3 4 5 6 
#
# 1 94.3652 33.5714 28.4810 0.0000 0.0000 0.0000
# 2 33.5714 71.4797 24.9129 0.0000 0.0000 0.0000
# 3 28.4810 24.9129 89.0098 0.0000 0.0000 0.0000
# 4 0.0000 0.0000 0.0000 9.4166 0.0000 0.0000
# 5 0.0000 0.0000 0.0000 0.0000 21.7299 0.0000
# 6 0.0000 0.0000 0.0000 0.0000 0.0000 31.6489
#
#
#
# Elastic Compliance Matrix: (Units=1/GPa)
#
#
# Indices 1 2 3 4 5 6 
#
# 1 0.013317 -0.005285 -0.002782 0.000000 0.000000 0.000000
# 2 -0.005285 0.017600 -0.003235 0.000000 0.000000 0.000000
# 3 -0.002782 -0.003235 0.013030 0.000000 0.000000 0.000000
# 4 0.000000 0.000000 0.000000 0.106196 0.000000 0.000000
# 5 0.000000 0.000000 0.000000 0.000000 0.046019 0.000000
# 6 0.000000 0.000000 0.000000 0.000000 0.000000 0.031597
#
#
# Mechanical properties :
#
#
# Convention : Reuss Voigt Hill
#
# Bulk Modulus (GPa) = 46.85294 47.64280 47.24787
# Shear Modulus (GPa) = 19.41923 23.75169 21.58546
#
# Velocity S-wave (km/s) = 3.10562 3.43463 3.27426
# Velocity P-wave (km/s) = 6.01083 6.27626 6.14498
#
# Compressibility (1/GPa) = 0.02134338
#
# Stress axis : x y z
#
# Youngs Moduli (GPa) = 75.09256 56.81954 76.74431
#
# Poissons Ratio (x) = 0.30028 0.21349
# Poissons Ratio (y) = 0.39686 0.24826
# Poissons Ratio (z) = 0.20890 0.18381
#
# Static dielectric constant tensor:
#      x y z
#    x 3.991720 0.000000 0.000000 
#    y 0.000000 3.812220 0.000000 
#    z 0.000000 0.000000 3.655150 
# 
# 
# High freq. dielectric constant tensor:
#      x y z
#    x 1.783970 0.000000 0.000000 
#    y 0.000000 1.776750 0.000000 
#    z 0.000000 0.000000 1.779080 
# 
# From -- ./inp_files/31610.got.cif
#   From: 2010.06.25/outbox.cif.g09.slc.cpg/sg58_16_cif.got.tgz:31610.got - 2010.06.26 21:38:00.
