data_PCOD8236725
_publ_section_title
;
Structure prediction by ZEFSAII (Michael W. Deem and Ramdas Pophale) SiO2 
 PCOD8236725
Probable space group: P N N M
;
_chemical_formula_sum "Si O2"
_cell_formula_units_Z 64
_cell_length_a 24.474488
_cell_length_b 14.627218
_cell_length_c 9.060312
_cell_angle_alpha 90.000000
_cell_angle_beta 90.000000
_cell_angle_gamma 90.000000
_cell_volume 3243.534357
_symmetry_space_group_name_H-M "P N N M"
_symmetry_group_IT_number 58
_symmetry_cell_setting 'orthorhombic'
loop_
_space_group_symop_operation_xyz
x,y,z
-x,-y,z
1/2+x,1/2-y,1/2-z
1/2-x,1/2+y,1/2-z
-x,-y,-z
x,y,-z
1/2-x,1/2+y,1/2+z
1/2+x,1/2-y,1/2+z
loop_
_atom_site_type_symbol
_atom_site_label
_atom_site_fract_x
_atom_site_fract_y
_atom_site_fract_z
Si Si1 0.519075 0.399965 0.173940
Si Si2 0.447666 0.062042 0.170791
Si Si3 0.875956 0.935240 0.832727
Si Si4 0.170761 0.490191 0.326192
Si Si5 0.655655 0.631920 0.665569
Si Si6 0.740661 0.366024 0.325677
Si Si7 0.737834 0.160067 0.325824
Si Si8 0.944486 0.247897 0.827882
O O1 0.500000 0.500000 0.227577
O O2 0.581089 0.384906 0.227635
O O3 0.483357 0.320816 0.243005
O O4 0.515805 0.390251 0.000000
O O5 0.392355 0.008370 0.213992
O O6 0.453742 0.150812 0.270275
O O7 0.500000 0.000000 0.204337
O O8 0.445484 0.091761 0.000000
O O9 0.815257 0.913433 0.775716
O O10 0.884115 0.044364 0.823227
O O11 0.884481 0.899804 0.000000
O O12 0.179337 0.477421 0.500000
O O13 0.208199 0.574273 0.265626
O O14 0.188469 0.396162 0.247593
O O15 0.680605 0.637813 0.500000
O O16 0.703918 0.617723 0.782147
O O17 0.618627 0.720095 0.701962
O O18 0.745881 0.360869 0.500000
O O19 0.739774 0.263303 0.261930
O O20 0.729490 0.156654 0.500000
O O21 0.958596 0.243054 0.000000
#
# Coordination Sequence:
#
# PCOD8236725 Si02
#       8
#     8   8   8   8   8   8   8   8
#     4  11  23  37  56  86 123 157 196 245 301 361
#     4  10  23  43  66  91 121 159 203 253 307 360
#     4  10  19  36  59  80 113 155 199 241 291 360
#     4  10  20  40  64  84 117 162 200 239 298 363
#     4  10  20  36  59  85 116 155 199 242 294 359
#     4   9  19  36  57  83 115 155 194 234 290 352
#     4  11  22  35  58  90 120 151 197 249 296 350
#     4  11  23  39  63  91 119 159 207 254 303 362
#
# _framework density 19.731563000000001
#
# number of rings (size 3 to 8) (size 9 to 14) (size 15 to 20)
#    0.000    1.750    2.500    1.875    0.000    4.750 
#    0.000    5.000    0.000    0.000    0.000    0.000 
#    0.000    0.000    0.000    0.000    0.000    0.000 
#
# Total GULP energy -793679.891230 kJ/mol
# GULP energy per Si atom -12401.248300 kJ/mol
# Density = 1.968665 g / cm^3
# Si number density = 19.731563 Si / 1000 Ang^3
#
#
#
# Elastic Constant Matrix: (Units=GPa)
#
#
# Indices 1 2 3 4 5 6 
#
# 1 135.1995 54.6651 43.2586 0.0000 0.0000 0.0000
# 2 54.6651 105.7965 38.4470 0.0000 0.0000 0.0000
# 3 43.2586 38.4470 61.6810 0.0000 0.0000 0.0000
# 4 0.0000 0.0000 0.0000 32.7535 0.0000 0.0000
# 5 0.0000 0.0000 0.0000 0.0000 25.9529 0.0000
# 6 0.0000 0.0000 0.0000 0.0000 0.0000 30.0420
#
#
#
# Elastic Compliance Matrix: (Units=1/GPa)
#
#
# Indices 1 2 3 4 5 6 
#
# 1 0.010473 -0.003545 -0.005135 0.000000 0.000000 0.000000
# 2 -0.003545 0.013420 -0.005879 0.000000 0.000000 0.000000
# 3 -0.005135 -0.005879 0.023478 0.000000 0.000000 0.000000
# 4 0.000000 0.000000 0.000000 0.030531 0.000000 0.000000
# 5 0.000000 0.000000 0.000000 0.000000 0.038531 0.000000
# 6 0.000000 0.000000 0.000000 0.000000 0.000000 0.033287
#
#
# Mechanical properties :
#
#
# Convention : Reuss Voigt Hill
#
# Bulk Modulus (GPa) = 54.78504 63.93538 59.36021
# Shear Modulus (GPa) = 27.03822 28.83677 27.93749
#
# Velocity S-wave (km/s) = 3.70578 3.82704 3.76690
# Velocity P-wave (km/s) = 6.79234 7.21119 7.00490
#
# Compressibility (1/GPa) = 0.01825316
#
# Stress axis : x y z
#
# Youngs Moduli (GPa) = 95.48377 74.51393 42.59266
#
# Poissons Ratio (x) = 0.26417 0.21872
# Poissons Ratio (y) = 0.33851 0.25039
# Poissons Ratio (z) = 0.49033 0.43805
#
# Static dielectric constant tensor:
#      x y z
#    x 3.594180 0.000000 0.000000 
#    y 0.000000 3.681830 0.000000 
#    z 0.000000 0.000000 3.405720 
# 
# 
# High freq. dielectric constant tensor:
#      x y z
#    x 1.773960 0.000000 0.000000 
#    y 0.000000 1.770830 0.000000 
#    z 0.000000 0.000000 1.752730 
# 
# From -- ./inp_files/9941.got.cif
#   From: 2010.06.25/outbox.cif.g09.slc.cpg/sg58_5_cif.got.tgz:9941.got - 2010.06.26 21:38:00.
