data_PCOD8236766
_publ_section_title
;
Structure prediction by ZEFSAII (Michael W. Deem and Ramdas Pophale) SiO2 
 PCOD8236766
Probable space group: P N N M
;
_chemical_formula_sum "Si O2"
_cell_formula_units_Z 48
_cell_length_a 14.491470
_cell_length_b 9.299002
_cell_length_c 18.503244
_cell_angle_alpha 90.000000
_cell_angle_beta 90.000000
_cell_angle_gamma 90.000000
_cell_volume 2493.427007
_symmetry_space_group_name_H-M "P N N M"
_symmetry_group_IT_number 58
_symmetry_cell_setting 'orthorhombic'
loop_
_space_group_symop_operation_xyz
x,y,z
-x,-y,z
1/2+x,1/2-y,1/2-z
1/2-x,1/2+y,1/2-z
-x,-y,-z
x,y,-z
1/2-x,1/2+y,1/2+z
1/2+x,1/2-y,1/2+z
loop_
_atom_site_type_symbol
_atom_site_label
_atom_site_fract_x
_atom_site_fract_y
_atom_site_fract_z
Si Si1 0.579506 0.827385 0.717656
Si Si2 0.123074 0.345195 0.802359
Si Si3 0.574438 0.790528 0.876227
Si Si4 0.731029 0.582567 0.916125
Si Si5 0.272348 0.710569 0.833393
Si Si6 0.887803 0.598547 0.580836
O O1 0.481816 0.796737 0.677785
O O2 0.571556 0.743144 0.793231
O O3 0.663937 0.757574 0.674683
O O4 0.608538 0.994387 0.728603
O O5 0.182621 0.338939 0.876344
O O6 0.170394 0.244630 0.740522
O O7 0.643211 0.688126 0.920089
O O8 0.472074 0.787667 0.909983
O O9 0.605090 0.956071 0.872336
O O10 0.705847 0.447396 0.865161
O O11 0.756042 0.542580 0.000000
O O12 0.295941 0.821199 0.896442
O O13 0.881905 0.543374 0.500000
#
# Coordination Sequence:
#
# PCOD8236766 Si02
#       6
#     8   8   8   8   8   8
#     4  10  19  36  61  88 104 147 207 239 269 340
#     4  10  19  39  61  81 114 154 197 236 276 348
#     4  11  19  36  60  81 117 150 194 232 282 353
#     4  11  24  38  57  91 125 153 187 244 307 343
#     4  11  21  36  59  85 116 148 190 243 287 339
#     4  11  21  35  57  85 114 151 190 230 282 348
#
# _framework density 19.250613999999999
#
# number of rings (size 3 to 8) (size 9 to 14) (size 15 to 20)
#    0.000    1.333    5.000    3.500    0.000    0.667 
#    0.000    9.167    0.000    0.000    0.000    2.333 
#    0.000    0.000    0.000    0.000    0.000    0.000 
#
# Total GULP energy -594696.822148 kJ/mol
# GULP energy per Si atom -12389.517128 kJ/mol
# Density = 1.920680 g / cm^3
# Si number density = 19.250614 Si / 1000 Ang^3
#
#
#
# Elastic Constant Matrix: (Units=GPa)
#
#
# Indices 1 2 3 4 5 6 
#
# 1 125.6720 43.9983 43.6153 0.0000 0.0000 0.0000
# 2 43.9983 43.6642 30.4437 0.0000 0.0000 0.0000
# 3 43.6153 30.4437 103.4558 0.0000 0.0000 0.0000
# 4 0.0000 0.0000 0.0000 21.3129 0.0000 0.0000
# 5 0.0000 0.0000 0.0000 0.0000 18.8720 0.0000
# 6 0.0000 0.0000 0.0000 0.0000 0.0000 30.0584
#
#
#
# Elastic Compliance Matrix: (Units=1/GPa)
#
#
# Indices 1 2 3 4 5 6 
#
# 1 0.012610 -0.011323 -0.001984 0.000000 0.000000 0.000000
# 2 -0.011323 0.038981 -0.006697 0.000000 0.000000 0.000000
# 3 -0.001984 -0.006697 0.012473 0.000000 0.000000 0.000000
# 4 0.000000 0.000000 0.000000 0.046920 0.000000 0.000000
# 5 0.000000 0.000000 0.000000 0.000000 0.052989 0.000000
# 6 0.000000 0.000000 0.000000 0.000000 0.000000 0.033269
#
#
# Mechanical properties :
#
#
# Convention : Reuss Voigt Hill
#
# Bulk Modulus (GPa) = 41.57063 56.54520 49.05792
# Shear Modulus (GPa) = 20.38570 24.36429 22.37499
#
# Velocity S-wave (km/s) = 3.25770 3.56144 3.41295
# Velocity P-wave (km/s) = 5.98260 6.80799 6.40860
#
# Compressibility (1/GPa) = 0.02405545
#
# Stress axis : x y z
#
# Youngs Moduli (GPa) = 79.30117 25.65323 80.17149
#
# Poissons Ratio (x) = 0.29048 0.15907
# Poissons Ratio (y) = 0.89795 0.53693
# Poissons Ratio (z) = 0.15735 0.17181
#
# Static dielectric constant tensor:
#      x y z
#    x 3.819690 0.000000 0.000000 
#    y 0.000000 3.325010 0.000000 
#    z 0.000000 0.000000 3.475320 
# 
# 
# High freq. dielectric constant tensor:
#      x y z
#    x 1.754360 0.000000 0.000000 
#    y 0.000000 1.724460 0.000000 
#    z 0.000000 0.000000 1.742740 
# 
# From -- ./inp_files/26804.got.cif
#   From: 2010.06.25/outbox.cif.g09.slc.cpg/sg58_14_cif.got.tgz:26804.got - 2010.06.26 21:38:00.
