data_PCOD8236243
_publ_section_title
;
Structure prediction by ZEFSAII (Michael W. Deem and Ramdas Pophale) SiO2 
 PCOD8236243
Probable space group: P N N M
;
_chemical_formula_sum "Si O2"
_cell_formula_units_Z 48
_cell_length_a 16.341094
_cell_length_b 7.717081
_cell_length_c 21.406948
_cell_angle_alpha 90.000000
_cell_angle_beta 90.000000
_cell_angle_gamma 90.000000
_cell_volume 2699.534866
_symmetry_space_group_name_H-M "P N N M"
_symmetry_group_IT_number 58
_symmetry_cell_setting 'orthorhombic'
loop_
_space_group_symop_operation_xyz
x,y,z
-x,-y,z
1/2+x,1/2-y,1/2-z
1/2-x,1/2+y,1/2-z
-x,-y,-z
x,y,-z
1/2-x,1/2+y,1/2+z
1/2+x,1/2-y,1/2+z
loop_
_atom_site_type_symbol
_atom_site_label
_atom_site_fract_x
_atom_site_fract_y
_atom_site_fract_z
Si Si1 0.093084 0.965965 0.282263
Si Si2 0.873534 0.148503 0.145917
Si Si3 0.286563 0.762625 0.798696
Si Si4 0.197432 0.664960 0.679312
Si Si5 0.984689 0.697668 0.931658
Si Si6 0.813899 0.841429 0.928346
O O1 0.145245 0.119460 0.315460
O O2 0.108082 0.965765 0.207621
O O3 0.115089 0.777020 0.311090
O O4 0.000000 0.000000 0.299043
O O5 0.797303 0.276272 0.162092
O O6 0.956764 0.237842 0.123826
O O7 0.843544 0.033669 0.088394
O O8 0.265732 0.740181 0.726059
O O9 0.318767 0.959187 0.810603
O O10 0.233081 0.705200 0.610832
O O11 0.000000 0.500000 0.941164
O O12 0.890421 0.718128 0.911652
O O13 0.999671 0.789266 0.000000
O O14 0.787723 0.829557 0.000000
#
# Coordination Sequence:
#
# PCOD8236243 Si02
#       6
#     8   8   8   8   8   8
#     4  11  22  36  55  82 108 140 180 229 277 323
#     4  10  20  34  53  77 106 148 178 216 271 327
#     4  10  19  35  54  78 108 143 177 226 268 316
#     4  10  20  35  56  78 109 143 182 220 270 324
#     4  10  21  32  47  80 117 148 184 217 256 323
#     4  10  19  33  54  76 109 147 179 218 262 325
#
# _framework density 17.780840999999999
#
# number of rings (size 3 to 8) (size 9 to 14) (size 15 to 20)
#    0.000    1.833    5.000    2.000    2.333    2.000 
#    0.000    0.000    0.000    0.500    0.000    4.667 
#    0.000    0.000    0.000    0.000    0.000    0.000 
#
# Total GULP energy -594785.332154 kJ/mol
# GULP energy per Si atom -12391.361087 kJ/mol
# Density = 1.774037 g / cm^3
# Si number density = 17.780841 Si / 1000 Ang^3
#
#
#
# Elastic Constant Matrix: (Units=GPa)
#
#
# Indices 1 2 3 4 5 6 
#
# 1 75.4657 31.0652 29.5226 0.0000 0.0000 0.0000
# 2 31.0652 81.0702 26.0194 0.0000 0.0000 0.0000
# 3 29.5226 26.0194 76.3324 0.0000 0.0000 0.0000
# 4 0.0000 0.0000 0.0000 24.2193 0.0000 0.0000
# 5 0.0000 0.0000 0.0000 0.0000 31.3773 0.0000
# 6 0.0000 0.0000 0.0000 0.0000 0.0000 32.3830
#
#
#
# Elastic Compliance Matrix: (Units=1/GPa)
#
#
# Indices 1 2 3 4 5 6 
#
# 1 0.017260 -0.005021 -0.004964 0.000000 0.000000 0.000000
# 2 -0.005021 0.015311 -0.003277 0.000000 0.000000 0.000000
# 3 -0.004964 -0.003277 0.016138 0.000000 0.000000 0.000000
# 4 0.000000 0.000000 0.000000 0.041289 0.000000 0.000000
# 5 0.000000 0.000000 0.000000 0.000000 0.031870 0.000000
# 6 0.000000 0.000000 0.000000 0.000000 0.000000 0.030880
#
#
# Mechanical properties :
#
#
# Convention : Reuss Voigt Hill
#
# Bulk Modulus (GPa) = 45.07674 45.12029 45.09852
# Shear Modulus (GPa) = 26.78578 27.34666 27.06622
#
# Velocity S-wave (km/s) = 3.88550 3.92597 3.90579
# Velocity P-wave (km/s) = 6.74802 6.78099 6.76453
#
# Compressibility (1/GPa) = 0.02218439
#
# Stress axis : x y z
#
# Youngs Moduli (GPa) = 57.93838 65.31425 61.96701
#
# Poissons Ratio (x) = 0.32791 0.30761
# Poissons Ratio (y) = 0.29088 0.20308
# Poissons Ratio (z) = 0.28761 0.21405
#
# Static dielectric constant tensor:
#      x y z
#    x 2.366540 0.000000 0.000000 
#    y 0.000000 3.609000 0.000000 
#    z 0.000000 0.000000 3.487930 
# 
# 
# High freq. dielectric constant tensor:
#      x y z
#    x 1.674190 0.000000 0.000000 
#    y 0.000000 1.686330 0.000000 
#    z 0.000000 0.000000 1.670500 
# 
# From -- ./inp_files/29919.got.cif
#   From: 2010.06.25/outbox.cif.g09.slc.cpg/sg58_15_cif.got.tgz:29919.got - 2010.06.26 21:38:00.
