data_PCOD8236790
_publ_section_title
;
Structure prediction by ZEFSAII (Michael W. Deem and Ramdas Pophale) SiO2 
 PCOD8236790
Probable space group: P N N M
;
_chemical_formula_sum "Si O2"
_cell_formula_units_Z 64
_cell_length_a 19.743849
_cell_length_b 18.521570
_cell_length_c 8.713879
_cell_angle_alpha 90.000000
_cell_angle_beta 90.000000
_cell_angle_gamma 90.000000
_cell_volume 3186.552979
_symmetry_space_group_name_H-M "P N N M"
_symmetry_group_IT_number 58
_symmetry_cell_setting 'orthorhombic'
loop_
_space_group_symop_operation_xyz
x,y,z
-x,-y,z
1/2+x,1/2-y,1/2-z
1/2-x,1/2+y,1/2-z
-x,-y,-z
x,y,-z
1/2-x,1/2+y,1/2+z
1/2+x,1/2-y,1/2+z
loop_
_atom_site_type_symbol
_atom_site_label
_atom_site_fract_x
_atom_site_fract_y
_atom_site_fract_z
Si Si1 0.326809 0.093823 0.681347
Si Si2 0.074512 0.471220 0.178639
Si Si3 0.026583 0.215294 0.178730
Si Si4 0.125929 0.747890 0.180674
Si Si5 0.626151 0.172971 0.180234
Si Si6 0.695993 0.485870 0.181361
Si Si7 0.051609 0.064403 0.678644
Si Si8 0.269535 0.355638 0.181594
O O1 0.336796 0.095347 0.500000
O O2 0.347299 0.171582 0.747155
O O3 0.374915 0.031058 0.747388
O O4 0.250076 0.075320 0.729524
O O5 0.084732 0.396902 0.266955
O O6 0.000000 0.500000 0.207674
O O7 0.088881 0.455952 0.000000
O O8 0.084693 0.256301 0.271752
O O9 0.025990 0.131854 0.224521
O O10 0.953321 0.247931 0.219472
O O11 0.042185 0.224068 0.000000
O O12 0.165494 0.810016 0.269249
O O13 0.139705 0.756199 0.000000
O O14 0.700869 0.177313 0.251207
O O15 0.634665 0.172586 0.000000
O O16 0.623738 0.461323 0.246553
O O17 0.719248 0.563416 0.246998
O O18 0.690785 0.493441 0.000000
O O19 0.056386 0.085953 0.500000
O O20 0.000000 0.000000 0.705783
O O21 0.263037 0.355871 0.000000
#
# Coordination Sequence:
#
# PCOD8236790 Si02
#       8
#     8   8   8   8   8   8   8   8
#     4   9  17  33  57  85 115 153 198 239 291 363
#     4  10  19  36  63  89 117 157 201 244 297 362
#     4  11  24  42  62  90 126 163 211 264 316 374
#     4  10  22  39  62  90 121 159 203 253 311 371
#     4  12  25  40  60  89 126 165 206 255 309 367
#     4   9  18  34  59  86 115 154 199 247 296 365
#     4  10  21  38  62  92 123 160 206 253 311 376
#     4  11  22  40  65  91 122 160 205 254 310 374
#
# _framework density 20.084396999999999
#
# number of rings (size 3 to 8) (size 9 to 14) (size 15 to 20)
#    0.000    1.750    1.250    3.375    1.750    4.500 
#    0.000    1.875    0.000    0.000    0.000    0.000 
#    0.000    0.000    0.000    0.000    0.000    0.000 
#
# Total GULP energy -793828.472872 kJ/mol
# GULP energy per Si atom -12403.569889 kJ/mol
# Density = 2.003868 g / cm^3
# Si number density = 20.084397 Si / 1000 Ang^3
#
#
#
# Elastic Constant Matrix: (Units=GPa)
#
#
# Indices 1 2 3 4 5 6 
#
# 1 129.3122 45.1574 34.0728 0.0000 0.0000 0.0000
# 2 45.1574 115.4233 23.5052 0.0000 0.0000 0.0000
# 3 34.0728 23.5052 60.2641 0.0000 0.0000 0.0000
# 4 0.0000 0.0000 0.0000 27.4435 0.0000 0.0000
# 5 0.0000 0.0000 0.0000 0.0000 21.5286 0.0000
# 6 0.0000 0.0000 0.0000 0.0000 0.0000 39.4840
#
#
#
# Elastic Compliance Matrix: (Units=1/GPa)
#
#
# Indices 1 2 3 4 5 6 
#
# 1 0.009951 -0.002985 -0.004462 0.000000 0.000000 0.000000
# 2 -0.002985 0.010306 -0.002332 0.000000 0.000000 0.000000
# 3 -0.004462 -0.002332 0.020026 0.000000 0.000000 0.000000
# 4 0.000000 0.000000 0.000000 0.036438 0.000000 0.000000
# 5 0.000000 0.000000 0.000000 0.000000 0.046450 0.000000
# 6 0.000000 0.000000 0.000000 0.000000 0.000000 0.025327
#
#
# Mechanical properties :
#
#
# Convention : Reuss Voigt Hill
#
# Bulk Modulus (GPa) = 48.24988 56.71892 52.48440
# Shear Modulus (GPa) = 28.57703 31.17553 29.87628
#
# Velocity S-wave (km/s) = 3.77616 3.94410 3.86104
# Velocity P-wave (km/s) = 6.56416 7.00306 6.78716
#
# Compressibility (1/GPa) = 0.02072544
#
# Stress axis : x y z
#
# Youngs Moduli (GPa) = 100.49010 97.02711 49.93439
#
# Poissons Ratio (x) = 0.28958 0.22282
# Poissons Ratio (y) = 0.29992 0.11647
# Poissons Ratio (z) = 0.44841 0.22631
#
# Static dielectric constant tensor:
#      x y z
#    x 3.804800 0.000000 0.000000 
#    y 0.000000 3.785840 0.000000 
#    z 0.000000 0.000000 3.341600 
# 
# 
# High freq. dielectric constant tensor:
#      x y z
#    x 1.802690 0.000000 0.000000 
#    y 0.000000 1.796670 0.000000 
#    z 0.000000 0.000000 1.751450 
# 
# From -- ./inp_files/9224.got.cif
#   From: 2010.06.25/outbox.cif.g09.slc.cpg/sg58_5_cif.got.tgz:9224.got - 2010.06.26 21:38:00.
