data_PCOD8236304
_publ_section_title
;
Structure prediction by ZEFSAII (Michael W. Deem and Ramdas Pophale) SiO2 
 PCOD8236304
Probable space group: P N N M
;
_chemical_formula_sum "Si O2"
_cell_formula_units_Z 64
_cell_length_a 23.958867
_cell_length_b 15.436590
_cell_length_c 9.430642
_cell_angle_alpha 90.000000
_cell_angle_beta 90.000000
_cell_angle_gamma 90.000000
_cell_volume 3487.858879
_symmetry_space_group_name_H-M "P N N M"
_symmetry_group_IT_number 58
_symmetry_cell_setting 'orthorhombic'
loop_
_space_group_symop_operation_xyz
x,y,z
-x,-y,z
1/2+x,1/2-y,1/2-z
1/2-x,1/2+y,1/2-z
-x,-y,-z
x,y,-z
1/2-x,1/2+y,1/2+z
1/2+x,1/2-y,1/2+z
loop_
_atom_site_type_symbol
_atom_site_label
_atom_site_fract_x
_atom_site_fract_y
_atom_site_fract_z
Si Si1 0.119940 0.829774 0.659802
Si Si2 0.234988 0.909495 0.338494
Si Si3 0.374396 0.167658 0.660237
Si Si4 0.434130 0.743367 0.666464
Si Si5 0.001118 0.899675 0.667731
Si Si6 0.803403 0.753411 0.166801
Si Si7 0.255664 0.096050 0.336752
Si Si8 0.009673 0.596035 0.168240
O O1 0.113011 0.796432 0.500000
O O2 0.168413 0.900252 0.672348
O O3 0.141155 0.751684 0.753184
O O4 0.062019 0.867777 0.715359
O O5 0.255481 0.915227 0.500000
O O6 0.270766 0.830778 0.270736
O O7 0.246428 0.001827 0.266234
O O8 0.386653 0.196412 0.500000
O O9 0.322043 0.105100 0.671861
O O10 0.429192 0.122287 0.723731
O O11 0.445251 0.728107 0.500000
O O12 0.455785 0.658476 0.749949
O O13 0.368916 0.756165 0.698868
O O14 0.465428 0.830995 0.720184
O O15 0.990179 0.890451 0.500000
O O16 0.000000 0.000000 0.714214
O O17 0.779322 0.836270 0.246244
O O18 0.791501 0.765012 0.000000
O O19 0.234936 0.102375 0.500000
O O20 0.000000 0.500000 0.233333
O O21 0.006783 0.589803 0.000000
#
# Coordination Sequence:
#
# PCOD8236304 Si02
#       8
#     8   8   8   8   8   8   8   8
#     4  10  19  35  57  76 101 142 181 214 262 316
#     4   9  19  35  55  78 106 140 178 218 260 314
#     4  10  19  33  55  82 107 134 175 225 268 306
#     4  10  21  36  55  80 109 141 175 216 269 318
#     4  10  22  37  56  80 106 141 183 220 260 315
#     4  10  21  37  55  77 108 143 177 215 265 323
#     4  10  21  35  56  82 106 138 180 223 265 310
#     4   9  18  32  53  80 109 138 171 215 264 314
#
# _framework density 18.349366
#
# number of rings (size 3 to 8) (size 9 to 14) (size 15 to 20)
#    0.000    2.250    2.500    0.000    3.500    0.750 
#    0.000    1.250    0.000    1.500    0.000    0.000 
#    0.000    0.000    0.000    0.000    0.000    0.000 
#
# Total GULP energy -793403.738689 kJ/mol
# GULP energy per Si atom -12396.933417 kJ/mol
# Density = 1.830760 g / cm^3
# Si number density = 18.349366 Si / 1000 Ang^3
#
#
#
# Elastic Constant Matrix: (Units=GPa)
#
#
# Indices 1 2 3 4 5 6 
#
# 1 114.0624 47.9482 29.0463 0.0000 0.0000 0.0000
# 2 47.9482 150.5745 37.3867 0.0000 0.0000 0.0000
# 3 29.0463 37.3867 35.5581 0.0000 0.0000 0.0000
# 4 0.0000 0.0000 0.0000 23.4268 0.0000 0.0000
# 5 0.0000 0.0000 0.0000 0.0000 24.7430 0.0000
# 6 0.0000 0.0000 0.0000 0.0000 0.0000 28.4213
#
#
#
# Elastic Compliance Matrix: (Units=1/GPa)
#
#
# Indices 1 2 3 4 5 6 
#
# 1 0.011414 -0.001786 -0.007446 0.000000 0.000000 0.000000
# 2 -0.001786 0.009267 -0.008285 0.000000 0.000000 0.000000
# 3 -0.007446 -0.008285 0.042916 0.000000 0.000000 0.000000
# 4 0.000000 0.000000 0.000000 0.042686 0.000000 0.000000
# 5 0.000000 0.000000 0.000000 0.000000 0.040415 0.000000
# 6 0.000000 0.000000 0.000000 0.000000 0.000000 0.035185
#
#
# Mechanical properties :
#
#
# Convention : Reuss Voigt Hill
#
# Bulk Modulus (GPa) = 35.00916 58.77304 46.89110
# Shear Modulus (GPa) = 22.08108 27.70583 24.89345
#
# Velocity S-wave (km/s) = 3.47273 3.88997 3.68725
# Velocity P-wave (km/s) = 5.93299 7.23017 6.61346
#
# Compressibility (1/GPa) = 0.02856395
#
# Stress axis : x y z
#
# Youngs Moduli (GPa) = 87.61173 107.91037 23.30115
#
# Poissons Ratio (x) = 0.19271 0.17350
# Poissons Ratio (y) = 0.15646 0.19304
# Poissons Ratio (z) = 0.65237 0.89401
#
# Static dielectric constant tensor:
#      x y z
#    x 3.510270 0.000000 0.000000 
#    y 0.000000 3.594790 0.000000 
#    z 0.000000 0.000000 3.105780 
# 
# 
# High freq. dielectric constant tensor:
#      x y z
#    x 1.727530 0.000000 0.000000 
#    y 0.000000 1.719440 0.000000 
#    z 0.000000 0.000000 1.674490 
# 
# From -- ./inp_files/9967.got.cif
#   From: 2010.06.25/outbox.cif.g09.slc.cpg/sg58_5_cif.got.tgz:9967.got - 2010.06.26 21:38:00.
