data_PCOD8236121
_publ_section_title
;
Structure prediction by ZEFSAII (Michael W. Deem and Ramdas Pophale) SiO2 
 PCOD8236121
Probable space group: P N N M
;
_chemical_formula_sum "Si O2"
_cell_formula_units_Z 48
_cell_length_a 7.254292
_cell_length_b 27.678938
_cell_length_c 12.677983
_cell_angle_alpha 90.000000
_cell_angle_beta 90.000000
_cell_angle_gamma 90.000000
_cell_volume 2545.626133
_symmetry_space_group_name_H-M "P N N M"
_symmetry_group_IT_number 58
_symmetry_cell_setting 'orthorhombic'
loop_
_space_group_symop_operation_xyz
x,y,z
-x,-y,z
1/2+x,1/2-y,1/2-z
1/2-x,1/2+y,1/2-z
-x,-y,-z
x,y,-z
1/2-x,1/2+y,1/2+z
1/2+x,1/2-y,1/2+z
loop_
_atom_site_type_symbol
_atom_site_label
_atom_site_fract_x
_atom_site_fract_y
_atom_site_fract_z
Si Si1 0.891589 0.954418 0.619698
Si Si2 0.064800 0.210984 0.878097
Si Si3 0.033604 0.554124 0.743726
Si Si4 0.262908 0.393842 0.119319
Si Si5 0.201237 0.301589 0.752336
Si Si6 0.400272 0.146705 0.880818
O O1 0.835079 0.967066 0.500000
O O2 0.707859 0.942798 0.681032
O O3 0.022642 0.907865 0.625868
O O4 0.000000 0.000000 0.669290
O O5 0.168188 0.251029 0.808961
O O6 0.185988 0.162011 0.869579
O O7 0.862583 0.201269 0.833513
O O8 0.047700 0.227650 0.000000
O O9 0.071644 0.590414 0.647385
O O10 0.000000 0.500000 0.699879
O O11 0.854576 0.569935 0.808851
O O12 0.251589 0.338999 0.156288
O O13 0.188729 0.397703 0.000000
O O14 0.017326 0.318361 0.693674
O O15 0.469005 0.153815 0.000000
#
# Coordination Sequence:
#
# PCOD8236121 Si02
#       6
#     8   8   8   8   8   8
#     4  10  19  32  52  80 113 149 184 227 290 347
#     4  11  22  39  63  87 115 151 192 237 290 350
#     4  11  21  35  58  82 111 151 194 240 284 342
#     4  10  21  35  54  82 116 149 189 236 286 345
#     4  11  21  39  61  87 116 151 191 237 292 346
#     4  10  23  41  60  83 115 154 194 239 290 343
#
# _framework density 18.855872000000002
#
# number of rings (size 3 to 8) (size 9 to 14) (size 15 to 20)
#    0.000    1.500    3.333    2.500    0.000    1.000 
#    0.000    0.000    0.000    0.500    0.000    0.000 
#    0.000    0.000    0.000    0.000    0.000    0.000 
#
# Total GULP energy -595305.413761 kJ/mol
# GULP energy per Si atom -12402.196120 kJ/mol
# Density = 1.881296 g / cm^3
# Si number density = 18.855872 Si / 1000 Ang^3
#
#
#
# Elastic Constant Matrix: (Units=GPa)
#
#
# Indices 1 2 3 4 5 6 
#
# 1 81.8096 14.7050 19.2469 0.0000 0.0000 0.0000
# 2 14.7050 93.5685 26.0345 0.0000 0.0000 0.0000
# 3 19.2469 26.0345 72.5927 0.0000 0.0000 0.0000
# 4 0.0000 0.0000 0.0000 30.3092 0.0000 0.0000
# 5 0.0000 0.0000 0.0000 0.0000 37.0543 0.0000
# 6 0.0000 0.0000 0.0000 0.0000 0.0000 24.9835
#
#
#
# Elastic Compliance Matrix: (Units=1/GPa)
#
#
# Indices 1 2 3 4 5 6 
#
# 1 0.013161 -0.001219 -0.003052 0.000000 0.000000 0.000000
# 2 -0.001219 0.011985 -0.003975 0.000000 0.000000 0.000000
# 3 -0.003052 -0.003975 0.016010 0.000000 0.000000 0.000000
# 4 0.000000 0.000000 0.000000 0.032993 0.000000 0.000000
# 5 0.000000 0.000000 0.000000 0.000000 0.026987 0.000000
# 6 0.000000 0.000000 0.000000 0.000000 0.000000 0.040026
#
#
# Mechanical properties :
#
#
# Convention : Reuss Voigt Hill
#
# Bulk Modulus (GPa) = 40.54586 40.88262 40.71424
# Shear Modulus (GPa) = 30.14284 31.00168 30.57226
#
# Velocity S-wave (km/s) = 4.00258 4.05920 4.03099
# Velocity P-wave (km/s) = 6.55061 6.61046 6.58060
#
# Compressibility (1/GPa) = 0.02466343
#
# Stress axis : x y z
#
# Youngs Moduli (GPa) = 75.98380 83.43789 62.45966
#
# Poissons Ratio (x) = 0.10172 0.19064
# Poissons Ratio (y) = 0.09263 0.24828
# Poissons Ratio (z) = 0.23192 0.33167
#
# Static dielectric constant tensor:
#      x y z
#    x 3.436990 0.000000 0.000000 
#    y 0.000000 3.574320 0.000000 
#    z 0.000000 0.000000 3.393040 
# 
# 
# High freq. dielectric constant tensor:
#      x y z
#    x 1.741000 0.000000 0.000000 
#    y 0.000000 1.735930 0.000000 
#    z 0.000000 0.000000 1.725280 
# 
# From -- ./inp_files/18589.got.cif
#   From: 2010.06.25/outbox.cif.g09.slc.cpg/sg58_10_cif.got.tgz:18589.got - 2010.06.26 21:38:00.
