data_PCOD8236274
_publ_section_title
;
Structure prediction by ZEFSAII (Michael W. Deem and Ramdas Pophale) SiO2 
 PCOD8236274
Probable space group: P N N M
;
_chemical_formula_sum "Si O2"
_cell_formula_units_Z 64
_cell_length_a 21.498993
_cell_length_b 16.637994
_cell_length_c 8.969560
_cell_angle_alpha 90.000000
_cell_angle_beta 90.000000
_cell_angle_gamma 90.000000
_cell_volume 3208.412657
_symmetry_space_group_name_H-M "P N N M"
_symmetry_group_IT_number 58
_symmetry_cell_setting 'orthorhombic'
loop_
_space_group_symop_operation_xyz
x,y,z
-x,-y,z
1/2+x,1/2-y,1/2-z
1/2-x,1/2+y,1/2-z
-x,-y,-z
x,y,-z
1/2-x,1/2+y,1/2+z
1/2+x,1/2-y,1/2+z
loop_
_atom_site_type_symbol
_atom_site_label
_atom_site_fract_x
_atom_site_fract_y
_atom_site_fract_z
Si Si1 0.899895 0.359436 0.674672
Si Si2 0.755504 0.079915 0.824752
Si Si3 0.071207 0.175161 0.328261
Si Si4 0.030250 0.331462 0.823698
Si Si5 0.117090 0.455431 0.674589
Si Si6 0.436522 0.382380 0.831324
Si Si7 0.841489 0.222105 0.174332
Si Si8 0.148269 0.027965 0.671451
O O1 0.906671 0.345585 0.500000
O O2 0.886558 0.451137 0.714604
O O3 0.841902 0.306988 0.737998
O O4 0.962560 0.327955 0.751159
O O5 0.684109 0.077622 0.774157
O O6 0.784717 0.164928 0.770819
O O7 0.792100 0.003273 0.760651
O O8 0.761563 0.071711 0.000000
O O9 0.078460 0.202546 0.500000
O O10 0.070319 0.254222 0.226643
O O11 0.010047 0.120631 0.307132
O O12 0.129065 0.118407 0.279494
O O13 0.064439 0.411715 0.769288
O O14 0.023638 0.332944 0.000000
O O15 0.104884 0.440195 0.500000
O O16 0.405755 0.322457 0.712796
O O17 0.411924 0.471936 0.801013
O O18 0.418981 0.355027 0.000000
O O19 0.837212 0.239853 0.000000
O O20 0.167817 0.027604 0.500000
#
# Coordination Sequence:
#
# PCOD8236274 Si02
#       8
#     8   8   8   8   8   8   8   8
#     4  11  22  39  64  89 113 151 197 239 288 353
#     4   9  20  40  61  83 117 156 192 237 289 342
#     4  10  19  33  54  81 119 158 192 233 285 348
#     4  12  25  39  59  89 121 149 187 247 303 346
#     4  10  23  44  65  83 112 156 199 237 290 353
#     4   9  16  29  52  80 114 153 193 233 279 339
#     4  10  19  33  57  88 119 151 188 237 290 337
#     4   9  18  32  54  85 115 152 197 238 279 336
#
# _framework density 19.947558999999998
#
# number of rings (size 3 to 8) (size 9 to 14) (size 15 to 20)
#    0.000    2.000    1.250    2.625    0.000    5.500 
#    2.250    0.000    0.000    3.750    0.000    0.000 
#    0.000    0.000    0.000    0.000    0.000    0.000 
#
# Total GULP energy -793602.892850 kJ/mol
# GULP energy per Si atom -12400.045201 kJ/mol
# Density = 1.990216 g / cm^3
# Si number density = 19.947559 Si / 1000 Ang^3
#
#
#
# Elastic Constant Matrix: (Units=GPa)
#
#
# Indices 1 2 3 4 5 6 
#
# 1 58.4786 31.6647 21.4703 0.0000 0.0000 0.0000
# 2 31.6647 119.3404 45.2660 0.0000 0.0000 0.0000
# 3 21.4703 45.2660 69.5603 0.0000 0.0000 0.0000
# 4 0.0000 0.0000 0.0000 31.3529 0.0000 0.0000
# 5 0.0000 0.0000 0.0000 0.0000 18.7854 0.0000
# 6 0.0000 0.0000 0.0000 0.0000 0.0000 20.4574
#
#
#
# Elastic Compliance Matrix: (Units=1/GPa)
#
#
# Indices 1 2 3 4 5 6 
#
# 1 0.020674 -0.004070 -0.003733 0.000000 0.000000 0.000000
# 2 -0.004070 0.011927 -0.006505 0.000000 0.000000 0.000000
# 3 -0.003733 -0.006505 0.019761 0.000000 0.000000 0.000000
# 4 0.000000 0.000000 0.000000 0.031895 0.000000 0.000000
# 5 0.000000 0.000000 0.000000 0.000000 0.053233 0.000000
# 6 0.000000 0.000000 0.000000 0.000000 0.000000 0.048882
#
#
# Mechanical properties :
#
#
# Convention : Reuss Voigt Hill
#
# Bulk Modulus (GPa) = 42.11061 49.35350 45.73205
# Shear Modulus (GPa) = 22.43127 24.05103 23.24115
#
# Velocity S-wave (km/s) = 3.35701 3.47611 3.41708
# Velocity P-wave (km/s) = 6.01519 6.39581 6.20842
#
# Compressibility (1/GPa) = 0.02374699
#
# Stress axis : x y z
#
# Youngs Moduli (GPa) = 48.36886 83.84648 50.60384
#
# Poissons Ratio (x) = 0.34122 0.18891
# Poissons Ratio (y) = 0.19684 0.32918
# Poissons Ratio (z) = 0.18056 0.54542
#
# Static dielectric constant tensor:
#      x y z
#    x 3.552340 0.000000 0.000000 
#    y 0.000000 3.809760 0.000000 
#    z 0.000000 0.000000 3.511100 
# 
# 
# High freq. dielectric constant tensor:
#      x y z
#    x 1.761950 0.000000 0.000000 
#    y 0.000000 1.787700 0.000000 
#    z 0.000000 0.000000 1.766660 
# 
# From -- ./inp_files/9261.got.cif
#   From: 2010.06.25/outbox.cif.g09.slc.cpg/sg58_5_cif.got.tgz:9261.got - 2010.06.26 21:38:00.
