data_PCOD8236465
_publ_section_title
;
Structure prediction by ZEFSAII (Michael W. Deem and Ramdas Pophale) SiO2 
 PCOD8236465
Probable space group: P N N M
;
_chemical_formula_sum "Si O2"
_cell_formula_units_Z 56
_cell_length_a 14.206686
_cell_length_b 21.189461
_cell_length_c 8.892902
_cell_angle_alpha 90.000000
_cell_angle_beta 90.000000
_cell_angle_gamma 90.000000
_cell_volume 2677.048243
_symmetry_space_group_name_H-M "P N N M"
_symmetry_group_IT_number 58
_symmetry_cell_setting 'orthorhombic'
loop_
_space_group_symop_operation_xyz
x,y,z
-x,-y,z
1/2+x,1/2-y,1/2-z
1/2-x,1/2+y,1/2-z
-x,-y,-z
x,y,-z
1/2-x,1/2+y,1/2+z
1/2+x,1/2-y,1/2+z
loop_
_atom_site_type_symbol
_atom_site_label
_atom_site_fract_x
_atom_site_fract_y
_atom_site_fract_z
Si Si1 0.897108 0.023974 0.824302
Si Si2 0.574635 0.872305 0.675993
Si Si3 0.300810 0.800615 0.826273
Si Si4 0.117475 0.843106 0.321488
Si Si5 0.283612 0.048530 0.174942
Si Si6 0.475479 0.744289 0.321331
Si Si7 0.594231 0.069299 0.171576
O O1 0.870129 0.084595 0.726936
O O2 0.824787 0.967200 0.785049
O O3 0.888756 0.042508 0.000000
O O4 0.000000 0.000000 0.780771
O O5 0.580260 0.875229 0.500000
O O6 0.678343 0.888794 0.740991
O O7 0.540180 0.803526 0.729360
O O8 0.500729 0.924810 0.732731
O O9 0.199885 0.799084 0.745807
O O10 0.370356 0.751900 0.743337
O O11 0.339784 0.870627 0.808333
O O12 0.289024 0.780666 0.000000
O O13 0.117626 0.837830 0.500000
O O14 0.019332 0.817990 0.253252
O O15 0.346180 0.989634 0.229868
O O16 0.295098 0.061203 0.000000
O O17 0.470173 0.736679 0.500000
O O18 0.562498 0.060796 0.000000
#
# Coordination Sequence:
#
# PCOD8236465 Si02
#       7
#     8   8   8   8   8   8   8
#     4  10  22  43  67  89 117 158 207 257 309 365
#     4  10  21  34  52  84 121 154 189 241 297 349
#     4  10  19  37  63  89 119 155 201 255 306 369
#     4  12  24  40  65  93 122 162 206 254 310 369
#     4  10  19  34  56  84 115 155 196 236 296 363
#     4  10  22  41  61  87 124 164 208 256 308 369
#     4   9  17  31  54  82 114 152 190 231 287 357
#
# _framework density 20.918562000000001
#
# number of rings (size 3 to 8) (size 9 to 14) (size 15 to 20)
#    0.000    1.857    1.429    3.000    0.000    5.429 
#    2.571    0.000    0.000    0.000    0.000    0.000 
#    0.000    0.000    0.000    0.000    0.000    0.000 
#
# Total GULP energy -694527.829963 kJ/mol
# GULP energy per Si atom -12402.282678 kJ/mol
# Density = 2.087095 g / cm^3
# Si number density = 20.918562 Si / 1000 Ang^3
#
#
#
# Elastic Constant Matrix: (Units=GPa)
#
#
# Indices 1 2 3 4 5 6 
#
# 1 102.5330 16.6921 38.0803 0.0000 0.0000 0.0000
# 2 16.6921 20.2334 17.3895 0.0000 0.0000 0.0000
# 3 38.0803 17.3895 92.0139 0.0000 0.0000 0.0000
# 4 0.0000 0.0000 0.0000 24.4190 0.0000 0.0000
# 5 0.0000 0.0000 0.0000 0.0000 28.8782 0.0000
# 6 0.0000 0.0000 0.0000 0.0000 0.0000 30.4829
#
#
#
# Elastic Compliance Matrix: (Units=1/GPa)
#
#
# Indices 1 2 3 4 5 6 
#
# 1 0.012277 -0.006879 -0.003781 0.000000 0.000000 0.000000
# 2 -0.006879 0.062862 -0.009033 0.000000 0.000000 0.000000
# 3 -0.003781 -0.009033 0.014140 0.000000 0.000000 0.000000
# 4 0.000000 0.000000 0.000000 0.040952 0.000000 0.000000
# 5 0.000000 0.000000 0.000000 0.000000 0.034628 0.000000
# 6 0.000000 0.000000 0.000000 0.000000 0.000000 0.032805
#
#
# Mechanical properties :
#
#
# Convention : Reuss Voigt Hill
#
# Bulk Modulus (GPa) = 20.04301 39.90045 29.97173
# Shear Modulus (GPa) = 19.70982 26.26391 22.98687
#
# Velocity S-wave (km/s) = 3.07289 3.54719 3.31852
# Velocity P-wave (km/s) = 4.71088 5.99102 5.38910
#
# Compressibility (1/GPa) = 0.04989269
#
# Stress axis : x y z
#
# Youngs Moduli (GPa) = 81.45302 15.90792 70.72222
#
# Poissons Ratio (x) = 0.10943 0.26739
# Poissons Ratio (y) = 0.56030 0.63885
# Poissons Ratio (z) = 0.30796 0.14370
#
# Static dielectric constant tensor:
#      x y z
#    x 3.949510 0.000000 0.000000 
#    y 0.000000 3.652330 0.000000 
#    z 0.000000 0.000000 3.641910 
# 
# 
# High freq. dielectric constant tensor:
#      x y z
#    x 1.826910 0.000000 0.000000 
#    y 0.000000 1.803640 0.000000 
#    z 0.000000 0.000000 1.811060 
# 
# From -- ./inp_files/6285.got.cif
#   From: 2010.06.25/outbox.cif.g09.slc.cpg/sg58_4_cif.got.tgz:6285.got - 2010.06.26 21:38:00.
