data_PCOD8236594
_publ_section_title
;
Structure prediction by ZEFSAII (Michael W. Deem and Ramdas Pophale) SiO2 
 PCOD8236594
Probable space group: P N N M
;
_chemical_formula_sum "Si O2"
_cell_formula_units_Z 64
_cell_length_a 19.470499
_cell_length_b 19.984898
_cell_length_c 8.880531
_cell_angle_alpha 90.000000
_cell_angle_beta 90.000000
_cell_angle_gamma 90.000000
_cell_volume 3455.556137
_symmetry_space_group_name_H-M "P N N M"
_symmetry_group_IT_number 58
_symmetry_cell_setting 'orthorhombic'
loop_
_space_group_symop_operation_xyz
x,y,z
-x,-y,z
1/2+x,1/2-y,1/2-z
1/2-x,1/2+y,1/2-z
-x,-y,-z
x,y,-z
1/2-x,1/2+y,1/2+z
1/2+x,1/2-y,1/2+z
loop_
_atom_site_type_symbol
_atom_site_label
_atom_site_fract_x
_atom_site_fract_y
_atom_site_fract_z
Si Si1 0.205616 0.014164 0.680002
Si Si2 0.468416 0.931574 0.679670
Si Si3 0.070785 0.682572 0.821123
Si Si4 0.590854 0.680534 0.176446
Si Si5 0.817741 0.588961 0.176748
Si Si6 0.255742 0.280216 0.827185
Si Si7 0.722590 0.851567 0.676941
Si Si8 0.069300 0.959984 0.176712
O O1 0.197976 0.011261 0.500000
O O2 0.236185 0.084604 0.739503
O O3 0.258488 0.958504 0.742885
O O4 0.131524 0.001711 0.751203
O O5 0.467327 0.932262 0.500000
O O6 0.512882 0.868672 0.735448
O O7 0.391854 0.926879 0.747661
O O8 0.500000 0.000000 0.743192
O O9 0.054273 0.753981 0.745547
O O10 0.143867 0.652451 0.764674
O O11 0.070762 0.692070 0.000000
O O12 0.671670 0.685581 0.211303
O O13 0.562011 0.613822 0.253244
O O14 0.575254 0.676631 0.000000
O O15 0.802347 0.666110 0.212479
O O16 0.820174 0.575363 0.000000
O O17 0.238674 0.215472 0.728201
O O18 0.253903 0.257840 0.000000
O O19 0.722174 0.856433 0.500000
O O20 0.082104 0.952869 0.000000
O O21 0.000000 0.000000 0.213212
#
# Coordination Sequence:
#
# PCOD8236594 Si02
#       8
#     8   8   8   8   8   8   8   8
#     4  10  19  35  57  80 107 139 178 217 262 316
#     4   9  16  27  48  79 111 143 179 217 260 309
#     4   9  17  31  52  82 115 146 181 222 263 305
#     4  10  19  35  58  79 102 140 182 218 263 322
#     4   9  16  29  50  75 103 138 177 215 253 304
#     4   9  17  31  51  74 101 136 175 214 257 308
#     4   9  18  31  51  78 108 140 173 217 260 303
#     4  11  24  40  57  79 105 133 171 224 279 327
#
# _framework density 18.520897999999999
#
# number of rings (size 3 to 8) (size 9 to 14) (size 15 to 20)
#    0.000    2.500    1.250    1.500    0.000    5.000 
#    2.250    0.000    0.000    1.125    0.000    0.000 
#    0.000    0.000    0.000    0.000    0.000    0.000 
#
# Total GULP energy -793524.725495 kJ/mol
# GULP energy per Si atom -12398.823836 kJ/mol
# Density = 1.847874 g / cm^3
# Si number density = 18.520898 Si / 1000 Ang^3
#
#
#
# Elastic Constant Matrix: (Units=GPa)
#
#
# Indices 1 2 3 4 5 6 
#
# 1 128.3294 77.0693 31.5286 0.0000 0.0000 0.0000
# 2 77.0693 147.7760 39.4163 0.0000 0.0000 0.0000
# 3 31.5286 39.4163 37.5509 0.0000 0.0000 0.0000
# 4 0.0000 0.0000 0.0000 29.0022 0.0000 0.0000
# 5 0.0000 0.0000 0.0000 0.0000 16.3565 0.0000
# 6 0.0000 0.0000 0.0000 0.0000 0.0000 28.0455
#
#
#
# Elastic Compliance Matrix: (Units=1/GPa)
#
#
# Indices 1 2 3 4 5 6 
#
# 1 0.011950 -0.004939 -0.004849 0.000000 0.000000 0.000000
# 2 -0.004939 0.011439 -0.007861 0.000000 0.000000 0.000000
# 3 -0.004849 -0.007861 0.038954 0.000000 0.000000 0.000000
# 4 0.000000 0.000000 0.000000 0.034480 0.000000 0.000000
# 5 0.000000 0.000000 0.000000 0.000000 0.061138 0.000000
# 6 0.000000 0.000000 0.000000 0.000000 0.000000 0.035656
#
#
# Mechanical properties :
#
#
# Convention : Reuss Voigt Hill
#
# Bulk Modulus (GPa) = 36.97566 67.74272 52.35919
# Shear Modulus (GPa) = 21.01456 25.72366 23.36911
#
# Velocity S-wave (km/s) = 3.37210 3.73084 3.55599
# Velocity P-wave (km/s) = 5.93035 7.43065 6.72249
#
# Compressibility (1/GPa) = 0.02704482
#
# Stress axis : x y z
#
# Youngs Moduli (GPa) = 83.68323 87.41673 25.67151
#
# Poissons Ratio (x) = 0.43173 0.12449
# Poissons Ratio (y) = 0.41329 0.20181
# Poissons Ratio (z) = 0.40580 0.68719
#
# Static dielectric constant tensor:
#      x y z
#    x 3.454080 0.000000 0.000000 
#    y 0.000000 3.586370 0.000000 
#    z 0.000000 0.000000 3.096490 
# 
# 
# High freq. dielectric constant tensor:
#      x y z
#    x 1.710510 0.000000 0.000000 
#    y 0.000000 1.733730 0.000000 
#    z 0.000000 0.000000 1.685230 
# 
# From -- ./inp_files/8408.got.cif
#   From: 2010.06.25/outbox.cif.g09.slc.cpg/sg58_5_cif.got.tgz:8408.got - 2010.06.26 21:38:00.
