data_PCOD8236617
_publ_section_title
;
Structure prediction by ZEFSAII (Michael W. Deem and Ramdas Pophale) SiO2 
 PCOD8236617
Probable space group: P N N M
;
_chemical_formula_sum "Si O2"
_cell_formula_units_Z 64
_cell_length_a 18.621381
_cell_length_b 19.892499
_cell_length_c 8.950759
_cell_angle_alpha 90.000000
_cell_angle_beta 90.000000
_cell_angle_gamma 90.000000
_cell_volume 3315.592089
_symmetry_space_group_name_H-M "P N N M"
_symmetry_group_IT_number 58
_symmetry_cell_setting 'orthorhombic'
loop_
_space_group_symop_operation_xyz
x,y,z
-x,-y,z
1/2+x,1/2-y,1/2-z
1/2-x,1/2+y,1/2-z
-x,-y,-z
x,y,-z
1/2-x,1/2+y,1/2+z
1/2+x,1/2-y,1/2+z
loop_
_atom_site_type_symbol
_atom_site_label
_atom_site_fract_x
_atom_site_fract_y
_atom_site_fract_z
Si Si1 0.322549 0.378022 0.827407
Si Si2 0.645244 0.770911 0.177705
Si Si3 0.557661 0.052500 0.177666
Si Si4 0.518907 0.575240 0.171507
Si Si5 0.515082 0.200044 0.177650
Si Si6 0.283503 0.977824 0.822718
Si Si7 0.761491 0.876510 0.177819
Si Si8 0.585184 0.323435 0.676513
O O1 0.328578 0.301959 0.766541
O O2 0.397081 0.416018 0.802032
O O3 0.262325 0.415395 0.733797
O O4 0.299914 0.378664 0.000000
O O5 0.565151 0.785066 0.237718
O O6 0.699623 0.827133 0.240632
O O7 0.643376 0.772386 0.000000
O O8 0.537746 0.126629 0.234493
O O9 0.635708 0.031221 0.237393
O O10 0.500000 0.000000 0.243452
O O11 0.555826 0.050667 0.000000
O O12 0.500000 0.500000 0.217792
O O13 0.476657 0.624932 0.278803
O O14 0.498038 0.591193 0.000000
O O15 0.571347 0.251746 0.248322
O O16 0.518760 0.206792 0.000000
O O17 0.252628 0.048406 0.760307
O O18 0.281700 0.977409 0.000000
O O19 0.838559 0.851193 0.235616
O O20 0.759069 0.876700 0.000000
O O21 0.585717 0.314297 0.500000
#
# Coordination Sequence:
#
# PCOD8236617 Si02
#       8
#     8   8   8   8   8   8   8   8
#     4  10  20  34  53  78 106 143 181 212 261 324
#     4   9  17  33  56  76 100 141 185 217 255 321
#     4   9  18  33  58  88 111 138 181 233 283 327
#     4  10  20  36  57  79 106 140 180 222 265 317
#     4  10  19  35  58  81 108 140 181 228 271 320
#     4  10  20  35  55  82 111 137 177 229 276 319
#     4   9  19  34  53  77 106 141 179 218 266 328
#     4  11  22  34  52  80 111 145 182 221 268 322
#
# _framework density 19.302737
#
# number of rings (size 3 to 8) (size 9 to 14) (size 15 to 20)
#    0.000    2.250    1.250    1.875    1.750    3.750 
#    0.000    0.625    0.000    6.000    0.000    0.000 
#    0.000    0.000    0.000    0.000    0.000    0.000 
#
# Total GULP energy -793731.926213 kJ/mol
# GULP energy per Si atom -12402.061347 kJ/mol
# Density = 1.925880 g / cm^3
# Si number density = 19.302737 Si / 1000 Ang^3
#
#
#
# Elastic Constant Matrix: (Units=GPa)
#
#
# Indices 1 2 3 4 5 6 
#
# 1 138.2289 84.0941 24.9618 0.0000 0.0000 0.0000
# 2 84.0941 173.1706 26.0522 0.0000 0.0000 0.0000
# 3 24.9618 26.0522 22.7815 0.0000 0.0000 0.0000
# 4 0.0000 0.0000 0.0000 23.0266 0.0000 0.0000
# 5 0.0000 0.0000 0.0000 0.0000 14.8444 0.0000
# 6 0.0000 0.0000 0.0000 0.0000 0.0000 44.6274
#
#
#
# Elastic Compliance Matrix: (Units=1/GPa)
#
#
# Indices 1 2 3 4 5 6 
#
# 1 0.011191 -0.004336 -0.007304 0.000000 0.000000 0.000000
# 2 -0.004336 0.008654 -0.005146 0.000000 0.000000 0.000000
# 3 -0.007304 -0.005146 0.057783 0.000000 0.000000 0.000000
# 4 0.000000 0.000000 0.000000 0.043428 0.000000 0.000000
# 5 0.000000 0.000000 0.000000 0.000000 0.067366 0.000000
# 6 0.000000 0.000000 0.000000 0.000000 0.000000 0.022408
#
#
# Mechanical properties :
#
#
# Convention : Reuss Voigt Hill
#
# Bulk Modulus (GPa) = 22.69782 67.15526 44.92654
# Shear Modulus (GPa) = 19.29850 29.77119 24.53484
#
# Velocity S-wave (km/s) = 3.16536 3.93151 3.56905
# Velocity P-wave (km/s) = 5.01435 7.44816 6.34897
#
# Compressibility (1/GPa) = 0.04405710
#
# Stress axis : x y z
#
# Youngs Moduli (GPa) = 89.35708 115.54887 17.30603
#
# Poissons Ratio (x) = 0.50099 0.12640
# Poissons Ratio (y) = 0.38743 0.08906
# Poissons Ratio (z) = 0.65266 0.59464
#
# Static dielectric constant tensor:
#      x y z
#    x 3.697610 0.000000 0.000000 
#    y 0.000000 3.821310 0.000000 
#    z 0.000000 0.000000 3.036980 
# 
# 
# High freq. dielectric constant tensor:
#      x y z
#    x 1.764020 0.000000 0.000000 
#    y 0.000000 1.770770 0.000000 
#    z 0.000000 0.000000 1.699850 
# 
# From -- ./inp_files/8305.got.cif
#   From: 2010.06.25/outbox.cif.g09.slc.cpg/sg58_5_cif.got.tgz:8305.got - 2010.06.26 21:38:00.
