data_PCOD8236420
_publ_section_title
;
Structure prediction by ZEFSAII (Michael W. Deem and Ramdas Pophale) SiO2 
 PCOD8236420
Probable space group: P N N M
;
_chemical_formula_sum "Si O2"
_cell_formula_units_Z 64
_cell_length_a 33.339249
_cell_length_b 10.722558
_cell_length_c 8.668488
_cell_angle_alpha 90.000000
_cell_angle_beta 90.000000
_cell_angle_gamma 90.000000
_cell_volume 3098.828697
_symmetry_space_group_name_H-M "P N N M"
_symmetry_group_IT_number 58
_symmetry_cell_setting 'orthorhombic'
loop_
_space_group_symop_operation_xyz
x,y,z
-x,-y,z
1/2+x,1/2-y,1/2-z
1/2-x,1/2+y,1/2-z
-x,-y,-z
x,y,-z
1/2-x,1/2+y,1/2+z
1/2+x,1/2-y,1/2+z
loop_
_atom_site_type_symbol
_atom_site_label
_atom_site_fract_x
_atom_site_fract_y
_atom_site_fract_z
Si Si1 0.667141 0.234427 0.316799
Si Si2 0.663873 0.720426 0.183226
Si Si3 0.423460 0.235938 0.179961
Si Si4 0.577127 0.257099 0.330980
Si Si5 0.501604 0.364503 0.180969
Si Si6 0.789666 0.973712 0.317143
Si Si7 0.297558 0.016699 0.816353
Si Si8 0.544722 0.987344 0.329858
O O1 0.671388 0.214972 0.500000
O O2 0.622184 0.276056 0.269384
O O3 0.695660 0.346844 0.263361
O O4 0.676540 0.103677 0.232967
O O5 0.618207 0.710659 0.248414
O O6 0.686947 0.597478 0.243721
O O7 0.682777 0.852117 0.239358
O O8 0.664124 0.721736 0.000000
O O9 0.463744 0.293472 0.257537
O O10 0.426812 0.090222 0.216250
O O11 0.422903 0.260569 0.000000
O O12 0.572209 0.320018 0.500000
O O13 0.545331 0.310669 0.211757
O O14 0.568678 0.112853 0.346492
O O15 0.500000 0.500000 0.254850
O O16 0.494983 0.366413 0.000000
O O17 0.794410 0.958942 0.500000
O O18 0.744115 0.995852 0.271754
O O19 0.291374 0.015264 0.000000
O O20 0.540424 0.924850 0.500000
O O21 0.500000 0.000000 0.257335
#
# Coordination Sequence:
#
# PCOD8236420 Si02
#       8
#     8   8   8   8   8   8   8   8
#     4  11  24  41  61  91 128 164 208 256 301 363
#     4   9  21  39  61  89 121 156 197 249 304 365
#     4  10  20  36  57  83 114 148 192 241 291 348
#     4  10  22  39  58  82 117 158 198 246 297 350
#     4  10  22  36  55  82 113 152 197 248 296 350
#     4  11  23  41  67  94 123 162 201 250 315 374
#     4  11  22  41  67  94 124 159 200 250 311 376
#     4  10  19  34  55  79 110 147 190 237 291 347
#
# _framework density 20.652965999999999
#
# number of rings (size 3 to 8) (size 9 to 14) (size 15 to 20)
#    0.000    1.750    1.250    2.625    1.750    3.000 
#    0.000    3.750    0.000    0.000    0.000    0.000 
#    0.000    0.000    0.000    0.000    0.000    0.000 
#
# Total GULP energy -793274.018903 kJ/mol
# GULP energy per Si atom -12394.906545 kJ/mol
# Density = 2.060596 g / cm^3
# Si number density = 20.652966 Si / 1000 Ang^3
#
#
#
# Elastic Constant Matrix: (Units=GPa)
#
#
# Indices 1 2 3 4 5 6 
#
# 1 120.9502 25.4734 18.5588 0.0000 0.0000 0.0000
# 2 25.4734 108.2883 20.2162 0.0000 0.0000 0.0000
# 3 18.5588 20.2162 31.5325 0.0000 0.0000 0.0000
# 4 0.0000 0.0000 0.0000 20.6494 0.0000 0.0000
# 5 0.0000 0.0000 0.0000 0.0000 30.3416 0.0000
# 6 0.0000 0.0000 0.0000 0.0000 0.0000 19.8036
#
#
#
# Elastic Compliance Matrix: (Units=1/GPa)
#
#
# Indices 1 2 3 4 5 6 
#
# 1 0.009251 -0.001317 -0.004600 0.000000 0.000000 0.000000
# 2 -0.001317 0.010678 -0.006070 0.000000 0.000000 0.000000
# 3 -0.004600 -0.006070 0.038313 0.000000 0.000000 0.000000
# 4 0.000000 0.000000 0.000000 0.048428 0.000000 0.000000
# 5 0.000000 0.000000 0.000000 0.000000 0.032958 0.000000
# 6 0.000000 0.000000 0.000000 0.000000 0.000000 0.050496
#
#
# Mechanical properties :
#
#
# Convention : Reuss Voigt Hill
#
# Bulk Modulus (GPa) = 29.18382 43.25200 36.21791
# Shear Modulus (GPa) = 22.17086 27.26044 24.71565
#
# Velocity S-wave (km/s) = 3.27998 3.63702 3.46311
# Velocity P-wave (km/s) = 5.33906 6.21490 5.79356
#
# Compressibility (1/GPa) = 0.03426556
#
# Stress axis : x y z
#
# Youngs Moduli (GPa) = 108.09403 93.65240 26.10094
#
# Poissons Ratio (x) = 0.12338 0.12007
# Poissons Ratio (y) = 0.14240 0.15844
# Poissons Ratio (z) = 0.49727 0.56851
#
# Static dielectric constant tensor:
#      x y z
#    x 4.141100 0.000000 0.000000 
#    y 0.000000 4.000890 0.000000 
#    z 0.000000 0.000000 3.544830 
# 
# 
# High freq. dielectric constant tensor:
#      x y z
#    x 1.825980 0.000000 0.000000 
#    y 0.000000 1.812940 0.000000 
#    z 0.000000 0.000000 1.786060 
# 
# From -- ./inp_files/11027.got.cif
#   From: 2010.06.25/outbox.cif.g09.slc.cpg/sg58_6_cif.got.tgz:11027.got - 2010.06.26 21:38:00.
