data_PCOD8236647
_publ_section_title
;
Structure prediction by ZEFSAII (Michael W. Deem and Ramdas Pophale) SiO2 
 PCOD8236647
Probable space group: P N N M
;
_chemical_formula_sum "Si O2"
_cell_formula_units_Z 48
_cell_length_a 17.628224
_cell_length_b 16.394526
_cell_length_c 8.954754
_cell_angle_alpha 90.000000
_cell_angle_beta 90.000000
_cell_angle_gamma 90.000000
_cell_volume 2587.981008
_symmetry_space_group_name_H-M "P N N M"
_symmetry_group_IT_number 58
_symmetry_cell_setting 'orthorhombic'
loop_
_space_group_symop_operation_xyz
x,y,z
-x,-y,z
1/2+x,1/2-y,1/2-z
1/2-x,1/2+y,1/2-z
-x,-y,-z
x,y,-z
1/2-x,1/2+y,1/2+z
1/2+x,1/2-y,1/2+z
loop_
_atom_site_type_symbol
_atom_site_label
_atom_site_fract_x
_atom_site_fract_y
_atom_site_fract_z
Si Si1 0.486229 0.908000 0.326065
Si Si2 0.913343 0.000081 0.671554
Si Si3 0.600413 0.315126 0.830741
Si Si4 0.672717 0.642858 0.324058
Si Si5 0.327571 0.828109 0.673008
Si Si6 0.559237 0.759693 0.173516
O O1 0.504836 0.897529 0.500000
O O2 0.399403 0.885234 0.291220
O O3 0.543223 0.849643 0.236650
O O4 0.500000 0.000000 0.271558
O O5 0.907200 0.030485 0.500000
O O6 0.866886 0.059116 0.777508
O O7 0.879586 0.909658 0.690444
O O8 0.000000 0.000000 0.723774
O O9 0.653358 0.264626 0.719103
O O10 0.511815 0.299945 0.794864
O O11 0.617304 0.286605 0.000000
O O12 0.670393 0.651975 0.500000
O O13 0.758760 0.637709 0.269076
O O14 0.632035 0.721616 0.253940
O O15 0.305373 0.829884 0.500000
O O16 0.577903 0.767186 0.000000
#
# Coordination Sequence:
#
# PCOD8236647 Si02
#       6
#     8   8   8   8   8   8
#     4   9  19  38  62  87 113 146 190 237 284 339
#     4  10  19  36  60  86 116 151 188 227 283 345
#     4   9  18  35  59  83 110 146 184 225 277 341
#     4  12  24  37  55  83 118 152 192 239 286 334
#     4  10  21  38  59  81 112 151 189 234 288 340
#     4  10  19  35  59  84 111 147 188 230 282 338
#
# _framework density 18.547277999999999
#
# number of rings (size 3 to 8) (size 9 to 14) (size 15 to 20)
#    0.000    2.000    1.667    2.500    0.000    2.667 
#    3.000    0.000    0.000    0.000    0.000    0.000 
#    0.000    0.000    0.000    0.000    0.000    0.000 
#
# Total GULP energy -595420.385518 kJ/mol
# GULP energy per Si atom -12404.591365 kJ/mol
# Density = 1.850506 g / cm^3
# Si number density = 18.547278 Si / 1000 Ang^3
#
#
#
# Elastic Constant Matrix: (Units=GPa)
#
#
# Indices 1 2 3 4 5 6 
#
# 1 89.2654 50.7059 51.1585 0.0000 0.0000 0.0000
# 2 50.7059 125.2951 57.5681 0.0000 0.0000 0.0000
# 3 51.1585 57.5681 106.6863 0.0000 0.0000 0.0000
# 4 0.0000 0.0000 0.0000 34.2982 0.0000 0.0000
# 5 0.0000 0.0000 0.0000 0.0000 30.7050 0.0000
# 6 0.0000 0.0000 0.0000 0.0000 0.0000 19.0768
#
#
#
# Elastic Compliance Matrix: (Units=1/GPa)
#
#
# Indices 1 2 3 4 5 6 
#
# 1 0.016929 -0.004150 -0.005878 0.000000 0.000000 0.000000
# 2 -0.004150 0.011630 -0.004285 0.000000 0.000000 0.000000
# 3 -0.005878 -0.004285 0.014504 0.000000 0.000000 0.000000
# 4 0.000000 0.000000 0.000000 0.029156 0.000000 0.000000
# 5 0.000000 0.000000 0.000000 0.000000 0.032568 0.000000
# 6 0.000000 0.000000 0.000000 0.000000 0.000000 0.052420
#
#
# Mechanical properties :
#
#
# Convention : Reuss Voigt Hill
#
# Bulk Modulus (GPa) = 69.27422 71.12353 70.19888
# Shear Modulus (GPa) = 26.22665 27.60364 26.91515
#
# Velocity S-wave (km/s) = 3.76446 3.86202 3.81355
# Velocity P-wave (km/s) = 7.50506 7.63658 7.57111
#
# Compressibility (1/GPa) = 0.01443538
#
# Stress axis : x y z
#
# Youngs Moduli (GPa) = 59.07059 85.98763 68.94439
#
# Poissons Ratio (x) = 0.35686 0.40528
# Poissons Ratio (y) = 0.24515 0.29545
# Poissons Ratio (z) = 0.34724 0.36848
#
# Static dielectric constant tensor:
#      x y z
#    x 3.323210 0.000000 0.000000 
#    y 0.000000 3.442270 0.000000 
#    z 0.000000 0.000000 3.400600 
# 
# 
# High freq. dielectric constant tensor:
#      x y z
#    x 1.708080 0.000000 0.000000 
#    y 0.000000 1.722490 0.000000 
#    z 0.000000 0.000000 1.721950 
# 
# From -- ./inp_files/5868.got.cif
#   From: 2010.06.25/outbox.cif.g09.slc.cpg/sg58_3_cif.got.tgz:5868.got - 2010.06.26 21:38:00.
