data_PCOD8236636
_publ_section_title
;
Structure prediction by ZEFSAII (Michael W. Deem and Ramdas Pophale) SiO2 
 PCOD8236636
Probable space group: P N N M
;
_chemical_formula_sum "Si O2"
_cell_formula_units_Z 40
_cell_length_a 26.650103
_cell_length_b 10.226786
_cell_length_c 7.737255
_cell_angle_alpha 90.000000
_cell_angle_beta 90.000000
_cell_angle_gamma 90.000000
_cell_volume 2108.749392
_symmetry_space_group_name_H-M "P N N M"
_symmetry_group_IT_number 58
_symmetry_cell_setting 'orthorhombic'
loop_
_space_group_symop_operation_xyz
x,y,z
-x,-y,z
1/2+x,1/2-y,1/2-z
1/2-x,1/2+y,1/2-z
-x,-y,-z
x,y,-z
1/2-x,1/2+y,1/2+z
1/2+x,1/2-y,1/2+z
loop_
_atom_site_type_symbol
_atom_site_label
_atom_site_fract_x
_atom_site_fract_y
_atom_site_fract_z
Si Si1 0.599501 0.478508 0.191637
Si Si2 0.530067 0.867822 0.500000
Si Si3 0.287718 0.229657 0.796763
Si Si4 0.402082 0.220117 0.800354
Si Si5 0.961746 0.881721 0.000000
Si Si6 0.210007 0.015066 0.802283
O O1 0.584603 0.628117 0.230520
O O2 0.572883 0.385866 0.329725
O O3 0.659493 0.463925 0.194329
O O4 0.581151 0.438141 0.000000
O O5 0.563613 0.864400 0.673166
O O6 0.489797 0.753750 0.500000
O O7 0.500000 0.000000 0.500000
O O8 0.344617 0.194332 0.745682
O O9 0.252202 0.113355 0.728471
O O10 0.270409 0.366227 0.711992
O O11 0.283778 0.248083 0.000000
O O12 0.411789 0.179796 0.000000
O O13 0.000000 0.000000 0.000000
O O14 0.198152 0.048361 0.000000
#
# Coordination Sequence:
#
# PCOD8236636 Si02
#       6
#     8   4   8   8   4   8
#     4  10  20  37  63  91 117 149 198 253 299 345
#     4  12  26  42  60  90 118 158 204 244 304 358
#     4   9  20  36  56  86 118 155 196 238 290 355
#     4   9  19  39  62  84 118 156 197 240 295 361
#     4  12  22  40  66  88 116 152 206 250 290 350
#     4  10  19  35  58  85 122 156 192 242 293 350
#
# _framework density 18.968589000000001
#
# number of rings (size 3 to 8) (size 9 to 14) (size 15 to 20)
#    0.000    2.000    3.000    1.800    4.200    3.200 
#    3.600    0.000    0.000    0.000    0.000    0.000 
#    0.000    0.000    0.000    0.000    0.000    0.000 
#
# Total GULP energy -496062.231818 kJ/mol
# GULP energy per Si atom -12401.555795 kJ/mol
# Density = 1.892542 g / cm^3
# Si number density = 18.968589 Si / 1000 Ang^3
#
#
#
# Elastic Constant Matrix: (Units=GPa)
#
#
# Indices 1 2 3 4 5 6 
#
# 1 98.0457 71.4235 47.8332 0.0000 0.0000 0.0000
# 2 71.4235 109.9379 38.6371 0.0000 0.0000 0.0000
# 3 47.8332 38.6371 100.5281 0.0000 0.0000 0.0000
# 4 0.0000 0.0000 0.0000 18.0364 0.0000 0.0000
# 5 0.0000 0.0000 0.0000 0.0000 31.7384 0.0000
# 6 0.0000 0.0000 0.0000 0.0000 0.0000 41.7703
#
#
#
# Elastic Compliance Matrix: (Units=1/GPa)
#
#
# Indices 1 2 3 4 5 6 
#
# 1 0.021881 -0.012205 -0.005721 0.000000 0.000000 0.000000
# 2 -0.012205 0.017325 -0.000851 0.000000 0.000000 0.000000
# 3 -0.005721 -0.000851 0.012997 0.000000 0.000000 0.000000
# 4 0.000000 0.000000 0.000000 0.055443 0.000000 0.000000
# 5 0.000000 0.000000 0.000000 0.000000 0.031508 0.000000
# 6 0.000000 0.000000 0.000000 0.000000 0.000000 0.023940
#
#
# Mechanical properties :
#
#
# Convention : Reuss Voigt Hill
#
# Bulk Modulus (GPa) = 68.26554 69.36657 68.81606
# Shear Modulus (GPa) = 24.32731 28.35023 26.33877
#
# Velocity S-wave (km/s) = 3.58509 3.87018 3.73036
# Velocity P-wave (km/s) = 7.29411 7.52460 7.41025
#
# Compressibility (1/GPa) = 0.01464868
#
# Stress axis : x y z
#
# Youngs Moduli (GPa) = 45.70099 57.72170 76.94354
#
# Poissons Ratio (x) = 0.70451 0.44016
# Poissons Ratio (y) = 0.55779 0.06548
# Poissons Ratio (z) = 0.26144 0.04912
#
# Static dielectric constant tensor:
#      x y z
#    x 3.541360 0.000000 0.000000 
#    y 0.000000 3.228860 0.000000 
#    z 0.000000 0.000000 3.656420 
# 
# 
# High freq. dielectric constant tensor:
#      x y z
#    x 1.737640 0.000000 0.000000 
#    y 0.000000 1.707050 0.000000 
#    z 0.000000 0.000000 1.750350 
# 
# From -- ./inp_files/2676.got.cif
#   From: 2010.06.25/outbox.cif.g09.slc.cpg/sg58_2_cif.got.tgz:2676.got - 2010.06.26 21:38:00.
