data_PCOD8236082
_publ_section_title
;
Structure prediction by ZEFSAII (Michael W. Deem and Ramdas Pophale) SiO2 
 PCOD8236082
Probable space group: P N N M
;
_chemical_formula_sum "Si O2"
_cell_formula_units_Z 56
_cell_length_a 13.002214
_cell_length_b 11.378525
_cell_length_c 21.908456
_cell_angle_alpha 90.000000
_cell_angle_beta 90.000000
_cell_angle_gamma 90.000000
_cell_volume 3241.268805
_symmetry_space_group_name_H-M "P N N M"
_symmetry_group_IT_number 58
_symmetry_cell_setting 'orthorhombic'
loop_
_space_group_symop_operation_xyz
x,y,z
-x,-y,z
1/2+x,1/2-y,1/2-z
1/2-x,1/2+y,1/2-z
-x,-y,-z
x,y,-z
1/2-x,1/2+y,1/2+z
1/2+x,1/2-y,1/2+z
loop_
_atom_site_type_symbol
_atom_site_label
_atom_site_fract_x
_atom_site_fract_y
_atom_site_fract_z
Si Si1 0.885812 0.966872 0.215084
Si Si2 0.410412 0.791111 0.069012
Si Si3 0.708504 0.609386 0.175500
Si Si4 0.071061 0.665765 0.324953
Si Si5 0.883774 0.697283 0.754835
Si Si6 0.115793 0.024610 0.569583
Si Si7 0.702068 0.059714 0.151197
O O1 0.874162 0.830042 0.224807
O O2 0.852548 0.028238 0.277347
O O3 0.816039 0.007813 0.157580
O O4 0.000000 0.000000 0.196290
O O5 0.505863 0.806502 0.114463
O O6 0.360652 0.662419 0.076354
O O7 0.322443 0.889275 0.083822
O O8 0.449813 0.810273 0.000000
O O9 0.661652 0.739808 0.179056
O O10 0.830971 0.618086 0.191361
O O11 0.696139 0.551058 0.109121
O O12 0.117719 0.536418 0.329164
O O13 0.001947 0.668570 0.262948
O O14 0.812846 0.672443 0.695561
O O15 0.127988 0.981436 0.500000
O O16 0.000000 0.000000 0.592919
#
# Coordination Sequence:
#
# PCOD8236082 Si02
#       7
#     8   8   8   8   8   8   8
#     4  11  20  33  53  74 101 140 175 211 250 307
#     4  10  20  34  53  75 104 140 171 208 263 313
#     4  11  19  30  51  74 106 137 166 209 259 298
#     4  11  19  33  49  74 113 137 166 213 248 307
#     4  10  20  32  48  73 102 141 174 203 255 300
#     4  10  19  32  51  77 103 132 174 212 253 313
#     4  10  22  34  48  77 109 136 171 214 254 310
#
# _framework density 17.277186
#
# number of rings (size 3 to 8) (size 9 to 14) (size 15 to 20)
#    0.000    1.571    4.286    3.857    0.000    1.143 
#    0.000    0.000    0.000    0.429    0.000    0.000 
#    0.000   11.429    0.000    0.000    0.000    0.000 
#
# Total GULP energy -694103.229702 kJ/mol
# GULP energy per Si atom -12394.700530 kJ/mol
# Density = 1.723786 g / cm^3
# Si number density = 17.277186 Si / 1000 Ang^3
#
#
#
# Elastic Constant Matrix: (Units=GPa)
#
#
# Indices 1 2 3 4 5 6 
#
# 1 87.0494 41.0122 40.6530 0.0000 0.0000 0.0000
# 2 41.0122 78.4783 28.2187 0.0000 0.0000 0.0000
# 3 40.6530 28.2187 74.9499 0.0000 0.0000 0.0000
# 4 0.0000 0.0000 0.0000 24.4832 0.0000 0.0000
# 5 0.0000 0.0000 0.0000 0.0000 19.4982 0.0000
# 6 0.0000 0.0000 0.0000 0.0000 0.0000 23.4425
#
#
#
# Elastic Compliance Matrix: (Units=1/GPa)
#
#
# Indices 1 2 3 4 5 6 
#
# 1 0.018096 -0.006856 -0.007234 0.000000 0.000000 0.000000
# 2 -0.006856 0.017335 -0.002808 0.000000 0.000000 0.000000
# 3 -0.007234 -0.002808 0.018323 0.000000 0.000000 0.000000
# 4 0.000000 0.000000 0.000000 0.040844 0.000000 0.000000
# 5 0.000000 0.000000 0.000000 0.000000 0.051287 0.000000
# 6 0.000000 0.000000 0.000000 0.000000 0.000000 0.042658
#
#
# Mechanical properties :
#
#
# Convention : Reuss Voigt Hill
#
# Bulk Modulus (GPa) = 50.10420 51.13838 50.62129
# Shear Modulus (GPa) = 21.83485 22.19102 22.01294
#
# Velocity S-wave (km/s) = 3.55885 3.58776 3.57333
# Velocity P-wave (km/s) = 6.77867 6.84293 6.81088
#
# Compressibility (1/GPa) = 0.01995841
#
# Stress axis : x y z
#
# Youngs Moduli (GPa) = 55.26032 57.68738 54.57518
#
# Poissons Ratio (x) = 0.39549 0.39481
# Poissons Ratio (y) = 0.37885 0.15325
# Poissons Ratio (z) = 0.39977 0.16199
#
# Static dielectric constant tensor:
#      x y z
#    x 3.259880 0.000000 0.000000 
#    y 0.000000 3.464700 0.000000 
#    z 0.000000 0.000000 3.189260 
# 
# 
# High freq. dielectric constant tensor:
#      x y z
#    x 1.643530 0.000000 0.000000 
#    y 0.000000 1.689220 0.000000 
#    z 0.000000 0.000000 1.640670 
# 
# From -- ./inp_files/32035.got.cif
#   From: 2010.06.25/outbox.cif.g09.slc.cpg/sg58_17_cif.got.tgz:32035.got - 2010.06.26 21:38:00.
