data_PCOD8236568
_publ_section_title
;
Structure prediction by ZEFSAII (Michael W. Deem and Ramdas Pophale) SiO2 
 PCOD8236568
Probable space group: P N N M
;
_chemical_formula_sum "Si O2"
_cell_formula_units_Z 32
_cell_length_a 26.219752
_cell_length_b 5.183854
_cell_length_c 13.971196
_cell_angle_alpha 90.000000
_cell_angle_beta 90.000000
_cell_angle_gamma 90.000000
_cell_volume 1898.956107
_symmetry_space_group_name_H-M "P N N M"
_symmetry_group_IT_number 58
_symmetry_cell_setting 'orthorhombic'
loop_
_space_group_symop_operation_xyz
x,y,z
-x,-y,z
1/2+x,1/2-y,1/2-z
1/2-x,1/2+y,1/2-z
-x,-y,-z
x,y,-z
1/2-x,1/2+y,1/2+z
1/2+x,1/2-y,1/2+z
loop_
_atom_site_type_symbol
_atom_site_label
_atom_site_fract_x
_atom_site_fract_y
_atom_site_fract_z
Si Si1 0.860542 0.230878 0.789778
Si Si2 0.467352 0.253516 0.610415
Si Si3 0.185641 0.279477 0.274407
Si Si4 0.229013 0.558352 0.108313
O O1 0.917780 0.262006 0.824589
O O2 0.847460 0.458245 0.712494
O O3 0.821293 0.262138 0.879096
O O4 0.853766 0.952999 0.742035
O O5 0.500000 0.500000 0.641839
O O6 0.450669 0.276331 0.500000
O O7 0.500000 0.000000 0.629235
O O8 0.223794 0.315045 0.181852
O O9 0.220319 0.222100 0.366613
O O10 0.232724 0.457412 0.000000
#
# Coordination Sequence:
#
# PCOD8236568 Si02
#       4
#     8   8   8   8
#     4  10  19  35  49  69 105 135 169 203 249 293
#     4  10  20  32  47  71  98 129 173 209 242 302
#     4  10  20  35  47  77 102 132 177 208 232 317
#     4  10  20  34  53  72 106 142 166 207 255 294
#
# _framework density 16.851362999999999
#
# number of rings (size 3 to 8) (size 9 to 14) (size 15 to 20)
#    1.500    0.500    2.500    2.250    0.000    2.000 
#    0.000    0.000    0.000    0.000    0.000    0.000 
#    0.000   20.000    0.000    0.000    0.000    0.000 
#
# Total GULP energy -396535.622616 kJ/mol
# GULP energy per Si atom -12391.738207 kJ/mol
# Density = 1.681301 g / cm^3
# Si number density = 16.851363 Si / 1000 Ang^3
#
#
#
# Elastic Constant Matrix: (Units=GPa)
#
#
# Indices 1 2 3 4 5 6 
#
# 1 98.2377 25.7769 10.9147 0.0000 0.0000 0.0000
# 2 25.7769 107.3657 2.8482 0.0000 0.0000 0.0000
# 3 10.9147 2.8482 37.5572 0.0000 0.0000 0.0000
# 4 0.0000 0.0000 0.0000 16.2371 0.0000 0.0000
# 5 0.0000 0.0000 0.0000 0.0000 20.2692 0.0000
# 6 0.0000 0.0000 0.0000 0.0000 0.0000 20.9386
#
#
#
# Elastic Compliance Matrix: (Units=1/GPa)
#
#
# Indices 1 2 3 4 5 6 
#
# 1 0.011204 -0.002609 -0.003058 0.000000 0.000000 0.000000
# 2 -0.002609 0.009940 0.000004 0.000000 0.000000 0.000000
# 3 -0.003058 0.000004 0.027514 0.000000 0.000000 0.000000
# 4 0.000000 0.000000 0.000000 0.061587 0.000000 0.000000
# 5 0.000000 0.000000 0.000000 0.000000 0.049336 0.000000
# 6 0.000000 0.000000 0.000000 0.000000 0.000000 0.047759
#
#
# Mechanical properties :
#
#
# Convention : Reuss Voigt Hill
#
# Bulk Modulus (GPa) = 26.78578 35.80447 31.29512
# Shear Modulus (GPa) = 21.63475 25.06370 23.34922
#
# Velocity S-wave (km/s) = 3.58698 3.86079 3.72640
# Velocity P-wave (km/s) = 5.75196 6.41620 6.09314
#
# Compressibility (1/GPa) = 0.03733324
#
# Stress axis : x y z
#
# Youngs Moduli (GPa) = 89.25648 100.60201 36.34455
#
# Poissons Ratio (x) = 0.26244 0.11115
# Poissons Ratio (y) = 0.23284 -0.00016
# Poissons Ratio (z) = 0.27296 -0.00043
#
# Static dielectric constant tensor:
#      x y z
#    x 2.972450 0.000000 0.000000 
#    y 0.000000 3.217970 0.000000 
#    z 0.000000 0.000000 2.655010 
# 
# 
# High freq. dielectric constant tensor:
#      x y z
#    x 1.641190 0.000000 0.000000 
#    y 0.000000 1.664080 0.000000 
#    z 0.000000 0.000000 1.595240 
# 
# From -- ./inp_files/17623.got.cif
#   From: 2010.06.25/outbox.cif.g09.slc.cpg/sg58_9_cif.got.tgz:17623.got - 2010.06.26 21:38:00.
