data_PCOD8236870
_publ_section_title
;
Structure prediction by ZEFSAII (Michael W. Deem and Ramdas Pophale) SiO2 
 PCOD8236870
Probable space group: P N N M
;
_chemical_formula_sum "Si O2"
_cell_formula_units_Z 64
_cell_length_a 21.363601
_cell_length_b 21.340694
_cell_length_c 9.084117
_cell_angle_alpha 90.000000
_cell_angle_beta 90.000000
_cell_angle_gamma 90.000000
_cell_volume 4141.576769
_symmetry_space_group_name_H-M "P N N M"
_symmetry_group_IT_number 58
_symmetry_cell_setting 'orthorhombic'
loop_
_space_group_symop_operation_xyz
x,y,z
-x,-y,z
1/2+x,1/2-y,1/2-z
1/2-x,1/2+y,1/2-z
-x,-y,-z
x,y,-z
1/2-x,1/2+y,1/2+z
1/2+x,1/2-y,1/2+z
loop_
_atom_site_type_symbol
_atom_site_label
_atom_site_fract_x
_atom_site_fract_y
_atom_site_fract_z
Si Si1 0.150288 0.755826 0.837460
Si Si2 0.831564 0.562686 0.826096
Si Si3 0.747465 0.154941 0.826498
Si Si4 0.836428 0.756799 0.170877
Si Si5 0.241834 0.152633 0.333066
Si Si6 0.668457 0.933510 0.172688
Si Si7 0.437890 0.837392 0.332373
Si Si8 0.934445 0.329091 0.330793
O O1 0.179536 0.824801 0.802526
O O2 0.207788 0.707814 0.828368
O O3 0.094635 0.736004 0.729334
O O4 0.120816 0.755035 0.000000
O O5 0.768361 0.586856 0.742318
O O6 0.849461 0.495802 0.759970
O O7 0.889046 0.608489 0.787937
O O8 0.818848 0.558377 0.000000
O O9 0.706185 0.202017 0.732619
O O10 0.730535 0.157748 0.000000
O O11 0.822444 0.821214 0.259227
O O12 0.907645 0.732051 0.190491
O O13 0.819963 0.767430 0.000000
O O14 0.227879 0.131151 0.500000
O O15 0.267074 0.094075 0.238909
O O16 0.611757 0.886186 0.203829
O O17 0.677508 0.946520 0.000000
O O18 0.458484 0.846423 0.500000
O O19 0.498827 0.845208 0.235298
O O20 0.944869 0.317923 0.500000
#
# Coordination Sequence:
#
# PCOD8236870 Si02
#       8
#     8   8   8   8   8   8   8   8
#     4   8  15  27  43  61  82 107 135 169 215 263
#     4  10  20  32  45  62  84 115 150 183 217 256
#     4   9  16  27  44  64  83 107 137 174 219 262
#     4   9  16  27  43  63  84 108 138 174 217 261
#     4   9  16  27  44  64  83 107 138 175 218 261
#     4  10  20  32  44  61  86 116 148 184 219 255
#     4   9  19  32  44  59  84 117 149 180 216 256
#     4  10  20  30  43  62  84 113 149 185 217 248
#
# _framework density 15.453051
#
# number of rings (size 3 to 8) (size 9 to 14) (size 15 to 20)
#    0.000    2.750    0.000    3.750    0.000    8.500 
#    0.000    2.500    0.000    0.000    0.000    0.000 
#    0.000    1.000    0.000   10.500    0.000    5.750 
#
# Total GULP energy -793142.017533 kJ/mol
# GULP energy per Si atom -12392.844024 kJ/mol
# Density = 1.541788 g / cm^3
# Si number density = 15.453051 Si / 1000 Ang^3
#
#
#
# Elastic Constant Matrix: (Units=GPa)
#
#
# Indices 1 2 3 4 5 6 
#
# 1 48.4503 48.7817 47.0517 0.0000 0.0000 0.0000
# 2 48.7817 51.5224 48.4212 0.0000 0.0000 0.0000
# 3 47.0517 48.4212 100.4780 0.0000 0.0000 0.0000
# 4 0.0000 0.0000 0.0000 26.6194 0.0000 0.0000
# 5 0.0000 0.0000 0.0000 0.0000 26.4280 0.0000
# 6 0.0000 0.0000 0.0000 0.0000 0.0000 11.3614
#
#
#
# Elastic Compliance Matrix: (Units=1/GPa)
#
#
# Indices 1 2 3 4 5 6 
#
# 1 0.447030 -0.414032 -0.009809 0.000000 0.000000 0.000000
# 2 -0.414032 0.418946 -0.008011 0.000000 0.000000 0.000000
# 3 -0.009809 -0.008011 0.018407 0.000000 0.000000 0.000000
# 4 0.000000 0.000000 0.000000 0.037567 0.000000 0.000000
# 5 0.000000 0.000000 0.000000 0.000000 0.037839 0.000000
# 6 0.000000 0.000000 0.000000 0.000000 0.000000 0.088017
#
#
# Mechanical properties :
#
#
# Convention : Reuss Voigt Hill
#
# Bulk Modulus (GPa) = 48.36103 54.32889 51.34496
# Shear Modulus (GPa) = 2.60634 16.62818 9.61726
#
# Velocity S-wave (km/s) = 1.30011 3.28387 2.49741
# Velocity P-wave (km/s) = 5.79803 7.04359 6.45094
#
# Compressibility (1/GPa) = 0.02067781
#
# Stress axis : x y z
#
# Youngs Moduli (GPa) = 2.23699 2.38694 54.32854
#
# Poissons Ratio (x) = 0.98827 0.53291
# Poissons Ratio (y) = 0.92618 0.43525
# Poissons Ratio (z) = 0.02194 0.01912
#
# Static dielectric constant tensor:
#      x y z
#    x 2.882630 0.000000 0.000000 
#    y 0.000000 3.040090 0.000000 
#    z 0.000000 0.000000 3.135710 
# 
# 
# High freq. dielectric constant tensor:
#      x y z
#    x 1.560520 0.000000 0.000000 
#    y 0.000000 1.566840 0.000000 
#    z 0.000000 0.000000 1.612380 
# 
# From -- ./inp_files/9400.got.cif
#   From: 2010.06.25/outbox.cif.g09.slc.cpg/sg58_5_cif.got.tgz:9400.got - 2010.06.26 21:38:00.
