data_PCOD8236479
_publ_section_title
;
Structure prediction by ZEFSAII (Michael W. Deem and Ramdas Pophale) SiO2 
 PCOD8236479
Probable space group: P N N M
;
_chemical_formula_sum "Si O2"
_cell_formula_units_Z 64
_cell_length_a 24.262224
_cell_length_b 15.549415
_cell_length_c 8.994134
_cell_angle_alpha 90.000000
_cell_angle_beta 90.000000
_cell_angle_gamma 90.000000
_cell_volume 3393.157481
_symmetry_space_group_name_H-M "P N N M"
_symmetry_group_IT_number 58
_symmetry_cell_setting 'orthorhombic'
loop_
_space_group_symop_operation_xyz
x,y,z
-x,-y,z
1/2+x,1/2-y,1/2-z
1/2-x,1/2+y,1/2-z
-x,-y,-z
x,y,-z
1/2-x,1/2+y,1/2+z
1/2+x,1/2-y,1/2+z
loop_
_atom_site_type_symbol
_atom_site_label
_atom_site_fract_x
_atom_site_fract_y
_atom_site_fract_z
Si Si1 0.122992 0.843599 0.673328
Si Si2 0.241972 0.903524 0.323926
Si Si3 0.373978 0.171564 0.667773
Si Si4 0.440993 0.748449 0.322865
Si Si5 0.016419 0.906470 0.824013
Si Si6 0.814727 0.755264 0.177086
Si Si7 0.255286 0.096313 0.327492
Si Si8 0.010699 0.592261 0.171582
O O1 0.114396 0.859335 0.500000
O O2 0.181620 0.877127 0.730341
O O3 0.119502 0.743465 0.708367
O O4 0.077127 0.893656 0.762978
O O5 0.246881 0.904332 0.500000
O O6 0.285297 0.832115 0.263205
O O7 0.252040 0.999489 0.261830
O O8 0.375416 0.210588 0.500000
O O9 0.318245 0.121101 0.697236
O O10 0.424584 0.107610 0.690681
O O11 0.442948 0.749057 0.500000
O O12 0.473120 0.664166 0.262462
O O13 0.377941 0.746849 0.266705
O O14 0.472945 0.832081 0.257396
O O15 0.018827 0.901279 0.000000
O O16 0.000000 0.000000 0.766224
O O17 0.785230 0.839831 0.240904
O O18 0.811180 0.761055 0.000000
O O19 0.238111 0.098988 0.500000
O O20 0.000000 0.500000 0.249497
O O21 0.993312 0.586883 0.000000
#
# Coordination Sequence:
#
# PCOD8236479 Si02
#       8
#     8   8   8   8   8   8   8   8
#     4  11  21  36  57  79 108 147 185 222 271 326
#     4   9  20  36  53  78 112 143 176 222 273 324
#     4  10  19  34  57  81 107 137 178 227 272 315
#     4   9  18  32  51  77 108 138 171 214 264 314
#     4  10  21  37  56  81 111 141 180 230 274 315
#     4  10  20  36  56  78 108 144 179 219 269 324
#     4  10  21  36  55  79 107 142 179 221 270 319
#     4   9  17  29  51  83 108 129 167 219 267 316
#
# _framework density 18.861488999999999
#
# number of rings (size 3 to 8) (size 9 to 14) (size 15 to 20)
#    0.000    2.250    2.500    0.375    3.500    0.250 
#    0.000    1.875    0.000    0.375    0.000    0.000 
#    0.000    0.000    0.000    0.000    0.000    0.000 
#
# Total GULP energy -793454.020718 kJ/mol
# GULP energy per Si atom -12397.719074 kJ/mol
# Density = 1.881856 g / cm^3
# Si number density = 18.861489 Si / 1000 Ang^3
#
#
#
# Elastic Constant Matrix: (Units=GPa)
#
#
# Indices 1 2 3 4 5 6 
#
# 1 173.2447 126.6800 -15.5472 0.0000 0.0000 0.0000
# 2 126.6800 301.2588 -52.5391 0.0000 0.0000 0.0000
# 3 -15.5472 -52.5391 43.9867 0.0000 0.0000 0.0000
# 4 0.0000 0.0000 0.0000 21.8284 0.0000 0.0000
# 5 0.0000 0.0000 0.0000 0.0000 25.4722 0.0000
# 6 0.0000 0.0000 0.0000 0.0000 0.0000 22.7268
#
#
#
# Elastic Compliance Matrix: (Units=1/GPa)
#
#
# Indices 1 2 3 4 5 6 
#
# 1 0.008421 -0.003817 -0.001583 0.000000 0.000000 0.000000
# 2 -0.003817 0.005923 0.005726 0.000000 0.000000 0.000000
# 3 -0.001583 0.005726 0.029013 0.000000 0.000000 0.000000
# 4 0.000000 0.000000 0.000000 0.045812 0.000000 0.000000
# 5 0.000000 0.000000 0.000000 0.000000 0.039258 0.000000
# 6 0.000000 0.000000 0.000000 0.000000 0.000000 0.044001
#
#
# Mechanical properties :
#
#
# Convention : Reuss Voigt Hill
#
# Bulk Modulus (GPa) = 22.72285 70.63083 46.67684
# Shear Modulus (GPa) = 26.81714 44.66527 35.74120
#
# Velocity S-wave (km/s) = 3.77476 4.87156 4.35780
# Velocity P-wave (km/s) = 5.57421 8.31692 7.07965
#
# Compressibility (1/GPa) = 0.04400857
#
# Stress axis : x y z
#
# Youngs Moduli (GPa) = 118.74514 168.83054 34.46683
#
# Poissons Ratio (x) = 0.64447 0.05456
# Poissons Ratio (y) = 0.45328 -0.19734
# Poissons Ratio (z) = 0.18796 -0.96664
#
# Static dielectric constant tensor:
#      x y z
#    x 3.630010 0.000000 0.000000 
#    y 0.000000 3.823070 0.000000 
#    z 0.000000 0.000000 3.029300 
# 
# 
# High freq. dielectric constant tensor:
#      x y z
#    x 1.749220 0.000000 0.000000 
#    y 0.000000 1.745940 0.000000 
#    z 0.000000 0.000000 1.681780 
# 
# From -- ./inp_files/6986.got.cif
#   From: 2010.06.25/outbox.cif.g09.slc.cpg/sg58_4_cif.got.tgz:6986.got - 2010.06.26 21:38:00.
