data_PCOD8236488
_publ_section_title
;
Structure prediction by ZEFSAII (Michael W. Deem and Ramdas Pophale) SiO2 
 PCOD8236488
Probable space group: P N N M
;
_chemical_formula_sum "Si O2"
_cell_formula_units_Z 40
_cell_length_a 25.203418
_cell_length_b 8.808082
_cell_length_c 9.078031
_cell_angle_alpha 90.000000
_cell_angle_beta 90.000000
_cell_angle_gamma 90.000000
_cell_volume 2015.266348
_symmetry_space_group_name_H-M "P N N M"
_symmetry_group_IT_number 58
_symmetry_cell_setting 'orthorhombic'
loop_
_space_group_symop_operation_xyz
x,y,z
-x,-y,z
1/2+x,1/2-y,1/2-z
1/2-x,1/2+y,1/2-z
-x,-y,-z
x,y,-z
1/2-x,1/2+y,1/2+z
1/2+x,1/2-y,1/2+z
loop_
_atom_site_type_symbol
_atom_site_label
_atom_site_fract_x
_atom_site_fract_y
_atom_site_fract_z
Si Si1 0.907536 0.231257 0.826591
Si Si2 0.489103 0.677879 0.833667
Si Si3 0.814533 0.392543 0.328696
Si Si4 0.286478 0.805898 0.330772
Si Si5 0.611774 0.387123 0.329874
O O1 0.867186 0.353499 0.761353
O O2 0.965256 0.264151 0.757239
O O3 0.887355 0.063363 0.782812
O O4 0.911410 0.254615 0.000000
O O5 0.500000 0.500000 0.827581
O O6 0.431808 0.708432 0.761210
O O7 0.488771 0.739935 0.000000
O O8 0.828664 0.401512 0.500000
O O9 0.770374 0.266159 0.297206
O O10 0.792609 0.553748 0.277359
O O11 0.291029 0.859736 0.500000
O O12 0.330755 0.679926 0.294812
O O13 0.595897 0.372461 0.500000
#
# Coordination Sequence:
#
# PCOD8236488 Si02
#       5
#     8   8   8   8   8
#     4  10  19  34  57  82 111 147 183 221 268 321
#     4   9  17  30  51  81 113 143 179 223 268 315
#     4  11  23  38  57  82 110 141 181 226 270 320
#     4  10  22  39  57  79 109 143 179 221 270 324
#     4   9  18  34  56  81 109 144 184 221 264 322
#
# _framework density 19.848493000000001
#
# number of rings (size 3 to 8) (size 9 to 14) (size 15 to 20)
#    0.000    2.200    0.000    3.000    0.000    7.200 
#    0.000    1.000    0.000    6.000    0.000    0.000 
#    0.000    0.000    0.000    0.000    0.000    0.000 
#
# Total GULP energy -496167.880808 kJ/mol
# GULP energy per Si atom -12404.197020 kJ/mol
# Density = 1.980332 g / cm^3
# Si number density = 19.848493 Si / 1000 Ang^3
#
#
#
# Elastic Constant Matrix: (Units=GPa)
#
#
# Indices 1 2 3 4 5 6 
#
# 1 57.0568 -13.6249 24.0346 0.0000 0.0000 0.0000
# 2 -13.6249 36.8836 14.7452 0.0000 0.0000 0.0000
# 3 24.0346 14.7452 90.1830 0.0000 0.0000 0.0000
# 4 0.0000 0.0000 0.0000 28.8300 0.0000 0.0000
# 5 0.0000 0.0000 0.0000 0.0000 35.2934 0.0000
# 6 0.0000 0.0000 0.0000 0.0000 0.0000 26.1099
#
#
#
# Elastic Compliance Matrix: (Units=1/GPa)
#
#
# Indices 1 2 3 4 5 6 
#
# 1 0.023974 0.012208 -0.008385 0.000000 0.000000 0.000000
# 2 0.012208 0.035225 -0.009013 0.000000 0.000000 0.000000
# 3 -0.008385 -0.009013 0.014797 0.000000 0.000000 0.000000
# 4 0.000000 0.000000 0.000000 0.034686 0.000000 0.000000
# 5 0.000000 0.000000 0.000000 0.000000 0.028334 0.000000
# 6 0.000000 0.000000 0.000000 0.000000 0.000000 0.038300
#
#
# Mechanical properties :
#
#
# Convention : Reuss Voigt Hill
#
# Bulk Modulus (GPa) = 15.71931 26.04813 20.88372
# Shear Modulus (GPa) = 24.16610 28.64458 26.40534
#
# Velocity S-wave (km/s) = 3.49310 3.80302 3.65135
# Velocity P-wave (km/s) = 4.91994 5.69525 5.32173
#
# Compressibility (1/GPa) = 0.06361601
#
# Stress axis : x y z
#
# Youngs Moduli (GPa) = 41.71199 28.38867 67.58129
#
# Poissons Ratio (x) = -0.34658 0.56669
# Poissons Ratio (y) = -0.50923 0.60911
# Poissons Ratio (z) = 0.34977 0.25587
#
# Static dielectric constant tensor:
#      x y z
#    x 3.709540 0.000000 0.000000 
#    y 0.000000 3.301140 0.000000 
#    z 0.000000 0.000000 3.639910 
# 
# 
# High freq. dielectric constant tensor:
#      x y z
#    x 1.786810 0.000000 0.000000 
#    y 0.000000 1.746770 0.000000 
#    z 0.000000 0.000000 1.779750 
# 
# From -- ./inp_files/2407.got.cif
#   From: 2010.06.25/outbox.cif.g09.slc.cpg/sg58_2_cif.got.tgz:2407.got - 2010.06.26 21:38:00.
