data_PCOD8236633
_publ_section_title
;
Structure prediction by ZEFSAII (Michael W. Deem and Ramdas Pophale) SiO2 
 PCOD8236633
Probable space group: P N N M
;
_chemical_formula_sum "Si O2"
_cell_formula_units_Z 64
_cell_length_a 24.546878
_cell_length_b 15.024521
_cell_length_c 8.913649
_cell_angle_alpha 90.000000
_cell_angle_beta 90.000000
_cell_angle_gamma 90.000000
_cell_volume 3287.399068
_symmetry_space_group_name_H-M "P N N M"
_symmetry_group_IT_number 58
_symmetry_cell_setting 'orthorhombic'
loop_
_space_group_symop_operation_xyz
x,y,z
-x,-y,z
1/2+x,1/2-y,1/2-z
1/2-x,1/2+y,1/2-z
-x,-y,-z
x,y,-z
1/2-x,1/2+y,1/2+z
1/2+x,1/2-y,1/2+z
loop_
_atom_site_type_symbol
_atom_site_label
_atom_site_fract_x
_atom_site_fract_y
_atom_site_fract_z
Si Si1 0.896551 0.996085 0.675094
Si Si2 0.434797 0.326942 0.327569
Si Si3 0.938978 0.822635 0.827477
Si Si4 0.165800 0.499027 0.325094
Si Si5 0.242919 0.763009 0.674080
Si Si6 0.774461 0.033713 0.328483
Si Si7 0.146495 0.298347 0.676602
Si Si8 0.355288 0.170921 0.323504
O O1 0.908660 0.982267 0.500000
O O2 0.919557 0.091228 0.722446
O O3 0.832185 0.988708 0.708202
O O4 0.927119 0.921424 0.769418
O O5 0.420954 0.351369 0.500000
O O6 0.497595 0.302305 0.308250
O O7 0.401019 0.241091 0.272774
O O8 0.908348 0.748663 0.730133
O O9 0.920746 0.815724 0.000000
O O10 0.160721 0.515823 0.500000
O O11 0.229130 0.508476 0.278666
O O12 0.143243 0.402198 0.278380
O O13 0.129618 0.573355 0.240798
O O14 0.245036 0.738372 0.500000
O O15 0.219817 0.861482 0.702856
O O16 0.302851 0.751356 0.742541
O O17 0.203378 0.695453 0.757404
O O18 0.756719 0.016884 0.500000
O O19 0.154033 0.286178 0.500000
O O20 0.350890 0.165493 0.500000
#
# Coordination Sequence:
#
# PCOD8236633 Si02
#       8
#     8   8   8   8   8   8   8   8
#     4  11  22  37  59  89 121 156 197 243 295 352
#     4  10  23  42  61  85 119 158 202 246 295 350
#     4  11  24  41  61  85 116 158 203 247 294 354
#     4  10  22  38  59  86 119 155 195 243 297 354
#     4  10  19  35  58  85 117 153 190 235 291 348
#     4   9  19  35  55  83 119 154 189 232 286 349
#     4  10  22  41  61  86 118 153 196 246 297 349
#     4  11  22  37  60  87 118 156 197 244 294 348
#
# _framework density 19.468278999999999
#
# number of rings (size 3 to 8) (size 9 to 14) (size 15 to 20)
#    0.000    1.750    1.250    2.625    1.750    6.000 
#    0.000    0.625    0.000    3.750    0.000    0.000 
#    0.000    0.000    0.000    0.000    0.000    0.000 
#
# Total GULP energy -793931.618564 kJ/mol
# GULP energy per Si atom -12405.181540 kJ/mol
# Density = 1.942397 g / cm^3
# Si number density = 19.468279 Si / 1000 Ang^3
#
#
#
# Elastic Constant Matrix: (Units=GPa)
#
#
# Indices 1 2 3 4 5 6 
#
# 1 79.0457 48.7770 30.0116 0.0000 0.0000 0.0000
# 2 48.7770 101.0342 42.6316 0.0000 0.0000 0.0000
# 3 30.0116 42.6316 71.8436 0.0000 0.0000 0.0000
# 4 0.0000 0.0000 0.0000 35.7726 0.0000 0.0000
# 5 0.0000 0.0000 0.0000 0.0000 27.6069 0.0000
# 6 0.0000 0.0000 0.0000 0.0000 0.0000 25.4071
#
#
#
# Elastic Compliance Matrix: (Units=1/GPa)
#
#
# Indices 1 2 3 4 5 6 
#
# 1 0.018571 -0.007594 -0.003252 0.000000 0.000000 0.000000
# 2 -0.007594 0.016309 -0.006505 0.000000 0.000000 0.000000
# 3 -0.003252 -0.006505 0.019138 0.000000 0.000000 0.000000
# 4 0.000000 0.000000 0.000000 0.027954 0.000000 0.000000
# 5 0.000000 0.000000 0.000000 0.000000 0.036223 0.000000
# 6 0.000000 0.000000 0.000000 0.000000 0.000000 0.039359
#
#
# Mechanical properties :
#
#
# Convention : Reuss Voigt Hill
#
# Bulk Modulus (GPa) = 51.77038 54.97374 53.37206
# Shear Modulus (GPa) = 25.16425 26.45754 25.81089
#
# Velocity S-wave (km/s) = 3.59914 3.69047 3.64509
# Velocity P-wave (km/s) = 6.62734 6.81604 6.72235
#
# Compressibility (1/GPa) = 0.01931606
#
# Stress axis : x y z
#
# Youngs Moduli (GPa) = 53.84607 61.31720 52.25273
#
# Poissons Ratio (x) = 0.46563 0.16992
# Poissons Ratio (y) = 0.40889 0.33992
# Poissons Ratio (z) = 0.17510 0.39889
#
# Static dielectric constant tensor:
#      x y z
#    x 3.494410 0.000000 0.000000 
#    y 0.000000 3.646100 0.000000 
#    z 0.000000 0.000000 3.611310 
# 
# 
# High freq. dielectric constant tensor:
#      x y z
#    x 1.746150 0.000000 0.000000 
#    y 0.000000 1.764290 0.000000 
#    z 0.000000 0.000000 1.767840 
# 
# From -- ./inp_files/6894.got.cif
#   From: 2010.06.25/outbox.cif.g09.slc.cpg/sg58_4_cif.got.tgz:6894.got - 2010.06.26 21:38:00.
