data_PCOD8236775
_publ_section_title
;
Structure prediction by ZEFSAII (Michael W. Deem and Ramdas Pophale) SiO2 
 PCOD8236775
Probable space group: P N N M
;
_chemical_formula_sum "Si O2"
_cell_formula_units_Z 64
_cell_length_a 23.983290
_cell_length_b 15.287399
_cell_length_c 8.956486
_cell_angle_alpha 90.000000
_cell_angle_beta 90.000000
_cell_angle_gamma 90.000000
_cell_volume 3283.825047
_symmetry_space_group_name_H-M "P N N M"
_symmetry_group_IT_number 58
_symmetry_cell_setting 'orthorhombic'
loop_
_space_group_symop_operation_xyz
x,y,z
-x,-y,z
1/2+x,1/2-y,1/2-z
1/2-x,1/2+y,1/2-z
-x,-y,-z
x,y,-z
1/2-x,1/2+y,1/2+z
1/2+x,1/2-y,1/2+z
loop_
_atom_site_type_symbol
_atom_site_label
_atom_site_fract_x
_atom_site_fract_y
_atom_site_fract_z
Si Si1 0.179152 0.250836 0.323345
Si Si2 0.874014 0.152451 0.325793
Si Si3 0.751156 0.101195 0.677272
Si Si4 0.625969 0.826437 0.668834
Si Si5 0.022125 0.903001 0.168375
Si Si6 0.741758 0.904161 0.323460
Si Si7 0.449773 0.744276 0.176231
Si Si8 0.990809 0.403759 0.169642
O O1 0.186100 0.260046 0.500000
O O2 0.203854 0.338691 0.250413
O O3 0.211676 0.164186 0.263648
O O4 0.114931 0.241296 0.275537
O O5 0.880811 0.136436 0.500000
O O6 0.811229 0.136498 0.272156
O O7 0.891174 0.249953 0.281033
O O8 0.917056 0.089099 0.242804
O O9 0.742934 0.104477 0.500000
O O10 0.749003 0.002047 0.740354
O O11 0.635551 0.790770 0.500000
O O12 0.681359 0.872307 0.730192
O O13 0.575630 0.893881 0.673319
O O14 0.980894 0.838768 0.255163
O O15 0.027659 0.866852 0.000000
O O16 0.000000 0.000000 0.171566
O O17 0.746155 0.909175 0.500000
O O18 0.476610 0.834260 0.230987
O O19 0.456392 0.738466 0.000000
O O20 0.000000 0.500000 0.236438
O O21 0.013345 0.396140 0.000000
#
# Coordination Sequence:
#
# PCOD8236775 Si02
#       8
#     8   8   8   8   8   8   8   8
#     4  10  22  40  60  84 119 158 195 238 295 352
#     4  11  22  37  61  91 121 152 193 248 301 349
#     4  10  22  38  61  90 118 154 199 242 289 347
#     4  10  19  36  62  84 112 155 200 242 290 348
#     4  11  25  43  63  88 118 158 203 246 297 359
#     4   9  19  37  60  84 114 155 197 237 284 347
#     4  11  24  40  61  89 121 159 198 247 306 354
#     4  10  22  38  60  89 118 158 203 242 293 355
#
# _framework density 19.489467999999999
#
# number of rings (size 3 to 8) (size 9 to 14) (size 15 to 20)
#    0.000    1.750    2.500    1.125    3.500    2.750 
#    0.000    1.250    0.000    0.000    0.000    0.000 
#    0.000    0.000    0.000    0.000    0.000    0.000 
#
# Total GULP energy -793682.076947 kJ/mol
# GULP energy per Si atom -12401.282452 kJ/mol
# Density = 1.944511 g / cm^3
# Si number density = 19.489468 Si / 1000 Ang^3
#
#
#
# Elastic Constant Matrix: (Units=GPa)
#
#
# Indices 1 2 3 4 5 6 
#
# 1 130.1590 38.7901 46.2051 0.0000 0.0000 0.0000
# 2 38.7901 111.1951 30.9025 0.0000 0.0000 0.0000
# 3 46.2051 30.9025 64.6683 0.0000 0.0000 0.0000
# 4 0.0000 0.0000 0.0000 16.6886 0.0000 0.0000
# 5 0.0000 0.0000 0.0000 0.0000 28.7632 0.0000
# 6 0.0000 0.0000 0.0000 0.0000 0.0000 31.4456
#
#
#
# Elastic Compliance Matrix: (Units=1/GPa)
#
#
# Indices 1 2 3 4 5 6 
#
# 1 0.010610 -0.001839 -0.006702 0.000000 0.000000 0.000000
# 2 -0.001839 0.010689 -0.003794 0.000000 0.000000 0.000000
# 3 -0.006702 -0.003794 0.022065 0.000000 0.000000 0.000000
# 4 0.000000 0.000000 0.000000 0.059921 0.000000 0.000000
# 5 0.000000 0.000000 0.000000 0.000000 0.034767 0.000000
# 6 0.000000 0.000000 0.000000 0.000000 0.000000 0.031801
#
#
# Mechanical properties :
#
#
# Convention : Reuss Voigt Hill
#
# Bulk Modulus (GPa) = 53.49213 59.75755 56.62484
# Shear Modulus (GPa) = 24.90601 28.05448 26.48025
#
# Velocity S-wave (km/s) = 3.57868 3.79815 3.69005
# Velocity P-wave (km/s) = 6.67699 7.06842 6.87549
#
# Compressibility (1/GPa) = 0.01869434
#
# Stress axis : x y z
#
# Youngs Moduli (GPa) = 94.24992 93.55356 45.32001
#
# Poissons Ratio (x) = 0.17201 0.30374
# Poissons Ratio (y) = 0.17329 0.17195
# Poissons Ratio (z) = 0.63168 0.35496
#
# Static dielectric constant tensor:
#      x y z
#    x 3.849990 0.000000 0.000000 
#    y 0.000000 3.678520 0.000000 
#    z 0.000000 0.000000 3.448330 
# 
# 
# High freq. dielectric constant tensor:
#      x y z
#    x 1.775050 0.000000 0.000000 
#    y 0.000000 1.765230 0.000000 
#    z 0.000000 0.000000 1.742050 
# 
# From -- ./inp_files/10074.got.cif
#   From: 2010.06.25/outbox.cif.g09.slc.cpg/sg58_6_cif.got.tgz:10074.got - 2010.06.26 21:38:00.
