data_PCOD8236737
_publ_section_title
;
Structure prediction by ZEFSAII (Michael W. Deem and Ramdas Pophale) SiO2 
 PCOD8236737
Probable space group: P N N M
;
_chemical_formula_sum "Si O2"
_cell_formula_units_Z 64
_cell_length_a 15.290119
_cell_length_b 24.248449
_cell_length_c 9.022058
_cell_angle_alpha 90.000000
_cell_angle_beta 90.000000
_cell_angle_gamma 90.000000
_cell_volume 3345.033298
_symmetry_space_group_name_H-M "P N N M"
_symmetry_group_IT_number 58
_symmetry_cell_setting 'orthorhombic'
loop_
_space_group_symop_operation_xyz
x,y,z
-x,-y,z
1/2+x,1/2-y,1/2-z
1/2-x,1/2+y,1/2-z
-x,-y,-z
x,y,-z
1/2-x,1/2+y,1/2+z
1/2+x,1/2-y,1/2+z
loop_
_atom_site_type_symbol
_atom_site_label
_atom_site_fract_x
_atom_site_fract_y
_atom_site_fract_z
Si Si1 0.752450 0.568191 0.323342
Si Si2 0.595113 0.259994 0.826692
Si Si3 0.580737 0.770347 0.323194
Si Si4 0.143176 0.118515 0.664478
Si Si5 0.897993 0.498287 0.175083
Si Si6 0.265108 0.306237 0.324263
Si Si7 0.596712 0.489301 0.325356
Si Si8 0.655044 0.881617 0.666258
O O1 0.759566 0.565115 0.500000
O O2 0.843468 0.546393 0.255282
O O3 0.738827 0.630799 0.266530
O O4 0.669542 0.532209 0.263958
O O5 0.516360 0.237954 0.730539
O O6 0.595816 0.324997 0.793486
O O7 0.681589 0.228679 0.768770
O O8 0.580480 0.248243 0.000000
O O9 0.585447 0.771310 0.500000
O O10 0.646838 0.723084 0.262805
O O11 0.607654 0.830012 0.256212
O O12 0.115731 0.097878 0.500000
O O13 0.121668 0.072687 0.784617
O O14 0.244178 0.133224 0.666675
O O15 0.863399 0.440312 0.243446
O O16 0.000000 0.500000 0.214992
O O17 0.881024 0.504306 0.000000
O O18 0.266938 0.306076 0.500000
O O19 0.500000 0.500000 0.258059
O O20 0.593580 0.495104 0.500000
O O21 0.618104 0.887691 0.500000
#
# Coordination Sequence:
#
# PCOD8236737 Si02
#       8
#     8   8   8   8   8   8   8   8
#     4  10  21  37  55  78 110 146 182 220 268 326
#     4  10  21  37  56  82 111 141 181 227 271 318
#     4  10  20  36  60  83 105 143 187 221 267 328
#     4  10  19  36  60  80 105 143 186 226 269 326
#     4  10  21  36  56  81 111 143 179 226 274 319
#     4   9  19  37  57  76 108 150 181 213 269 335
#     4  10  22  37  55  82 113 143 182 230 273 318
#     4   9  17  34  57  79 104 139 182 222 266 323
#
# _framework density 19.132845
#
# number of rings (size 3 to 8) (size 9 to 14) (size 15 to 20)
#    0.000    2.250    2.500    0.000    3.500    1.000 
#    0.000    2.500    0.000    0.000    0.000    0.000 
#    0.000    0.000    0.000    0.000    0.000    0.000 
#
# Total GULP energy -793407.243090 kJ/mol
# GULP energy per Si atom -12396.988173 kJ/mol
# Density = 1.908930 g / cm^3
# Si number density = 19.132845 Si / 1000 Ang^3
#
#
#
# Elastic Constant Matrix: (Units=GPa)
#
#
# Indices 1 2 3 4 5 6 
#
# 1 92.5216 26.6112 14.9862 0.0000 0.0000 0.0000
# 2 26.6112 101.2807 14.9607 0.0000 0.0000 0.0000
# 3 14.9862 14.9607 13.0615 0.0000 0.0000 0.0000
# 4 0.0000 0.0000 0.0000 18.8483 0.0000 0.0000
# 5 0.0000 0.0000 0.0000 0.0000 22.9086 0.0000
# 6 0.0000 0.0000 0.0000 0.0000 0.0000 31.7136
#
#
#
# Elastic Compliance Matrix: (Units=1/GPa)
#
#
# Indices 1 2 3 4 5 6 
#
# 1 0.013465 -0.001512 -0.013718 0.000000 0.000000 0.000000
# 2 -0.001512 0.012054 -0.012072 0.000000 0.000000 0.000000
# 3 -0.013718 -0.012072 0.106128 0.000000 0.000000 0.000000
# 4 0.000000 0.000000 0.000000 0.053055 0.000000 0.000000
# 5 0.000000 0.000000 0.000000 0.000000 0.043652 0.000000
# 6 0.000000 0.000000 0.000000 0.000000 0.000000 0.031532
#
#
# Mechanical properties :
#
#
# Convention : Reuss Voigt Hill
#
# Bulk Modulus (GPa) = 12.97971 35.55333 24.26652
# Shear Modulus (GPa) = 14.69851 24.71447 19.70649
#
# Velocity S-wave (km/s) = 2.77471 3.59796 3.21282
# Velocity P-wave (km/s) = 4.13087 5.99025 5.14525
#
# Compressibility (1/GPa) = 0.07704334
#
# Stress axis : x y z
#
# Youngs Moduli (GPa) = 74.26658 82.96017 9.42260
#
# Poissons Ratio (x) = 0.12540 0.12926
# Poissons Ratio (y) = 0.11226 0.11375
# Poissons Ratio (z) = 1.01878 1.00152
#
# Static dielectric constant tensor:
#      x y z
#    x 3.573790 0.000000 0.000000 
#    y 0.000000 3.756900 0.000000 
#    z 0.000000 0.000000 3.078080 
# 
# 
# High freq. dielectric constant tensor:
#      x y z
#    x 1.752830 0.000000 0.000000 
#    y 0.000000 1.761530 0.000000 
#    z 0.000000 0.000000 1.699620 
# 
# From -- ./inp_files/6846.got.cif
#   From: 2010.06.25/outbox.cif.g09.slc.cpg/sg58_4_cif.got.tgz:6846.got - 2010.06.26 21:38:00.
