data_PCOD8236435
_publ_section_title
;
Structure prediction by ZEFSAII (Michael W. Deem and Ramdas Pophale) SiO2 
 PCOD8236435
Probable space group: P N N M
;
_chemical_formula_sum "Si O2"
_cell_formula_units_Z 64
_cell_length_a 9.086029
_cell_length_b 30.697257
_cell_length_c 13.542252
_cell_angle_alpha 90.000000
_cell_angle_beta 90.000000
_cell_angle_gamma 90.000000
_cell_volume 3777.153025
_symmetry_space_group_name_H-M "P N N M"
_symmetry_group_IT_number 58
_symmetry_cell_setting 'orthorhombic'
loop_
_space_group_symop_operation_xyz
x,y,z
-x,-y,z
1/2+x,1/2-y,1/2-z
1/2-x,1/2+y,1/2-z
-x,-y,-z
x,y,-z
1/2-x,1/2+y,1/2+z
1/2+x,1/2-y,1/2+z
loop_
_atom_site_type_symbol
_atom_site_label
_atom_site_fract_x
_atom_site_fract_y
_atom_site_fract_z
Si Si1 0.660821 0.005332 0.386181
Si Si2 0.302170 0.601855 0.610539
Si Si3 0.835893 0.091574 0.383777
Si Si4 0.021641 0.822918 0.892839
Si Si5 0.726848 0.172456 0.741327
Si Si6 0.408337 0.542631 0.222682
Si Si7 0.546830 0.831191 0.116415
Si Si8 0.239168 0.244328 0.110730
O O1 0.644948 0.994721 0.500000
O O2 0.717212 0.053894 0.366756
O O3 0.500000 0.000000 0.335206
O O4 0.776395 0.969924 0.349172
O O5 0.276564 0.584005 0.500000
O O6 0.450866 0.629636 0.615769
O O7 0.327900 0.561030 0.680938
O O8 0.162806 0.630900 0.642886
O O9 0.863976 0.100265 0.500000
O O10 0.766129 0.133679 0.332877
O O11 0.990080 0.078205 0.332726
O O12 0.897762 0.787176 0.882296
O O13 0.136629 0.815531 0.808195
O O14 0.099000 0.818440 0.000000
O O15 0.590639 0.160571 0.811868
O O16 0.699041 0.215638 0.679591
O O17 0.500000 0.500000 0.253863
O O18 0.616139 0.783651 0.140719
O O19 0.503628 0.833635 0.000000
O O20 0.261121 0.262150 0.000000
#
# Coordination Sequence:
#
# PCOD8236435 Si02
#       8
#     8   8   8   8   8   8   8   8
#     4   9  19  35  55  75 101 138 174 209 254 313
#     4   9  18  35  53  74 103 136 171 212 259 305
#     4  10  21  34  49  79 109 134 167 214 262 304
#     4   9  18  33  52  72  99 134 178 208 242 307
#     4  12  19  30  54  81 102 133 171 219 256 302
#     4  10  19  34  56  78 101 137 176 213 256 314
#     4   9  20  35  52  74 105 139 175 211 254 310
#     4   9  19  35  51  72 103 141 170 210 261 303
#
# _framework density 16.943978999999999
#
# number of rings (size 3 to 8) (size 9 to 14) (size 15 to 20)
#    0.000    2.375    1.250    3.375    1.750    1.750 
#    0.000    0.000    0.000    0.375    0.000    0.000 
#    0.000    0.000    0.000    0.000    0.000    0.000 
#
# Total GULP energy -793337.793289 kJ/mol
# GULP energy per Si atom -12395.903020 kJ/mol
# Density = 1.690541 g / cm^3
# Si number density = 16.943979 Si / 1000 Ang^3
#
#
#
# Elastic Constant Matrix: (Units=GPa)
#
#
# Indices 1 2 3 4 5 6 
#
# 1 67.6511 19.0939 25.2084 0.0000 0.0000 0.0000
# 2 19.0939 72.9736 40.9714 0.0000 0.0000 0.0000
# 3 25.2084 40.9714 78.2833 0.0000 0.0000 0.0000
# 4 0.0000 0.0000 0.0000 30.6166 0.0000 0.0000
# 5 0.0000 0.0000 0.0000 0.0000 31.6679 0.0000
# 6 0.0000 0.0000 0.0000 0.0000 0.0000 13.6635
#
#
#
# Elastic Compliance Matrix: (Units=1/GPa)
#
#
# Indices 1 2 3 4 5 6 
#
# 1 0.016990 -0.001945 -0.004453 0.000000 0.000000 0.000000
# 2 -0.001945 0.019629 -0.009647 0.000000 0.000000 0.000000
# 3 -0.004453 -0.009647 0.019257 0.000000 0.000000 0.000000
# 4 0.000000 0.000000 0.000000 0.032662 0.000000 0.000000
# 5 0.000000 0.000000 0.000000 0.000000 0.031578 0.000000
# 6 0.000000 0.000000 0.000000 0.000000 0.000000 0.073188
#
#
# Mechanical properties :
#
#
# Convention : Reuss Voigt Hill
#
# Bulk Modulus (GPa) = 42.04219 43.27283 42.65751
# Shear Modulus (GPa) = 21.42961 24.09854 22.76408
#
# Velocity S-wave (km/s) = 3.56017 3.77536 3.66934
# Velocity P-wave (km/s) = 6.46267 6.67822 6.57133
#
# Compressibility (1/GPa) = 0.02378563
#
# Stress axis : x y z
#
# Youngs Moduli (GPa) = 58.85802 50.94539 51.92951
#
# Poissons Ratio (x) = 0.09911 0.23123
# Poissons Ratio (y) = 0.11450 0.50095
# Poissons Ratio (z) = 0.26209 0.49146
#
# Static dielectric constant tensor:
#      x y z
#    x 3.232060 0.000000 0.000000 
#    y 0.000000 3.096970 0.000000 
#    z 0.000000 0.000000 3.232800 
# 
# 
# High freq. dielectric constant tensor:
#      x y z
#    x 1.655590 0.000000 0.000000 
#    y 0.000000 1.647310 0.000000 
#    z 0.000000 0.000000 1.656650 
# 
# From -- ./inp_files/13436.got.cif
#   From: 2010.06.25/outbox.cif.g09.slc.cpg/sg58_7_cif.got.tgz:13436.got - 2010.06.26 21:38:00.
