data_PCOD8236764
_publ_section_title
;
Structure prediction by ZEFSAII (Michael W. Deem and Ramdas Pophale) SiO2 
 PCOD8236764
Probable space group: P N N M
;
_chemical_formula_sum "Si O2"
_cell_formula_units_Z 48
_cell_length_a 16.408412
_cell_length_b 17.757387
_cell_length_c 8.905283
_cell_angle_alpha 90.000000
_cell_angle_beta 90.000000
_cell_angle_gamma 90.000000
_cell_volume 2594.736956
_symmetry_space_group_name_H-M "P N N M"
_symmetry_group_IT_number 58
_symmetry_cell_setting 'orthorhombic'
loop_
_space_group_symop_operation_xyz
x,y,z
-x,-y,z
1/2+x,1/2-y,1/2-z
1/2-x,1/2+y,1/2-z
-x,-y,-z
x,y,-z
1/2-x,1/2+y,1/2+z
1/2+x,1/2-y,1/2+z
loop_
_atom_site_type_symbol
_atom_site_label
_atom_site_fract_x
_atom_site_fract_y
_atom_site_fract_z
Si Si1 0.855280 0.326090 0.676062
Si Si2 0.253377 0.558404 0.827787
Si Si3 0.002107 0.586547 0.826994
Si Si4 0.169836 0.831911 0.823208
Si Si5 0.681465 0.100581 0.670928
Si Si6 0.912290 0.028423 0.675949
O O1 0.851912 0.313104 0.500000
O O2 0.774949 0.372339 0.725274
O O3 0.858925 0.246539 0.756841
O O4 0.936813 0.370268 0.719243
O O5 0.194387 0.487719 0.794466
O O6 0.346261 0.536523 0.787552
O O7 0.245741 0.584026 0.000000
O O8 0.912462 0.622053 0.803996
O O9 0.000000 0.500000 0.778438
O O10 0.030939 0.594029 0.000000
O O11 0.263308 0.848279 0.777965
O O12 0.109299 0.895937 0.763496
O O13 0.163111 0.828437 0.000000
O O14 0.709211 0.116325 0.500000
O O15 0.911803 0.047487 0.500000
O O16 0.000000 0.000000 0.731193
#
# Coordination Sequence:
#
# PCOD8236764 Si02
#       6
#     8   8   8   8   8   8
#     4  12  24  37  55  83 119 154 193 238 285 335
#     4   9  17  34  59  84 111 147 185 226 284 342
#     4  10  19  36  61  87 116 151 187 228 285 345
#     4  11  23  39  59  82 115 154 193 237 287 337
#     4   9  18  36  61  84 111 147 185 227 280 342
#     4   9  19  39  65  88 112 147 190 237 288 343
#
# _framework density 18.498985999999999
#
# number of rings (size 3 to 8) (size 9 to 14) (size 15 to 20)
#    0.000    2.000    1.667    4.000    0.000    4.000 
#    3.000    0.000    0.000    0.000    0.000    0.000 
#    0.000    0.000    0.000    0.000    0.000    0.000 
#
# Total GULP energy -595335.013793 kJ/mol
# GULP energy per Si atom -12402.812787 kJ/mol
# Density = 1.845688 g / cm^3
# Si number density = 18.498986 Si / 1000 Ang^3
#
#
#
# Elastic Constant Matrix: (Units=GPa)
#
#
# Indices 1 2 3 4 5 6 
#
# 1 123.2966 55.1988 46.8770 0.0000 0.0000 0.0000
# 2 55.1988 103.8437 62.6458 0.0000 0.0000 0.0000
# 3 46.8770 62.6458 111.7481 0.0000 0.0000 0.0000
# 4 0.0000 0.0000 0.0000 32.8940 0.0000 0.0000
# 5 0.0000 0.0000 0.0000 0.0000 128.3745 0.0000
# 6 0.0000 0.0000 0.0000 0.0000 0.0000 14.2098
#
#
#
# Elastic Compliance Matrix: (Units=1/GPa)
#
#
# Indices 1 2 3 4 5 6 
#
# 1 0.010933 -0.004601 -0.002007 0.000000 0.000000 0.000000
# 2 -0.004601 0.016487 -0.007313 0.000000 0.000000 0.000000
# 3 -0.002007 -0.007313 0.013890 0.000000 0.000000 0.000000
# 4 0.000000 0.000000 0.000000 0.030401 0.000000 0.000000
# 5 0.000000 0.000000 0.000000 0.000000 0.007790 0.000000
# 6 0.000000 0.000000 0.000000 0.000000 0.000000 0.070374
#
#
# Mechanical properties :
#
#
# Convention : Reuss Voigt Hill
#
# Bulk Modulus (GPa) = 74.24325 74.25907 74.25116
# Shear Modulus (GPa) = 27.44155 46.70679 37.07417
#
# Velocity S-wave (km/s) = 3.85568 5.03022 4.48160
# Velocity P-wave (km/s) = 7.74871 8.60040 8.18564
#
# Compressibility (1/GPa) = 0.01346924
#
# Stress axis : x y z
#
# Youngs Moduli (GPa) = 91.46274 60.65428 71.99374
#
# Poissons Ratio (x) = 0.27906 0.14451
# Poissons Ratio (y) = 0.42080 0.52646
# Poissons Ratio (z) = 0.18359 0.44354
#
# Static dielectric constant tensor:
#      x y z
#    x 3.635170 0.000000 0.000000 
#    y 0.000000 3.292860 0.000000 
#    z 0.000000 0.000000 3.290130 
# 
# 
# High freq. dielectric constant tensor:
#      x y z
#    x 1.725390 0.000000 0.000000 
#    y 0.000000 1.705560 0.000000 
#    z 0.000000 0.000000 1.710490 
# 
# From -- ./inp_files/7725.got.cif
#   From: 2010.06.25/outbox.cif.g09.slc.cpg/sg58_4_cif.got.tgz:7725.got - 2010.06.26 21:38:00.
