data_PCOD8236684
_publ_section_title
;
Structure prediction by ZEFSAII (Michael W. Deem and Ramdas Pophale) SiO2 
 PCOD8236684
Probable space group: P N N M
;
_chemical_formula_sum "Si O2"
_cell_formula_units_Z 56
_cell_length_a 15.797127
_cell_length_b 11.160987
_cell_length_c 15.283163
_cell_angle_alpha 90.000000
_cell_angle_beta 90.000000
_cell_angle_gamma 90.000000
_cell_volume 2694.597838
_symmetry_space_group_name_H-M "P N N M"
_symmetry_group_IT_number 58
_symmetry_cell_setting 'orthorhombic'
loop_
_space_group_symop_operation_xyz
x,y,z
-x,-y,z
1/2+x,1/2-y,1/2-z
1/2-x,1/2+y,1/2-z
-x,-y,-z
x,y,-z
1/2-x,1/2+y,1/2+z
1/2+x,1/2-y,1/2+z
loop_
_atom_site_type_symbol
_atom_site_label
_atom_site_fract_x
_atom_site_fract_y
_atom_site_fract_z
Si Si1 0.862067 0.262148 0.701820
Si Si2 0.187843 0.502745 0.218151
Si Si3 0.314931 0.782066 0.605495
Si Si4 0.418533 0.559497 0.596571
Si Si5 0.709108 0.625253 0.353302
Si Si6 0.006637 0.135840 0.601194
Si Si7 0.697185 0.352560 0.903691
O O1 0.874648 0.391222 0.750247
O O2 0.777409 0.255037 0.642066
O O3 0.855740 0.165585 0.778257
O O4 0.944728 0.230319 0.647044
O O5 0.150707 0.406567 0.148243
O O6 0.211506 0.438136 0.307855
O O7 0.270952 0.557978 0.170998
O O8 0.311425 0.791478 0.500000
O O9 0.381750 0.681195 0.639518
O O10 0.500000 0.500000 0.646461
O O11 0.449948 0.595580 0.500000
O O12 0.341748 0.465713 0.585983
O O13 0.744677 0.735016 0.409272
O O14 0.981099 0.136183 0.500000
O O15 0.101188 0.183495 0.618130
O O16 0.000000 0.000000 0.637835
O O17 0.701269 0.414769 0.000000
#
# Coordination Sequence:
#
# PCOD8236684 Si02
#       7
#     8   8   8   8   8   8   8
#     4  10  20  35  57  88 122 158 193 244 300 362
#     4  10  20  36  58  84 121 156 200 240 294 363
#     4  10  19  35  61  86 117 157 198 248 302 361
#     4  10  21  37  60  87 110 146 202 255 299 353
#     4  10  20  36  56  82 119 152 193 239 300 353
#     4  10  20  36  59  92 123 153 203 252 295 357
#     4  10  21  37  60  85 118 161 197 240 296 359
#
# _framework density 20.782322000000001
#
# number of rings (size 3 to 8) (size 9 to 14) (size 15 to 20)
#    0.000    2.000    1.429    3.000    0.000    2.857 
#    0.000    0.714    3.143    1.714    0.000    7.000 
#    0.000    0.000    0.000    0.000    0.000    0.000 
#
# Total GULP energy -693949.098408 kJ/mol
# GULP energy per Si atom -12391.948186 kJ/mol
# Density = 2.073502 g / cm^3
# Si number density = 20.782322 Si / 1000 Ang^3
#
#
#
# Elastic Constant Matrix: (Units=GPa)
#
#
# Indices 1 2 3 4 5 6 
#
# 1 94.2109 53.4081 30.0608 0.0000 0.0000 0.0000
# 2 53.4081 133.0047 30.3412 0.0000 0.0000 0.0000
# 3 30.0608 30.3412 72.5553 0.0000 0.0000 0.0000
# 4 0.0000 0.0000 0.0000 27.7084 0.0000 0.0000
# 5 0.0000 0.0000 0.0000 0.0000 21.0990 0.0000
# 6 0.0000 0.0000 0.0000 0.0000 0.0000 29.6341
#
#
#
# Elastic Compliance Matrix: (Units=1/GPa)
#
#
# Indices 1 2 3 4 5 6 
#
# 1 0.014729 -0.004999 -0.004012 0.000000 0.000000 0.000000
# 2 -0.004999 0.010008 -0.002114 0.000000 0.000000 0.000000
# 3 -0.004012 -0.002114 0.016329 0.000000 0.000000 0.000000
# 4 0.000000 0.000000 0.000000 0.036090 0.000000 0.000000
# 5 0.000000 0.000000 0.000000 0.000000 0.047396 0.000000
# 6 0.000000 0.000000 0.000000 0.000000 0.000000 0.033745
#
#
# Mechanical properties :
#
#
# Convention : Reuss Voigt Hill
#
# Bulk Modulus (GPa) = 53.14694 58.59903 55.87298
# Shear Modulus (GPa) = 26.76405 28.08568 27.42486
#
# Velocity S-wave (km/s) = 3.59252 3.68016 3.63660
# Velocity P-wave (km/s) = 6.54500 6.80558 6.67656
#
# Compressibility (1/GPa) = 0.01881576
#
# Stress axis : x y z
#
# Youngs Moduli (GPa) = 67.89544 99.91829 61.24164
#
# Poissons Ratio (x) = 0.49950 0.24569
# Poissons Ratio (y) = 0.33942 0.12947
# Poissons Ratio (z) = 0.27238 0.21123
#
# Static dielectric constant tensor:
#      x y z
#    x 3.509440 0.000000 0.000000 
#    y 0.000000 3.936040 0.000000 
#    z 0.000000 0.000000 3.724830 
# 
# 
# High freq. dielectric constant tensor:
#      x y z
#    x 1.785370 0.000000 0.000000 
#    y 0.000000 1.816990 0.000000 
#    z 0.000000 0.000000 1.817740 
# 
# From -- ./inp_files/21275.got.cif
#   From: 2010.06.25/outbox.cif.g09.slc.cpg/sg58_11_cif.got.tgz:21275.got - 2010.06.26 21:38:00.
