data_PCOD8236305
_publ_section_title
;
Structure prediction by ZEFSAII (Michael W. Deem and Ramdas Pophale) SiO2 
 PCOD8236305
Probable space group: P N N M
;
_chemical_formula_sum "Si O2"
_cell_formula_units_Z 64
_cell_length_a 24.402628
_cell_length_b 14.728268
_cell_length_c 9.388949
_cell_angle_alpha 90.000000
_cell_angle_beta 90.000000
_cell_angle_gamma 90.000000
_cell_volume 3374.467561
_symmetry_space_group_name_H-M "P N N M"
_symmetry_group_IT_number 58
_symmetry_cell_setting 'orthorhombic'
loop_
_space_group_symop_operation_xyz
x,y,z
-x,-y,z
1/2+x,1/2-y,1/2-z
1/2-x,1/2+y,1/2-z
-x,-y,-z
x,y,-z
1/2-x,1/2+y,1/2+z
1/2+x,1/2-y,1/2+z
loop_
_atom_site_type_symbol
_atom_site_label
_atom_site_fract_x
_atom_site_fract_y
_atom_site_fract_z
Si Si1 0.257788 0.657456 0.666638
Si Si2 0.550182 0.762208 0.335610
Si Si3 0.672763 0.513042 0.669142
Si Si4 0.346079 0.131354 0.656878
Si Si5 0.477401 0.901124 0.167518
Si Si6 0.051149 0.944030 0.831576
Si Si7 0.624608 0.065209 0.659842
Si Si8 0.242293 0.363946 0.832461
O O1 0.250803 0.654830 0.500000
O O2 0.305922 0.587767 0.712662
O O3 0.200829 0.622863 0.728116
O O4 0.268235 0.760205 0.718281
O O5 0.532515 0.777972 0.500000
O O6 0.614725 0.782868 0.315671
O O7 0.515590 0.824424 0.231787
O O8 0.541731 0.659473 0.285878
O O9 0.677188 0.529668 0.500000
O O10 0.609967 0.519421 0.723915
O O11 0.708114 0.591299 0.745540
O O12 0.318890 0.137708 0.500000
O O13 0.384701 0.042774 0.666304
O O14 0.417072 0.886827 0.232832
O O15 0.500000 0.000000 0.208657
O O16 0.473980 0.887213 0.000000
O O17 0.051114 0.953940 0.000000
O O18 0.000000 0.000000 0.765486
O O19 0.614003 0.102807 0.500000
O O20 0.686810 0.083859 0.706447
O O21 0.256068 0.369934 0.000000
#
# Coordination Sequence:
#
# PCOD8236305 Si02
#       8
#     8   8   8   8   8   8   8   8
#     4  10  21  34  54  83 114 147 183 225 278 332
#     4  10  20  35  58  83 108 145 190 232 275 327
#     4  10  20  36  58  83 111 143 184 232 277 326
#     4  10  19  33  55  82 110 143 187 229 270 326
#     4  11  23  36  53  80 114 147 181 225 279 334
#     4   9  19  36  59  85 109 140 187 238 279 321
#     4  10  20  35  56  79 109 146 184 227 272 327
#     4  10  21  37  55  82 115 148 184 223 274 332
#
# _framework density 18.965955000000001
#
# number of rings (size 3 to 8) (size 9 to 14) (size 15 to 20)
#    0.000    2.000    2.500    1.125    0.000    4.500 
#    0.000    4.375    0.000    3.000    0.000    0.000 
#    0.000    0.000    0.000    0.000    0.000    0.000 
#
# Total GULP energy -793559.037580 kJ/mol
# GULP energy per Si atom -12399.359962 kJ/mol
# Density = 1.892279 g / cm^3
# Si number density = 18.965955 Si / 1000 Ang^3
#
#
#
# Elastic Constant Matrix: (Units=GPa)
#
#
# Indices 1 2 3 4 5 6 
#
# 1 131.4593 69.4057 43.7190 0.0000 0.0000 0.0000
# 2 69.4057 132.8822 44.7931 0.0000 0.0000 0.0000
# 3 43.7190 44.7931 38.6281 0.0000 0.0000 0.0000
# 4 0.0000 0.0000 0.0000 21.2517 0.0000 0.0000
# 5 0.0000 0.0000 0.0000 0.0000 29.1200 0.0000
# 6 0.0000 0.0000 0.0000 0.0000 0.0000 31.2887
#
#
#
# Elastic Compliance Matrix: (Units=1/GPa)
#
#
# Indices 1 2 3 4 5 6 
#
# 1 0.012878 -0.002977 -0.011123 0.000000 0.000000 0.000000
# 2 -0.002977 0.013043 -0.011756 0.000000 0.000000 0.000000
# 3 -0.011123 -0.011756 0.052109 0.000000 0.000000 0.000000
# 4 0.000000 0.000000 0.000000 0.047055 0.000000 0.000000
# 5 0.000000 0.000000 0.000000 0.000000 0.034341 0.000000
# 6 0.000000 0.000000 0.000000 0.000000 0.000000 0.031960
#
#
# Mechanical properties :
#
#
# Convention : Reuss Voigt Hill
#
# Bulk Modulus (GPa) = 37.99602 68.75613 53.37608
# Shear Modulus (GPa) = 19.85160 26.00218 22.92689
#
# Velocity S-wave (km/s) = 3.23878 3.70671 3.48062
# Velocity P-wave (km/s) = 5.83640 7.39261 6.66011
#
# Compressibility (1/GPa) = 0.02631855
#
# Stress axis : x y z
#
# Youngs Moduli (GPa) = 77.65381 76.67036 19.19068
#
# Poissons Ratio (x) = 0.22822 0.21346
# Poissons Ratio (y) = 0.23115 0.22560
# Poissons Ratio (z) = 0.86375 0.90130
#
# Static dielectric constant tensor:
#      x y z
#    x 3.480710 0.000000 0.000000 
#    y 0.000000 3.683230 0.000000 
#    z 0.000000 0.000000 3.268040 
# 
# 
# High freq. dielectric constant tensor:
#      x y z
#    x 1.737290 0.000000 0.000000 
#    y 0.000000 1.743540 0.000000 
#    z 0.000000 0.000000 1.714310 
# 
# From -- ./inp_files/6770.got.cif
#   From: 2010.06.25/outbox.cif.g09.slc.cpg/sg58_4_cif.got.tgz:6770.got - 2010.06.26 21:38:00.
