data_PCOD8236784
_publ_section_title
;
Structure prediction by ZEFSAII (Michael W. Deem and Ramdas Pophale) SiO2 
 PCOD8236784
Probable space group: P N N M
;
_chemical_formula_sum "Si O2"
_cell_formula_units_Z 64
_cell_length_a 30.581681
_cell_length_b 11.986956
_cell_length_c 8.758679
_cell_angle_alpha 90.000000
_cell_angle_beta 90.000000
_cell_angle_gamma 90.000000
_cell_volume 3210.767624
_symmetry_space_group_name_H-M "P N N M"
_symmetry_group_IT_number 58
_symmetry_cell_setting 'orthorhombic'
loop_
_space_group_symop_operation_xyz
x,y,z
-x,-y,z
1/2+x,1/2-y,1/2-z
1/2-x,1/2+y,1/2-z
-x,-y,-z
x,y,-z
1/2-x,1/2+y,1/2+z
1/2+x,1/2-y,1/2+z
loop_
_atom_site_type_symbol
_atom_site_label
_atom_site_fract_x
_atom_site_fract_y
_atom_site_fract_z
Si Si1 0.047633 0.524841 0.326221
Si Si2 0.694854 0.505089 0.322232
Si Si3 0.951200 0.011772 0.681348
Si Si4 0.586075 0.744474 0.173246
Si Si5 0.294756 0.036248 0.822932
Si Si6 0.673534 0.752048 0.677507
Si Si7 0.872676 0.602874 0.180095
Si Si8 0.124836 0.152270 0.319282
O O1 0.051790 0.480287 0.500000
O O2 0.050278 0.658703 0.322180
O O3 0.084649 0.465764 0.227417
O O4 0.000000 0.500000 0.257025
O O5 0.684703 0.485794 0.500000
O O6 0.746128 0.504024 0.288138
O O7 0.679667 0.626152 0.265103
O O8 0.668915 0.412112 0.228013
O O9 0.953595 0.009851 0.500000
O O10 0.918288 0.914898 0.739079
O O11 0.933773 0.130697 0.739440
O O12 0.000000 0.000000 0.750565
O O13 0.624192 0.786486 0.284402
O O14 0.603669 0.727397 0.000000
O O15 0.295254 0.164406 0.768853
O O16 0.328803 0.958933 0.733842
O O17 0.307058 0.028763 0.000000
O O18 0.683956 0.764936 0.500000
O O19 0.875139 0.726141 0.247756
O O20 0.870938 0.612077 0.000000
O O21 0.124350 0.163910 0.500000
#
# Coordination Sequence:
#
# PCOD8236784 Si02
#       8
#     8   8   8   8   8   8   8   8
#     4  10  22  39  64  94 124 163 210 257 306 366
#     4  10  24  43  63  91 127 162 201 253 310 369
#     4   9  19  35  60  93 122 155 202 251 296 351
#     4  10  19  36  62  90 120 158 204 254 300 357
#     4  11  24  43  65  91 121 162 211 256 306 368
#     4  11  22  39  63  91 125 161 199 254 315 367
#     4  12  26  43  62  89 127 166 205 256 318 372
#     4  11  23  40  65  91 122 164 209 254 307 369
#
# _framework density 19.932926999999999
#
# number of rings (size 3 to 8) (size 9 to 14) (size 15 to 20)
#    0.000    1.500    2.500    2.250    3.500    1.750 
#    0.000    0.000    0.000    1.875    0.000    0.000 
#    0.000    0.000    0.000    0.000    0.000    0.000 
#
# Total GULP energy -793727.855881 kJ/mol
# GULP energy per Si atom -12401.997748 kJ/mol
# Density = 1.988756 g / cm^3
# Si number density = 19.932927 Si / 1000 Ang^3
#
#
#
# Elastic Constant Matrix: (Units=GPa)
#
#
# Indices 1 2 3 4 5 6 
#
# 1 107.0848 46.1794 48.6158 0.0000 0.0000 0.0000
# 2 46.1794 133.6100 46.0807 0.0000 0.0000 0.0000
# 3 48.6158 46.0807 77.8574 0.0000 0.0000 0.0000
# 4 0.0000 0.0000 0.0000 31.4650 0.0000 0.0000
# 5 0.0000 0.0000 0.0000 0.0000 21.0357 0.0000
# 6 0.0000 0.0000 0.0000 0.0000 0.0000 32.3424
#
#
#
# Elastic Compliance Matrix: (Units=1/GPa)
#
#
# Indices 1 2 3 4 5 6 
#
# 1 0.013536 -0.002216 -0.007141 0.000000 0.000000 0.000000
# 2 -0.002216 0.009767 -0.004397 0.000000 0.000000 0.000000
# 3 -0.007141 -0.004397 0.019905 0.000000 0.000000 0.000000
# 4 0.000000 0.000000 0.000000 0.031781 0.000000 0.000000
# 5 0.000000 0.000000 0.000000 0.000000 0.047538 0.000000
# 6 0.000000 0.000000 0.000000 0.000000 0.000000 0.030919
#
#
# Mechanical properties :
#
#
# Convention : Reuss Voigt Hill
#
# Bulk Modulus (GPa) = 63.69020 66.70045 65.19532
# Shear Modulus (GPa) = 26.85478 28.81370 27.83424
#
# Velocity S-wave (km/s) = 3.67448 3.80614 3.74089
# Velocity P-wave (km/s) = 7.07277 7.26985 7.17199
#
# Compressibility (1/GPa) = 0.01570100
#
# Stress axis : x y z
#
# Youngs Moduli (GPa) = 73.87898 102.38817 50.23804
#
# Poissons Ratio (x) = 0.22685 0.35873
# Poissons Ratio (y) = 0.16368 0.22090
# Poissons Ratio (z) = 0.52754 0.45021
#
# Static dielectric constant tensor:
#      x y z
#    x 3.738560 0.000000 0.000000 
#    y 0.000000 3.840820 0.000000 
#    z 0.000000 0.000000 3.478130 
# 
# 
# High freq. dielectric constant tensor:
#      x y z
#    x 1.783520 0.000000 0.000000 
#    y 0.000000 1.794220 0.000000 
#    z 0.000000 0.000000 1.762300 
# 
# From -- ./inp_files/11076.got.cif
#   From: 2010.06.25/outbox.cif.g09.slc.cpg/sg58_6_cif.got.tgz:11076.got - 2010.06.26 21:38:00.
