data_PCOD8236090
_publ_section_title
;
Structure prediction by ZEFSAII (Michael W. Deem and Ramdas Pophale) SiO2 
 PCOD8236090
Probable space group: P N N M
;
_chemical_formula_sum "Si O2"
_cell_formula_units_Z 64
_cell_length_a 9.512506
_cell_length_b 19.881663
_cell_length_c 19.680874
_cell_angle_alpha 90.000000
_cell_angle_beta 90.000000
_cell_angle_gamma 90.000000
_cell_volume 3722.134246
_symmetry_space_group_name_H-M "P N N M"
_symmetry_group_IT_number 58
_symmetry_cell_setting 'orthorhombic'
loop_
_space_group_symop_operation_xyz
x,y,z
-x,-y,z
1/2+x,1/2-y,1/2-z
1/2-x,1/2+y,1/2-z
-x,-y,-z
x,y,-z
1/2-x,1/2+y,1/2+z
1/2+x,1/2-y,1/2+z
loop_
_atom_site_type_symbol
_atom_site_label
_atom_site_fract_x
_atom_site_fract_y
_atom_site_fract_z
Si Si1 0.246599 0.706481 0.925050
Si Si2 0.192084 0.137654 0.708320
Si Si3 0.224049 0.893110 0.853640
Si Si4 0.639249 0.649847 0.784911
Si Si5 0.337185 0.490843 0.247935
Si Si6 0.494549 0.313599 0.576290
Si Si7 0.033898 0.322602 0.422143
Si Si8 0.232299 0.714225 0.338051
O O1 0.248607 0.650089 0.867077
O O2 0.105898 0.749389 0.918455
O O3 0.383069 0.752941 0.915556
O O4 0.252257 0.672384 0.000000
O O5 0.230441 0.059512 0.721912
O O6 0.275477 0.182693 0.762829
O O7 0.028720 0.156339 0.712490
O O8 0.194136 0.838910 0.792490
O O9 0.095644 0.880751 0.906329
O O10 0.373667 0.881795 0.888843
O O11 0.225243 0.968483 0.821812
O O12 0.682892 0.572328 0.805216
O O13 0.711095 0.704928 0.833509
O O14 0.500000 0.500000 0.261207
O O15 0.554001 0.321265 0.500000
O O16 0.620450 0.303443 0.628374
O O17 0.003766 0.341229 0.500000
O O18 0.888060 0.318689 0.383143
#
# Coordination Sequence:
#
# PCOD8236090 Si02
#       8
#     8   8   8   8   8   8   8   8
#     4   9  19  33  52  77 107 140 173 211 271 327
#     4  11  19  33  56  79 109 137 179 235 266 317
#     4   9  17  34  54  74 102 141 185 217 266 316
#     4   9  19  30  52  79 104 133 178 226 268 314
#     4   8  17  33  52  78 104 138 178 231 268 308
#     4  10  19  32  51  79 109 140 179 224 268 322
#     4  10  20  33  51  78 114 145 171 217 271 324
#     4  12  20  30  54  82 109 137 178 230 275 316
#
# _framework density 17.194437000000001
#
# number of rings (size 3 to 8) (size 9 to 14) (size 15 to 20)
#    0.750    1.500    2.500    3.000    0.000    0.000 
#    0.000    0.625    0.000   13.875    0.000    1.750 
#    0.000    0.000    0.000    0.000    0.000    0.000 
#
# Total GULP energy -792997.748248 kJ/mol
# GULP energy per Si atom -12390.589816 kJ/mol
# Density = 1.715530 g / cm^3
# Si number density = 17.194437 Si / 1000 Ang^3
#
#
#
# Elastic Constant Matrix: (Units=GPa)
#
#
# Indices 1 2 3 4 5 6 
#
# 1 74.0942 23.2225 35.3479 0.0000 0.0000 0.0000
# 2 23.2225 96.9032 47.4039 0.0000 0.0000 0.0000
# 3 35.3479 47.4039 120.0066 0.0000 0.0000 0.0000
# 4 0.0000 0.0000 0.0000 27.0611 0.0000 0.0000
# 5 0.0000 0.0000 0.0000 0.0000 21.6060 0.0000
# 6 0.0000 0.0000 0.0000 0.0000 0.0000 11.5918
#
#
#
# Elastic Compliance Matrix: (Units=1/GPa)
#
#
# Indices 1 2 3 4 5 6 
#
# 1 0.015978 -0.001892 -0.003959 0.000000 0.000000 0.000000
# 2 -0.001892 0.013015 -0.004584 0.000000 0.000000 0.000000
# 3 -0.003959 -0.004584 0.011310 0.000000 0.000000 0.000000
# 4 0.000000 0.000000 0.000000 0.036953 0.000000 0.000000
# 5 0.000000 0.000000 0.000000 0.000000 0.046283 0.000000
# 6 0.000000 0.000000 0.000000 0.000000 0.000000 0.086268
#
#
# Mechanical properties :
#
#
# Convention : Reuss Voigt Hill
#
# Bulk Modulus (GPa) = 51.45900 55.88360 53.67130
# Shear Modulus (GPa) = 21.08323 24.38711 22.73517
#
# Velocity S-wave (km/s) = 3.50546 3.77014 3.64021
# Velocity P-wave (km/s) = 6.81007 7.17798 6.99644
#
# Compressibility (1/GPa) = 0.01943295
#
# Stress axis : x y z
#
# Youngs Moduli (GPa) = 62.58576 76.83179 88.42060
#
# Poissons Ratio (x) = 0.14540 0.35004
# Poissons Ratio (y) = 0.11844 0.40530
# Poissons Ratio (z) = 0.24776 0.35218
#
# Static dielectric constant tensor:
#      x y z
#    x 3.028180 0.000000 0.000000 
#    y 0.000000 3.179970 0.000000 
#    z 0.000000 0.000000 3.260840 
# 
# 
# High freq. dielectric constant tensor:
#      x y z
#    x 1.655490 0.000000 0.000000 
#    y 0.000000 1.638350 0.000000 
#    z 0.000000 0.000000 1.660000 
# 
# From -- ./inp_files/25731.got.cif
#   From: 2010.06.25/outbox.cif.g09.slc.cpg/sg58_13_cif.got.tgz:25731.got - 2010.06.26 21:38:00.
