data_PCOD8236183
_publ_section_title
;
Structure prediction by ZEFSAII (Michael W. Deem and Ramdas Pophale) SiO2 
 PCOD8236183
Probable space group: P N N M
;
_chemical_formula_sum "Si O2"
_cell_formula_units_Z 40
_cell_length_a 24.330067
_cell_length_b 9.263869
_cell_length_c 9.737353
_cell_angle_alpha 90.000000
_cell_angle_beta 90.000000
_cell_angle_gamma 90.000000
_cell_volume 2194.707382
_symmetry_space_group_name_H-M "P N N M"
_symmetry_group_IT_number 58
_symmetry_cell_setting 'orthorhombic'
loop_
_space_group_symop_operation_xyz
x,y,z
-x,-y,z
1/2+x,1/2-y,1/2-z
1/2-x,1/2+y,1/2-z
-x,-y,-z
x,y,-z
1/2-x,1/2+y,1/2+z
1/2+x,1/2-y,1/2+z
loop_
_atom_site_type_symbol
_atom_site_label
_atom_site_fract_x
_atom_site_fract_y
_atom_site_fract_z
Si Si1 0.782835 0.322527 0.000000
Si Si2 0.859260 0.472020 0.205343
Si Si3 0.672119 0.970586 0.000000
Si Si4 0.340875 0.692361 0.000000
Si Si5 0.703050 0.477581 0.500000
Si Si6 0.950204 0.394657 0.000000
Si Si7 0.030815 0.147093 0.000000
Si Si8 0.127795 0.190089 0.203112
O O1 0.807967 0.393944 0.135583
O O2 0.796129 0.151525 0.000000
O O3 0.719905 0.374601 0.000000
O O4 0.859897 0.419461 0.363590
O O5 0.852664 0.644362 0.185952
O O6 0.915281 0.418317 0.137407
O O7 0.672016 0.140722 0.000000
O O8 0.735051 0.915798 0.000000
O O9 0.375246 0.647590 0.864334
O O10 0.671698 0.416787 0.366511
O O11 0.000000 0.500000 0.000000
O O12 0.975726 0.238987 0.000000
O O13 0.067817 0.171113 0.864335
O O14 0.000000 0.000000 0.000000
#
# Coordination Sequence:
#
# PCOD8236183 Si02
#       8
#     4   8   4   4   4   4   4   8
#     4  10  19  32  55  85 109 147 172 220 250 313
#     4  10  20  35  58  79 110 136 185 216 266 310
#     4   9  19  35  52  84 112 144 166 224 263 316
#     4   9  19  35  56  79 115 138 179 212 266 313
#     4  10  19  32  55  79 116 143 183 202 261 316
#     4  11  19  37  58  80  96 134 183 226 256 317
#     4  11  23  37  60  74 102 138 183 221 274 313
#     4  10  20  37  56  81 104 148 176 217 261 324
#
# _framework density 18.225663000000001
#
# number of rings (size 3 to 8) (size 9 to 14) (size 15 to 20)
#    0.000    2.000    2.000    3.000    5.600    0.000 
#    0.000    5.000    0.000    0.000    0.000    0.000 
#    0.000    0.000    0.000    0.000    0.000    0.000 
#
# Total GULP energy -495753.781825 kJ/mol
# GULP energy per Si atom -12393.844546 kJ/mol
# Density = 1.818418 g / cm^3
# Si number density = 18.225663 Si / 1000 Ang^3
#
#
#
# Elastic Constant Matrix: (Units=GPa)
#
#
# Indices 1 2 3 4 5 6 
#
# 1 103.3471 30.8598 71.8825 0.0000 0.0000 0.0000
# 2 30.8598 94.6093 41.9568 0.0000 0.0000 0.0000
# 3 71.8825 41.9568 188.5620 0.0000 0.0000 0.0000
# 4 0.0000 0.0000 0.0000 16.0568 0.0000 0.0000
# 5 0.0000 0.0000 0.0000 0.0000 13.4982 0.0000
# 6 0.0000 0.0000 0.0000 0.0000 0.0000 32.9917
#
#
#
# Elastic Compliance Matrix: (Units=1/GPa)
#
#
# Indices 1 2 3 4 5 6 
#
# 1 0.013633 -0.002377 -0.004668 0.000000 0.000000 0.000000
# 2 -0.002377 0.012141 -0.001796 0.000000 0.000000 0.000000
# 3 -0.004668 -0.001796 0.007482 0.000000 0.000000 0.000000
# 4 0.000000 0.000000 0.000000 0.062279 0.000000 0.000000
# 5 0.000000 0.000000 0.000000 0.000000 0.074084 0.000000
# 6 0.000000 0.000000 0.000000 0.000000 0.000000 0.030311
#
#
# Mechanical properties :
#
#
# Convention : Reuss Voigt Hill
#
# Bulk Modulus (GPa) = 64.20214 75.10185 69.65200
# Shear Modulus (GPa) = 22.44145 28.63064 25.53605
#
# Velocity S-wave (km/s) = 3.51281 3.96775 3.74719
# Velocity P-wave (km/s) = 7.19415 7.89220 7.55125
#
# Compressibility (1/GPa) = 0.01557580
#
# Stress axis : x y z
#
# Youngs Moduli (GPa) = 73.35313 82.36386 133.64685
#
# Poissons Ratio (x) = 0.19574 0.62389
# Poissons Ratio (y) = 0.17432 0.23997
# Poissons Ratio (z) = 0.34243 0.14789
#
# Static dielectric constant tensor:
#      x y z
#    x 3.224720 0.000000 0.000000 
#    y 0.000000 3.279090 0.000000 
#    z 0.000000 0.000000 -2.548740 
# 
# 
# High freq. dielectric constant tensor:
#      x y z
#    x 1.700710 0.000000 0.000000 
#    y 0.000000 1.700160 0.000000 
#    z 0.000000 0.000000 1.713470 
# 
# From -- ./inp_files/10313.got.cif
#   From: 2010.06.25/outbox.cif.g09.slc.cpg/sg58_6_cif.got.tgz:10313.got - 2010.06.26 21:38:00.
