data_PCOD8236462
_publ_section_title
;
Structure prediction by ZEFSAII (Michael W. Deem and Ramdas Pophale) SiO2 
 PCOD8236462
Probable space group: P N N M
;
_chemical_formula_sum "Si O2"
_cell_formula_units_Z 64
_cell_length_a 14.373536
_cell_length_b 24.561487
_cell_length_c 8.951376
_cell_angle_alpha 90.000000
_cell_angle_beta 90.000000
_cell_angle_gamma 90.000000
_cell_volume 3160.152764
_symmetry_space_group_name_H-M "P N N M"
_symmetry_group_IT_number 58
_symmetry_cell_setting 'orthorhombic'
loop_
_space_group_symop_operation_xyz
x,y,z
-x,-y,z
1/2+x,1/2-y,1/2-z
1/2-x,1/2+y,1/2-z
-x,-y,-z
x,y,-z
1/2-x,1/2+y,1/2+z
1/2+x,1/2-y,1/2+z
loop_
_atom_site_type_symbol
_atom_site_label
_atom_site_fract_x
_atom_site_fract_y
_atom_site_fract_z
Si Si1 0.227282 0.295683 0.823791
Si Si2 0.254076 0.685824 0.824846
Si Si3 0.424259 0.132005 0.664567
Si Si4 0.447960 0.947373 0.175125
Si Si5 0.745362 0.589491 0.678627
Si Si6 0.062743 0.948518 0.322664
Si Si7 0.524860 0.239924 0.664389
Si Si8 0.542797 0.342905 0.824589
O O1 0.276123 0.240744 0.762884
O O2 0.266736 0.349691 0.743779
O O3 0.118530 0.290453 0.780701
O O4 0.245101 0.302181 0.000000
O O5 0.184901 0.634538 0.794243
O O6 0.352060 0.662871 0.764000
O O7 0.259373 0.700184 0.000000
O O8 0.442335 0.105878 0.500000
O O9 0.485842 0.103192 0.788192
O O10 0.444379 0.196048 0.660032
O O11 0.343386 0.937099 0.235969
O O12 0.500000 0.000000 0.246645
O O13 0.441694 0.954441 0.000000
O O14 0.741720 0.592057 0.500000
O O15 0.663070 0.550896 0.741254
O O16 0.079803 0.947283 0.500000
O O17 0.007001 0.896199 0.260308
O O18 0.000000 0.000000 0.276392
O O19 0.542833 0.264862 0.500000
O O20 0.490022 0.288329 0.771990
O O21 0.540119 0.346945 0.000000
#
# Coordination Sequence:
#
# PCOD8236462 Si02
#       8
#     8   8   8   8   8   8   8   8
#     4  10  19  34  56  83 117 153 193 235 284 344
#     4   9  19  34  54  84 121 156 194 237 287 347
#     4  10  20  35  56  86 121 154 190 236 287 341
#     4  10  23  42  61  85 118 155 195 239 290 349
#     4  11  23  39  61  86 113 149 192 240 291 344
#     4  10  23  42  62  85 116 154 198 248 294 341
#     4   9  18  32  52  81 118 151 184 234 285 336
#     4   9  19  36  56  81 113 153 195 235 286 344
#
# _framework density 20.252185999999998
#
# number of rings (size 3 to 8) (size 9 to 14) (size 15 to 20)
#    0.000    2.250    1.250    0.750    1.750    4.000 
#    0.000    1.250    0.000    0.000    0.000    0.000 
#    0.000    0.000    0.000    0.000    0.000    0.000 
#
# Total GULP energy -793331.825053 kJ/mol
# GULP energy per Si atom -12395.809766 kJ/mol
# Density = 2.020609 g / cm^3
# Si number density = 20.252186 Si / 1000 Ang^3
#
#
#
# Elastic Constant Matrix: (Units=GPa)
#
#
# Indices 1 2 3 4 5 6 
#
# 1 102.5334 55.1006 29.5745 0.0000 0.0000 0.0000
# 2 55.1006 101.1200 26.3706 0.0000 0.0000 0.0000
# 3 29.5745 26.3706 37.8167 0.0000 0.0000 0.0000
# 4 0.0000 0.0000 0.0000 25.0464 0.0000 0.0000
# 5 0.0000 0.0000 0.0000 0.0000 24.2894 0.0000
# 6 0.0000 0.0000 0.0000 0.0000 0.0000 32.9299
#
#
#
# Elastic Compliance Matrix: (Units=1/GPa)
#
#
# Indices 1 2 3 4 5 6 
#
# 1 0.015376 -0.006408 -0.007556 0.000000 0.000000 0.000000
# 2 -0.006408 0.014758 -0.005280 0.000000 0.000000 0.000000
# 3 -0.007556 -0.005280 0.036035 0.000000 0.000000 0.000000
# 4 0.000000 0.000000 0.000000 0.039926 0.000000 0.000000
# 5 0.000000 0.000000 0.000000 0.000000 0.041170 0.000000
# 6 0.000000 0.000000 0.000000 0.000000 0.000000 0.030367
#
#
# Mechanical properties :
#
#
# Convention : Reuss Voigt Hill
#
# Bulk Modulus (GPa) = 36.12679 51.50685 43.81682
# Shear Modulus (GPa) = 22.18804 25.14812 23.66808
#
# Velocity S-wave (km/s) = 3.31356 3.52767 3.42229
# Velocity P-wave (km/s) = 5.70234 6.48695 6.10726
#
# Compressibility (1/GPa) = 0.02768029
#
# Stress axis : x y z
#
# Youngs Moduli (GPa) = 65.03651 67.76090 27.75114
#
# Poissons Ratio (x) = 0.43420 0.20970
# Poissons Ratio (y) = 0.41674 0.14652
# Poissons Ratio (z) = 0.49144 0.35776
#
# Static dielectric constant tensor:
#      x y z
#    x 3.889870 0.000000 0.000000 
#    y 0.000000 3.655420 0.000000 
#    z 0.000000 0.000000 3.501500 
# 
# 
# High freq. dielectric constant tensor:
#      x y z
#    x 1.802730 0.000000 0.000000 
#    y 0.000000 1.777310 0.000000 
#    z 0.000000 0.000000 1.775490 
# 
# From -- ./inp_files/6760.got.cif
#   From: 2010.06.25/outbox.cif.g09.slc.cpg/sg58_4_cif.got.tgz:6760.got - 2010.06.26 21:38:00.
