data_PCOD8236823
_publ_section_title
;
Structure prediction by ZEFSAII (Michael W. Deem and Ramdas Pophale) SiO2 
 PCOD8236823
Probable space group: P N N M
;
_chemical_formula_sum "Si O2"
_cell_formula_units_Z 56
_cell_length_a 14.437113
_cell_length_b 21.352462
_cell_length_c 8.650328
_cell_angle_alpha 90.000000
_cell_angle_beta 90.000000
_cell_angle_gamma 90.000000
_cell_volume 2666.618505
_symmetry_space_group_name_H-M "P N N M"
_symmetry_group_IT_number 58
_symmetry_cell_setting 'orthorhombic'
loop_
_space_group_symop_operation_xyz
x,y,z
-x,-y,z
1/2+x,1/2-y,1/2-z
1/2-x,1/2+y,1/2-z
-x,-y,-z
x,y,-z
1/2-x,1/2+y,1/2+z
1/2+x,1/2-y,1/2+z
loop_
_atom_site_type_symbol
_atom_site_label
_atom_site_fract_x
_atom_site_fract_y
_atom_site_fract_z
Si Si1 0.113303 0.835486 0.181023
Si Si2 0.100279 0.969887 0.322723
Si Si3 0.704633 0.409779 0.181484
Si Si4 0.095937 0.421924 0.680105
Si Si5 0.610730 0.934575 0.178729
Si Si6 0.422532 0.701602 0.817390
Si Si7 0.695367 0.189805 0.679888
O O1 0.108232 0.909097 0.217458
O O2 0.198691 0.802459 0.267948
O O3 0.021462 0.799747 0.234852
O O4 0.127436 0.826293 0.000000
O O5 0.120601 0.950392 0.500000
O O6 0.172693 0.021691 0.259648
O O7 0.000000 0.000000 0.308415
O O8 0.810530 0.396952 0.229094
O O9 0.638911 0.355647 0.249954
O O10 0.694098 0.406931 0.000000
O O11 0.119880 0.411898 0.500000
O O12 0.110502 0.493295 0.730885
O O13 0.163346 0.381103 0.786117
O O14 0.988784 0.403404 0.712484
O O15 0.635345 0.929867 0.000000
O O16 0.371025 0.765760 0.778807
O O17 0.438231 0.696147 0.000000
O O18 0.686275 0.205567 0.500000
#
# Coordination Sequence:
#
# PCOD8236823 Si02
#       7
#     8   8   8   8   8   8   8
#     4  12  25  42  65  95 126 163 209 257 311 378
#     4  10  19  37  62  91 127 165 202 251 316 374
#     4  10  21  36  59  89 122 159 200 247 308 370
#     4   9  19  39  61  87 120 160 202 249 302 360
#     4   9  19  35  60  89 122 157 197 247 303 360
#     4  11  24  45  65  86 120 163 206 258 309 364
#     4  12  26  43  64  91 122 164 210 257 310 373
#
# _framework density 21.000378999999999
#
# number of rings (size 3 to 8) (size 9 to 14) (size 15 to 20)
#    0.000    1.571    1.429    4.714    0.000    6.571 
#    0.000    4.286    0.000    0.000    0.000    0.000 
#    0.000    0.000    0.000    0.000    0.000    0.000 
#
# Total GULP energy -694620.060843 kJ/mol
# GULP energy per Si atom -12403.929658 kJ/mol
# Density = 2.095258 g / cm^3
# Si number density = 21.000379 Si / 1000 Ang^3
#
#
#
# Elastic Constant Matrix: (Units=GPa)
#
#
# Indices 1 2 3 4 5 6 
#
# 1 127.0226 20.7843 21.0278 0.0000 0.0000 0.0000
# 2 20.7843 55.0344 12.7729 0.0000 0.0000 0.0000
# 3 21.0278 12.7729 57.2319 0.0000 0.0000 0.0000
# 4 0.0000 0.0000 0.0000 16.4772 0.0000 0.0000
# 5 0.0000 0.0000 0.0000 0.0000 37.2470 0.0000
# 6 0.0000 0.0000 0.0000 0.0000 0.0000 26.9188
#
#
#
# Elastic Compliance Matrix: (Units=1/GPa)
#
#
# Indices 1 2 3 4 5 6 
#
# 1 0.008746 -0.002697 -0.002612 0.000000 0.000000 0.000000
# 2 -0.002697 0.019995 -0.003471 0.000000 0.000000 0.000000
# 3 -0.002612 -0.003471 0.019207 0.000000 0.000000 0.000000
# 4 0.000000 0.000000 0.000000 0.060690 0.000000 0.000000
# 5 0.000000 0.000000 0.000000 0.000000 0.026848 0.000000
# 6 0.000000 0.000000 0.000000 0.000000 0.000000 0.037149
#
#
# Mechanical properties :
#
#
# Convention : Reuss Voigt Hill
#
# Bulk Modulus (GPa) = 32.90780 38.71765 35.81273
# Shear Modulus (GPa) = 24.95957 28.44219 26.70088
#
# Velocity S-wave (km/s) = 3.45125 3.68416 3.56960
# Velocity P-wave (km/s) = 5.62011 6.04765 5.83779
#
# Compressibility (1/GPa) = 0.03038793
#
# Stress axis : x y z
#
# Youngs Moduli (GPa) = 114.33478 50.01326 52.06423
#
# Poissons Ratio (x) = 0.13488 0.13597
# Poissons Ratio (y) = 0.30836 0.18074
# Poissons Ratio (z) = 0.29860 0.17362
#
# Static dielectric constant tensor:
#      x y z
#    x 4.004380 0.000000 0.000000 
#    y 0.000000 3.742360 0.000000 
#    z 0.000000 0.000000 3.579200 
# 
# 
# High freq. dielectric constant tensor:
#      x y z
#    x 1.841620 0.000000 0.000000 
#    y 0.000000 1.813000 0.000000 
#    z 0.000000 0.000000 1.809580 
# 
# From -- ./inp_files/6476.got.cif
#   From: 2010.06.25/outbox.cif.g09.slc.cpg/sg58_4_cif.got.tgz:6476.got - 2010.06.26 21:38:00.
