data_PCOD8236712
_publ_section_title
;
Structure prediction by ZEFSAII (Michael W. Deem and Ramdas Pophale) SiO2 
 PCOD8236712
Probable space group: P N N M
;
_chemical_formula_sum "Si O2"
_cell_formula_units_Z 48
_cell_length_a 20.111294
_cell_length_b 14.854719
_cell_length_c 8.509748
_cell_angle_alpha 90.000000
_cell_angle_beta 90.000000
_cell_angle_gamma 90.000000
_cell_volume 2542.266971
_symmetry_space_group_name_H-M "P N N M"
_symmetry_group_IT_number 58
_symmetry_cell_setting 'orthorhombic'
loop_
_space_group_symop_operation_xyz
x,y,z
-x,-y,z
1/2+x,1/2-y,1/2-z
1/2-x,1/2+y,1/2-z
-x,-y,-z
x,y,-z
1/2-x,1/2+y,1/2+z
1/2+x,1/2-y,1/2+z
loop_
_atom_site_type_symbol
_atom_site_label
_atom_site_fract_x
_atom_site_fract_y
_atom_site_fract_z
Si Si1 0.445707 0.572459 0.683549
Si Si2 0.460199 0.087252 0.686361
Si Si3 0.476467 0.274742 0.182463
Si Si4 0.687499 0.884308 0.314366
Si Si5 0.164024 0.814485 0.183902
Si Si6 0.189922 0.999860 0.684683
O O1 0.500000 0.500000 0.739020
O O2 0.450873 0.592191 0.500000
O O3 0.459443 0.664640 0.777643
O O4 0.373235 0.536818 0.723831
O O5 0.464440 0.100455 0.500000
O O6 0.493957 0.173042 0.768526
O O7 0.383784 0.078572 0.744393
O O8 0.500000 0.000000 0.743444
O O9 0.414536 0.312765 0.281892
O O10 0.458643 0.280216 0.000000
O O11 0.688512 0.888945 0.500000
O O12 0.696572 0.780224 0.261136
O O13 0.746378 0.946238 0.247181
O O14 0.199901 0.894219 0.279175
O O15 0.174053 0.831859 0.000000
O O16 0.180671 0.015041 0.500000
#
# Coordination Sequence:
#
# PCOD8236712 Si02
#       6
#     8   8   8   8   8   8
#     4  11  22  36  56  81 111 146 187 227 276 340
#     4   9  18  37  63  84 111 151 190 224 270 331
#     4  11  21  34  56  84 113 142 181 233 282 325
#     4   8  18  36  56  79 111 146 182 224 273 327
#     4  10  19  36  58  78 106 148 188 220 271 336
#     4  11  21  35  56  82 113 144 182 234 284 325
#
# _framework density 18.880786000000001
#
# number of rings (size 3 to 8) (size 9 to 14) (size 15 to 20)
#    0.000    2.000    1.667    4.000    0.000    1.000 
#    3.000    8.333    0.000    0.000    0.000    0.000 
#    0.000    0.000    0.000    0.000    0.000    0.000 
#
# Total GULP energy -595282.280975 kJ/mol
# GULP energy per Si atom -12401.714187 kJ/mol
# Density = 1.883781 g / cm^3
# Si number density = 18.880786 Si / 1000 Ang^3
#
#
#
# Elastic Constant Matrix: (Units=GPa)
#
#
# Indices 1 2 3 4 5 6 
#
# 1 101.0573 78.9264 13.6529 0.0000 0.0000 0.0000
# 2 78.9264 158.1611 26.4919 0.0000 0.0000 0.0000
# 3 13.6529 26.4919 47.1964 0.0000 0.0000 0.0000
# 4 0.0000 0.0000 0.0000 29.3394 0.0000 0.0000
# 5 0.0000 0.0000 0.0000 0.0000 13.4245 0.0000
# 6 0.0000 0.0000 0.0000 0.0000 0.0000 37.5727
#
#
#
# Elastic Compliance Matrix: (Units=1/GPa)
#
#
# Indices 1 2 3 4 5 6 
#
# 1 0.016216 -0.008065 -0.000164 0.000000 0.000000 0.000000
# 2 -0.008065 0.010990 -0.003836 0.000000 0.000000 0.000000
# 3 -0.000164 -0.003836 0.023389 0.000000 0.000000 0.000000
# 4 0.000000 0.000000 0.000000 0.034084 0.000000 0.000000
# 5 0.000000 0.000000 0.000000 0.000000 0.074491 0.000000
# 6 0.000000 0.000000 0.000000 0.000000 0.000000 0.026615
#
#
# Mechanical properties :
#
#
# Convention : Reuss Voigt Hill
#
# Bulk Modulus (GPa) = 37.78542 60.50633 49.14587
# Shear Modulus (GPa) = 22.85871 28.55690 25.70780
#
# Velocity S-wave (km/s) = 3.48327 3.89329 3.69397
# Velocity P-wave (km/s) = 6.01944 7.23369 6.65432
#
# Compressibility (1/GPa) = 0.02646524
#
# Stress axis : x y z
#
# Youngs Moduli (GPa) = 61.66666 90.99441 42.75602
#
# Poissons Ratio (x) = 0.73385 0.00702
# Poissons Ratio (y) = 0.49733 0.16400
# Poissons Ratio (z) = 0.01012 0.34902
#
# Static dielectric constant tensor:
#      x y z
#    x 3.486500 0.000000 0.000000 
#    y 0.000000 3.808760 0.000000 
#    z 0.000000 0.000000 3.262520 
# 
# 
# High freq. dielectric constant tensor:
#      x y z
#    x 1.713330 0.000000 0.000000 
#    y 0.000000 1.744890 0.000000 
#    z 0.000000 0.000000 1.724370 
# 
# From -- ./inp_files/5843.got.cif
#   From: 2010.06.25/outbox.cif.g09.slc.cpg/sg58_3_cif.got.tgz:5843.got - 2010.06.26 21:38:00.
