data_PCOD8236068
_publ_section_title
;
Structure prediction by ZEFSAII (Michael W. Deem and Ramdas Pophale) SiO2 
 PCOD8236068
Probable space group: P N N M
;
_chemical_formula_sum "Si O2"
_cell_formula_units_Z 40
_cell_length_a 10.080898
_cell_length_b 23.629001
_cell_length_c 9.698775
_cell_angle_alpha 90.000000
_cell_angle_beta 90.000000
_cell_angle_gamma 90.000000
_cell_volume 2310.263228
_symmetry_space_group_name_H-M "P N N M"
_symmetry_group_IT_number 58
_symmetry_cell_setting 'orthorhombic'
loop_
_space_group_symop_operation_xyz
x,y,z
-x,-y,z
1/2+x,1/2-y,1/2-z
1/2-x,1/2+y,1/2-z
-x,-y,-z
x,y,-z
1/2-x,1/2+y,1/2+z
1/2+x,1/2-y,1/2+z
loop_
_atom_site_type_symbol
_atom_site_label
_atom_site_fract_x
_atom_site_fract_y
_atom_site_fract_z
Si Si1 0.986719 0.272292 0.500000
Si Si2 0.217875 0.875570 0.793943
Si Si3 0.881238 0.456503 0.500000
Si Si4 0.017719 0.672724 0.000000
Si Si5 0.790659 0.167290 0.500000
Si Si6 0.210188 0.777906 0.000000
Si Si7 0.131748 0.965056 0.000000
Si Si8 0.978122 0.370044 0.293921
O O1 0.140593 0.252355 0.500000
O O2 0.955977 0.308995 0.363896
O O3 0.890440 0.219271 0.500000
O O4 0.182007 0.871740 0.632932
O O5 0.135442 0.926009 0.863511
O O6 0.371570 0.890075 0.819381
O O7 0.185410 0.815451 0.864034
O O8 0.745067 0.488724 0.500000
O O9 0.000000 0.500000 0.500000
O O10 0.885478 0.417213 0.363335
O O11 0.054843 0.634918 0.867545
O O12 0.861656 0.689416 0.000000
O O13 0.102118 0.729294 0.000000
O O14 0.000000 0.000000 0.000000
#
# Coordination Sequence:
#
# PCOD8236068 Si02
#       8
#     4   8   4   4   4   4   4   8
#     4   9  17  32  50  73 106 145 174 189 247 307
#     4   9  18  35  54  75 105 137 169 201 260 301
#     4  11  18  37  62  70  92 134 175 206 255 303
#     4  10  19  32  49  81 112 127 167 213 250 289
#     4  10  19  32  53  78 106 139 165 205 247 308
#     4   9  17  32  52  72 108 145 164 204 243 298
#     4  11  22  39  56  76  96 128 175 219 256 307
#     4   9  18  33  55  78 100 135 173 210 243 304
#
# _framework density 17.314043999999999
#
# number of rings (size 3 to 8) (size 9 to 14) (size 15 to 20)
#    0.000    2.400    2.000    2.400    0.000    0.000 
#   10.800    2.000    0.000    0.000    0.000    0.000 
#    0.000    0.000    0.000    0.000    0.000    0.000 
#
# Total GULP energy -495992.978621 kJ/mol
# GULP energy per Si atom -12399.824466 kJ/mol
# Density = 1.727464 g / cm^3
# Si number density = 17.314044 Si / 1000 Ang^3
#
#
#
# Elastic Constant Matrix: (Units=GPa)
#
#
# Indices 1 2 3 4 5 6 
#
# 1 99.4794 72.3493 47.7364 0.0000 0.0000 0.0000
# 2 72.3493 109.8988 63.7734 0.0000 0.0000 0.0000
# 3 47.7364 63.7734 162.6487 0.0000 0.0000 0.0000
# 4 0.0000 0.0000 0.0000 11.0853 0.0000 0.0000
# 5 0.0000 0.0000 0.0000 0.0000 17.0880 0.0000
# 6 0.0000 0.0000 0.0000 0.0000 0.0000 40.0510
#
#
#
# Elastic Compliance Matrix: (Units=1/GPa)
#
#
# Indices 1 2 3 4 5 6 
#
# 1 0.019385 -0.012247 -0.000888 0.000000 0.000000 0.000000
# 2 -0.012247 0.019516 -0.004058 0.000000 0.000000 0.000000
# 3 -0.000888 -0.004058 0.008000 0.000000 0.000000 0.000000
# 4 0.000000 0.000000 0.000000 0.090210 0.000000 0.000000
# 5 0.000000 0.000000 0.000000 0.000000 0.058521 0.000000
# 6 0.000000 0.000000 0.000000 0.000000 0.000000 0.024968
#
#
# Mechanical properties :
#
#
# Convention : Reuss Voigt Hill
#
# Bulk Modulus (GPa) = 79.89178 82.19389 81.04283
# Shear Modulus (GPa) = 19.29341 26.18937 22.74139
#
# Velocity S-wave (km/s) = 3.34177 3.89345 3.62811
# Velocity P-wave (km/s) = 7.81875 8.23331 8.02870
#
# Compressibility (1/GPa) = 0.01251693
#
# Stress axis : x y z
#
# Youngs Moduli (GPa) = 51.58656 51.23928 125.00319
#
# Poissons Ratio (x) = 0.62750 0.11095
# Poissons Ratio (y) = 0.63176 0.50725
# Poissons Ratio (z) = 0.04579 0.20792
#
# Static dielectric constant tensor:
#      x y z
#    x 2.953190 0.000000 0.000000 
#    y 0.000000 3.035280 0.000000 
#    z 0.000000 0.000000 3.682780 
# 
# 
# High freq. dielectric constant tensor:
#      x y z
#    x 1.650100 0.000000 0.000000 
#    y 0.000000 1.655780 0.000000 
#    z 0.000000 0.000000 1.680360 
# 
# From -- ./inp_files/2709.got.cif
#   From: 2010.06.25/outbox.cif.g09.slc.cpg/sg58_2_cif.got.tgz:2709.got - 2010.06.26 21:38:00.
