data_PCOD8236438
_publ_section_title
;
Structure prediction by ZEFSAII (Michael W. Deem and Ramdas Pophale) SiO2 
 PCOD8236438
Probable space group: P N N M
;
_chemical_formula_sum "Si O2"
_cell_formula_units_Z 64
_cell_length_a 22.170290
_cell_length_b 16.666031
_cell_length_c 9.374046
_cell_angle_alpha 90.000000
_cell_angle_beta 90.000000
_cell_angle_gamma 90.000000
_cell_volume 3463.623197
_symmetry_space_group_name_H-M "P N N M"
_symmetry_group_IT_number 58
_symmetry_cell_setting 'orthorhombic'
loop_
_space_group_symop_operation_xyz
x,y,z
-x,-y,z
1/2+x,1/2-y,1/2-z
1/2-x,1/2+y,1/2-z
-x,-y,-z
x,y,-z
1/2-x,1/2+y,1/2+z
1/2+x,1/2-y,1/2+z
loop_
_atom_site_type_symbol
_atom_site_label
_atom_site_fract_x
_atom_site_fract_y
_atom_site_fract_z
Si Si1 0.269117 0.579647 0.665490
Si Si2 0.569800 0.007821 0.167802
Si Si3 0.997887 0.907289 0.668285
Si Si4 0.641118 0.855255 0.166685
Si Si5 0.233948 0.916164 0.333589
Si Si6 0.864756 0.645119 0.164822
Si Si7 0.118749 0.819852 0.669725
Si Si8 0.389013 0.672331 0.666707
O O1 0.271180 0.555816 0.500000
O O2 0.211980 0.636094 0.698157
O O3 0.262252 0.499855 0.754820
O O4 0.328052 0.627707 0.713143
O O5 0.594990 0.086982 0.240799
O O6 0.500000 0.000000 0.205207
O O7 0.603834 0.929792 0.232351
O O8 0.581409 0.016621 0.000000
O O9 0.989159 0.897340 0.500000
O O10 0.059246 0.865725 0.722312
O O11 0.942978 0.864746 0.744791
O O12 0.000000 0.000000 0.713083
O O13 0.618782 0.770693 0.232980
O O14 0.627431 0.854160 0.000000
O O15 0.225610 0.934221 0.500000
O O16 0.294036 0.865541 0.302628
O O17 0.177353 0.866464 0.272197
O O18 0.882850 0.734865 0.206991
O O19 0.878439 0.627008 0.000000
O O20 0.122044 0.816726 0.500000
O O21 0.401797 0.660509 0.500000
#
# Coordination Sequence:
#
# PCOD8236438 Si02
#       8
#     8   8   8   8   8   8   8   8
#     4  10  19  34  56  79 106 140 179 223 268 314
#     4  10  21  35  56  84 111 141 182 225 267 319
#     4  10  21  37  57  83 111 140 179 226 275 320
#     4   9  17  32  53  78 105 136 177 219 259 310
#     4  10  19  34  57  82 108 139 179 223 271 323
#     4  10  21  37  56  81 112 146 182 221 273 330
#     4   9  18  32  54  79 105 139 178 221 264 314
#     4  10  22  37  55  80 110 147 186 221 267 330
#
# _framework density 18.477761999999998
#
# number of rings (size 3 to 8) (size 9 to 14) (size 15 to 20)
#    0.000    2.250    1.250    1.500    1.750    5.500 
#    0.000    0.625    0.000    3.750    0.000    0.000 
#    0.000    0.000    0.000    0.000    0.000    0.000 
#
# Total GULP energy -793706.324168 kJ/mol
# GULP energy per Si atom -12401.661315 kJ/mol
# Density = 1.843571 g / cm^3
# Si number density = 18.477762 Si / 1000 Ang^3
#
#
#
# Elastic Constant Matrix: (Units=GPa)
#
#
# Indices 1 2 3 4 5 6 
#
# 1 150.4774 76.9530 46.2575 0.0000 0.0000 0.0000
# 2 76.9530 156.2238 43.5675 0.0000 0.0000 0.0000
# 3 46.2575 43.5675 32.3606 0.0000 0.0000 0.0000
# 4 0.0000 0.0000 0.0000 27.0504 0.0000 0.0000
# 5 0.0000 0.0000 0.0000 0.0000 27.2176 0.0000
# 6 0.0000 0.0000 0.0000 0.0000 0.0000 36.0845
#
#
#
# Elastic Compliance Matrix: (Units=1/GPa)
#
#
# Indices 1 2 3 4 5 6 
#
# 1 0.012173 -0.001831 -0.014936 0.000000 0.000000 0.000000
# 2 -0.001831 0.010525 -0.011552 0.000000 0.000000 0.000000
# 3 -0.014936 -0.011552 0.067804 0.000000 0.000000 0.000000
# 4 0.000000 0.000000 0.000000 0.036968 0.000000 0.000000
# 5 0.000000 0.000000 0.000000 0.000000 0.036741 0.000000
# 6 0.000000 0.000000 0.000000 0.000000 0.000000 0.027713
#
#
# Mechanical properties :
#
#
# Convention : Reuss Voigt Hill
#
# Bulk Modulus (GPa) = 29.52959 74.73529 52.13244
# Shear Modulus (GPa) = 19.24191 29.55607 24.39899
#
# Velocity S-wave (km/s) = 3.23050 4.00377 3.63774
# Velocity P-wave (km/s) = 5.47090 7.86813 6.77636
#
# Compressibility (1/GPa) = 0.03386433
#
# Stress axis : x y z
#
# Youngs Moduli (GPa) = 82.14772 95.01503 14.74837
#
# Poissons Ratio (x) = 0.17398 0.22028
# Poissons Ratio (y) = 0.15042 0.17037
# Poissons Ratio (z) = 1.22693 1.09762
#
# Static dielectric constant tensor:
#      x y z
#    x 3.577350 0.000000 0.000000 
#    y 0.000000 3.834240 0.000000 
#    z 0.000000 0.000000 3.080160 
# 
# 
# High freq. dielectric constant tensor:
#      x y z
#    x 1.732680 0.000000 0.000000 
#    y 0.000000 1.733160 0.000000 
#    z 0.000000 0.000000 1.679930 
# 
# From -- ./inp_files/9985.got.cif
#   From: 2010.06.25/outbox.cif.g09.slc.cpg/sg58_5_cif.got.tgz:9985.got - 2010.06.26 21:38:00.
