data_PCOD8236976
_publ_section_title
;
Structure prediction by ZEFSAII (Michael W. Deem and Ramdas Pophale) SiO2 
 PCOD8236976
Probable space group: P N N M
;
_chemical_formula_sum "Si O2"
_cell_formula_units_Z 64
_cell_length_a 15.210448
_cell_length_b 24.098168
_cell_length_c 8.656699
_cell_angle_alpha 90.000000
_cell_angle_beta 90.000000
_cell_angle_gamma 90.000000
_cell_volume 3173.060483
_symmetry_space_group_name_H-M "P N N M"
_symmetry_group_IT_number 58
_symmetry_cell_setting 'orthorhombic'
loop_
_space_group_symop_operation_xyz
x,y,z
-x,-y,z
1/2+x,1/2-y,1/2-z
1/2-x,1/2+y,1/2-z
-x,-y,-z
x,y,-z
1/2-x,1/2+y,1/2+z
1/2+x,1/2-y,1/2+z
loop_
_atom_site_type_symbol
_atom_site_label
_atom_site_fract_x
_atom_site_fract_y
_atom_site_fract_z
Si Si1 0.967753 0.100775 0.178879
Si Si2 0.986752 0.774131 0.821080
Si Si3 0.358021 0.568900 0.179068
Si Si4 0.061922 0.573139 0.680982
Si Si5 0.690327 0.307021 0.819479
Si Si6 0.113093 0.459758 0.819897
Si Si7 0.291675 0.459540 0.320200
Si Si8 0.873657 0.306281 0.680597
O O1 0.873022 0.078647 0.230074
O O2 0.971154 0.165986 0.212397
O O3 0.038686 0.068281 0.281405
O O4 0.987368 0.087443 0.000000
O O5 0.885392 0.772258 0.766924
O O6 0.042831 0.730231 0.725755
O O7 0.990885 0.758290 0.000000
O O8 0.317729 0.628292 0.225208
O O9 0.308637 0.523675 0.281239
O O10 0.344340 0.554855 0.000000
O O11 0.071367 0.560747 0.500000
O O12 0.109504 0.524805 0.776641
O O13 0.106563 0.630620 0.729005
O O14 0.959145 0.574997 0.725581
O O15 0.785988 0.285467 0.767713
O O16 0.677481 0.297283 0.000000
O O17 0.208520 0.436489 0.774501
O O18 0.095263 0.451974 0.000000
O O19 0.270965 0.454288 0.500000
O O20 0.856775 0.300908 0.500000
#
# Coordination Sequence:
#
# PCOD8236976 Si02
#       8
#     8   8   8   8   8   8   8   8
#     4   9  20  37  55  77 109 151 191 230 281 340
#     4  10  21  40  62  84 114 151 192 244 294 340
#     4  10  20  33  54  84 115 146 187 238 285 332
#     4  10  21  39  61  83 112 150 187 228 282 344
#     4  10  21  38  60  86 116 151 190 238 290 344
#     4  11  22  36  56  84 117 148 185 234 285 334
#     4  11  21  34  53  79 113 153 193 228 276 345
#     4  11  23  39  62  90 115 149 195 240 288 347
#
# _framework density 20.169799999999999
#
# number of rings (size 3 to 8) (size 9 to 14) (size 15 to 20)
#    0.000    1.750    0.000    5.250    0.000    8.500 
#    2.250    0.000    0.000    0.000    0.000    0.000 
#    0.000    0.000    0.000    0.000    0.000    0.000 
#
# Total GULP energy -793951.766466 kJ/mol
# GULP energy per Si atom -12405.496351 kJ/mol
# Density = 2.012389 g / cm^3
# Si number density = 20.169800 Si / 1000 Ang^3
#
#
#
# Elastic Constant Matrix: (Units=GPa)
#
#
# Indices 1 2 3 4 5 6 
#
# 1 121.8117 24.8924 15.6542 0.0000 0.0000 0.0000
# 2 24.8924 34.0746 15.9470 0.0000 0.0000 0.0000
# 3 15.6542 15.9470 47.6074 0.0000 0.0000 0.0000
# 4 0.0000 0.0000 0.0000 27.6157 0.0000 0.0000
# 5 0.0000 0.0000 0.0000 0.0000 35.9230 0.0000
# 6 0.0000 0.0000 0.0000 0.0000 0.0000 23.4607
#
#
#
# Elastic Compliance Matrix: (Units=1/GPa)
#
#
# Indices 1 2 3 4 5 6 
#
# 1 0.009687 -0.006625 -0.000966 0.000000 0.000000 0.000000
# 2 -0.006625 0.039333 -0.010997 0.000000 0.000000 0.000000
# 3 -0.000966 -0.010997 0.025007 0.000000 0.000000 0.000000
# 4 0.000000 0.000000 0.000000 0.036211 0.000000 0.000000
# 5 0.000000 0.000000 0.000000 0.000000 0.027837 0.000000
# 6 0.000000 0.000000 0.000000 0.000000 0.000000 0.042624
#
#
# Mechanical properties :
#
#
# Convention : Reuss Voigt Hill
#
# Bulk Modulus (GPa) = 27.13617 35.16453 31.15035
# Shear Modulus (GPa) = 21.72398 27.19989 24.46193
#
# Velocity S-wave (km/s) = 3.28541 3.67624 3.48631
# Velocity P-wave (km/s) = 5.27968 5.95749 5.62880
#
# Compressibility (1/GPa) = 0.03685118
#
# Stress axis : x y z
#
# Youngs Moduli (GPa) = 103.22771 25.42366 39.98943
#
# Poissons Ratio (x) = 0.16842 0.03864
# Poissons Ratio (y) = 0.68384 0.43977
# Poissons Ratio (z) = 0.09976 0.27959
#
# Static dielectric constant tensor:
#      x y z
#    x 3.818400 0.000000 0.000000 
#    y 0.000000 3.481370 0.000000 
#    z 0.000000 0.000000 3.631670 
# 
# 
# High freq. dielectric constant tensor:
#      x y z
#    x 1.802030 0.000000 0.000000 
#    y 0.000000 1.764350 0.000000 
#    z 0.000000 0.000000 1.795070 
# 
# From -- ./inp_files/6751.got.cif
#   From: 2010.06.25/outbox.cif.g09.slc.cpg/sg58_4_cif.got.tgz:6751.got - 2010.06.26 21:38:00.
