data_PCOD8236386
_publ_section_title
;
Structure prediction by ZEFSAII (Michael W. Deem and Ramdas Pophale) SiO2 
 PCOD8236386
Probable space group: P N N M
;
_chemical_formula_sum "Si O2"
_cell_formula_units_Z 48
_cell_length_a 8.492055
_cell_length_b 12.828172
_cell_length_c 18.870695
_cell_angle_alpha 90.000000
_cell_angle_beta 90.000000
_cell_angle_gamma 90.000000
_cell_volume 2055.727132
_symmetry_space_group_name_H-M "P N N M"
_symmetry_group_IT_number 58
_symmetry_cell_setting 'orthorhombic'
loop_
_space_group_symop_operation_xyz
x,y,z
-x,-y,z
1/2+x,1/2-y,1/2-z
1/2-x,1/2+y,1/2-z
-x,-y,-z
x,y,-z
1/2-x,1/2+y,1/2+z
1/2+x,1/2-y,1/2+z
loop_
_atom_site_type_symbol
_atom_site_label
_atom_site_fract_x
_atom_site_fract_y
_atom_site_fract_z
Si Si1 0.846595 0.646363 0.581634
Si Si2 0.364414 0.769738 0.669538
Si Si3 0.876756 0.344464 0.919878
Si Si4 0.525522 0.742403 0.805907
Si Si5 0.161902 0.045890 0.679699
Si Si6 0.324078 0.527985 0.336131
O O1 0.898314 0.633312 0.500000
O O2 0.713461 0.734605 0.589919
O O3 0.788701 0.534886 0.610900
O O4 0.999163 0.678782 0.628323
O O5 0.440945 0.823288 0.600851
O O6 0.500660 0.795155 0.728528
O O7 0.192826 0.820611 0.687425
O O8 0.308010 0.651570 0.654828
O O9 0.802241 0.443436 0.877187
O O10 0.872391 0.382550 0.000000
O O11 0.380019 0.664194 0.800581
O O12 0.212822 0.992948 0.754479
O O13 0.000000 0.000000 0.646054
O O14 0.500000 0.500000 0.357186
#
# Coordination Sequence:
#
# PCOD8236386 Si02
#       6
#     8   8   8   8   8   8
#     4  10  21  38  60  91 128 163 200 248 313 379
#     4  11  21  37  59  88 119 165 209 256 306 362
#     4  10  21  39  61  89 124 161 204 251 313 376
#     4  10  22  37  61  87 123 161 209 256 306 369
#     4   9  20  37  63  90 116 160 209 257 300 365
#     4  10  19  33  60  88 123 159 208 245 297 367
#
# _framework density 23.349401
#
# number of rings (size 3 to 8) (size 9 to 14) (size 15 to 20)
#    0.000    2.000    1.667    3.000    4.667    2.667 
#    0.000    1.667    0.000    1.000    0.000    0.000 
#    0.000    0.000    0.000    0.000    0.000    0.000 
#
# Total GULP energy -594760.289438 kJ/mol
# GULP energy per Si atom -12390.839363 kJ/mol
# Density = 2.329626 g / cm^3
# Si number density = 23.349401 Si / 1000 Ang^3
#
#
#
# Elastic Constant Matrix: (Units=GPa)
#
#
# Indices 1 2 3 4 5 6 
#
# 1 101.4462 -0.3330 42.6618 0.0000 0.0000 0.0000
# 2 -0.3330 39.2436 27.2978 0.0000 0.0000 0.0000
# 3 42.6618 27.2978 124.6585 0.0000 0.0000 0.0000
# 4 0.0000 0.0000 0.0000 25.6023 0.0000 0.0000
# 5 0.0000 0.0000 0.0000 0.0000 28.8524 0.0000
# 6 0.0000 0.0000 0.0000 0.0000 0.0000 32.8212
#
#
#
# Elastic Compliance Matrix: (Units=1/GPa)
#
#
# Indices 1 2 3 4 5 6 
#
# 1 0.011900 0.003461 -0.004831 0.000000 0.000000 0.000000
# 2 0.003461 0.031067 -0.007988 0.000000 0.000000 0.000000
# 3 -0.004831 -0.007988 0.011424 0.000000 0.000000 0.000000
# 4 0.000000 0.000000 0.000000 0.039059 0.000000 0.000000
# 5 0.000000 0.000000 0.000000 0.000000 0.034659 0.000000
# 6 0.000000 0.000000 0.000000 0.000000 0.000000 0.030468
#
#
# Mechanical properties :
#
#
# Convention : Reuss Voigt Hill
#
# Bulk Modulus (GPa) = 28.02873 44.95573 36.49223
# Shear Modulus (GPa) = 26.42918 30.50330 28.46624
#
# Velocity S-wave (km/s) = 3.36802 3.61832 3.49541
# Velocity P-wave (km/s) = 5.21103 6.06231 5.65272
#
# Compressibility (1/GPa) = 0.03567768
#
# Stress axis : x y z
#
# Youngs Moduli (GPa) = 84.03214 32.18803 87.53345
#
# Poissons Ratio (x) = -0.11141 0.42283
# Poissons Ratio (y) = -0.29084 0.69919
# Poissons Ratio (z) = 0.40592 0.25711
#
# Static dielectric constant tensor:
#      x y z
#    x 4.491380 0.000000 0.000000 
#    y 0.000000 2.461380 0.000000 
#    z 0.000000 0.000000 4.227050 
# 
# 
# High freq. dielectric constant tensor:
#      x y z
#    x 1.918940 0.000000 0.000000 
#    y 0.000000 1.919130 0.000000 
#    z 0.000000 0.000000 1.906890 
# 
# From -- ./inp_files/25308.got.cif
#   From: 2010.06.25/outbox.cif.g09.slc.cpg/sg58_13_cif.got.tgz:25308.got - 2010.06.26 21:38:00.
