data_PCOD8236157
_publ_section_title
;
Structure prediction by ZEFSAII (Michael W. Deem and Ramdas Pophale) SiO2 
 PCOD8236157
Probable space group: P N N M
;
_chemical_formula_sum "Si O2"
_cell_formula_units_Z 64
_cell_length_a 34.863196
_cell_length_b 11.045015
_cell_length_c 9.102622
_cell_angle_alpha 90.000000
_cell_angle_beta 90.000000
_cell_angle_gamma 90.000000
_cell_volume 3505.096796
_symmetry_space_group_name_H-M "P N N M"
_symmetry_group_IT_number 58
_symmetry_cell_setting 'orthorhombic'
loop_
_space_group_symop_operation_xyz
x,y,z
-x,-y,z
1/2+x,1/2-y,1/2-z
1/2-x,1/2+y,1/2-z
-x,-y,-z
x,y,-z
1/2-x,1/2+y,1/2+z
1/2+x,1/2-y,1/2+z
loop_
_atom_site_type_symbol
_atom_site_label
_atom_site_fract_x
_atom_site_fract_y
_atom_site_fract_z
Si Si1 0.072587 0.242491 0.668457
Si Si2 0.931759 0.245357 0.169707
Si Si3 0.771188 0.641222 0.825083
Si Si4 0.360655 0.104214 0.329818
Si Si5 0.492644 0.860590 0.663080
Si Si6 0.956031 0.983959 0.831513
Si Si7 0.349546 0.865241 0.169773
Si Si8 0.772763 0.360675 0.830797
O O1 0.061299 0.249262 0.500000
O O2 0.046278 0.341039 0.748466
O O3 0.064357 0.110749 0.728495
O O4 0.117585 0.265753 0.692607
O O5 0.891794 0.299029 0.229495
O O6 0.970516 0.299264 0.243513
O O7 0.930984 0.102995 0.195125
O O8 0.934671 0.281113 0.000000
O O9 0.813344 0.672887 0.766925
O O10 0.760772 0.499716 0.780114
O O11 0.744557 0.748635 0.761701
O O12 0.770904 0.650209 0.000000
O O13 0.367057 0.067502 0.500000
O O14 0.318131 0.156938 0.310117
O O15 0.367160 0.990310 0.225926
O O16 0.487081 0.803791 0.500000
O O17 0.500000 0.000000 0.651298
O O18 0.954479 0.941489 0.000000
O O19 0.000000 0.000000 0.782639
O O20 0.337155 0.876876 0.000000
O O21 0.760389 0.343799 0.000000
#
# Coordination Sequence:
#
# PCOD8236157 Si02
#       8
#     8   8   8   8   8   8   8   8
#     4  11  23  36  51  75 109 143 178 222 275 328
#     4   9  17  32  53  78 105 136 178 227 269 309
#     4  10  21  38  62  89 115 150 192 228 273 336
#     4   9  18  35  59  84 111 141 181 226 271 325
#     4  10  19  32  54  79 102 135 179 224 266 313
#     4  10  19  35  56  74 102 143 187 230 269 316
#     4  10  21  37  56  79 112 146 178 224 278 323
#     4   9  19  36  58  86 120 150 181 230 282 332
#
# _framework density 18.259125999999998
#
# number of rings (size 3 to 8) (size 9 to 14) (size 15 to 20)
#    0.000    2.250    1.250    2.625    0.000    6.000 
#    2.250    1.250    0.000    0.000    0.000    0.000 
#    0.000    0.000    0.000    0.000    0.000    0.000 
#
# Total GULP energy -793196.377538 kJ/mol
# GULP energy per Si atom -12393.693399 kJ/mol
# Density = 1.821757 g / cm^3
# Si number density = 18.259126 Si / 1000 Ang^3
#
#
#
# Elastic Constant Matrix: (Units=GPa)
#
#
# Indices 1 2 3 4 5 6 
#
# 1 85.3950 50.0652 43.4368 0.0000 0.0000 0.0000
# 2 50.0652 94.5949 39.5711 0.0000 0.0000 0.0000
# 3 43.4368 39.5711 69.1676 0.0000 0.0000 0.0000
# 4 0.0000 0.0000 0.0000 24.2141 0.0000 0.0000
# 5 0.0000 0.0000 0.0000 0.0000 21.8134 0.0000
# 6 0.0000 0.0000 0.0000 0.0000 0.0000 34.3610
#
#
#
# Elastic Compliance Matrix: (Units=1/GPa)
#
#
# Indices 1 2 3 4 5 6 
#
# 1 0.020292 -0.007111 -0.008675 0.000000 0.000000 0.000000
# 2 -0.007111 0.016389 -0.004911 0.000000 0.000000 0.000000
# 3 -0.008675 -0.004911 0.022715 0.000000 0.000000 0.000000
# 4 0.000000 0.000000 0.000000 0.041298 0.000000 0.000000
# 5 0.000000 0.000000 0.000000 0.000000 0.045843 0.000000
# 6 0.000000 0.000000 0.000000 0.000000 0.000000 0.029103
#
#
# Mechanical properties :
#
#
# Convention : Reuss Voigt Hill
#
# Bulk Modulus (GPa) = 55.54690 57.25596 56.40143
# Shear Modulus (GPa) = 22.41809 23.81666 23.11738
#
# Velocity S-wave (km/s) = 3.50776 3.61552 3.56205
# Velocity P-wave (km/s) = 6.84787 6.98963 6.91911
#
# Compressibility (1/GPa) = 0.01800280
#
# Stress axis : x y z
#
# Youngs Moduli (GPa) = 49.28128 61.01635 44.02372
#
# Poissons Ratio (x) = 0.43386 0.38191
# Poissons Ratio (y) = 0.35042 0.21619
# Poissons Ratio (z) = 0.42752 0.29964
#
# Static dielectric constant tensor:
#      x y z
#    x 3.473770 0.000000 0.000000 
#    y 0.000000 3.409200 0.000000 
#    z 0.000000 0.000000 3.287080 
# 
# 
# High freq. dielectric constant tensor:
#      x y z
#    x 1.708610 0.000000 0.000000 
#    y 0.000000 1.711760 0.000000 
#    z 0.000000 0.000000 1.691950 
# 
# From -- ./inp_files/10959.got.cif
#   From: 2010.06.25/outbox.cif.g09.slc.cpg/sg58_6_cif.got.tgz:10959.got - 2010.06.26 21:38:00.
