data_PCOD8236581
_publ_section_title
;
Structure prediction by ZEFSAII (Michael W. Deem and Ramdas Pophale) SiO2 
 PCOD8236581
Probable space group: P N N M
;
_chemical_formula_sum "Si O2"
_cell_formula_units_Z 64
_cell_length_a 12.826619
_cell_length_b 29.569006
_cell_length_c 8.966630
_cell_angle_alpha 90.000000
_cell_angle_beta 90.000000
_cell_angle_gamma 90.000000
_cell_volume 3400.777115
_symmetry_space_group_name_H-M "P N N M"
_symmetry_group_IT_number 58
_symmetry_cell_setting 'orthorhombic'
loop_
_space_group_symop_operation_xyz
x,y,z
-x,-y,z
1/2+x,1/2-y,1/2-z
1/2-x,1/2+y,1/2-z
-x,-y,-z
x,y,-z
1/2-x,1/2+y,1/2+z
1/2+x,1/2-y,1/2+z
loop_
_atom_site_type_symbol
_atom_site_label
_atom_site_fract_x
_atom_site_fract_y
_atom_site_fract_z
Si Si1 0.371223 0.042813 0.176199
Si Si2 0.477630 0.359284 0.677174
Si Si3 0.275658 0.202402 0.325042
Si Si4 0.397449 0.941258 0.823020
Si Si5 0.322972 0.777067 0.666378
Si Si6 0.463198 0.257707 0.333259
Si Si7 0.736181 0.626995 0.822814
Si Si8 0.204874 0.113814 0.823518
O O1 0.481375 0.065453 0.227638
O O2 0.268215 0.069583 0.233161
O O3 0.362361 0.991219 0.230562
O O4 0.374078 0.042677 0.000000
O O5 0.465230 0.363034 0.500000
O O6 0.488181 0.307313 0.735901
O O7 0.377850 0.383126 0.753946
O O8 0.583551 0.385618 0.728764
O O9 0.284556 0.193547 0.500000
O O10 0.181457 0.235178 0.281621
O O11 0.370041 0.231602 0.251118
O O12 0.268676 0.155069 0.244046
O O13 0.322978 0.906624 0.738981
O O14 0.384317 0.934785 0.000000
O O15 0.280402 0.765511 0.500000
O O16 0.447450 0.780436 0.661137
O O17 0.270374 0.822625 0.727412
O O18 0.424906 0.268919 0.500000
O O19 0.731600 0.622359 0.000000
O O20 0.209064 0.118588 0.000000
#
# Coordination Sequence:
#
# PCOD8236581 Si02
#       8
#     8   8   8   8   8   8   8   8
#     4   8  17  36  62  87 107 135 177 223 269 325
#     4  10  19  35  56  73 103 148 184 219 263 312
#     4  11  21  32  50  76 106 139 178 220 263 315
#     4   9  18  37  62  84 110 138 171 222 277 327
#     4  10  20  36  52  70 103 145 183 221 260 310
#     4   9  18  33  49  68 100 141 178 214 261 308
#     4  11  23  35  54  82 112 143 182 226 270 322
#     4  10  20  36  57  80 106 140 182 222 267 321
#
# _framework density 18.819229
#
# number of rings (size 3 to 8) (size 9 to 14) (size 15 to 20)
#    0.000    2.250    2.500    1.500    1.750    1.000 
#    0.000    3.750    0.000    3.750    0.000    0.000 
#    0.000    0.000    0.000    0.000    0.000    0.000 
#
# Total GULP energy -792878.919286 kJ/mol
# GULP energy per Si atom -12388.733114 kJ/mol
# Density = 1.877640 g / cm^3
# Si number density = 18.819229 Si / 1000 Ang^3
#
#
#
# Elastic Constant Matrix: (Units=GPa)
#
#
# Indices 1 2 3 4 5 6 
#
# 1 97.6331 33.4247 25.4987 0.0000 0.0000 0.0000
# 2 33.4247 69.7340 19.7090 0.0000 0.0000 0.0000
# 3 25.4987 19.7090 28.5353 0.0000 0.0000 0.0000
# 4 0.0000 0.0000 0.0000 23.8721 0.0000 0.0000
# 5 0.0000 0.0000 0.0000 0.0000 18.9640 0.0000
# 6 0.0000 0.0000 0.0000 0.0000 0.0000 37.2163
#
#
#
# Elastic Compliance Matrix: (Units=1/GPa)
#
#
# Indices 1 2 3 4 5 6 
#
# 1 0.014206 -0.004003 -0.009930 0.000000 0.000000 0.000000
# 2 -0.004003 0.018946 -0.009509 0.000000 0.000000 0.000000
# 3 -0.009930 -0.009509 0.050485 0.000000 0.000000 0.000000
# 4 0.000000 0.000000 0.000000 0.041890 0.000000 0.000000
# 5 0.000000 0.000000 0.000000 0.000000 0.052731 0.000000
# 6 0.000000 0.000000 0.000000 0.000000 0.000000 0.026870
#
#
# Mechanical properties :
#
#
# Convention : Reuss Voigt Hill
#
# Bulk Modulus (GPa) = 27.20765 39.24081 33.22423
# Shear Modulus (GPa) = 18.92048 23.82847 21.37448
#
# Velocity S-wave (km/s) = 3.17421 3.56220 3.37379
# Velocity P-wave (km/s) = 5.28421 6.14945 5.73318
#
# Compressibility (1/GPa) = 0.03675437
#
# Stress axis : x y z
#
# Youngs Moduli (GPa) = 70.39226 52.78039 19.80777
#
# Poissons Ratio (x) = 0.21127 0.19668
# Poissons Ratio (y) = 0.28177 0.18836
# Poissons Ratio (z) = 0.69897 0.50190
#
# Static dielectric constant tensor:
#      x y z
#    x 3.717100 0.000000 0.000000 
#    y 0.000000 3.544990 0.000000 
#    z 0.000000 0.000000 3.198940 
# 
# 
# High freq. dielectric constant tensor:
#      x y z
#    x 1.744500 0.000000 0.000000 
#    y 0.000000 1.715590 0.000000 
#    z 0.000000 0.000000 1.701740 
# 
# From -- ./inp_files/4682.got.cif
#   From: 2010.06.25/outbox.cif.g09.slc.cpg/sg58_3_cif.got.tgz:4682.got - 2010.06.26 21:38:00.
