data_PCOD8236695
_publ_section_title
;
Structure prediction by ZEFSAII (Michael W. Deem and Ramdas Pophale) SiO2 
 PCOD8236695
Probable space group: P N N M
;
_chemical_formula_sum "Si O2"
_cell_formula_units_Z 36
_cell_length_a 11.378622
_cell_length_b 8.354096
_cell_length_c 19.993889
_cell_angle_alpha 90.000000
_cell_angle_beta 90.000000
_cell_angle_gamma 90.000000
_cell_volume 1900.581111
_symmetry_space_group_name_H-M "P N N M"
_symmetry_group_IT_number 58
_symmetry_cell_setting 'orthorhombic'
loop_
_space_group_symop_operation_xyz
x,y,z
-x,-y,z
1/2+x,1/2-y,1/2-z
1/2-x,1/2+y,1/2-z
-x,-y,-z
x,y,-z
1/2-x,1/2+y,1/2+z
1/2+x,1/2-y,1/2+z
loop_
_atom_site_type_symbol
_atom_site_label
_atom_site_fract_x
_atom_site_fract_y
_atom_site_fract_z
Si Si1 0.709664 0.176761 0.923744
Si Si2 0.000000 0.500000 0.641821
Si Si3 0.682480 0.759826 0.190910
Si Si4 0.367181 0.471794 0.076804
Si Si5 0.363309 0.475409 0.312338
O O1 0.582694 0.106017 0.905343
O O2 0.707720 0.367366 0.913515
O O3 0.812413 0.102941 0.879285
O O4 0.737850 0.132485 0.000000
O O5 0.076070 0.613348 0.690073
O O6 0.691313 0.667541 0.120398
O O7 0.662928 0.637073 0.250045
O O8 0.804759 0.852437 0.201978
O O9 0.500000 0.500000 0.101929
O O10 0.367066 0.414003 0.000000
O O11 0.500000 0.500000 0.322876
#
# Coordination Sequence:
#
# PCOD8236695 Si02
#       5
#     8   4   8   8   8
#     4  10  21  39  61  91 124 161 209 252 306 362
#     4  10  21  34  64  96 117 160 200 268 305 352
#     4  11  23  39  63  89 123 158 207 251 310 367
#     4  10  19  35  62  93 124 154 194 258 311 351
#     4  11  26  41  60  88 124 168 200 253 306 370
#
# _framework density 18.941575
#
# number of rings (size 3 to 8) (size 9 to 14) (size 15 to 20)
#    0.000    1.556    2.222    2.333    6.222    4.000 
#    0.000    0.000    0.000    2.667    0.000    0.000 
#    0.000    0.000    0.000    0.000    0.000    0.000 
#
# Total GULP energy -446595.380315 kJ/mol
# GULP energy per Si atom -12405.427231 kJ/mol
# Density = 1.889846 g / cm^3
# Si number density = 18.941575 Si / 1000 Ang^3
#
#
#
# Elastic Constant Matrix: (Units=GPa)
#
#
# Indices 1 2 3 4 5 6 
#
# 1 131.9257 52.0395 49.4950 0.0000 0.0000 0.0000
# 2 52.0395 103.6183 48.4921 0.0000 0.0000 0.0000
# 3 49.4950 48.4921 102.5612 0.0000 0.0000 0.0000
# 4 0.0000 0.0000 0.0000 38.6810 0.0000 0.0000
# 5 0.0000 0.0000 0.0000 0.0000 19.1561 0.0000
# 6 0.0000 0.0000 0.0000 0.0000 0.0000 27.8324
#
#
#
# Elastic Compliance Matrix: (Units=1/GPa)
#
#
# Indices 1 2 3 4 5 6 
#
# 1 0.010217 -0.003626 -0.003216 0.000000 0.000000 0.000000
# 2 -0.003626 0.013680 -0.004718 0.000000 0.000000 0.000000
# 3 -0.003216 -0.004718 0.013533 0.000000 0.000000 0.000000
# 4 0.000000 0.000000 0.000000 0.025853 0.000000 0.000000
# 5 0.000000 0.000000 0.000000 0.000000 0.052203 0.000000
# 6 0.000000 0.000000 0.000000 0.000000 0.000000 0.035929
#
#
# Mechanical properties :
#
#
# Convention : Reuss Voigt Hill
#
# Bulk Modulus (GPa) = 69.88443 70.90649 70.39546
# Shear Modulus (GPa) = 27.88544 29.67247 28.77896
#
# Velocity S-wave (km/s) = 3.84106 3.96223 3.90212
# Velocity P-wave (km/s) = 7.52639 7.64513 7.58599
#
# Compressibility (1/GPa) = 0.01430934
#
# Stress axis : x y z
#
# Youngs Moduli (GPa) = 97.87619 73.09984 73.89270
#
# Poissons Ratio (x) = 0.26507 0.23765
# Poissons Ratio (y) = 0.35491 0.34863
# Poissons Ratio (z) = 0.31479 0.34489
#
# Static dielectric constant tensor:
#      x y z
#    x 3.439010 0.000000 0.000000 
#    y 0.000000 3.705890 0.000000 
#    z 0.000000 0.000000 3.467210 
# 
# 
# High freq. dielectric constant tensor:
#      x y z
#    x 1.718110 0.000000 0.000000 
#    y 0.000000 1.754550 0.000000 
#    z 0.000000 0.000000 1.742090 
# 
# From -- ./inp_files/29365.got.cif
#   From: 2010.06.25/outbox.cif.g09.slc.cpg/sg58_15_cif.got.tgz:29365.got - 2010.06.26 21:38:00.
