data_PCOD8236800
_publ_section_title
;
Structure prediction by ZEFSAII (Michael W. Deem and Ramdas Pophale) SiO2 
 PCOD8236800
Probable space group: P N N M
;
_chemical_formula_sum "Si O2"
_cell_formula_units_Z 64
_cell_length_a 12.798602
_cell_length_b 28.052658
_cell_length_c 8.774107
_cell_angle_alpha 90.000000
_cell_angle_beta 90.000000
_cell_angle_gamma 90.000000
_cell_volume 3150.209794
_symmetry_space_group_name_H-M "P N N M"
_symmetry_group_IT_number 58
_symmetry_cell_setting 'orthorhombic'
loop_
_space_group_symop_operation_xyz
x,y,z
-x,-y,z
1/2+x,1/2-y,1/2-z
1/2-x,1/2+y,1/2-z
-x,-y,-z
x,y,-z
1/2-x,1/2+y,1/2+z
1/2+x,1/2-y,1/2+z
loop_
_atom_site_type_symbol
_atom_site_label
_atom_site_fract_x
_atom_site_fract_y
_atom_site_fract_z
Si Si1 0.472705 0.116625 0.320017
Si Si2 0.132721 0.704350 0.321152
Si Si3 0.165184 0.435963 0.680676
Si Si4 0.408053 0.571981 0.169735
Si Si5 0.048639 0.796293 0.819819
Si Si6 0.889847 0.098464 0.178777
Si Si7 0.189606 0.534946 0.180728
Si Si8 0.343536 0.680992 0.171394
O O1 0.475989 0.124258 0.500000
O O2 0.452763 0.167310 0.241075
O O3 0.583633 0.098504 0.261708
O O4 0.380909 0.080102 0.273689
O O5 0.117347 0.711129 0.500000
O O6 0.246941 0.685012 0.284335
O O7 0.124468 0.754899 0.236655
O O8 0.153873 0.431076 0.500000
O O9 0.279923 0.421064 0.740975
O O10 0.142211 0.489864 0.731865
O O11 0.515050 0.564988 0.263146
O O12 0.309094 0.543015 0.237630
O O13 0.376895 0.626689 0.169120
O O14 0.430899 0.553766 0.000000
O O15 0.937538 0.787539 0.738406
O O16 0.097387 0.846850 0.767710
O O17 0.033158 0.794408 0.000000
O O18 0.892078 0.094825 0.000000
O O19 0.184877 0.526471 0.000000
O O20 0.315287 0.698253 0.000000
#
# Coordination Sequence:
#
# PCOD8236800 Si02
#       8
#     8   8   8   8   8   8   8   8
#     4  11  23  42  63  85 118 158 203 254 304 360
#     4  12  24  38  60  91 121 155 199 247 302 368
#     4  11  24  40  58  87 125 162 201 248 305 364
#     4   9  18  35  61  87 114 150 198 247 293 351
#     4  10  21  39  61  86 116 157 202 247 302 361
#     4   9  21  40  59  83 120 159 196 244 301 358
#     4  10  21  39  61  88 118 156 202 250 306 362
#     4  10  19  37  60  85 117 153 192 247 303 353
#
# _framework density 20.316106999999999
#
# number of rings (size 3 to 8) (size 9 to 14) (size 15 to 20)
#    0.000    1.750    1.250    3.000    0.000    6.500 
#    0.000    6.250    0.000    0.000    0.000    0.000 
#    0.000    0.000    0.000    0.000    0.000    0.000 
#
# Total GULP energy -793762.293725 kJ/mol
# GULP energy per Si atom -12402.535839 kJ/mol
# Density = 2.026987 g / cm^3
# Si number density = 20.316107 Si / 1000 Ang^3
#
#
#
# Elastic Constant Matrix: (Units=GPa)
#
#
# Indices 1 2 3 4 5 6 
#
# 1 98.0021 5.7960 18.4034 0.0000 0.0000 0.0000
# 2 5.7960 45.5021 24.3942 0.0000 0.0000 0.0000
# 3 18.4034 24.3942 55.2612 0.0000 0.0000 0.0000
# 4 0.0000 0.0000 0.0000 29.1693 0.0000 0.0000
# 5 0.0000 0.0000 0.0000 0.0000 37.2900 0.0000
# 6 0.0000 0.0000 0.0000 0.0000 0.0000 19.8086
#
#
#
# Elastic Compliance Matrix: (Units=1/GPa)
#
#
# Indices 1 2 3 4 5 6 
#
# 1 0.010903 0.000731 -0.003954 0.000000 0.000000 0.000000
# 2 0.000731 0.028840 -0.012974 0.000000 0.000000 0.000000
# 3 -0.003954 -0.012974 0.025140 0.000000 0.000000 0.000000
# 4 0.000000 0.000000 0.000000 0.034283 0.000000 0.000000
# 5 0.000000 0.000000 0.000000 0.000000 0.026817 0.000000
# 6 0.000000 0.000000 0.000000 0.000000 0.000000 0.050483
#
#
# Mechanical properties :
#
#
# Convention : Reuss Voigt Hill
#
# Bulk Modulus (GPa) = 30.78018 32.88361 31.83190
# Shear Modulus (GPa) = 22.75951 27.26503 25.01227
#
# Velocity S-wave (km/s) = 3.35067 3.66736 3.51259
# Velocity P-wave (km/s) = 5.49116 5.84413 5.67039
#
# Compressibility (1/GPa) = 0.03248843
#
# Stress axis : x y z
#
# Youngs Moduli (GPa) = 91.71720 34.67464 39.77760
#
# Poissons Ratio (x) = -0.02534 0.15726
# Poissons Ratio (y) = -0.06702 0.51608
# Poissons Ratio (z) = 0.36261 0.44987
#
# Static dielectric constant tensor:
#      x y z
#    x 3.901750 0.000000 0.000000 
#    y 0.000000 3.663910 0.000000 
#    z 0.000000 0.000000 3.691080 
# 
# 
# High freq. dielectric constant tensor:
#      x y z
#    x 1.802610 0.000000 0.000000 
#    y 0.000000 1.789240 0.000000 
#    z 0.000000 0.000000 1.792520 
# 
# From -- ./inp_files/4740.got.cif
#   From: 2010.06.25/outbox.cif.g09.slc.cpg/sg58_3_cif.got.tgz:4740.got - 2010.06.26 21:38:00.
