data_PCOD8236671
_publ_section_title
;
Structure prediction by ZEFSAII (Michael W. Deem and Ramdas Pophale) SiO2 
 PCOD8236671
Probable space group: P N N M
;
_chemical_formula_sum "Si O2"
_cell_formula_units_Z 48
_cell_length_a 15.124330
_cell_length_b 19.015142
_cell_length_c 8.806268
_cell_angle_alpha 90.000000
_cell_angle_beta 90.000000
_cell_angle_gamma 90.000000
_cell_volume 2532.605909
_symmetry_space_group_name_H-M "P N N M"
_symmetry_group_IT_number 58
_symmetry_cell_setting 'orthorhombic'
loop_
_space_group_symop_operation_xyz
x,y,z
-x,-y,z
1/2+x,1/2-y,1/2-z
1/2-x,1/2+y,1/2-z
-x,-y,-z
x,y,-z
1/2-x,1/2+y,1/2+z
1/2+x,1/2-y,1/2+z
loop_
_atom_site_type_symbol
_atom_site_label
_atom_site_fract_x
_atom_site_fract_y
_atom_site_fract_z
Si Si1 0.620498 0.829957 0.179402
Si Si2 0.721908 0.426000 0.680149
Si Si3 0.026039 0.076284 0.180784
Si Si4 0.625390 0.679841 0.676819
Si Si5 0.286110 0.923013 0.823444
Si Si6 0.471727 0.922781 0.679197
O O1 0.706785 0.870661 0.243116
O O2 0.629326 0.749579 0.225042
O O3 0.533516 0.863490 0.250346
O O4 0.614007 0.837037 0.000000
O O5 0.720580 0.426316 0.500000
O O6 0.624463 0.404562 0.739802
O O7 0.746395 0.503775 0.738290
O O8 0.957234 0.134512 0.239145
O O9 0.021562 0.073232 0.000000
O O10 0.000000 0.000000 0.246617
O O11 0.613348 0.698425 0.500000
O O12 0.715403 0.637800 0.705117
O O13 0.372787 0.904385 0.728640
O O14 0.311421 0.929264 0.000000
O O15 0.479918 0.918734 0.500000
O O16 0.500000 0.000000 0.739547
#
# Coordination Sequence:
#
# PCOD8236671 Si02
#       6
#     8   8   8   8   8   8
#     4  11  23  38  57  82 119 158 194 236 287 353
#     4   9  17  31  55  84 109 144 192 233 274 335
#     4   9  15  29  56  87 112 141 187 235 278 334
#     4  10  21  36  58  88 121 150 186 240 292 340
#     4  10  19  35  60  87 114 149 193 237 284 346
#     4  11  23  38  59  86 114 148 195 250 300 344
#
# _framework density 18.952809999999999
#
# number of rings (size 3 to 8) (size 9 to 14) (size 15 to 20)
#    0.000    2.000    3.333    1.000    0.000    2.667 
#    0.000    1.667    0.000    2.500    0.000    0.000 
#    0.000    0.000    0.000    0.000    0.000    0.000 
#
# Total GULP energy -595280.701893 kJ/mol
# GULP energy per Si atom -12401.681289 kJ/mol
# Density = 1.890967 g / cm^3
# Si number density = 18.952810 Si / 1000 Ang^3
#
#
#
# Elastic Constant Matrix: (Units=GPa)
#
#
# Indices 1 2 3 4 5 6 
#
# 1 146.5757 57.0647 30.6821 0.0000 0.0000 0.0000
# 2 57.0647 126.2788 29.1260 0.0000 0.0000 0.0000
# 3 30.6821 29.1260 41.8229 0.0000 0.0000 0.0000
# 4 0.0000 0.0000 0.0000 27.8726 0.0000 0.0000
# 5 0.0000 0.0000 0.0000 0.0000 12.7315 0.0000
# 6 0.0000 0.0000 0.0000 0.0000 0.0000 33.8548
#
#
#
# Elastic Compliance Matrix: (Units=1/GPa)
#
#
# Indices 1 2 3 4 5 6 
#
# 1 0.008925 -0.003006 -0.004454 0.000000 0.000000 0.000000
# 2 -0.003006 0.010447 -0.005070 0.000000 0.000000 0.000000
# 3 -0.004454 -0.005070 0.030709 0.000000 0.000000 0.000000
# 4 0.000000 0.000000 0.000000 0.035878 0.000000 0.000000
# 5 0.000000 0.000000 0.000000 0.000000 0.078546 0.000000
# 6 0.000000 0.000000 0.000000 0.000000 0.000000 0.029538
#
#
# Mechanical properties :
#
#
# Convention : Reuss Voigt Hill
#
# Bulk Modulus (GPa) = 39.96754 60.93587 50.45170
# Shear Modulus (GPa) = 21.98361 28.07875 25.03118
#
# Velocity S-wave (km/s) = 3.40944 3.85321 3.63810
# Velocity P-wave (km/s) = 6.05250 7.21232 6.65771
#
# Compressibility (1/GPa) = 0.02502031
#
# Stress axis : x y z
#
# Youngs Moduli (GPa) = 112.04445 95.72404 32.56379
#
# Poissons Ratio (x) = 0.28773 0.14505
# Poissons Ratio (y) = 0.33678 0.16510
# Poissons Ratio (z) = 0.49908 0.48533
#
# Static dielectric constant tensor:
#      x y z
#    x 3.774490 0.000000 0.000000 
#    y 0.000000 3.469590 0.000000 
#    z 0.000000 0.000000 3.076560 
# 
# 
# High freq. dielectric constant tensor:
#      x y z
#    x 1.755690 0.000000 0.000000 
#    y 0.000000 1.737440 0.000000 
#    z 0.000000 0.000000 1.699030 
# 
# From -- ./inp_files/5903.got.cif
#   From: 2010.06.25/outbox.cif.g09.slc.cpg/sg58_3_cif.got.tgz:5903.got - 2010.06.26 21:38:00.
