data_PCOD8236821
_publ_section_title
;
Structure prediction by ZEFSAII (Michael W. Deem and Ramdas Pophale) SiO2 
 PCOD8236821
Probable space group: P N N M
;
_chemical_formula_sum "Si O2"
_cell_formula_units_Z 64
_cell_length_a 13.780274
_cell_length_b 8.660522
_cell_length_c 25.849433
_cell_angle_alpha 90.000000
_cell_angle_beta 90.000000
_cell_angle_gamma 90.000000
_cell_volume 3084.984197
_symmetry_space_group_name_H-M "P N N M"
_symmetry_group_IT_number 58
_symmetry_cell_setting 'orthorhombic'
loop_
_space_group_symop_operation_xyz
x,y,z
-x,-y,z
1/2+x,1/2-y,1/2-z
1/2-x,1/2+y,1/2-z
-x,-y,-z
x,y,-z
1/2-x,1/2+y,1/2+z
1/2+x,1/2-y,1/2+z
loop_
_atom_site_type_symbol
_atom_site_label
_atom_site_fract_x
_atom_site_fract_y
_atom_site_fract_z
Si Si1 0.937337 0.363999 0.125867
Si Si2 0.249329 0.948613 0.356773
Si Si3 0.452471 0.830203 0.875766
Si Si4 0.608816 0.309900 0.672578
Si Si5 0.807604 0.519006 0.555623
Si Si6 0.883168 0.183569 0.439224
Si Si7 0.902345 0.051586 0.917441
Si Si8 0.594106 0.398742 0.787415
O O1 0.834262 0.424620 0.145913
O O2 0.910513 0.235220 0.084982
O O3 0.000000 0.500000 0.098534
O O4 0.008649 0.290170 0.169724
O O5 0.297307 0.782141 0.347790
O O6 0.185757 0.942328 0.410284
O O7 0.176556 0.993033 0.311270
O O8 0.348898 0.857878 0.903577
O O9 0.513082 0.705629 0.910243
O O10 0.429526 0.754234 0.820800
O O11 0.500000 0.000000 0.869201
O O12 0.600863 0.465789 0.638568
O O13 0.631103 0.347463 0.731618
O O14 0.853612 0.561753 0.500000
O O15 0.833208 0.346077 0.569676
O O16 0.692260 0.518794 0.549900
O O17 0.896216 0.138643 0.500000
O O18 0.000000 0.000000 0.947437
O O19 0.500000 0.500000 0.780054
#
# Coordination Sequence:
#
# PCOD8236821 Si02
#       8
#     8   8   8   8   8   8   8   8
#     4   9  20  38  61  85 122 164 205 257 311 366
#     4  11  22  41  61  93 126 161 212 263 311 381
#     4  10  22  40  62  91 126 162 208 260 307 383
#     4  10  23  41  62  88 121 171 210 255 316 369
#     4  10  20  36  64  92 118 158 213 260 311 378
#     4  10  20  40  66  91 125 166 203 262 327 377
#     4  10  19  37  62  87 120 161 210 258 309 368
#     4  12  24  39  61  93 130 163 207 257 311 376
#
# _framework density 20.745649
#
# number of rings (size 3 to 8) (size 9 to 14) (size 15 to 20)
#    0.000    1.750    2.500    2.250    0.000    6.250 
#    0.000    3.750    0.000    4.500    0.000    0.000 
#    0.000    0.000    0.000    0.000    0.000    0.000 
#
# Total GULP energy -793057.257995 kJ/mol
# GULP energy per Si atom -12391.519656 kJ/mol
# Density = 2.069843 g / cm^3
# Si number density = 20.745649 Si / 1000 Ang^3
#
#
#
# Elastic Constant Matrix: (Units=GPa)
#
#
# Indices 1 2 3 4 5 6 
#
# 1 105.6217 14.7318 15.4246 0.0000 0.0000 0.0000
# 2 14.7318 71.2149 22.7848 0.0000 0.0000 0.0000
# 3 15.4246 22.7848 91.5424 0.0000 0.0000 0.0000
# 4 0.0000 0.0000 0.0000 -25.5284 0.0000 0.0000
# 5 0.0000 0.0000 0.0000 0.0000 22.4086 0.0000
# 6 0.0000 0.0000 0.0000 0.0000 0.0000 29.8769
#
#
#
# Elastic Compliance Matrix: (Units=1/GPa)
#
#
# Indices 1 2 3 4 5 6 
#
# 1 0.009880 -0.001642 -0.001256 0.000000 0.000000 0.000000
# 2 -0.001642 0.015530 -0.003589 0.000000 0.000000 0.000000
# 3 -0.001256 -0.003589 0.012029 0.000000 0.000000 0.000000
# 4 0.000000 0.000000 0.000000 -0.039172 0.000000 0.000000
# 5 0.000000 0.000000 0.000000 0.000000 0.044626 0.000000
# 6 0.000000 0.000000 0.000000 0.000000 0.000000 0.033471
#
#
# Mechanical properties :
#
#
# Convention : Reuss Voigt Hill
#
# Bulk Modulus (GPa) = 40.87423 41.58459 41.22941
# Shear Modulus (GPa) = 51.28634 19.71393 35.50013
#
# Velocity S-wave (km/s) = 4.97746 3.08599 4.14116
# Velocity P-wave (km/s) = 7.26491 5.72593 6.54084
#
# Compressibility (1/GPa) = 0.02446529
#
# Stress axis : x y z
#
# Youngs Moduli (GPa) = 101.21242 64.39214 83.13404
#
# Poissons Ratio (x) = 0.10573 0.10442
# Poissons Ratio (y) = 0.16619 0.29834
# Poissons Ratio (z) = 0.12713 0.23108
#
# Static dielectric constant tensor:
#      x y z
#    x 4.230190 0.000000 0.000000 
#    y 0.000000 3.854130 0.000000 
#    z 0.000000 0.000000 3.465440 
# 
# 
# High freq. dielectric constant tensor:
#      x y z
#    x 1.832100 0.000000 0.000000 
#    y 0.000000 1.816540 0.000000 
#    z 0.000000 0.000000 1.785300 
# 
# From -- ./inp_files/32247.got.cif
#   From: 2010.06.25/outbox.cif.g09.slc.cpg/sg58_17_cif.got.tgz:32247.got - 2010.06.26 21:38:00.
