data_PCOD8236532
_publ_section_title
;
Structure prediction by ZEFSAII (Michael W. Deem and Ramdas Pophale) SiO2 
 PCOD8236532
Probable space group: P N N M
;
_chemical_formula_sum "Si O2"
_cell_formula_units_Z 64
_cell_length_a 13.048225
_cell_length_b 14.003543
_cell_length_c 18.346125
_cell_angle_alpha 90.000000
_cell_angle_beta 90.000000
_cell_angle_gamma 90.000000
_cell_volume 3352.229275
_symmetry_space_group_name_H-M "P N N M"
_symmetry_group_IT_number 58
_symmetry_cell_setting 'orthorhombic'
loop_
_space_group_symop_operation_xyz
x,y,z
-x,-y,z
1/2+x,1/2-y,1/2-z
1/2-x,1/2+y,1/2-z
-x,-y,-z
x,y,-z
1/2-x,1/2+y,1/2+z
1/2+x,1/2-y,1/2+z
loop_
_atom_site_type_symbol
_atom_site_label
_atom_site_fract_x
_atom_site_fract_y
_atom_site_fract_z
Si Si1 0.883741 0.483756 0.917265
Si Si2 0.798275 0.930202 0.082504
Si Si3 0.322870 0.846390 0.335464
Si Si4 0.331635 0.191704 0.193184
Si Si5 0.798047 0.623693 0.417254
Si Si6 0.469734 0.707863 0.416064
Si Si7 0.542314 0.102876 0.199670
Si Si8 0.332235 0.214495 0.358391
O O1 0.807753 0.547635 0.867654
O O2 0.851532 0.374113 0.911551
O O3 0.000000 0.500000 0.889132
O O4 0.873387 0.517363 0.000000
O O5 0.724739 0.885882 0.143563
O O6 0.915172 0.895211 0.095429
O O7 0.792917 0.044959 0.089664
O O8 0.763721 0.899555 0.000000
O O9 0.211025 0.797804 0.325120
O O10 0.387181 0.788231 0.395305
O O11 0.382858 0.850655 0.259195
O O12 0.453042 0.179639 0.182104
O O13 0.310342 0.173057 0.278479
O O14 0.831810 0.638205 0.500000
O O15 0.896814 0.585399 0.374767
O O16 0.764385 0.725187 0.385142
O O17 0.504096 0.722350 0.500000
O O18 0.567833 0.716788 0.363343
O O19 0.500000 0.000000 0.226901
#
# Coordination Sequence:
#
# PCOD8236532 Si02
#       8
#     8   8   8   8   8   8   8   8
#     4  11  21  35  59  90 119 152 195 245 299 353
#     4   9  21  39  59  85 119 157 202 248 296 356
#     4  11  21  36  58  88 121 153 193 245 293 351
#     4  11  22  37  61  88 119 159 193 241 304 347
#     4  11  24  40  59  87 122 161 201 246 299 355
#     4  10  19  34  58  86 118 155 195 244 302 358
#     4  12  22  39  62  89 119 155 202 250 291 349
#     4  12  22  36  59  89 125 158 199 246 302 362
#
# _framework density 19.091774000000001
#
# number of rings (size 3 to 8) (size 9 to 14) (size 15 to 20)
#    0.000    1.125    5.000    2.625    0.000    1.750 
#    0.000    1.875    0.000    0.750    0.000    1.750 
#    0.000    0.000    0.000    0.000    0.000    0.000 
#
# Total GULP energy -793526.001959 kJ/mol
# GULP energy per Si atom -12398.843781 kJ/mol
# Density = 1.904832 g / cm^3
# Si number density = 19.091774 Si / 1000 Ang^3
#
#
#
# Elastic Constant Matrix: (Units=GPa)
#
#
# Indices 1 2 3 4 5 6 
#
# 1 68.5037 41.4273 27.4212 0.0000 0.0000 0.0000
# 2 41.4273 91.9641 28.2440 0.0000 0.0000 0.0000
# 3 27.4212 28.2440 100.8761 0.0000 0.0000 0.0000
# 4 0.0000 0.0000 0.0000 27.1976 0.0000 0.0000
# 5 0.0000 0.0000 0.0000 0.0000 22.9343 0.0000
# 6 0.0000 0.0000 0.0000 0.0000 0.0000 33.6173
#
#
#
# Elastic Compliance Matrix: (Units=1/GPa)
#
#
# Indices 1 2 3 4 5 6 
#
# 1 0.021053 -0.008453 -0.003356 0.000000 0.000000 0.000000
# 2 -0.008453 0.015291 -0.001983 0.000000 0.000000 0.000000
# 3 -0.003356 -0.001983 0.011381 0.000000 0.000000 0.000000
# 4 0.000000 0.000000 0.000000 0.036768 0.000000 0.000000
# 5 0.000000 0.000000 0.000000 0.000000 0.043603 0.000000
# 6 0.000000 0.000000 0.000000 0.000000 0.000000 0.029747
#
#
# Mechanical properties :
#
#
# Convention : Reuss Voigt Hill
#
# Bulk Modulus (GPa) = 49.65383 50.61433 50.13408
# Shear Modulus (GPa) = 26.02261 27.69994 26.86127
#
# Velocity S-wave (km/s) = 3.69593 3.81318 3.75501
# Velocity P-wave (km/s) = 6.65414 6.77907 6.71689
#
# Compressibility (1/GPa) = 0.02013943
#
# Stress axis : x y z
#
# Youngs Moduli (GPa) = 47.49888 65.39858 87.86747
#
# Poissons Ratio (x) = 0.55282 0.29489
# Poissons Ratio (y) = 0.40151 0.17428
# Poissons Ratio (z) = 0.15941 0.12971
#
# Static dielectric constant tensor:
#      x y z
#    x 3.383600 0.000000 0.000000 
#    y 0.000000 3.563810 0.000000 
#    z 0.000000 0.000000 3.571750 
# 
# 
# High freq. dielectric constant tensor:
#      x y z
#    x 1.713670 0.000000 0.000000 
#    y 0.000000 1.741590 0.000000 
#    z 0.000000 0.000000 1.755890 
# 
# From -- ./inp_files/27006.got.cif
#   From: 2010.06.25/outbox.cif.g09.slc.cpg/sg58_14_cif.got.tgz:27006.got - 2010.06.26 21:38:00.
