data_PCOD8236283
_publ_section_title
;
Structure prediction by ZEFSAII (Michael W. Deem and Ramdas Pophale) SiO2 
 PCOD8236283
Probable space group: P N N M
;
_chemical_formula_sum "Si O2"
_cell_formula_units_Z 48
_cell_length_a 17.915149
_cell_length_b 15.507492
_cell_length_c 9.097213
_cell_angle_alpha 90.000000
_cell_angle_beta 90.000000
_cell_angle_gamma 90.000000
_cell_volume 2527.378890
_symmetry_space_group_name_H-M "P N N M"
_symmetry_group_IT_number 58
_symmetry_cell_setting 'orthorhombic'
loop_
_space_group_symop_operation_xyz
x,y,z
-x,-y,z
1/2+x,1/2-y,1/2-z
1/2-x,1/2+y,1/2-z
-x,-y,-z
x,y,-z
1/2-x,1/2+y,1/2+z
1/2+x,1/2-y,1/2+z
loop_
_atom_site_type_symbol
_atom_site_label
_atom_site_fract_x
_atom_site_fract_y
_atom_site_fract_z
Si Si1 0.043323 0.916914 0.674869
Si Si2 0.545587 0.251468 0.174881
Si Si3 0.959175 0.415241 0.325104
Si Si4 0.288209 0.430581 0.174171
Si Si5 0.290327 0.087734 0.171258
Si Si6 0.298439 0.759984 0.329418
O O1 0.043028 0.917071 0.500000
O O2 0.127894 0.916865 0.733509
O O3 0.001140 0.832640 0.734370
O O4 0.000000 0.000000 0.737297
O O5 0.504230 0.166715 0.235791
O O6 0.628467 0.256642 0.235583
O O7 0.550253 0.251247 0.000000
O O8 0.959270 0.413621 0.500000
O O9 0.874588 0.413560 0.267082
O O10 0.000000 0.500000 0.263342
O O11 0.257325 0.517776 0.242663
O O12 0.239391 0.348721 0.224072
O O13 0.287862 0.440711 0.000000
O O14 0.258907 0.182760 0.200828
O O15 0.287994 0.063772 0.000000
O O16 0.320131 0.764977 0.500000
#
# Coordination Sequence:
#
# PCOD8236283 Si02
#       6
#     8   8   8   8   8   8
#     4   9  17  30  50  75  99 125 164 212 251 288
#     4  10  19  33  55  77  97 130 176 216 250 300
#     4   9  17  30  50  75  99 125 164 212 251 288
#     4  10  20  35  54  77 106 138 172 212 260 310
#     4  10  20  35  54  77 106 138 172 212 260 310
#     4  10  21  35  51  75 109 140 164 206 268 316
#
# _framework density 18.992007999999998
#
# number of rings (size 3 to 8) (size 9 to 14) (size 15 to 20)
#    0.000    2.333    0.000    3.000    0.000    8.000 
#    0.000    1.667    0.000    8.000    0.000    0.000 
#    0.000    0.000    0.000    0.000    0.000    0.000 
#
# Total GULP energy -595307.159976 kJ/mol
# GULP energy per Si atom -12402.232500 kJ/mol
# Density = 1.894878 g / cm^3
# Si number density = 18.992008 Si / 1000 Ang^3
#
#
#
# Elastic Constant Matrix: (Units=GPa)
#
#
# Indices 1 2 3 4 5 6 
#
# 1 130.5973 31.8573 18.9313 0.0000 0.0000 0.0000
# 2 31.8573 118.4993 15.8980 0.0000 0.0000 0.0000
# 3 18.9313 15.8980 17.5121 0.0000 0.0000 0.0000
# 4 0.0000 0.0000 0.0000 18.4701 0.0000 0.0000
# 5 0.0000 0.0000 0.0000 0.0000 25.0782 0.0000
# 6 0.0000 0.0000 0.0000 0.0000 0.0000 43.4487
#
#
#
# Elastic Compliance Matrix: (Units=1/GPa)
#
#
# Indices 1 2 3 4 5 6 
#
# 1 0.009254 -0.001305 -0.008819 0.000000 0.000000 0.000000
# 2 -0.001305 0.009793 -0.007480 0.000000 0.000000 0.000000
# 3 -0.008819 -0.007480 0.073428 0.000000 0.000000 0.000000
# 4 0.000000 0.000000 0.000000 0.054142 0.000000 0.000000
# 5 0.000000 0.000000 0.000000 0.000000 0.039875 0.000000
# 6 0.000000 0.000000 0.000000 0.000000 0.000000 0.023016
#
#
# Mechanical properties :
#
#
# Convention : Reuss Voigt Hill
#
# Bulk Modulus (GPa) = 17.46215 44.44244 30.95230
# Shear Modulus (GPa) = 18.95341 30.72754 24.84048
#
# Velocity S-wave (km/s) = 3.16249 4.02670 3.62047
# Velocity P-wave (km/s) = 4.74864 6.71346 5.81464
#
# Compressibility (1/GPa) = 0.05726670
#
# Stress axis : x y z
#
# Youngs Moduli (GPa) = 108.06353 102.11228 13.61877
#
# Poissons Ratio (x) = 0.13321 0.12011
# Poissons Ratio (y) = 0.14098 0.10187
# Poissons Ratio (z) = 0.95306 0.76382
#
# Static dielectric constant tensor:
#      x y z
#    x 3.671930 0.000000 0.000000 
#    y 0.000000 3.734120 0.000000 
#    z 0.000000 0.000000 3.008260 
# 
# 
# High freq. dielectric constant tensor:
#      x y z
#    x 1.757070 0.000000 0.000000 
#    y 0.000000 1.759010 0.000000 
#    z 0.000000 0.000000 1.688480 
# 
# From -- ./inp_files/5828.got.cif
#   From: 2010.06.25/outbox.cif.g09.slc.cpg/sg58_3_cif.got.tgz:5828.got - 2010.06.26 21:38:00.
