data_PCOD8236926
_publ_section_title
;
Structure prediction by ZEFSAII (Michael W. Deem and Ramdas Pophale) SiO2 
 PCOD8236926
Probable space group: P N N M
;
_chemical_formula_sum "Si O2"
_cell_formula_units_Z 64
_cell_length_a 11.017802
_cell_length_b 35.036421
_cell_length_c 9.132276
_cell_angle_alpha 90.000000
_cell_angle_beta 90.000000
_cell_angle_gamma 90.000000
_cell_volume 3525.280901
_symmetry_space_group_name_H-M "P N N M"
_symmetry_group_IT_number 58
_symmetry_cell_setting 'orthorhombic'
loop_
_space_group_symop_operation_xyz
x,y,z
-x,-y,z
1/2+x,1/2-y,1/2-z
1/2-x,1/2+y,1/2-z
-x,-y,-z
x,y,-z
1/2-x,1/2+y,1/2+z
1/2+x,1/2-y,1/2+z
loop_
_atom_site_type_symbol
_atom_site_label
_atom_site_fract_x
_atom_site_fract_y
_atom_site_fract_z
Si Si1 0.838177 0.276580 0.325322
Si Si2 0.766919 0.931292 0.673642
Si Si3 0.381181 0.767181 0.832324
Si Si4 0.860051 0.506281 0.160541
Si Si5 0.107108 0.354329 0.334480
Si Si6 0.746892 0.072377 0.832122
Si Si7 0.632004 0.855196 0.327359
Si Si8 0.503685 0.456017 0.328225
O O1 0.829609 0.278063 0.500000
O O2 0.722297 0.253047 0.265383
O O3 0.819993 0.318729 0.261094
O O4 0.975656 0.261108 0.282215
O O5 0.769246 0.932664 0.500000
O O6 0.698126 0.968769 0.736590
O O7 0.706066 0.892069 0.725517
O O8 0.899822 0.931622 0.739773
O O9 0.345718 0.811440 0.817029
O O10 0.367711 0.753149 0.000000
O O11 0.845568 0.544608 0.251747
O O12 0.000000 0.500000 0.143331
O O13 0.801106 0.512190 0.000000
O O14 0.055539 0.360028 0.500000
O O15 0.217283 0.383285 0.303189
O O16 0.006396 0.363616 0.214224
O O17 0.881308 0.064277 0.776803
O O18 0.735539 0.061193 0.000000
O O19 0.643425 0.847488 0.500000
O O20 0.500000 0.500000 0.278097
O O21 0.530096 0.452733 0.500000
#
# Coordination Sequence:
#
# PCOD8236926 Si02
#       8
#     8   8   8   8   8   8   8   8
#     4  10  21  38  61  89 118 150 188 228 277 336
#     4  10  21  35  52  75 104 139 178 221 269 319
#     4   9  19  37  59  84 117 150 184 231 279 333
#     4  10  20  33  50  74 103 134 173 220 265 316
#     4   9  19  36  57  81 111 142 179 225 273 323
#     4  10  20  35  53  75 104 139 178 222 269 315
#     4  10  20  36  58  82 111 143 179 224 274 324
#     4  10  20  35  53  73 103 142 183 224 268 320
#
# _framework density 18.154581
#
# number of rings (size 3 to 8) (size 9 to 14) (size 15 to 20)
#    0.000    2.250    1.250    2.250    0.000    6.000 
#    2.250    0.000    0.000    0.000    0.000    0.000 
#    0.000    0.000    0.000    0.000    0.000    0.000 
#
# Total GULP energy -793239.506201 kJ/mol
# GULP energy per Si atom -12394.367284 kJ/mol
# Density = 1.811326 g / cm^3
# Si number density = 18.154581 Si / 1000 Ang^3
#
#
#
# Elastic Constant Matrix: (Units=GPa)
#
#
# Indices 1 2 3 4 5 6 
#
# 1 93.6023 53.2355 31.9419 0.0000 0.0000 0.0000
# 2 53.2355 100.6181 34.0931 0.0000 0.0000 0.0000
# 3 31.9419 34.0931 41.7275 0.0000 0.0000 0.0000
# 4 0.0000 0.0000 0.0000 25.3176 0.0000 0.0000
# 5 0.0000 0.0000 0.0000 0.0000 40.8464 0.0000
# 6 0.0000 0.0000 0.0000 0.0000 0.0000 35.6282
#
#
#
# Elastic Compliance Matrix: (Units=1/GPa)
#
#
# Indices 1 2 3 4 5 6 
#
# 1 0.016941 -0.006318 -0.007806 0.000000 0.000000 0.000000
# 2 -0.006318 0.016100 -0.008318 0.000000 0.000000 0.000000
# 3 -0.007806 -0.008318 0.036736 0.000000 0.000000 0.000000
# 4 0.000000 0.000000 0.000000 0.039498 0.000000 0.000000
# 5 0.000000 0.000000 0.000000 0.000000 0.024482 0.000000
# 6 0.000000 0.000000 0.000000 0.000000 0.000000 0.028068
#
#
# Mechanical properties :
#
#
# Convention : Reuss Voigt Hill
#
# Bulk Modulus (GPa) = 40.17126 52.72096 46.44611
# Shear Modulus (GPa) = 23.25529 28.13692 25.69611
#
# Velocity S-wave (km/s) = 3.58293 3.94109 3.76627
# Velocity P-wave (km/s) = 6.26833 7.05781 6.67475
#
# Compressibility (1/GPa) = 0.02489342
#
# Stress axis : x y z
#
# Youngs Moduli (GPa) = 59.02989 62.11274 27.22131
#
# Poissons Ratio (x) = 0.39244 0.21248
# Poissons Ratio (y) = 0.37296 0.22642
# Poissons Ratio (z) = 0.46076 0.51663
#
# Static dielectric constant tensor:
#      x y z
#    x 3.431720 0.000000 0.000000 
#    y 0.000000 3.543980 0.000000 
#    z 0.000000 0.000000 3.359710 
# 
# 
# High freq. dielectric constant tensor:
#      x y z
#    x 1.702040 0.000000 0.000000 
#    y 0.000000 1.704160 0.000000 
#    z 0.000000 0.000000 1.700690 
# 
# From -- ./inp_files/4745.got.cif
#   From: 2010.06.25/outbox.cif.g09.slc.cpg/sg58_3_cif.got.tgz:4745.got - 2010.06.26 21:38:00.
