data_PCOD8236331
_publ_section_title
;
Structure prediction by ZEFSAII (Michael W. Deem and Ramdas Pophale) SiO2 
 PCOD8236331
Probable space group: P N N M
;
_chemical_formula_sum "Si O2"
_cell_formula_units_Z 56
_cell_length_a 10.546123
_cell_length_b 20.623392
_cell_length_c 12.838573
_cell_angle_alpha 90.000000
_cell_angle_beta 90.000000
_cell_angle_gamma 90.000000
_cell_volume 2792.348913
_symmetry_space_group_name_H-M "P N N M"
_symmetry_group_IT_number 58
_symmetry_cell_setting 'orthorhombic'
loop_
_space_group_symop_operation_xyz
x,y,z
-x,-y,z
1/2+x,1/2-y,1/2-z
1/2-x,1/2+y,1/2-z
-x,-y,-z
x,y,-z
1/2-x,1/2+y,1/2+z
1/2+x,1/2-y,1/2+z
loop_
_atom_site_type_symbol
_atom_site_label
_atom_site_fract_x
_atom_site_fract_y
_atom_site_fract_z
Si Si1 0.133684 0.025356 0.883677
Si Si2 0.687864 0.127495 0.380067
Si Si3 0.520239 0.782211 0.685281
Si Si4 0.132422 0.757325 0.616133
Si Si5 0.849096 0.493103 0.216973
Si Si6 0.639887 0.332790 0.330179
Si Si7 0.746398 0.862521 0.619952
O O1 0.118963 0.102233 0.893456
O O2 0.261050 0.007876 0.819701
O O3 0.150586 0.996369 0.000000
O O4 0.000000 0.000000 0.834093
O O5 0.649071 0.132643 0.500000
O O6 0.572765 0.156801 0.314665
O O7 0.811872 0.171124 0.358111
O O8 0.705813 0.053208 0.348900
O O9 0.521203 0.759620 0.805366
O O10 0.467047 0.717577 0.630602
O O11 0.651238 0.801530 0.630811
O O12 0.077493 0.755747 0.500000
O O13 0.229963 0.699050 0.633678
O O14 0.827868 0.428914 0.147956
O O15 0.000000 0.500000 0.243314
O O16 0.642318 0.350068 0.204667
O O17 0.797008 0.865735 0.500000
#
# Coordination Sequence:
#
# PCOD8236331 Si02
#       7
#     8   8   8   8   8   8   8
#     4  10  23  42  62  83 113 157 202 237 284 346
#     4  10  20  35  57  85 116 151 193 238 293 354
#     4  10  19  33  56  81 112 149 189 243 288 345
#     4   9  19  34  53  79 110 149 192 235 292 346
#     4  11  22  37  62  91 122 151 190 246 294 342
#     4   9  20  36  55  77 111 152 189 241 288 341
#     4  10  20  35  56  86 116 149 192 240 294 352
#
# _framework density 20.054801000000001
#
# number of rings (size 3 to 8) (size 9 to 14) (size 15 to 20)
#    0.000    2.143    1.429    1.286    2.000    3.143 
#    0.000    0.714    0.000    2.143    0.000    0.000 
#    0.000    0.000    0.000    0.000    0.000    0.000 
#
# Total GULP energy -693872.728777 kJ/mol
# GULP energy per Si atom -12390.584442 kJ/mol
# Density = 2.000916 g / cm^3
# Si number density = 20.054801 Si / 1000 Ang^3
#
#
#
# Elastic Constant Matrix: (Units=GPa)
#
#
# Indices 1 2 3 4 5 6 
#
# 1 53.7917 30.7557 24.9275 0.0000 0.0000 0.0000
# 2 30.7557 115.1190 9.1775 0.0000 0.0000 0.0000
# 3 24.9275 9.1775 90.6707 0.0000 0.0000 0.0000
# 4 0.0000 0.0000 0.0000 20.9891 0.0000 0.0000
# 5 0.0000 0.0000 0.0000 0.0000 21.0605 0.0000
# 6 0.0000 0.0000 0.0000 0.0000 0.0000 19.2787
#
#
#
# Elastic Compliance Matrix: (Units=1/GPa)
#
#
# Indices 1 2 3 4 5 6 
#
# 1 0.025026 -0.006187 -0.006254 0.000000 0.000000 0.000000
# 2 -0.006187 0.010287 0.000660 0.000000 0.000000 0.000000
# 3 -0.006254 0.000660 0.012681 0.000000 0.000000 0.000000
# 4 0.000000 0.000000 0.000000 0.047644 0.000000 0.000000
# 5 0.000000 0.000000 0.000000 0.000000 0.047482 0.000000
# 6 0.000000 0.000000 0.000000 0.000000 0.000000 0.051871
#
#
# Mechanical properties :
#
#
# Convention : Reuss Voigt Hill
#
# Bulk Modulus (GPa) = 40.93081 43.25586 42.09333
# Shear Modulus (GPa) = 22.05573 25.24705 23.65139
#
# Velocity S-wave (km/s) = 3.31988 3.55195 3.43788
# Velocity P-wave (km/s) = 5.92868 6.19980 6.06575
#
# Compressibility (1/GPa) = 0.02443148
#
# Stress axis : x y z
#
# Youngs Moduli (GPa) = 39.95832 97.20877 78.85513
#
# Poissons Ratio (x) = 0.60148 0.49316
# Poissons Ratio (y) = 0.24724 -0.05203
# Poissons Ratio (z) = 0.24990 -0.06414
#
# Static dielectric constant tensor:
#      x y z
#    x 3.589920 0.000000 0.000000 
#    y 0.000000 3.827010 0.000000 
#    z 0.000000 0.000000 3.676490 
# 
# 
# High freq. dielectric constant tensor:
#      x y z
#    x 1.762060 0.000000 0.000000 
#    y 0.000000 1.795850 0.000000 
#    z 0.000000 0.000000 1.777220 
# 
# From -- ./inp_files/14574.got.cif
#   From: 2010.06.25/outbox.cif.g09.slc.cpg/sg58_8_cif.got.tgz:14574.got - 2010.06.26 21:38:00.
