data_PCOD8236868
_publ_section_title
;
Structure prediction by ZEFSAII (Michael W. Deem and Ramdas Pophale) SiO2 
 PCOD8236868
Probable space group: P N N M
;
_chemical_formula_sum "Si O2"
_cell_formula_units_Z 64
_cell_length_a 8.484684
_cell_length_b 11.380856
_cell_length_c 29.293797
_cell_angle_alpha 90.000000
_cell_angle_beta 90.000000
_cell_angle_gamma 90.000000
_cell_volume 2828.695947
_symmetry_space_group_name_H-M "P N N M"
_symmetry_group_IT_number 58
_symmetry_cell_setting 'orthorhombic'
loop_
_space_group_symop_operation_xyz
x,y,z
-x,-y,z
1/2+x,1/2-y,1/2-z
1/2-x,1/2+y,1/2-z
-x,-y,-z
x,y,-z
1/2-x,1/2+y,1/2+z
1/2+x,1/2-y,1/2+z
loop_
_atom_site_type_symbol
_atom_site_label
_atom_site_fract_x
_atom_site_fract_y
_atom_site_fract_z
Si Si1 0.667735 0.546178 0.166127
Si Si2 0.332409 0.326973 0.387023
Si Si3 0.868418 0.811613 0.948930
Si Si4 0.280605 0.414265 0.931301
Si Si5 0.158608 0.559699 0.621488
Si Si6 0.867765 0.832219 0.449742
Si Si7 0.210101 0.692375 0.800989
Si Si8 0.560325 0.777394 0.205722
O O1 0.500000 0.500000 0.147148
O O2 0.761255 0.590909 0.122215
O O3 0.761254 0.444290 0.190927
O O4 0.644089 0.651925 0.200973
O O5 0.470433 0.342245 0.423507
O O6 0.284525 0.456170 0.369458
O O7 0.186639 0.259159 0.411022
O O8 0.386680 0.251621 0.342784
O O9 0.848095 0.670616 0.954534
O O10 0.720979 0.858074 0.919247
O O11 0.871558 0.867250 0.000000
O O12 0.451709 0.361667 0.941612
O O13 0.265080 0.547726 0.948511
O O14 0.125929 0.630792 0.668340
O O15 0.000000 0.500000 0.603224
O O16 0.844761 0.775909 0.500000
O O17 0.371892 0.766437 0.797302
O O18 0.103040 0.685700 0.756549
#
# Coordination Sequence:
#
# PCOD8236868 Si02
#       8
#     8   8   8   8   8   8   8   8
#     4  10  19  41  70  99 139 180 222 286 346 411
#     4  12  26  46  67 102 144 192 234 293 370 428
#     4  12  28  47  70 104 146 191 244 302 370 435
#     4  11  19  40  69 103 138 182 238 292 355 416
#     4  12  26  48  77  99 139 187 245 304 356 436
#     4  11  21  38  70 103 139 185 241 296 351 423
#     4  11  25  45  73 106 142 188 232 290 358 424
#     4  11  25  45  72 108 142 179 240 296 351 432
#
# _framework density 22.625266
#
# number of rings (size 3 to 8) (size 9 to 14) (size 15 to 20)
#    0.000    0.750    5.000    3.750    3.500    2.250 
#    0.000    2.500    0.000    0.000    0.000    0.000 
#    0.000    0.000    0.000    0.000    0.000    0.000 
#
# Total GULP energy -793621.395757 kJ/mol
# GULP energy per Si atom -12400.334309 kJ/mol
# Density = 2.257377 g / cm^3
# Si number density = 22.625266 Si / 1000 Ang^3
#
#
#
# Elastic Constant Matrix: (Units=GPa)
#
#
# Indices 1 2 3 4 5 6 
#
# 1 58.3951 17.0468 29.0540 0.0000 0.0000 0.0000
# 2 17.0468 95.9870 20.0669 0.0000 0.0000 0.0000
# 3 29.0540 20.0669 159.0567 0.0000 0.0000 0.0000
# 4 0.0000 0.0000 0.0000 27.9395 0.0000 0.0000
# 5 0.0000 0.0000 0.0000 0.0000 37.5150 0.0000
# 6 0.0000 0.0000 0.0000 0.0000 0.0000 27.5550
#
#
#
# Elastic Compliance Matrix: (Units=1/GPa)
#
#
# Indices 1 2 3 4 5 6 
#
# 1 0.019542 -0.002798 -0.003217 0.000000 0.000000 0.000000
# 2 -0.002798 0.011101 -0.000889 0.000000 0.000000 0.000000
# 3 -0.003217 -0.000889 0.006987 0.000000 0.000000 0.000000
# 4 0.000000 0.000000 0.000000 0.035792 0.000000 0.000000
# 5 0.000000 0.000000 0.000000 0.000000 0.026656 0.000000
# 6 0.000000 0.000000 0.000000 0.000000 0.000000 0.036291
#
#
# Mechanical properties :
#
#
# Convention : Reuss Voigt Hill
#
# Bulk Modulus (GPa) = 41.97885 49.53048 45.75466
# Shear Modulus (GPa) = 31.62213 35.08664 33.35438
#
# Velocity S-wave (km/s) = 3.74257 3.94226 3.84371
# Velocity P-wave (km/s) = 6.10492 6.53154 6.32183
#
# Compressibility (1/GPa) = 0.02382152
#
# Stress axis : x y z
#
# Youngs Moduli (GPa) = 51.17202 90.08251 143.12635
#
# Poissons Ratio (x) = 0.25206 0.46038
# Poissons Ratio (y) = 0.14318 0.12730
# Poissons Ratio (z) = 0.16460 0.08012
#
# Static dielectric constant tensor:
#      x y z
#    x 3.830390 0.000000 0.000000 
#    y 0.000000 4.373610 0.000000 
#    z 0.000000 0.000000 4.091810 
# 
# 
# High freq. dielectric constant tensor:
#      x y z
#    x 1.871360 0.000000 0.000000 
#    y 0.000000 1.902600 0.000000 
#    z 0.000000 0.000000 1.900610 
# 
# From -- ./inp_files/34764.got.cif
#   From: 2010.06.25/outbox.cif.g09.slc.cpg/sg58_18_cif.got.tgz:34764.got - 2010.06.26 21:38:00.
