data_PCOD8236518
_publ_section_title
;
Structure prediction by ZEFSAII (Michael W. Deem and Ramdas Pophale) SiO2 
 PCOD8236518
Probable space group: P N N M
;
_chemical_formula_sum "Si O2"
_cell_formula_units_Z 64
_cell_length_a 26.885690
_cell_length_b 12.771124
_cell_length_c 9.386747
_cell_angle_alpha 90.000000
_cell_angle_beta 90.000000
_cell_angle_gamma 90.000000
_cell_volume 3223.037963
_symmetry_space_group_name_H-M "P N N M"
_symmetry_group_IT_number 58
_symmetry_cell_setting 'orthorhombic'
loop_
_space_group_symop_operation_xyz
x,y,z
-x,-y,z
1/2+x,1/2-y,1/2-z
1/2-x,1/2+y,1/2-z
-x,-y,-z
x,y,-z
1/2-x,1/2+y,1/2+z
1/2+x,1/2-y,1/2+z
loop_
_atom_site_type_symbol
_atom_site_label
_atom_site_fract_x
_atom_site_fract_y
_atom_site_fract_z
Si Si1 0.850583 0.423566 0.332351
Si Si2 0.711632 0.130164 0.169337
Si Si3 0.834472 0.811820 0.844029
Si Si4 0.941409 0.738900 0.152944
Si Si5 0.057840 0.492466 0.832921
Si Si6 0.533631 0.412032 0.840364
Si Si7 0.691552 0.698511 0.835434
Si Si8 0.145438 0.010488 0.342784
O O1 0.861769 0.422826 0.500000
O O2 0.812079 0.516719 0.292011
O O3 0.904044 0.433751 0.253567
O O4 0.825756 0.313411 0.283180
O O5 0.677029 0.218770 0.236274
O O6 0.764889 0.148802 0.240538
O O7 0.715271 0.144710 0.000000
O O8 0.892925 0.808635 0.870292
O O9 0.821396 0.923420 0.770661
O O10 0.807315 0.804499 0.000000
O O11 0.926341 0.625018 0.209466
O O12 0.976155 0.801654 0.261882
O O13 0.969299 0.726335 0.000000
O O14 0.000000 0.500000 0.786128
O O15 0.064498 0.517362 0.000000
O O16 0.500000 0.500000 0.764813
O O17 0.589516 0.451151 0.835938
O O18 0.514679 0.392856 0.000000
O O19 0.647133 0.614348 0.814139
O O20 0.708731 0.705610 0.000000
O O21 0.167548 0.033600 0.500000
#
# Coordination Sequence:
#
# PCOD8236518 Si02
#       8
#     8   8   8   8   8   8   8   8
#     4  10  23  42  62  88 123 158 202 254 300 358
#     4  11  23  38  59  87 115 148 195 245 295 352
#     4  10  19  34  58  82 108 145 188 237 289 343
#     4   9  18  33  52  78 108 144 188 235 288 342
#     4  10  21  38  60  87 120 159 203 248 299 360
#     4   9  18  32  53  81 111 148 191 237 286 340
#     4  10  23  41  59  84 120 161 196 241 302 359
#     4   9  19  36  56  81 116 151 189 235 288 347
#
# _framework density 19.857043000000001
#
# number of rings (size 3 to 8) (size 9 to 14) (size 15 to 20)
#    0.000    2.250    1.250    0.750    1.750    4.000 
#    0.000    1.250    0.000    0.000    0.000    0.000 
#    0.000    0.000    0.000    0.000    0.000    0.000 
#
# Total GULP energy -792970.366911 kJ/mol
# GULP energy per Si atom -12390.161983 kJ/mol
# Density = 1.981185 g / cm^3
# Si number density = 19.857043 Si / 1000 Ang^3
#
#
#
# Elastic Constant Matrix: (Units=GPa)
#
#
# Indices 1 2 3 4 5 6 
#
# 1 61.0266 33.3940 34.1989 0.0000 0.0000 0.0000
# 2 33.3940 147.7225 56.2178 0.0000 0.0000 0.0000
# 3 34.1989 56.2178 88.1476 0.0000 0.0000 0.0000
# 4 0.0000 0.0000 0.0000 26.6366 0.0000 0.0000
# 5 0.0000 0.0000 0.0000 0.0000 22.4923 0.0000
# 6 0.0000 0.0000 0.0000 0.0000 0.0000 28.5600
#
#
#
# Elastic Compliance Matrix: (Units=1/GPa)
#
#
# Indices 1 2 3 4 5 6 
#
# 1 0.021478 -0.002224 -0.006915 0.000000 0.000000 0.000000
# 2 -0.002224 0.009169 -0.004985 0.000000 0.000000 0.000000
# 3 -0.006915 -0.004985 0.017207 0.000000 0.000000 0.000000
# 4 0.000000 0.000000 0.000000 0.037542 0.000000 0.000000
# 5 0.000000 0.000000 0.000000 0.000000 0.044460 0.000000
# 6 0.000000 0.000000 0.000000 0.000000 0.000000 0.035014
#
#
# Mechanical properties :
#
#
# Convention : Reuss Voigt Hill
#
# Bulk Modulus (GPa) = 51.00245 60.50198 55.75222
# Shear Modulus (GPa) = 25.04346 27.07685 26.06016
#
# Velocity S-wave (km/s) = 3.55517 3.69669 3.62662
# Velocity P-wave (km/s) = 6.52633 6.98252 6.75827
#
# Compressibility (1/GPa) = 0.01960690
#
# Stress axis : x y z
#
# Youngs Moduli (GPa) = 46.55902 109.05925 58.11705
#
# Poissons Ratio (x) = 0.24253 0.40186
# Poissons Ratio (y) = 0.10354 0.28972
# Poissons Ratio (z) = 0.32194 0.54367
#
# Static dielectric constant tensor:
#      x y z
#    x 3.403870 0.000000 0.000000 
#    y 0.000000 3.837260 0.000000 
#    z 0.000000 0.000000 3.950560 
# 
# 
# High freq. dielectric constant tensor:
#      x y z
#    x 1.753630 0.000000 0.000000 
#    y 0.000000 1.783560 0.000000 
#    z 0.000000 0.000000 1.773050 
# 
# From -- ./inp_files/11019.got.cif
#   From: 2010.06.25/outbox.cif.g09.slc.cpg/sg58_6_cif.got.tgz:11019.got - 2010.06.26 21:38:00.
