data_PCOD8236071
_publ_section_title
;
Structure prediction by ZEFSAII (Michael W. Deem and Ramdas Pophale) SiO2 
 PCOD8236071
Probable space group: P N N M
;
_chemical_formula_sum "Si O2"
_cell_formula_units_Z 64
_cell_length_a 12.744137
_cell_length_b 29.692640
_cell_length_c 9.504632
_cell_angle_alpha 90.000000
_cell_angle_beta 90.000000
_cell_angle_gamma 90.000000
_cell_volume 3596.619966
_symmetry_space_group_name_H-M "P N N M"
_symmetry_group_IT_number 58
_symmetry_cell_setting 'orthorhombic'
loop_
_space_group_symop_operation_xyz
x,y,z
-x,-y,z
1/2+x,1/2-y,1/2-z
1/2-x,1/2+y,1/2-z
-x,-y,-z
x,y,-z
1/2-x,1/2+y,1/2+z
1/2+x,1/2-y,1/2+z
loop_
_atom_site_type_symbol
_atom_site_label
_atom_site_fract_x
_atom_site_fract_y
_atom_site_fract_z
Si Si1 0.048859 0.706367 0.841950
Si Si2 0.882560 0.375974 0.335551
Si Si3 0.369401 0.302667 0.335656
Si Si4 0.609593 0.093697 0.839145
Si Si5 0.181489 0.325964 0.839690
Si Si6 0.316920 0.568596 0.667955
Si Si7 0.790180 0.031046 0.163148
Si Si8 0.958896 0.102310 0.833033
O O1 0.109509 0.672193 0.739959
O O2 0.065206 0.758140 0.800707
O O3 0.925342 0.701176 0.829690
O O4 0.088438 0.696206 0.000000
O O5 0.871761 0.365893 0.500000
O O6 0.780928 0.401869 0.276261
O O7 0.985355 0.407228 0.304495
O O8 0.340841 0.306627 0.500000
O O9 0.265143 0.296638 0.244512
O O10 0.432548 0.346931 0.283921
O O11 0.671082 0.126259 0.735374
O O12 0.667893 0.045814 0.816275
O O13 0.626801 0.110162 0.000000
O O14 0.217152 0.333733 0.000000
O O15 0.313138 0.567480 0.500000
O O16 0.305755 0.518154 0.731464
O O17 0.425674 0.589536 0.724557
O O18 0.872199 0.067333 0.228445
O O19 0.817706 0.027076 0.000000
O O20 0.959113 0.099951 0.000000
#
# Coordination Sequence:
#
# PCOD8236071 Si02
#       8
#     8   8   8   8   8   8   8   8
#     4   9  20  35  51  71  97 131 166 200 244 299
#     4   9  18  31  48  72 102 131 161 206 253 290
#     4  10  19  33  52  73  95 126 166 203 245 294
#     4   9  16  29  49  71  97 130 165 200 242 290
#     4  10  19  32  50  73  99 126 160 205 248 287
#     4   9  17  27  43  73 106 131 159 203 253 294
#     4   9  15  25  45  72  99 130 166 202 244 295
#     4   9  16  27  45  69  99 129 160 201 245 294
#
# _framework density 17.794485999999999
#
# number of rings (size 3 to 8) (size 9 to 14) (size 15 to 20)
#    0.000    2.750    1.250    0.750    0.000    4.000 
#    0.000    5.000    0.000    1.500    0.000    4.375 
#    0.000    0.000    0.000    0.000    0.000    0.000 
#
# Total GULP energy -793294.917307 kJ/mol
# GULP energy per Si atom -12395.233083 kJ/mol
# Density = 1.775398 g / cm^3
# Si number density = 17.794486 Si / 1000 Ang^3
#
#
#
# Elastic Constant Matrix: (Units=GPa)
#
#
# Indices 1 2 3 4 5 6 
#
# 1 113.9722 72.6157 29.1880 0.0000 0.0000 0.0000
# 2 72.6157 147.1687 33.3106 0.0000 0.0000 0.0000
# 3 29.1880 33.3106 41.9303 0.0000 0.0000 0.0000
# 4 0.0000 0.0000 0.0000 17.7549 0.0000 0.0000
# 5 0.0000 0.0000 0.0000 0.0000 14.7874 0.0000
# 6 0.0000 0.0000 0.0000 0.0000 0.0000 26.8061
#
#
#
# Elastic Compliance Matrix: (Units=1/GPa)
#
#
# Indices 1 2 3 4 5 6 
#
# 1 0.013621 -0.005578 -0.005051 0.000000 0.000000 0.000000
# 2 -0.005578 0.010569 -0.004513 0.000000 0.000000 0.000000
# 3 -0.005051 -0.004513 0.030950 0.000000 0.000000 0.000000
# 4 0.000000 0.000000 0.000000 0.056322 0.000000 0.000000
# 5 0.000000 0.000000 0.000000 0.000000 0.067625 0.000000
# 6 0.000000 0.000000 0.000000 0.000000 0.000000 0.037305
#
#
# Mechanical properties :
#
#
# Convention : Reuss Voigt Hill
#
# Bulk Modulus (GPa) = 40.23048 63.69997 51.96522
# Shear Modulus (GPa) = 19.61074 23.06681 21.33877
#
# Velocity S-wave (km/s) = 3.32334 3.60431 3.46667
# Velocity P-wave (km/s) = 6.11421 7.29361 6.72980
#
# Compressibility (1/GPa) = 0.02485678
#
# Stress axis : x y z
#
# Youngs Moduli (GPa) = 73.41390 94.61914 32.30970
#
# Poissons Ratio (x) = 0.52777 0.16319
# Poissons Ratio (y) = 0.40949 0.14582
# Poissons Ratio (z) = 0.37080 0.42704
#
# Static dielectric constant tensor:
#      x y z
#    x 3.531190 0.000000 0.000000 
#    y 0.000000 3.344070 0.000000 
#    z 0.000000 0.000000 2.999520 
# 
# 
# High freq. dielectric constant tensor:
#      x y z
#    x 1.695890 0.000000 0.000000 
#    y 0.000000 1.687150 0.000000 
#    z 0.000000 0.000000 1.641050 
# 
# From -- ./inp_files/4793.got.cif
#   From: 2010.06.25/outbox.cif.g09.slc.cpg/sg58_3_cif.got.tgz:4793.got - 2010.06.26 21:38:00.
