data_PCOD8236268
_publ_section_title
;
Structure prediction by ZEFSAII (Michael W. Deem and Ramdas Pophale) SiO2 
 PCOD8236268
Probable space group: P N N M
;
_chemical_formula_sum "Si O2"
_cell_formula_units_Z 64
_cell_length_a 18.756088
_cell_length_b 19.832283
_cell_length_c 8.949872
_cell_angle_alpha 90.000000
_cell_angle_beta 90.000000
_cell_angle_gamma 90.000000
_cell_volume 3329.137992
_symmetry_space_group_name_H-M "P N N M"
_symmetry_group_IT_number 58
_symmetry_cell_setting 'orthorhombic'
loop_
_space_group_symop_operation_xyz
x,y,z
-x,-y,z
1/2+x,1/2-y,1/2-z
1/2-x,1/2+y,1/2-z
-x,-y,-z
x,y,-z
1/2-x,1/2+y,1/2+z
1/2+x,1/2-y,1/2+z
loop_
_atom_site_type_symbol
_atom_site_label
_atom_site_fract_x
_atom_site_fract_y
_atom_site_fract_z
Si Si1 0.456514 0.563689 0.323053
Si Si2 0.324030 0.742029 0.171530
Si Si3 0.051950 0.816307 0.823448
Si Si4 0.792478 0.146663 0.825992
Si Si5 0.559337 0.054199 0.824151
Si Si6 0.812745 0.911152 0.328458
Si Si7 0.709080 0.028030 0.674058
Si Si8 0.041974 0.304781 0.824440
O O1 0.500000 0.500000 0.261720
O O2 0.455085 0.564217 0.500000
O O3 0.494553 0.630646 0.258231
O O4 0.376133 0.558011 0.268027
O O5 0.256743 0.789010 0.200262
O O6 0.299074 0.666675 0.213663
O O7 0.386908 0.765035 0.279732
O O8 0.350136 0.747075 0.000000
O O9 0.130275 0.832690 0.760229
O O10 0.026330 0.741066 0.780561
O O11 0.054443 0.823975 0.000000
O O12 0.763840 0.083405 0.734496
O O13 0.795984 0.126410 0.000000
O O14 0.634187 0.031874 0.756733
O O15 0.533830 0.125709 0.762346
O O16 0.500000 0.000000 0.778987
O O17 0.569302 0.060607 0.000000
O O18 0.835151 0.918496 0.500000
O O19 0.741333 0.953829 0.295592
O O20 0.696093 0.041607 0.500000
O O21 0.045188 0.319516 0.000000
#
# Coordination Sequence:
#
# PCOD8236268 Si02
#       8
#     8   8   8   8   8   8   8   8
#     4  10  19  33  54  80 113 153 198 243 287 345
#     4  10  20  36  59  84 114 158 202 238 291 357
#     4   9  19  34  55  88 119 151 198 245 292 351
#     4  10  20  37  61  85 115 157 202 242 294 360
#     4  11  25  44  65  89 119 158 205 249 303 368
#     4  10  22  37  55  84 120 157 196 240 292 350
#     4  11  23  39  60  89 124 157 201 251 300 355
#     4  11  21  37  63  90 121 155 197 252 301 351
#
# _framework density 19.224195000000002
#
# number of rings (size 3 to 8) (size 9 to 14) (size 15 to 20)
#    0.000    1.750    2.500    1.875    0.000    4.250 
#    0.000    4.375    0.000    0.000    0.000    0.000 
#    0.000    0.000    0.000    0.000    0.000    0.000 
#
# Total GULP energy -793740.227221 kJ/mol
# GULP energy per Si atom -12402.191050 kJ/mol
# Density = 1.918044 g / cm^3
# Si number density = 19.224195 Si / 1000 Ang^3
#
#
#
# Elastic Constant Matrix: (Units=GPa)
#
#
# Indices 1 2 3 4 5 6 
#
# 1 126.4776 62.4866 42.1332 0.0000 0.0000 0.0000
# 2 62.4866 155.2238 47.5256 0.0000 0.0000 0.0000
# 3 42.1332 47.5256 51.6059 0.0000 0.0000 0.0000
# 4 0.0000 0.0000 0.0000 20.5325 0.0000 0.0000
# 5 0.0000 0.0000 0.0000 0.0000 9.8910 0.0000
# 6 0.0000 0.0000 0.0000 0.0000 0.0000 36.6851
#
#
#
# Elastic Compliance Matrix: (Units=1/GPa)
#
#
# Indices 1 2 3 4 5 6 
#
# 1 0.011488 -0.002441 -0.007131 0.000000 0.000000 0.000000
# 2 -0.002441 0.009491 -0.006747 0.000000 0.000000 0.000000
# 3 -0.007131 -0.006747 0.031414 0.000000 0.000000 0.000000
# 4 0.000000 0.000000 0.000000 0.048703 0.000000 0.000000
# 5 0.000000 0.000000 0.000000 0.000000 0.101102 0.000000
# 6 0.000000 0.000000 0.000000 0.000000 0.000000 0.027259
#
#
# Mechanical properties :
#
#
# Convention : Reuss Voigt Hill
#
# Bulk Modulus (GPa) = 50.62474 70.84424 60.73449
# Shear Modulus (GPa) = 18.60943 25.49919 22.05431
#
# Velocity S-wave (km/s) = 3.11468 3.64594 3.39073
# Velocity P-wave (km/s) = 6.27105 7.39293 6.85498
#
# Compressibility (1/GPa) = 0.01975319
#
# Stress axis : x y z
#
# Youngs Moduli (GPa) = 87.04518 105.36362 31.83319
#
# Poissons Ratio (x) = 0.25722 0.22701
# Poissons Ratio (y) = 0.21250 0.21479
# Poissons Ratio (z) = 0.62074 0.71092
#
# Static dielectric constant tensor:
#      x y z
#    x 3.613680 0.000000 0.000000 
#    y 0.000000 3.793870 0.000000 
#    z 0.000000 0.000000 3.407500 
# 
# 
# High freq. dielectric constant tensor:
#      x y z
#    x 1.750590 0.000000 0.000000 
#    y 0.000000 1.763680 0.000000 
#    z 0.000000 0.000000 1.734520 
# 
# From -- ./inp_files/9225.got.cif
#   From: 2010.06.25/outbox.cif.g09.slc.cpg/sg58_5_cif.got.tgz:9225.got - 2010.06.26 21:38:00.
