data_PCOD8236631
_publ_section_title
;
Structure prediction by ZEFSAII (Michael W. Deem and Ramdas Pophale) SiO2 
 PCOD8236631
Probable space group: P N N M
;
_chemical_formula_sum "Si O2"
_cell_formula_units_Z 56
_cell_length_a 23.936483
_cell_length_b 13.360718
_cell_length_c 9.153798
_cell_angle_alpha 90.000000
_cell_angle_beta 90.000000
_cell_angle_gamma 90.000000
_cell_volume 2927.463316
_symmetry_space_group_name_H-M "P N N M"
_symmetry_group_IT_number 58
_symmetry_cell_setting 'orthorhombic'
loop_
_space_group_symop_operation_xyz
x,y,z
-x,-y,z
1/2+x,1/2-y,1/2-z
1/2-x,1/2+y,1/2-z
-x,-y,-z
x,y,-z
1/2-x,1/2+y,1/2+z
1/2+x,1/2-y,1/2+z
loop_
_atom_site_type_symbol
_atom_site_label
_atom_site_fract_x
_atom_site_fract_y
_atom_site_fract_z
Si Si1 0.125670 0.118690 0.673405
Si Si2 0.439730 0.456815 0.329687
Si Si3 0.062017 0.725000 0.831924
Si Si4 0.563053 0.210249 0.667181
Si Si5 0.776551 0.781030 0.830729
Si Si6 0.666066 0.077942 0.666650
Si Si7 0.161740 0.622685 0.669527
O O1 0.127251 0.116161 0.500000
O O2 0.081090 0.200467 0.727063
O O3 0.187180 0.143425 0.733360
O O4 0.107667 0.010740 0.734245
O O5 0.500000 0.500000 0.286610
O O6 0.427478 0.474551 0.500000
O O7 0.437320 0.340782 0.287104
O O8 0.105178 0.662269 0.738544
O O9 0.000604 0.679895 0.799570
O O10 0.078520 0.711045 0.000000
O O11 0.568412 0.249882 0.500000
O O12 0.602221 0.114012 0.691335
O O13 0.791342 0.666771 0.789763
O O14 0.711510 0.799195 0.797920
O O15 0.791608 0.800993 0.000000
O O16 0.675276 0.044793 0.500000
O O17 0.679262 0.984771 0.768549
O O18 0.151052 0.609252 0.500000
#
# Coordination Sequence:
#
# PCOD8236631 Si02
#       7
#     8   8   8   8   8   8   8
#     4  11  21  32  55  89 119 148 187 242 294 337
#     4  10  19  35  58  83 116 156 195 231 275 342
#     4  10  21  37  59  83 112 154 198 236 277 336
#     4   9  18  37  60  82 111 152 198 233 273 342
#     4   9  21  42  62  79 108 155 200 234 277 343
#     4   9  19  38  64  84 106 145 195 239 276 336
#     4  11  24  40  58  85 121 150 182 238 297 341
#
# _framework density 19.129190000000001
#
# number of rings (size 3 to 8) (size 9 to 14) (size 15 to 20)
#    0.000    2.143    1.429    2.571    0.000    6.571 
#    0.000    5.714    0.000    0.000    0.000    0.000 
#    0.000    0.000    0.000    0.000    0.000    0.000 
#
# Total GULP energy -694560.947127 kJ/mol
# GULP energy per Si atom -12402.874056 kJ/mol
# Density = 1.908565 g / cm^3
# Si number density = 19.129190 Si / 1000 Ang^3
#
#
#
# Elastic Constant Matrix: (Units=GPa)
#
#
# Indices 1 2 3 4 5 6 
#
# 1 106.7100 43.9854 42.0902 0.0000 0.0000 0.0000
# 2 43.9854 94.7748 42.0991 0.0000 0.0000 0.0000
# 3 42.0902 42.0991 85.0612 0.0000 0.0000 0.0000
# 4 0.0000 0.0000 0.0000 28.7252 0.0000 0.0000
# 5 0.0000 0.0000 0.0000 0.0000 26.3730 0.0000
# 6 0.0000 0.0000 0.0000 0.0000 0.0000 26.1891
#
#
#
# Elastic Compliance Matrix: (Units=1/GPa)
#
#
# Indices 1 2 3 4 5 6 
#
# 1 0.012717 -0.003982 -0.004322 0.000000 0.000000 0.000000
# 2 -0.003982 0.014772 -0.005340 0.000000 0.000000 0.000000
# 3 -0.004322 -0.005340 0.016538 0.000000 0.000000 0.000000
# 4 0.000000 0.000000 0.000000 0.034813 0.000000 0.000000
# 5 0.000000 0.000000 0.000000 0.000000 0.037918 0.000000
# 6 0.000000 0.000000 0.000000 0.000000 0.000000 0.038184
#
#
# Mechanical properties :
#
#
# Convention : Reuss Voigt Hill
#
# Bulk Modulus (GPa) = 59.74504 60.32172 60.03338
# Shear Modulus (GPa) = 26.62269 26.81555 26.71912
#
# Velocity S-wave (km/s) = 3.73464 3.74814 3.74140
# Velocity P-wave (km/s) = 7.06377 7.09463 7.07922
#
# Compressibility (1/GPa) = 0.01673779
#
# Stress axis : x y z
#
# Youngs Moduli (GPa) = 78.63224 67.69659 60.46722
#
# Poissons Ratio (x) = 0.26960 0.26133
# Poissons Ratio (y) = 0.31315 0.32292
# Poissons Ratio (z) = 0.33984 0.36152
#
# Static dielectric constant tensor:
#      x y z
#    x 3.567010 0.000000 0.000000 
#    y 0.000000 3.418940 0.000000 
#    z 0.000000 0.000000 3.375210 
# 
# 
# High freq. dielectric constant tensor:
#      x y z
#    x 1.746550 0.000000 0.000000 
#    y 0.000000 1.738330 0.000000 
#    z 0.000000 0.000000 1.735150 
# 
# From -- ./inp_files/8963.got.cif
#   From: 2010.06.25/outbox.cif.g09.slc.cpg/sg58_5_cif.got.tgz:8963.got - 2010.06.26 21:38:00.
