data_PCOD8236429
_publ_section_title
;
Structure prediction by ZEFSAII (Michael W. Deem and Ramdas Pophale) SiO2 
 PCOD8236429
Probable space group: P N N M
;
_chemical_formula_sum "Si O2"
_cell_formula_units_Z 64
_cell_length_a 15.775457
_cell_length_b 24.095223
_cell_length_c 8.629420
_cell_angle_alpha 90.000000
_cell_angle_beta 90.000000
_cell_angle_gamma 90.000000
_cell_volume 3280.156056
_symmetry_space_group_name_H-M "P N N M"
_symmetry_group_IT_number 58
_symmetry_cell_setting 'orthorhombic'
loop_
_space_group_symop_operation_xyz
x,y,z
-x,-y,z
1/2+x,1/2-y,1/2-z
1/2-x,1/2+y,1/2-z
-x,-y,-z
x,y,-z
1/2-x,1/2+y,1/2+z
1/2+x,1/2-y,1/2+z
loop_
_atom_site_type_symbol
_atom_site_label
_atom_site_fract_x
_atom_site_fract_y
_atom_site_fract_z
Si Si1 0.904036 0.612025 0.315757
Si Si2 0.002328 0.909304 0.816739
Si Si3 0.368645 0.501871 0.316865
Si Si4 0.095564 0.612815 0.683800
Si Si5 0.496373 0.289305 0.818266
Si Si6 0.836105 0.727779 0.684040
Si Si7 0.160238 0.723050 0.183257
Si Si8 0.180074 0.499633 0.315071
O O1 0.905581 0.608641 0.500000
O O2 0.848319 0.664288 0.258745
O O3 0.864784 0.555397 0.247490
O O4 0.999773 0.619568 0.255065
O O5 0.005507 0.853908 0.718275
O O6 0.919255 0.943416 0.763023
O O7 0.084121 0.945411 0.768004
O O8 0.001754 0.896271 0.000000
O O9 0.364770 0.503497 0.500000
O O10 0.274814 0.502450 0.245104
O O11 0.100781 0.617818 0.500000
O O12 0.153760 0.660454 0.756020
O O13 0.129168 0.553404 0.742021
O O14 0.584822 0.264254 0.754959
O O15 0.418398 0.259708 0.736093
O O16 0.487314 0.278454 0.000000
O O17 0.834345 0.729726 0.500000
O O18 0.747701 0.751167 0.751227
O O19 0.163173 0.722621 0.000000
O O20 0.182296 0.497243 0.500000
#
# Coordination Sequence:
#
# PCOD8236429 Si02
#       8
#     8   8   8   8   8   8   8   8
#     4   9  16  31  53  78 107 138 176 225 274 323
#     4   9  18  33  54  79 111 146 181 222 273 330
#     4   8  16  31  49  78 114 143 177 226 274 319
#     4  10  19  34  55  82 112 139 177 232 283 326
#     4  11  22  39  59  83 113 146 184 233 283 330
#     4   9  20  36  55  80 111 146 183 224 279 335
#     4  11  23  38  58  83 109 148 191 226 274 339
#     4   9  17  27  51  83 106 137 184 229 270 320
#
# _framework density 19.511265999999999
#
# number of rings (size 3 to 8) (size 9 to 14) (size 15 to 20)
#    0.000    2.500    1.250    1.875    3.500    1.500 
#    0.000    3.125    0.000    2.250    0.000    0.000 
#    0.000    0.000    0.000    0.000    0.000    0.000 
#
# Total GULP energy -793520.586359 kJ/mol
# GULP energy per Si atom -12398.759162 kJ/mol
# Density = 1.946686 g / cm^3
# Si number density = 19.511266 Si / 1000 Ang^3
#
#
#
# Elastic Constant Matrix: (Units=GPa)
#
#
# Indices 1 2 3 4 5 6 
#
# 1 169.4922 83.0288 20.0310 0.0000 0.0000 0.0000
# 2 83.0288 174.9521 19.4918 0.0000 0.0000 0.0000
# 3 20.0310 19.4918 19.1419 0.0000 0.0000 0.0000
# 4 0.0000 0.0000 0.0000 28.1528 0.0000 0.0000
# 5 0.0000 0.0000 0.0000 0.0000 17.3256 0.0000
# 6 0.0000 0.0000 0.0000 0.0000 0.0000 30.7989
#
#
#
# Elastic Compliance Matrix: (Units=1/GPa)
#
#
# Indices 1 2 3 4 5 6 
#
# 1 0.008114 -0.003277 -0.005155 0.000000 0.000000 0.000000
# 2 -0.003277 0.007770 -0.004484 0.000000 0.000000 0.000000
# 3 -0.005155 -0.004484 0.062201 0.000000 0.000000 0.000000
# 4 0.000000 0.000000 0.000000 0.035520 0.000000 0.000000
# 5 0.000000 0.000000 0.000000 0.000000 0.057718 0.000000
# 6 0.000000 0.000000 0.000000 0.000000 0.000000 0.032469
#
#
# Mechanical properties :
#
#
# Convention : Reuss Voigt Hill
#
# Bulk Modulus (GPa) = 19.13653 67.63214 43.38433
# Shear Modulus (GPa) = 20.23950 31.32443 25.78197
#
# Velocity S-wave (km/s) = 3.22425 4.01116 3.63903
# Velocity P-wave (km/s) = 4.86726 7.49606 6.31985
#
# Compressibility (1/GPa) = 0.05225608
#
# Stress axis : x y z
#
# Youngs Moduli (GPa) = 123.23990 128.69383 16.07684
#
# Poissons Ratio (x) = 0.42167 0.08287
# Poissons Ratio (y) = 0.40380 0.07208
# Poissons Ratio (z) = 0.63526 0.57702
#
# Static dielectric constant tensor:
#      x y z
#    x 4.052010 0.000000 0.000000 
#    y 0.000000 3.737720 0.000000 
#    z 0.000000 0.000000 2.987050 
# 
# 
# High freq. dielectric constant tensor:
#      x y z
#    x 1.773430 0.000000 0.000000 
#    y 0.000000 1.776440 0.000000 
#    z 0.000000 0.000000 1.702550 
# 
# From -- ./inp_files/6921.got.cif
#   From: 2010.06.25/outbox.cif.g09.slc.cpg/sg58_4_cif.got.tgz:6921.got - 2010.06.26 21:38:00.
