data_PCOD8236430
_publ_section_title
;
Structure prediction by ZEFSAII (Michael W. Deem and Ramdas Pophale) SiO2 
 PCOD8236430
Probable space group: P N N M
;
_chemical_formula_sum "Si O2"
_cell_formula_units_Z 48
_cell_length_a 12.318310
_cell_length_b 7.551366
_cell_length_c 24.258473
_cell_angle_alpha 90.000000
_cell_angle_beta 90.000000
_cell_angle_gamma 90.000000
_cell_volume 2256.524791
_symmetry_space_group_name_H-M "P N N M"
_symmetry_group_IT_number 58
_symmetry_cell_setting 'orthorhombic'
loop_
_space_group_symop_operation_xyz
x,y,z
-x,-y,z
1/2+x,1/2-y,1/2-z
1/2-x,1/2+y,1/2-z
-x,-y,-z
x,y,-z
1/2-x,1/2+y,1/2+z
1/2+x,1/2-y,1/2+z
loop_
_atom_site_type_symbol
_atom_site_label
_atom_site_fract_x
_atom_site_fract_y
_atom_site_fract_z
Si Si1 0.933650 0.838852 0.662947
Si Si2 0.321349 0.483992 0.061738
Si Si3 0.786733 0.272620 0.215925
Si Si4 0.276886 0.598460 0.327310
Si Si5 0.085912 0.627687 0.402418
Si Si6 0.119858 0.443689 0.865469
O O1 0.842095 0.776875 0.704694
O O2 0.017753 0.682783 0.651947
O O3 0.885936 0.890211 0.602827
O O4 0.000000 0.000000 0.690288
O O5 0.378892 0.291866 0.059802
O O6 0.197382 0.472056 0.082173
O O7 0.322817 0.562893 0.000000
O O8 0.797003 0.300068 0.281478
O O9 0.847910 0.430789 0.185396
O O10 0.832032 0.079969 0.197088
O O11 0.196983 0.540876 0.377948
O O12 0.369710 0.736958 0.347348
O O13 0.000000 0.500000 0.435195
O O14 0.000000 0.500000 0.884329
#
# Coordination Sequence:
#
# PCOD8236430 Si02
#       6
#     8   8   8   8   8   8
#     4   9  19  34  55  80 115 146 184 231 289 348
#     4   9  20  38  60  84 110 142 191 245 294 350
#     4  11  21  37  56  83 119 158 194 242 281 340
#     4  11  22  36  57  84 121 156 198 237 284 341
#     4  10  19  34  55  82 115 148 178 231 294 355
#     4  10  23  41  58  84 115 156 202 240 289 343
#
# _framework density 21.271647999999999
#
# number of rings (size 3 to 8) (size 9 to 14) (size 15 to 20)
#    0.000    2.000    3.333    1.000    0.000    6.333 
#    0.000    0.000    0.000    0.000    0.000    4.667 
#    0.000    0.000    0.000    0.000    0.000    0.000 
#
# Total GULP energy -594794.615402 kJ/mol
# GULP energy per Si atom -12391.554488 kJ/mol
# Density = 2.122323 g / cm^3
# Si number density = 21.271648 Si / 1000 Ang^3
#
#
#
# Elastic Constant Matrix: (Units=GPa)
#
#
# Indices 1 2 3 4 5 6 
#
# 1 106.0108 23.6908 11.2546 0.0000 0.0000 0.0000
# 2 23.6908 97.2753 3.9800 0.0000 0.0000 0.0000
# 3 11.2546 3.9800 68.8114 0.0000 0.0000 0.0000
# 4 0.0000 0.0000 0.0000 13.1244 0.0000 0.0000
# 5 0.0000 0.0000 0.0000 0.0000 12.6920 0.0000
# 6 0.0000 0.0000 0.0000 0.0000 0.0000 31.0065
#
#
#
# Elastic Compliance Matrix: (Units=1/GPa)
#
#
# Indices 1 2 3 4 5 6 
#
# 1 0.010132 -0.002405 -0.001518 0.000000 0.000000 0.000000
# 2 -0.002405 0.010876 -0.000236 0.000000 0.000000 0.000000
# 3 -0.001518 -0.000236 0.014794 0.000000 0.000000 0.000000
# 4 0.000000 0.000000 0.000000 0.076194 0.000000 0.000000
# 5 0.000000 0.000000 0.000000 0.000000 0.078790 0.000000
# 6 0.000000 0.000000 0.000000 0.000000 0.000000 0.032251
#
#
# Mechanical properties :
#
#
# Convention : Reuss Voigt Hill
#
# Bulk Modulus (GPa) = 36.38529 38.88314 37.63421
# Shear Modulus (GPa) = 20.78867 26.90940 23.84903
#
# Velocity S-wave (km/s) = 3.12956 3.56059 3.35201
# Velocity P-wave (km/s) = 5.49555 5.93488 5.71943
#
# Compressibility (1/GPa) = 0.02748364
#
# Stress axis : x y z
#
# Youngs Moduli (GPa) = 98.70007 91.94923 67.59326
#
# Poissons Ratio (x) = 0.22118 0.10261
# Poissons Ratio (y) = 0.23741 0.01593
# Poissons Ratio (z) = 0.14982 0.02166
#
# Static dielectric constant tensor:
#      x y z
#    x 3.854460 0.000000 0.000000 
#    y 0.000000 4.057140 0.000000 
#    z 0.000000 0.000000 3.346850 
# 
# 
# High freq. dielectric constant tensor:
#      x y z
#    x 1.821970 0.000000 0.000000 
#    y 0.000000 1.841890 0.000000 
#    z 0.000000 0.000000 1.798010 
# 
# From -- ./inp_files/31901.got.cif
#   From: 2010.06.25/outbox.cif.g09.slc.cpg/sg58_16_cif.got.tgz:31901.got - 2010.06.26 21:38:00.
