data_PCOD8236922
_publ_section_title
;
Structure prediction by ZEFSAII (Michael W. Deem and Ramdas Pophale) SiO2 
 PCOD8236922
Probable space group: P N N M
;
_chemical_formula_sum "Si O2"
_cell_formula_units_Z 48
_cell_length_a 16.524574
_cell_length_b 18.110328
_cell_length_c 9.237739
_cell_angle_alpha 90.000000
_cell_angle_beta 90.000000
_cell_angle_gamma 90.000000
_cell_volume 2764.536167
_symmetry_space_group_name_H-M "P N N M"
_symmetry_group_IT_number 58
_symmetry_cell_setting 'orthorhombic'
loop_
_space_group_symop_operation_xyz
x,y,z
-x,-y,z
1/2+x,1/2-y,1/2-z
1/2-x,1/2+y,1/2-z
-x,-y,-z
x,y,-z
1/2-x,1/2+y,1/2+z
1/2+x,1/2-y,1/2+z
loop_
_atom_site_type_symbol
_atom_site_label
_atom_site_fract_x
_atom_site_fract_y
_atom_site_fract_z
Si Si1 0.660062 0.342927 0.331186
Si Si2 0.578330 0.199276 0.340917
Si Si3 0.994585 0.417486 0.669620
Si Si4 0.840498 0.323521 0.331919
Si Si5 0.484044 0.585815 0.168035
Si Si6 0.419953 0.298211 0.337658
O O1 0.637176 0.354839 0.500000
O O2 0.647769 0.256254 0.289675
O O3 0.753782 0.361070 0.299617
O O4 0.603618 0.395619 0.235553
O O5 0.597902 0.167535 0.500000
O O6 0.568667 0.130254 0.233987
O O7 0.497004 0.246215 0.343663
O O8 0.008133 0.417990 0.500000
O O9 0.907907 0.383482 0.713509
O O10 0.000000 0.500000 0.733332
O O11 0.849057 0.302357 0.500000
O O12 0.849144 0.247560 0.242009
O O13 0.500000 0.500000 0.189247
O O14 0.556954 0.628572 0.248067
O O15 0.483458 0.608892 0.000000
O O16 0.391873 0.320175 0.500000
#
# Coordination Sequence:
#
# PCOD8236922 Si02
#       6
#     8   8   8   8   8   8
#     4   9  18  32  50  71  95 125 161 201 245 292
#     4   8  15  28  45  65  87 114 151 189 226 273
#     4   9  17  29  46  68  93 122 155 188 226 278
#     4   9  17  31  50  70  96 128 159 198 246 288
#     4  10  20  33  50  72  98 129 164 202 246 296
#     4   9  17  30  49  71  93 120 158 198 235 285
#
# _framework density 17.362767000000002
#
# number of rings (size 3 to 8) (size 9 to 14) (size 15 to 20)
#    0.000    3.000    0.000    2.000    0.000    6.333 
#    0.000    1.667    0.000    4.000    0.000    0.000 
#    0.000    0.000    0.000    0.000    0.000    0.000 
#
# Total GULP energy -595002.369735 kJ/mol
# GULP energy per Si atom -12395.882703 kJ/mol
# Density = 1.732325 g / cm^3
# Si number density = 17.362767 Si / 1000 Ang^3
#
#
#
# Elastic Constant Matrix: (Units=GPa)
#
#
# Indices 1 2 3 4 5 6 
#
# 1 71.0771 36.9230 38.2868 0.0000 0.0000 0.0000
# 2 36.9230 107.9925 58.9267 0.0000 0.0000 0.0000
# 3 38.2868 58.9267 91.1937 0.0000 0.0000 0.0000
# 4 0.0000 0.0000 0.0000 27.7104 0.0000 0.0000
# 5 0.0000 0.0000 0.0000 0.0000 20.8714 0.0000
# 6 0.0000 0.0000 0.0000 0.0000 0.0000 17.9429
#
#
#
# Elastic Compliance Matrix: (Units=1/GPa)
#
#
# Indices 1 2 3 4 5 6 
#
# 1 0.018911 -0.003295 -0.005810 0.000000 0.000000 0.000000
# 2 -0.003295 0.014877 -0.008230 0.000000 0.000000 0.000000
# 3 -0.005810 -0.008230 0.018723 0.000000 0.000000 0.000000
# 4 0.000000 0.000000 0.000000 0.036088 0.000000 0.000000
# 5 0.000000 0.000000 0.000000 0.000000 0.047912 0.000000
# 6 0.000000 0.000000 0.000000 0.000000 0.000000 0.055732
#
#
# Mechanical properties :
#
#
# Convention : Reuss Voigt Hill
#
# Bulk Modulus (GPa) = 56.05254 59.83738 57.94496
# Shear Modulus (GPa) = 21.47212 22.38007 21.92609
#
# Velocity S-wave (km/s) = 3.52046 3.59412 3.55748
# Velocity P-wave (km/s) = 6.99129 7.19454 7.09364
#
# Compressibility (1/GPa) = 0.01784041
#
# Stress axis : x y z
#
# Youngs Moduli (GPa) = 52.87975 67.21714 53.41078
#
# Poissons Ratio (x) = 0.22150 0.31033
# Poissons Ratio (y) = 0.17426 0.43955
# Poissons Ratio (z) = 0.30724 0.55318
#
# Static dielectric constant tensor:
#      x y z
#    x 3.217140 0.000000 0.000000 
#    y 0.000000 3.245680 0.000000 
#    z 0.000000 0.000000 3.393170 
# 
# 
# High freq. dielectric constant tensor:
#      x y z
#    x 1.649460 0.000000 0.000000 
#    y 0.000000 1.657270 0.000000 
#    z 0.000000 0.000000 1.673600 
# 
# From -- ./inp_files/7843.got.cif
#   From: 2010.06.25/outbox.cif.g09.slc.cpg/sg58_4_cif.got.tgz:7843.got - 2010.06.26 21:38:00.
