data_PCOD8236941
_publ_section_title
;
Structure prediction by ZEFSAII (Michael W. Deem and Ramdas Pophale) SiO2 
 PCOD8236941
Probable space group: P N N M
;
_chemical_formula_sum "Si O2"
_cell_formula_units_Z 56
_cell_length_a 16.679832
_cell_length_b 19.686182
_cell_length_c 9.596942
_cell_angle_alpha 90.000000
_cell_angle_beta 90.000000
_cell_angle_gamma 90.000000
_cell_volume 3151.273070
_symmetry_space_group_name_H-M "P N N M"
_symmetry_group_IT_number 58
_symmetry_cell_setting 'orthorhombic'
loop_
_space_group_symop_operation_xyz
x,y,z
-x,-y,z
1/2+x,1/2-y,1/2-z
1/2-x,1/2+y,1/2-z
-x,-y,-z
x,y,-z
1/2-x,1/2+y,1/2+z
1/2+x,1/2-y,1/2+z
loop_
_atom_site_type_symbol
_atom_site_label
_atom_site_fract_x
_atom_site_fract_y
_atom_site_fract_z
Si Si1 0.770534 0.263708 0.842058
Si Si2 0.066507 0.549228 0.337481
Si Si3 0.745058 0.975585 0.163639
Si Si4 0.086637 0.697978 0.339948
Si Si5 0.322125 0.382596 0.339376
Si Si6 0.648201 0.374498 0.839472
Si Si7 0.969688 0.156599 0.337172
O O1 0.831917 0.304312 0.746330
O O2 0.768528 0.183861 0.802933
O O3 0.683941 0.298348 0.820963
O O4 0.800532 0.272432 0.000000
O O5 0.070643 0.532032 0.500000
O O6 0.155393 0.535605 0.276708
O O7 0.039910 0.627432 0.309910
O O8 0.000000 0.500000 0.266693
O O9 0.807068 0.927909 0.243242
O O10 0.767685 0.053157 0.196239
O O11 0.750706 0.958475 0.000000
O O12 0.113246 0.701155 0.500000
O O13 0.032677 0.762909 0.300010
O O14 0.349085 0.382827 0.500000
O O15 0.402643 0.384182 0.247718
O O16 0.555867 0.371765 0.792430
O O17 0.655766 0.397785 0.000000
O O18 0.953460 0.144889 0.500000
#
# Coordination Sequence:
#
# PCOD8236941 Si02
#       7
#     8   8   8   8   8   8   8
#     4   9  17  31  51  71  95 130 167 204 249 298
#     4   9  17  29  49  77 103 127 159 205 256 300
#     4  10  20  34  52  75 103 134 169 207 253 304
#     4   9  16  30  51  72  96 125 162 205 249 295
#     4   9  19  34  51  73 102 134 167 208 254 299
#     4  10  20  33  51  75 102 134 171 207 251 302
#     4   9  19  33  50  74 100 131 170 211 249 293
#
# _framework density 17.770595
#
# number of rings (size 3 to 8) (size 9 to 14) (size 15 to 20)
#    0.000    2.714    1.429    0.000    0.000    2.857 
#    0.000    8.571    0.000    1.714    0.000    4.000 
#    0.000    0.000    0.000    0.000    0.000    0.000 
#
# Total GULP energy -694217.770808 kJ/mol
# GULP energy per Si atom -12396.745907 kJ/mol
# Density = 1.773015 g / cm^3
# Si number density = 17.770595 Si / 1000 Ang^3
#
#
#
# Elastic Constant Matrix: (Units=GPa)
#
#
# Indices 1 2 3 4 5 6 
#
# 1 84.6351 43.3241 29.7934 0.0000 0.0000 0.0000
# 2 43.3241 95.4100 29.0215 0.0000 0.0000 0.0000
# 3 29.7934 29.0215 38.7229 0.0000 0.0000 0.0000
# 4 0.0000 0.0000 0.0000 23.7866 0.0000 0.0000
# 5 0.0000 0.0000 0.0000 0.0000 23.1855 0.0000
# 6 0.0000 0.0000 0.0000 0.0000 0.0000 28.4825
#
#
#
# Elastic Compliance Matrix: (Units=1/GPa)
#
#
# Indices 1 2 3 4 5 6 
#
# 1 0.017944 -0.005115 -0.009973 0.000000 0.000000 0.000000
# 2 -0.005115 0.015034 -0.007332 0.000000 0.000000 0.000000
# 3 -0.009973 -0.007332 0.038993 0.000000 0.000000 0.000000
# 4 0.000000 0.000000 0.000000 0.042040 0.000000 0.000000
# 5 0.000000 0.000000 0.000000 0.000000 0.043130 0.000000
# 6 0.000000 0.000000 0.000000 0.000000 0.000000 0.035109
#
#
# Mechanical properties :
#
#
# Convention : Reuss Voigt Hill
#
# Bulk Modulus (GPa) = 36.85769 47.00512 41.93140
# Shear Modulus (GPa) = 20.31406 22.86618 21.59012
#
# Velocity S-wave (km/s) = 3.38469 3.59101 3.48937
# Velocity P-wave (km/s) = 6.00505 6.61077 6.31518
#
# Compressibility (1/GPa) = 0.02713138
#
# Stress axis : x y z
#
# Youngs Moduli (GPa) = 55.72790 66.51675 25.64560
#
# Poissons Ratio (x) = 0.34021 0.25577
# Poissons Ratio (y) = 0.28503 0.18804
# Poissons Ratio (z) = 0.55578 0.48771
#
# Static dielectric constant tensor:
#      x y z
#    x 3.289330 0.000000 0.000000 
#    y 0.000000 3.463200 0.000000 
#    z 0.000000 0.000000 3.166260 
# 
# 
# High freq. dielectric constant tensor:
#      x y z
#    x 1.675820 0.000000 0.000000 
#    y 0.000000 1.698280 0.000000 
#    z 0.000000 0.000000 1.667200 
# 
# From -- ./inp_files/6275.got.cif
#   From: 2010.06.25/outbox.cif.g09.slc.cpg/sg58_4_cif.got.tgz:6275.got - 2010.06.26 21:38:00.
