data_PCOD8236187
_publ_section_title
;
Structure prediction by ZEFSAII (Michael W. Deem and Ramdas Pophale) SiO2 
 PCOD8236187
Probable space group: P N N M
;
_chemical_formula_sum "Si O2"
_cell_formula_units_Z 60
_cell_length_a 15.302085
_cell_length_b 12.176504
_cell_length_c 17.914727
_cell_angle_alpha 90.000000
_cell_angle_beta 90.000000
_cell_angle_gamma 90.000000
_cell_volume 3337.977617
_symmetry_space_group_name_H-M "P N N M"
_symmetry_group_IT_number 58
_symmetry_cell_setting 'orthorhombic'
loop_
_space_group_symop_operation_xyz
x,y,z
-x,-y,z
1/2+x,1/2-y,1/2-z
1/2-x,1/2+y,1/2-z
-x,-y,-z
x,y,-z
1/2-x,1/2+y,1/2+z
1/2+x,1/2-y,1/2+z
loop_
_atom_site_type_symbol
_atom_site_label
_atom_site_fract_x
_atom_site_fract_y
_atom_site_fract_z
Si Si1 0.000000 0.500000 0.246366
Si Si2 0.189149 0.827626 0.311781
Si Si3 0.211865 0.122737 0.157178
Si Si4 0.397215 0.500869 0.916937
Si Si5 0.317110 0.923801 0.800724
Si Si6 0.969040 0.880387 0.914354
Si Si7 0.871754 0.808143 0.691106
Si Si8 0.463864 0.240424 0.284230
O O1 0.913626 0.524892 0.294216
O O2 0.975179 0.390245 0.200027
O O3 0.226016 0.726036 0.360089
O O4 0.132336 0.898352 0.368032
O O5 0.268225 0.902070 0.278716
O O6 0.131447 0.776477 0.244349
O O7 0.134443 0.127175 0.097773
O O8 0.180028 0.132155 0.242489
O O9 0.261640 0.006601 0.147865
O O10 0.500000 0.500000 0.921783
O O11 0.368805 0.614765 0.880210
O O12 0.356230 0.493721 0.000000
O O13 0.325690 0.803540 0.837595
O O14 0.020717 0.793527 0.864583
O O15 0.991713 0.855869 0.000000
O O16 0.000000 0.000000 0.888918
O O17 0.968488 0.782454 0.721646
#
# Coordination Sequence:
#
# PCOD8236187 Si02
#       8
#     4   8   8   8   8   8   8   8
#     4  10  20  36  53  86 113 142 184 238 284 336
#     4  11  20  33  57  86 112 148 192 236 280 330
#     4  10  19  34  58  83 110 146 191 240 274 333
#     4  11  22  35  54  83 118 150 183 229 290 347
#     4  10  19  32  55  82 108 143 191 236 282 320
#     4  10  22  38  57  85 118 153 190 233 291 345
#     4   9  19  33  53  83 108 143 185 230 280 330
#     4  10  19  34  60  81 116 145 188 237 277 336
#
# _framework density 17.974955999999999
#
# number of rings (size 3 to 8) (size 9 to 14) (size 15 to 20)
#    0.000    1.867    4.000    1.600    1.867    0.533 
#    0.000    1.000    0.000    8.800    0.000    4.667 
#    0.000    0.000    0.000    0.000    0.000    0.000 
#
# Total GULP energy -743768.595334 kJ/mol
# GULP energy per Si atom -12396.143256 kJ/mol
# Density = 1.793404 g / cm^3
# Si number density = 17.974956 Si / 1000 Ang^3
#
#
#
# Elastic Constant Matrix: (Units=GPa)
#
#
# Indices 1 2 3 4 5 6 
#
# 1 84.7412 36.1658 20.7393 0.0000 0.0000 0.0000
# 2 36.1658 132.6612 49.3992 0.0000 0.0000 0.0000
# 3 20.7393 49.3992 70.3205 0.0000 0.0000 0.0000
# 4 0.0000 0.0000 0.0000 4.2534 0.0000 0.0000
# 5 0.0000 0.0000 0.0000 0.0000 29.2436 0.0000
# 6 0.0000 0.0000 0.0000 0.0000 0.0000 37.1185
#
#
#
# Elastic Compliance Matrix: (Units=1/GPa)
#
#
# Indices 1 2 3 4 5 6 
#
# 1 0.013539 -0.002985 -0.001896 0.000000 0.000000 0.000000
# 2 -0.002985 0.010866 -0.006753 0.000000 0.000000 0.000000
# 3 -0.001896 -0.006753 0.019524 0.000000 0.000000 0.000000
# 4 0.000000 0.000000 0.000000 0.235108 0.000000 0.000000
# 5 0.000000 0.000000 0.000000 0.000000 0.034196 0.000000
# 6 0.000000 0.000000 0.000000 0.000000 0.000000 0.026941
#
#
# Mechanical properties :
#
#
# Convention : Reuss Voigt Hill
#
# Bulk Modulus (GPa) = 48.40129 55.59240 51.99684
# Shear Modulus (GPa) = 13.50155 26.21767 19.85961
#
# Velocity S-wave (km/s) = 2.74365 3.82326 3.32753
# Velocity P-wave (km/s) = 6.08460 7.10525 6.61464
#
# Compressibility (1/GPa) = 0.02066061
#
# Stress axis : x y z
#
# Youngs Moduli (GPa) = 73.86333 92.02672 51.21939
#
# Poissons Ratio (x) = 0.27468 0.09712
# Poissons Ratio (y) = 0.22047 0.34590
# Poissons Ratio (z) = 0.14005 0.62148
#
# Static dielectric constant tensor:
#      x y z
#    x 3.548910 0.000000 0.000000 
#    y 0.000000 3.650600 0.000000 
#    z 0.000000 0.000000 2.959910 
# 
# 
# High freq. dielectric constant tensor:
#      x y z
#    x 1.708040 0.000000 0.000000 
#    y 0.000000 1.717140 0.000000 
#    z 0.000000 0.000000 1.645700 
# 
# From -- ./inp_files/26980.got.cif
#   From: 2010.06.25/outbox.cif.g09.slc.cpg/sg58_14_cif.got.tgz:26980.got - 2010.06.26 21:38:00.
