data_PCOD8236999
_publ_section_title
;
Structure prediction by ZEFSAII (Michael W. Deem and Ramdas Pophale) SiO2 
 PCOD8236999
Probable space group: P N N M
;
_chemical_formula_sum "Si O2"
_cell_formula_units_Z 48
_cell_length_a 25.126260
_cell_length_b 12.307932
_cell_length_c 9.234278
_cell_angle_alpha 90.000000
_cell_angle_beta 90.000000
_cell_angle_gamma 90.000000
_cell_volume 2855.721706
_symmetry_space_group_name_H-M "P N N M"
_symmetry_group_IT_number 58
_symmetry_cell_setting 'orthorhombic'
loop_
_space_group_symop_operation_xyz
x,y,z
-x,-y,z
1/2+x,1/2-y,1/2-z
1/2-x,1/2+y,1/2-z
-x,-y,-z
x,y,-z
1/2-x,1/2+y,1/2+z
1/2+x,1/2-y,1/2+z
loop_
_atom_site_type_symbol
_atom_site_label
_atom_site_fract_x
_atom_site_fract_y
_atom_site_fract_z
Si Si1 0.746456 0.632822 0.336367
Si Si2 0.350768 0.745026 0.171055
Si Si3 0.170005 0.999164 0.670816
Si Si4 0.939013 0.623480 0.828870
Si Si5 0.940304 0.380988 0.171012
Si Si6 0.366307 0.307696 0.335863
O O1 0.756400 0.591097 0.500000
O O2 0.798976 0.689585 0.273280
O O3 0.728624 0.530717 0.236152
O O4 0.697174 0.719875 0.335592
O O5 0.344821 0.620331 0.217242
O O6 0.402710 0.790610 0.247553
O O7 0.356980 0.756403 0.000000
O O8 0.171590 0.983823 0.500000
O O9 0.125720 0.917491 0.740194
O O10 0.925523 0.501560 0.772436
O O11 0.999729 0.650956 0.785665
O O12 0.930143 0.633972 0.000000
O O13 0.899362 0.291783 0.234877
O O14 0.935161 0.385080 0.000000
O O15 0.386203 0.330368 0.500000
#
# Coordination Sequence:
#
# PCOD8236999 Si02
#       6
#     8   8   8   8   8   8
#     4   8  17  32  49  68  93 130 163 193 242 293
#     4  10  20  34  49  71 106 134 156 196 252 301
#     4   9  18  32  49  71  98 126 162 202 240 288
#     4   9  18  31  52  78  98 126 167 208 243 287
#     4   8  15  32  54  75  99 125 166 211 244 286
#     4   8  15  31  53  70  94 130 160 196 246 286
#
# _framework density 16.808361000000001
#
# number of rings (size 3 to 8) (size 9 to 14) (size 15 to 20)
#    1.000    2.333    0.000    1.000    0.000    3.333 
#    0.000    7.500    0.000    5.000    0.000    0.000 
#    0.000    0.000    0.000    0.000    0.000    0.000 
#
# Total GULP energy -594641.633944 kJ/mol
# GULP energy per Si atom -12388.367374 kJ/mol
# Density = 1.677010 g / cm^3
# Si number density = 16.808361 Si / 1000 Ang^3
#
#
#
# Elastic Constant Matrix: (Units=GPa)
#
#
# Indices 1 2 3 4 5 6 
#
# 1 52.6862 21.9986 11.5841 0.0000 0.0000 0.0000
# 2 21.9986 72.9770 24.4120 0.0000 0.0000 0.0000
# 3 11.5841 24.4120 34.2385 0.0000 0.0000 0.0000
# 4 0.0000 0.0000 0.0000 25.5432 0.0000 0.0000
# 5 0.0000 0.0000 0.0000 0.0000 22.9936 0.0000
# 6 0.0000 0.0000 0.0000 0.0000 0.0000 32.7071
#
#
#
# Elastic Compliance Matrix: (Units=1/GPa)
#
#
# Indices 1 2 3 4 5 6 
#
# 1 0.022041 -0.005449 -0.003572 0.000000 0.000000 0.000000
# 2 -0.005449 0.019342 -0.011947 0.000000 0.000000 0.000000
# 3 -0.003572 -0.011947 0.038934 0.000000 0.000000 0.000000
# 4 0.000000 0.000000 0.000000 0.039149 0.000000 0.000000
# 5 0.000000 0.000000 0.000000 0.000000 0.043490 0.000000
# 6 0.000000 0.000000 0.000000 0.000000 0.000000 0.030574
#
#
# Mechanical properties :
#
#
# Convention : Reuss Voigt Hill
#
# Bulk Modulus (GPa) = 26.05527 30.65457 28.35492
# Shear Modulus (GPa) = 20.14009 23.04258 21.59133
#
# Velocity S-wave (km/s) = 3.46528 3.70658 3.58796
# Velocity P-wave (km/s) = 5.61658 6.04943 5.83702
#
# Compressibility (1/GPa) = 0.03837995
#
# Stress axis : x y z
#
# Youngs Moduli (GPa) = 45.37014 51.70058 25.68468
#
# Poissons Ratio (x) = 0.28173 0.09174
# Poissons Ratio (y) = 0.24723 0.30686
# Poissons Ratio (z) = 0.16206 0.61768
#
# Static dielectric constant tensor:
#      x y z
#    x 3.120550 0.000000 0.000000 
#    y 0.000000 3.209320 0.000000 
#    z 0.000000 0.000000 2.892180 
# 
# 
# High freq. dielectric constant tensor:
#      x y z
#    x 1.636540 0.000000 0.000000 
#    y 0.000000 1.639470 0.000000 
#    z 0.000000 0.000000 1.628700 
# 
# From -- ./inp_files/10334.got.cif
#   From: 2010.06.25/outbox.cif.g09.slc.cpg/sg58_6_cif.got.tgz:10334.got - 2010.06.26 21:38:00.
