data_PCOD8236217
_publ_section_title
;
Structure prediction by ZEFSAII (Michael W. Deem and Ramdas Pophale) SiO2 
 PCOD8236217
Probable space group: P N N M
;
_chemical_formula_sum "Si O2"
_cell_formula_units_Z 64
_cell_length_a 22.817212
_cell_length_b 18.883989
_cell_length_c 8.943860
_cell_angle_alpha 90.000000
_cell_angle_beta 90.000000
_cell_angle_gamma 90.000000
_cell_volume 3853.730222
_symmetry_space_group_name_H-M "P N N M"
_symmetry_group_IT_number 58
_symmetry_cell_setting 'orthorhombic'
loop_
_space_group_symop_operation_xyz
x,y,z
-x,-y,z
1/2+x,1/2-y,1/2-z
1/2-x,1/2+y,1/2-z
-x,-y,-z
x,y,-z
1/2-x,1/2+y,1/2+z
1/2+x,1/2-y,1/2+z
loop_
_atom_site_type_symbol
_atom_site_label
_atom_site_fract_x
_atom_site_fract_y
_atom_site_fract_z
Si Si1 0.664473 0.711750 0.830160
Si Si2 0.840022 0.754047 0.327953
Si Si3 0.757771 0.996848 0.173126
Si Si4 0.434684 0.369440 0.675429
Si Si5 0.946643 0.851015 0.672086
Si Si6 0.116618 0.004600 0.676422
Si Si7 0.784135 0.628309 0.828279
Si Si8 0.241907 0.662128 0.671361
O O1 0.613594 0.689133 0.717901
O O2 0.720141 0.661456 0.805185
O O3 0.683538 0.792402 0.792368
O O4 0.641452 0.704980 0.000000
O O5 0.826552 0.738081 0.500000
O O6 0.905564 0.782776 0.304804
O O7 0.832921 0.681499 0.236382
O O8 0.795444 0.814865 0.275274
O O9 0.728190 0.920215 0.198145
O O10 0.819526 0.001689 0.254603
O O11 0.713002 0.054032 0.241033
O O12 0.768397 0.013221 0.000000
O O13 0.432547 0.383299 0.500000
O O14 0.497703 0.339477 0.722624
O O15 0.424536 0.442813 0.761253
O O16 0.966594 0.858112 0.500000
O O17 0.911896 0.921165 0.722224
O O18 0.122737 0.995590 0.500000
O O19 0.798869 0.614300 0.000000
O O20 0.260829 0.677535 0.500000
#
# Coordination Sequence:
#
# PCOD8236217 Si02
#       8
#     8   8   8   8   8   8   8   8
#     4   9  18  34  51  68  97 134 167 202 247 302
#     4  10  19  33  52  74  98 129 170 211 249 296
#     4  11  20  31  51  78 104 132 168 208 248 298
#     4  12  24  34  49  73  99 133 175 217 250 287
#     4  10  22  37  52  70  97 137 175 208 252 302
#     4  11  21  35  50  69 100 138 174 206 246 298
#     4  10  20  33  51  73 101 136 166 202 255 302
#     4   9  19  33  51  74 101 131 163 205 256 302
#
# _framework density 16.607285999999998
#
# number of rings (size 3 to 8) (size 9 to 14) (size 15 to 20)
#    0.000    1.750    2.500    3.750    0.000    6.000 
#    0.000    0.000    0.000    0.000    0.000    0.875 
#    0.000    7.000    0.000    0.000    0.000    0.000 
#
# Total GULP energy -793812.656679 kJ/mol
# GULP energy per Si atom -12403.322761 kJ/mol
# Density = 1.656949 g / cm^3
# Si number density = 16.607286 Si / 1000 Ang^3
#
#
#
# Elastic Constant Matrix: (Units=GPa)
#
#
# Indices 1 2 3 4 5 6 
#
# 1 47.1202 26.9192 28.5868 0.0000 0.0000 0.0000
# 2 26.9192 85.8897 34.0184 0.0000 0.0000 0.0000
# 3 28.5868 34.0184 89.9108 0.0000 0.0000 0.0000
# 4 0.0000 0.0000 0.0000 23.9726 0.0000 0.0000
# 5 0.0000 0.0000 0.0000 0.0000 26.1871 0.0000
# 6 0.0000 0.0000 0.0000 0.0000 0.0000 21.2080
#
#
#
# Elastic Compliance Matrix: (Units=1/GPa)
#
#
# Indices 1 2 3 4 5 6 
#
# 1 0.029003 -0.006396 -0.006801 0.000000 0.000000 0.000000
# 2 -0.006396 0.015106 -0.003682 0.000000 0.000000 0.000000
# 3 -0.006801 -0.003682 0.014678 0.000000 0.000000 0.000000
# 4 0.000000 0.000000 0.000000 0.041714 0.000000 0.000000
# 5 0.000000 0.000000 0.000000 0.000000 0.038187 0.000000
# 6 0.000000 0.000000 0.000000 0.000000 0.000000 0.047152
#
#
# Mechanical properties :
#
#
# Convention : Reuss Voigt Hill
#
# Bulk Modulus (GPa) = 39.95577 44.66327 42.30952
# Shear Modulus (GPa) = 21.93565 23.16663 22.55114
#
# Velocity S-wave (km/s) = 3.63829 3.73898 3.68898
# Velocity P-wave (km/s) = 6.46227 6.75219 6.60882
#
# Compressibility (1/GPa) = 0.02502767
#
# Stress axis : x y z
#
# Youngs Moduli (GPa) = 34.47977 66.20017 68.13115
#
# Poissons Ratio (x) = 0.42342 0.46338
# Poissons Ratio (y) = 0.22053 0.25084
# Poissons Ratio (z) = 0.23451 0.24373
#
# Static dielectric constant tensor:
#      x y z
#    x 2.899730 0.000000 0.000000 
#    y 0.000000 3.326560 0.000000 
#    z 0.000000 0.000000 3.210850 
# 
# 
# High freq. dielectric constant tensor:
#      x y z
#    x 1.607340 0.000000 0.000000 
#    y 0.000000 1.638550 0.000000 
#    z 0.000000 0.000000 1.652090 
# 
# From -- ./inp_files/8498.got.cif
#   From: 2010.06.25/outbox.cif.g09.slc.cpg/sg58_5_cif.got.tgz:8498.got - 2010.06.26 21:38:00.
