data_PCOD8236332
_publ_section_title
;
Structure prediction by ZEFSAII (Michael W. Deem and Ramdas Pophale) SiO2 
 PCOD8236332
Probable space group: P N N M
;
_chemical_formula_sum "Si O2"
_cell_formula_units_Z 56
_cell_length_a 14.500697
_cell_length_b 22.006894
_cell_length_c 9.165630
_cell_angle_alpha 90.000000
_cell_angle_beta 90.000000
_cell_angle_gamma 90.000000
_cell_volume 2924.892784
_symmetry_space_group_name_H-M "P N N M"
_symmetry_group_IT_number 58
_symmetry_cell_setting 'orthorhombic'
loop_
_space_group_symop_operation_xyz
x,y,z
-x,-y,z
1/2+x,1/2-y,1/2-z
1/2-x,1/2+y,1/2-z
-x,-y,-z
x,y,-z
1/2-x,1/2+y,1/2+z
1/2+x,1/2-y,1/2+z
loop_
_atom_site_type_symbol
_atom_site_label
_atom_site_fract_x
_atom_site_fract_y
_atom_site_fract_z
Si Si1 0.397705 0.663715 0.328245
Si Si2 0.916026 0.421935 0.327271
Si Si3 0.102207 0.024358 0.166192
Si Si4 0.879657 0.557080 0.327688
Si Si5 0.919917 0.192449 0.327561
Si Si6 0.701801 0.578689 0.827911
Si Si7 0.305213 0.192347 0.173201
O O1 0.415124 0.669641 0.500000
O O2 0.394268 0.593491 0.280809
O O3 0.480244 0.697635 0.246039
O O4 0.301683 0.694561 0.278433
O O5 0.910766 0.421187 0.500000
O O6 0.877109 0.486804 0.274610
O O7 0.855194 0.367383 0.259865
O O8 0.022707 0.413670 0.280859
O O9 0.168705 0.986267 0.269775
O O10 0.138129 0.018378 0.000000
O O11 0.000000 0.000000 0.182310
O O12 0.863346 0.562507 0.500000
O O13 0.800557 0.594033 0.243185
O O14 0.933478 0.195861 0.500000
O O15 0.870597 0.130183 0.279459
O O16 0.857029 0.247791 0.269620
O O17 0.712946 0.576671 0.000000
O O18 0.310256 0.188697 0.000000
#
# Coordination Sequence:
#
# PCOD8236332 Si02
#       7
#     8   8   8   8   8   8   8
#     4  10  20  36  59  82 103 133 176 224 267 309
#     4   8  15  31  55  80 102 129 171 221 267 304
#     4  10  19  33  56  82 104 130 172 227 274 310
#     4   9  17  31  55  82 104 129 169 221 265 307
#     4  10  22  37  51  72 107 144 175 207 251 313
#     4  11  22  33  48  75 111 146 172 205 261 321
#     4   9  18  34  55  76 102 139 178 213 257 312
#
# _framework density 19.146000999999998
#
# number of rings (size 3 to 8) (size 9 to 14) (size 15 to 20)
#    0.000    2.429    1.429    2.143    0.000    4.857 
#    0.000    2.143    0.000    1.714    0.000    0.000 
#    0.000    0.000    0.000    0.000    0.000    0.000 
#
# Total GULP energy -694396.061131 kJ/mol
# GULP energy per Si atom -12399.929663 kJ/mol
# Density = 1.910242 g / cm^3
# Si number density = 19.146001 Si / 1000 Ang^3
#
#
#
# Elastic Constant Matrix: (Units=GPa)
#
#
# Indices 1 2 3 4 5 6 
#
# 1 162.2740 66.6605 39.6552 0.0000 0.0000 0.0000
# 2 66.6605 89.8266 23.3675 0.0000 0.0000 0.0000
# 3 39.6552 23.3675 35.9210 0.0000 0.0000 0.0000
# 4 0.0000 0.0000 0.0000 10.5734 0.0000 0.0000
# 5 0.0000 0.0000 0.0000 0.0000 27.7735 0.0000
# 6 0.0000 0.0000 0.0000 0.0000 0.0000 32.1155
#
#
#
# Elastic Compliance Matrix: (Units=1/GPa)
#
#
# Indices 1 2 3 4 5 6 
#
# 1 0.010404 -0.005697 -0.007779 0.000000 0.000000 0.000000
# 2 -0.005697 0.016520 -0.004457 0.000000 0.000000 0.000000
# 3 -0.007779 -0.004457 0.039326 0.000000 0.000000 0.000000
# 4 0.000000 0.000000 0.000000 0.094577 0.000000 0.000000
# 5 0.000000 0.000000 0.000000 0.000000 0.036006 0.000000
# 6 0.000000 0.000000 0.000000 0.000000 0.000000 0.031138
#
#
# Mechanical properties :
#
#
# Convention : Reuss Voigt Hill
#
# Bulk Modulus (GPa) = 32.91331 60.82089 46.86710
# Shear Modulus (GPa) = 18.25052 24.64836 21.44944
#
# Velocity S-wave (km/s) = 3.09079 3.59191 3.35073
# Velocity P-wave (km/s) = 5.47406 7.00274 6.28505
#
# Compressibility (1/GPa) = 0.03038285
#
# Stress axis : x y z
#
# Youngs Moduli (GPa) = 96.11996 60.53343 25.42820
#
# Poissons Ratio (x) = 0.34485 0.19781
# Poissons Ratio (y) = 0.54759 0.11334
# Poissons Ratio (z) = 0.74774 0.26982
#
# Static dielectric constant tensor:
#      x y z
#    x 3.721700 0.000000 0.000000 
#    y 0.000000 3.630170 0.000000 
#    z 0.000000 0.000000 3.065920 
# 
# 
# High freq. dielectric constant tensor:
#      x y z
#    x 1.763720 0.000000 0.000000 
#    y 0.000000 1.738410 0.000000 
#    z 0.000000 0.000000 1.701160 
# 
# From -- ./inp_files/6389.got.cif
#   From: 2010.06.25/outbox.cif.g09.slc.cpg/sg58_4_cif.got.tgz:6389.got - 2010.06.26 21:38:00.
