data_PCOD8236492
_publ_section_title
;
Structure prediction by ZEFSAII (Michael W. Deem and Ramdas Pophale) SiO2 
 PCOD8236492
Probable space group: P N N M
;
_chemical_formula_sum "Si O2"
_cell_formula_units_Z 64
_cell_length_a 14.833723
_cell_length_b 24.525492
_cell_length_c 8.967082
_cell_angle_alpha 90.000000
_cell_angle_beta 90.000000
_cell_angle_gamma 90.000000
_cell_volume 3262.263481
_symmetry_space_group_name_H-M "P N N M"
_symmetry_group_IT_number 58
_symmetry_cell_setting 'orthorhombic'
loop_
_space_group_symop_operation_xyz
x,y,z
-x,-y,z
1/2+x,1/2-y,1/2-z
1/2-x,1/2+y,1/2-z
-x,-y,-z
x,y,-z
1/2-x,1/2+y,1/2+z
1/2+x,1/2-y,1/2+z
loop_
_atom_site_type_symbol
_atom_site_label
_atom_site_fract_x
_atom_site_fract_y
_atom_site_fract_z
Si Si1 0.753987 0.936369 0.676871
Si Si2 0.095122 0.982889 0.672207
Si Si3 0.505850 0.171109 0.677698
Si Si4 0.449380 0.052975 0.676979
Si Si5 0.675934 0.236733 0.331893
Si Si6 0.374403 0.641575 0.331469
Si Si7 0.134841 0.760601 0.823857
Si Si8 0.553724 0.635704 0.828399
O O1 0.757552 0.927268 0.500000
O O2 0.653835 0.951643 0.728041
O O3 0.781738 0.880359 0.758947
O O4 0.820204 0.983925 0.738234
O O5 0.088622 0.999304 0.500000
O O6 0.114407 0.918497 0.691342
O O7 0.000000 0.000000 0.749196
O O8 0.502685 0.172809 0.500000
O O9 0.491703 0.109660 0.738830
O O10 0.604351 0.192319 0.731108
O O11 0.425402 0.210300 0.738784
O O12 0.458334 0.053053 0.500000
O O13 0.500000 0.000000 0.744180
O O14 0.706610 0.221402 0.500000
O O15 0.622925 0.293398 0.331046
O O16 0.762928 0.242154 0.230144
O O17 0.385390 0.619721 0.500000
O O18 0.454260 0.619521 0.227021
O O19 0.093568 0.817397 0.772730
O O20 0.135079 0.759394 0.000000
O O21 0.550172 0.654520 0.000000
#
# Coordination Sequence:
#
# PCOD8236492 Si02
#       8
#     8   8   8   8   8   8   8   8
#     4  10  19  34  57  83 110 147 195 242 286 342
#     4   9  17  31  51  79 113 145 185 232 277 337
#     4   9  18  35  55  77 113 148 179 230 290 335
#     4   9  18  32  55  85 108 137 189 244 285 329
#     4  10  21  37  56  79 111 153 191 226 282 347
#     4  11  21  35  55  82 116 151 190 237 288 341
#     4  11  22  38  57  84 118 150 187 237 289 340
#     4  11  21  35  57  82 113 153 190 230 286 344
#
# _framework density 19.618279000000001
#
# number of rings (size 3 to 8) (size 9 to 14) (size 15 to 20)
#    0.000    2.000    2.500    1.875    0.000    3.000 
#    0.000    5.625    0.000    1.125    0.000    0.000 
#    0.000    0.000    0.000    0.000    0.000    0.000 
#
# Total GULP energy -793485.297049 kJ/mol
# GULP energy per Si atom -12398.207766 kJ/mol
# Density = 1.957363 g / cm^3
# Si number density = 19.618279 Si / 1000 Ang^3
#
#
#
# Elastic Constant Matrix: (Units=GPa)
#
#
# Indices 1 2 3 4 5 6 
#
# 1 115.7767 60.6683 26.4955 0.0000 0.0000 0.0000
# 2 60.6683 128.0660 20.3540 0.0000 0.0000 0.0000
# 3 26.4955 20.3540 45.9376 0.0000 0.0000 0.0000
# 4 0.0000 0.0000 0.0000 23.9613 0.0000 0.0000
# 5 0.0000 0.0000 0.0000 0.0000 25.3926 0.0000
# 6 0.0000 0.0000 0.0000 0.0000 0.0000 35.3609
#
#
#
# Elastic Compliance Matrix: (Units=1/GPa)
#
#
# Indices 1 2 3 4 5 6 
#
# 1 0.012440 -0.005113 -0.004910 0.000000 0.000000 0.000000
# 2 -0.005113 0.010501 -0.001704 0.000000 0.000000 0.000000
# 3 -0.004910 -0.001704 0.025355 0.000000 0.000000 0.000000
# 4 0.000000 0.000000 0.000000 0.041734 0.000000 0.000000
# 5 0.000000 0.000000 0.000000 0.000000 0.039382 0.000000
# 6 0.000000 0.000000 0.000000 0.000000 0.000000 0.028280
#
#
# Mechanical properties :
#
#
# Convention : Reuss Voigt Hill
#
# Bulk Modulus (GPa) = 40.25145 56.09066 48.17105
# Shear Modulus (GPa) = 26.39543 29.09379 27.74461
#
# Velocity S-wave (km/s) = 3.67202 3.85514 3.76469
# Velocity P-wave (km/s) = 6.20807 6.96199 6.59581
#
# Compressibility (1/GPa) = 0.02484382
#
# Stress axis : x y z
#
# Youngs Moduli (GPa) = 80.38510 95.22531 39.43927
#
# Poissons Ratio (x) = 0.48688 0.19363
# Poissons Ratio (y) = 0.41100 0.06720
# Poissons Ratio (z) = 0.39467 0.16226
#
# Static dielectric constant tensor:
#      x y z
#    x 3.723970 0.000000 0.000000 
#    y 0.000000 3.750540 0.000000 
#    z 0.000000 0.000000 3.203230 
# 
# 
# High freq. dielectric constant tensor:
#      x y z
#    x 1.767710 0.000000 0.000000 
#    y 0.000000 1.773670 0.000000 
#    z 0.000000 0.000000 1.720890 
# 
# From -- ./inp_files/6880.got.cif
#   From: 2010.06.25/outbox.cif.g09.slc.cpg/sg58_4_cif.got.tgz:6880.got - 2010.06.26 21:38:00.
