data_PCOD8236502
_publ_section_title
;
Structure prediction by ZEFSAII (Michael W. Deem and Ramdas Pophale) SiO2 
 PCOD8236502
Probable space group: P N N M
;
_chemical_formula_sum "Si O2"
_cell_formula_units_Z 64
_cell_length_a 29.042736
_cell_length_b 12.043433
_cell_length_c 9.128752
_cell_angle_alpha 90.000000
_cell_angle_beta 90.000000
_cell_angle_gamma 90.000000
_cell_volume 3193.002340
_symmetry_space_group_name_H-M "P N N M"
_symmetry_group_IT_number 58
_symmetry_cell_setting 'orthorhombic'
loop_
_space_group_symop_operation_xyz
x,y,z
-x,-y,z
1/2+x,1/2-y,1/2-z
1/2-x,1/2+y,1/2-z
-x,-y,-z
x,y,-z
1/2-x,1/2+y,1/2+z
1/2+x,1/2-y,1/2+z
loop_
_atom_site_type_symbol
_atom_site_label
_atom_site_fract_x
_atom_site_fract_y
_atom_site_fract_z
Si Si1 0.619503 0.832534 0.167175
Si Si2 0.812217 0.519635 0.332003
Si Si3 0.659169 0.262955 0.172405
Si Si4 0.723116 0.466846 0.826947
Si Si5 0.437257 0.452480 0.337190
Si Si6 0.523473 0.745918 0.830248
Si Si7 0.563219 0.293911 0.332242
Si Si8 0.161153 0.868134 0.166598
O O1 0.565026 0.831531 0.207540
O O2 0.648316 0.751848 0.271218
O O3 0.638959 0.956476 0.187749
O O4 0.625253 0.790550 0.000000
O O5 0.795724 0.514536 0.500000
O O6 0.818622 0.646051 0.280445
O O7 0.774749 0.456400 0.233481
O O8 0.694253 0.358976 0.222913
O O9 0.610799 0.275570 0.251292
O O10 0.649755 0.267917 0.000000
O O11 0.702070 0.578969 0.759909
O O12 0.724121 0.477872 0.000000
O O13 0.451570 0.409056 0.500000
O O14 0.459542 0.377139 0.212640
O O15 0.453456 0.578568 0.316351
O O16 0.382083 0.450960 0.323030
O O17 0.477572 0.779272 0.740589
O O18 0.510479 0.747091 0.000000
O O19 0.569387 0.258406 0.500000
O O20 0.178147 0.852854 0.000000
#
# Coordination Sequence:
#
# PCOD8236502 Si02
#       8
#     8   8   8   8   8   8   8   8
#     4   9  20  39  60  85 118 156 199 245 293 348
#     4  10  23  43  64  85 115 156 198 244 295 351
#     4  10  23  42  62  86 118 153 197 246 292 350
#     4  11  23  38  59  89 119 148 189 241 296 354
#     4   9  18  32  50  78 115 152 189 233 287 346
#     4  10  20  33  54  84 117 155 198 242 294 351
#     4  11  21  35  56  83 117 156 198 243 297 353
#     4  10  19  34  57  84 116 154 191 233 288 346
#
# _framework density 20.043832999999999
#
# number of rings (size 3 to 8) (size 9 to 14) (size 15 to 20)
#    0.000    2.000    1.250    1.875    1.750    5.000 
#    0.000    0.625    0.000    3.750    0.000    0.000 
#    0.000    0.000    0.000    0.000    0.000    0.000 
#
# Total GULP energy -793708.843227 kJ/mol
# GULP energy per Si atom -12401.700675 kJ/mol
# Density = 1.999821 g / cm^3
# Si number density = 20.043833 Si / 1000 Ang^3
#
#
#
# Elastic Constant Matrix: (Units=GPa)
#
#
# Indices 1 2 3 4 5 6 
#
# 1 117.8744 35.4172 52.5413 0.0000 0.0000 0.0000
# 2 35.4172 71.3094 35.6998 0.0000 0.0000 0.0000
# 3 52.5413 35.6998 80.6576 0.0000 0.0000 0.0000
# 4 0.0000 0.0000 0.0000 20.5065 0.0000 0.0000
# 5 0.0000 0.0000 0.0000 0.0000 35.5730 0.0000
# 6 0.0000 0.0000 0.0000 0.0000 0.0000 15.8225
#
#
#
# Elastic Compliance Matrix: (Units=1/GPa)
#
#
# Indices 1 2 3 4 5 6 
#
# 1 0.012348 -0.002705 -0.006846 0.000000 0.000000 0.000000
# 2 -0.002705 0.018608 -0.006474 0.000000 0.000000 0.000000
# 3 -0.006846 -0.006474 0.019723 0.000000 0.000000 0.000000
# 4 0.000000 0.000000 0.000000 0.048765 0.000000 0.000000
# 5 0.000000 0.000000 0.000000 0.000000 0.028111 0.000000
# 6 0.000000 0.000000 0.000000 0.000000 0.000000 0.063201
#
#
# Mechanical properties :
#
#
# Convention : Reuss Voigt Hill
#
# Bulk Modulus (GPa) = 53.68134 57.46200 55.57167
# Shear Modulus (GPa) = 21.83242 24.12595 22.97918
#
# Velocity S-wave (km/s) = 3.30393 3.47314 3.38960
# Velocity P-wave (km/s) = 6.43388 6.69433 6.56539
#
# Compressibility (1/GPa) = 0.01862845
#
# Stress axis : x y z
#
# Youngs Moduli (GPa) = 80.98375 53.74010 50.70184
#
# Poissons Ratio (x) = 0.14539 0.34712
# Poissons Ratio (y) = 0.21910 0.32823
# Poissons Ratio (z) = 0.55444 0.34790
#
# Static dielectric constant tensor:
#      x y z
#    x 3.738360 0.000000 0.000000 
#    y 0.000000 3.409360 0.000000 
#    z 0.000000 0.000000 3.650000 
# 
# 
# High freq. dielectric constant tensor:
#      x y z
#    x 1.793680 0.000000 0.000000 
#    y 0.000000 1.754830 0.000000 
#    z 0.000000 0.000000 1.784090 
# 
# From -- ./inp_files/4661.got.cif
#   From: 2010.06.25/outbox.cif.g09.slc.cpg/sg58_3_cif.got.tgz:4661.got - 2010.06.26 21:38:00.
