data_PCOD8236106
_publ_section_title
;
Structure prediction by ZEFSAII (Michael W. Deem and Ramdas Pophale) SiO2 
 PCOD8236106
Probable space group: P N N M
;
_chemical_formula_sum "Si O2"
_cell_formula_units_Z 48
_cell_length_a 10.183969
_cell_length_b 28.389462
_cell_length_c 9.651254
_cell_angle_alpha 90.000000
_cell_angle_beta 90.000000
_cell_angle_gamma 90.000000
_cell_volume 2790.345472
_symmetry_space_group_name_H-M "P N N M"
_symmetry_group_IT_number 58
_symmetry_cell_setting 'orthorhombic'
loop_
_space_group_symop_operation_xyz
x,y,z
-x,-y,z
1/2+x,1/2-y,1/2-z
1/2-x,1/2+y,1/2-z
-x,-y,-z
x,y,-z
1/2-x,1/2+y,1/2+z
1/2+x,1/2-y,1/2+z
loop_
_atom_site_type_symbol
_atom_site_label
_atom_site_fract_x
_atom_site_fract_y
_atom_site_fract_z
Si Si1 0.220147 0.609481 0.840917
Si Si2 0.789167 0.282101 0.839247
Si Si3 0.120479 0.967148 0.161471
Si Si4 0.369797 0.027694 0.160960
Si Si5 0.487823 0.278746 0.839121
Si Si6 0.477915 0.387086 0.840793
O O1 0.180679 0.663204 0.811882
O O2 0.131676 0.576273 0.745262
O O3 0.371944 0.601562 0.803074
O O4 0.193835 0.596373 0.000000
O O5 0.639403 0.270109 0.795422
O O6 0.891930 0.253123 0.750003
O O7 0.809632 0.269742 0.000000
O O8 0.116154 0.918332 0.244990
O O9 0.251264 0.994080 0.205269
O O10 0.117492 0.954442 0.000000
O O11 0.000000 0.000000 0.204912
O O12 0.500000 0.000000 0.199964
O O13 0.362578 0.041104 0.000000
O O14 0.447859 0.332616 0.811216
O O15 0.469395 0.266204 0.000000
O O16 0.449213 0.399467 0.000000
#
# Coordination Sequence:
#
# PCOD8236106 Si02
#       6
#     8   8   8   8   8   8
#     4   9  18  34  55  76 101 134 172 210 251 303
#     4   9  19  36  56  79 106 136 173 217 261 309
#     4  10  19  32  52  77 101 129 170 211 245 296
#     4  10  21  36  51  72 105 138 168 207 255 304
#     4   9  19  36  55  78 107 137 173 215 260 312
#     4   9  18  33  54  78 102 131 169 213 256 299
#
# _framework density 17.202172000000001
#
# number of rings (size 3 to 8) (size 9 to 14) (size 15 to 20)
#    0.000    2.667    1.667    2.000    0.000    3.333 
#    3.000    3.333    0.000    0.000    0.000    0.000 
#    0.000    0.000    0.000    0.000    0.000    0.000 
#
# Total GULP energy -595239.754809 kJ/mol
# GULP energy per Si atom -12400.828225 kJ/mol
# Density = 1.716302 g / cm^3
# Si number density = 17.202172 Si / 1000 Ang^3
#
#
#
# Elastic Constant Matrix: (Units=GPa)
#
#
# Indices 1 2 3 4 5 6 
#
# 1 108.4856 64.2249 52.5888 0.0000 0.0000 0.0000
# 2 64.2249 108.0259 68.1257 0.0000 0.0000 0.0000
# 3 52.5888 68.1257 73.8470 0.0000 0.0000 0.0000
# 4 0.0000 0.0000 0.0000 41.3197 0.0000 0.0000
# 5 0.0000 0.0000 0.0000 0.0000 16.3042 0.0000
# 6 0.0000 0.0000 0.0000 0.0000 0.0000 25.4801
#
#
#
# Elastic Compliance Matrix: (Units=1/GPa)
#
#
# Indices 1 2 3 4 5 6 
#
# 1 0.015250 -0.005303 -0.005968 0.000000 0.000000 0.000000
# 2 -0.005303 0.023979 -0.018344 0.000000 0.000000 0.000000
# 3 -0.005968 -0.018344 0.034715 0.000000 0.000000 0.000000
# 4 0.000000 0.000000 0.000000 0.024202 0.000000 0.000000
# 5 0.000000 0.000000 0.000000 0.000000 0.061334 0.000000
# 6 0.000000 0.000000 0.000000 0.000000 0.000000 0.039246
#
#
# Mechanical properties :
#
#
# Convention : Reuss Voigt Hill
#
# Bulk Modulus (GPa) = 67.96871 73.35969 70.66420
# Shear Modulus (GPa) = 19.02151 23.64874 21.33512
#
# Velocity S-wave (km/s) = 3.32891 3.71179 3.52555
# Velocity P-wave (km/s) = 7.37380 7.81716 7.59872
#
# Compressibility (1/GPa) = 0.01471265
#
# Stress axis : x y z
#
# Youngs Moduli (GPa) = 65.57225 41.70373 28.80640
#
# Poissons Ratio (x) = 0.22116 0.17191
# Poissons Ratio (y) = 0.34774 0.52843
# Poissons Ratio (z) = 0.39133 0.76503
#
# Static dielectric constant tensor:
#      x y z
#    x 3.136940 0.000000 0.000000 
#    y 0.000000 3.141960 0.000000 
#    z 0.000000 0.000000 3.102280 
# 
# 
# High freq. dielectric constant tensor:
#      x y z
#    x 1.654270 0.000000 0.000000 
#    y 0.000000 1.666590 0.000000 
#    z 0.000000 0.000000 1.662510 
# 
# From -- ./inp_files/2889.got.cif
#   From: 2010.06.25/outbox.cif.g09.slc.cpg/sg58_2_cif.got.tgz:2889.got - 2010.06.26 21:38:00.
