data_PCOD8236173
_publ_section_title
;
Structure prediction by ZEFSAII (Michael W. Deem and Ramdas Pophale) SiO2 
 PCOD8236173
Probable space group: P N N M
;
_chemical_formula_sum "Si O2"
_cell_formula_units_Z 64
_cell_length_a 12.615304
_cell_length_b 25.616739
_cell_length_c 9.368355
_cell_angle_alpha 90.000000
_cell_angle_beta 90.000000
_cell_angle_gamma 90.000000
_cell_volume 3027.505238
_symmetry_space_group_name_H-M "P N N M"
_symmetry_group_IT_number 58
_symmetry_cell_setting 'orthorhombic'
loop_
_space_group_symop_operation_xyz
x,y,z
-x,-y,z
1/2+x,1/2-y,1/2-z
1/2-x,1/2+y,1/2-z
-x,-y,-z
x,y,-z
1/2-x,1/2+y,1/2+z
1/2+x,1/2-y,1/2+z
loop_
_atom_site_type_symbol
_atom_site_label
_atom_site_fract_x
_atom_site_fract_y
_atom_site_fract_z
Si Si1 0.977797 0.939914 0.666095
Si Si2 0.265106 0.085759 0.336806
Si Si3 0.626112 0.099377 0.338811
Si Si4 0.071160 0.667649 0.838758
Si Si5 0.035055 0.844452 0.162518
Si Si6 0.454348 0.745423 0.836674
Si Si7 0.731063 0.181325 0.843276
Si Si8 0.125173 0.499051 0.340829
O O1 0.007303 0.933086 0.500000
O O2 0.858436 0.920950 0.698179
O O3 0.049624 0.901088 0.761932
O O4 0.000000 0.000000 0.712665
O O5 0.287099 0.068713 0.500000
O O6 0.309363 0.145208 0.312897
O O7 0.330368 0.050361 0.230339
O O8 0.653553 0.084851 0.500000
O O9 0.504167 0.116636 0.320410
O O10 0.699409 0.146426 0.289524
O O11 0.662760 0.050841 0.245860
O O12 0.036921 0.712215 0.727983
O O13 0.059577 0.690221 0.000000
O O14 0.143418 0.810854 0.165333
O O15 0.953277 0.808898 0.250935
O O16 0.995838 0.852739 0.000000
O O17 0.332411 0.764417 0.827814
O O18 0.489020 0.735442 0.000000
O O19 0.701646 0.156906 0.000000
O O20 0.171335 0.495196 0.500000
O O21 0.000000 0.500000 0.341473
#
# Coordination Sequence:
#
# PCOD8236173 Si02
#       8
#     8   8   8   8   8   8   8   8
#     4  10  24  45  65  88 119 157 208 261 306 360
#     4  10  21  38  59  84 119 164 205 251 309 362
#     4  10  19  32  54  82 116 155 198 248 296 356
#     4   9  18  34  56  85 120 155 194 240 299 363
#     4  11  24  43  66  91 123 160 203 251 304 366
#     4  10  21  39  64  92 125 159 199 248 301 362
#     4   9  21  40  61  88 121 160 199 244 304 362
#     4  11  22  33  51  83 123 161 200 249 302 361
#
# _framework density 21.139519
#
# number of rings (size 3 to 8) (size 9 to 14) (size 15 to 20)
#    0.000    2.000    1.250    1.500    1.750    4.750 
#    0.000    5.000    0.000    0.000    0.000    0.000 
#    0.000    0.000    0.000    0.000    0.000    0.000 
#
# Total GULP energy -793381.150227 kJ/mol
# GULP energy per Si atom -12396.580472 kJ/mol
# Density = 2.109140 g / cm^3
# Si number density = 21.139519 Si / 1000 Ang^3
#
#
#
# Elastic Constant Matrix: (Units=GPa)
#
#
# Indices 1 2 3 4 5 6 
#
# 1 66.8724 22.9050 31.8999 0.0000 0.0000 0.0000
# 2 22.9050 108.6273 63.7942 0.0000 0.0000 0.0000
# 3 31.8999 63.7942 136.8270 0.0000 0.0000 0.0000
# 4 0.0000 0.0000 0.0000 21.8725 0.0000 0.0000
# 5 0.0000 0.0000 0.0000 0.0000 16.2961 0.0000
# 6 0.0000 0.0000 0.0000 0.0000 0.0000 22.4775
#
#
#
# Elastic Compliance Matrix: (Units=1/GPa)
#
#
# Indices 1 2 3 4 5 6 
#
# 1 0.017060 -0.001737 -0.003167 0.000000 0.000000 0.000000
# 2 -0.001737 0.012854 -0.005588 0.000000 0.000000 0.000000
# 3 -0.003167 -0.005588 0.010652 0.000000 0.000000 0.000000
# 4 0.000000 0.000000 0.000000 0.045719 0.000000 0.000000
# 5 0.000000 0.000000 0.000000 0.000000 0.061364 0.000000
# 6 0.000000 0.000000 0.000000 0.000000 0.000000 0.044489
#
#
# Mechanical properties :
#
#
# Convention : Reuss Voigt Hill
#
# Bulk Modulus (GPa) = 51.07014 61.05834 56.06424
# Shear Modulus (GPa) = 22.76344 25.04439 23.90392
#
# Velocity S-wave (km/s) = 3.28505 3.44571 3.36634
# Velocity P-wave (km/s) = 6.21288 6.69154 6.45665
#
# Compressibility (1/GPa) = 0.01958091
#
# Stress axis : x y z
#
# Youngs Moduli (GPa) = 58.61745 77.79846 93.87657
#
# Poissons Ratio (x) = 0.13514 0.29735
# Poissons Ratio (y) = 0.10182 0.52458
# Poissons Ratio (z) = 0.18567 0.43473
#
# Static dielectric constant tensor:
#      x y z
#    x 3.894630 0.000000 0.000000 
#    y 0.000000 3.958430 0.000000 
#    z 0.000000 0.000000 3.946380 
# 
# 
# High freq. dielectric constant tensor:
#      x y z
#    x 1.815690 0.000000 0.000000 
#    y 0.000000 1.822370 0.000000 
#    z 0.000000 0.000000 1.834570 
# 
# From -- ./inp_files/6931.got.cif
#   From: 2010.06.25/outbox.cif.g09.slc.cpg/sg58_4_cif.got.tgz:6931.got - 2010.06.26 21:38:00.
