data_PCOD8236153
_publ_section_title
;
Structure prediction by ZEFSAII (Michael W. Deem and Ramdas Pophale) SiO2 
 PCOD8236153
Probable space group: P N N M
;
_chemical_formula_sum "Si O2"
_cell_formula_units_Z 64
_cell_length_a 10.923286
_cell_length_b 35.011713
_cell_length_c 8.906134
_cell_angle_alpha 90.000000
_cell_angle_beta 90.000000
_cell_angle_gamma 90.000000
_cell_volume 3406.088200
_symmetry_space_group_name_H-M "P N N M"
_symmetry_group_IT_number 58
_symmetry_cell_setting 'orthorhombic'
loop_
_space_group_symop_operation_xyz
x,y,z
-x,-y,z
1/2+x,1/2-y,1/2-z
1/2-x,1/2+y,1/2-z
-x,-y,-z
x,y,-z
1/2-x,1/2+y,1/2+z
1/2+x,1/2-y,1/2+z
loop_
_atom_site_type_symbol
_atom_site_label
_atom_site_fract_x
_atom_site_fract_y
_atom_site_fract_z
Si Si1 0.755240 0.078454 0.669376
Si Si2 0.374084 0.639781 0.329850
Si Si3 0.349393 0.351339 0.670928
Si Si4 0.263286 0.067435 0.822174
Si Si5 0.140682 0.991259 0.167080
Si Si6 0.136709 0.224748 0.178993
Si Si7 0.491347 0.042857 0.330156
Si Si8 0.879302 0.228475 0.322291
O O1 0.795989 0.087696 0.500000
O O2 0.757015 0.117236 0.765186
O O3 0.844404 0.046102 0.732602
O O4 0.619611 0.063134 0.677932
O O5 0.327738 0.642407 0.500000
O O6 0.516893 0.629759 0.320905
O O7 0.301629 0.604989 0.250123
O O8 0.348783 0.681430 0.257524
O O9 0.314326 0.340770 0.500000
O O10 0.343555 0.313814 0.771731
O O11 0.403934 0.068397 0.773554
O O12 0.206273 0.028050 0.757937
O O13 0.245957 0.068036 0.000000
O O14 0.194260 0.983264 0.000000
O O15 0.000000 0.000000 0.154983
O O16 0.261487 0.246128 0.227943
O O17 0.009352 0.242031 0.248590
O O18 0.117682 0.225487 0.000000
O O19 0.440207 0.041305 0.500000
O O20 0.500000 0.000000 0.264369
O O21 0.896156 0.230332 0.500000
#
# Coordination Sequence:
#
# PCOD8236153 Si02
#       8
#     8   8   8   8   8   8   8   8
#     4  11  22  36  54  75 104 141 183 226 273 330
#     4   8  16  34  57  80 107 139 174 220 274 321
#     4  10  20  37  60  82 111 145 180 226 284 337
#     4  10  19  32  54  78 101 133 181 225 261 320
#     4  10  20  33  51  77 106 136 174 222 272 320
#     4   9  19  37  60  85 119 157 190 232 285 339
#     4  10  21  38  53  68 103 147 179 219 277 324
#     4  10  20  36  60  89 121 154 194 238 282 340
#
# _framework density 18.789885000000002
#
# number of rings (size 3 to 8) (size 9 to 14) (size 15 to 20)
#    0.000    2.250    1.250    2.625    0.000    4.500 
#    2.250    4.375    0.000    0.000    0.000    0.000 
#    0.000    0.000    0.000    0.000    0.000    0.000 
#
# Total GULP energy -793371.522601 kJ/mol
# GULP energy per Si atom -12396.430041 kJ/mol
# Density = 1.874712 g / cm^3
# Si number density = 18.789885 Si / 1000 Ang^3
#
#
#
# Elastic Constant Matrix: (Units=GPa)
#
#
# Indices 1 2 3 4 5 6 
#
# 1 87.9494 45.2226 31.0987 0.0000 0.0000 0.0000
# 2 45.2226 91.5168 24.1844 0.0000 0.0000 0.0000
# 3 31.0987 24.1844 46.4772 0.0000 0.0000 0.0000
# 4 0.0000 0.0000 0.0000 24.0530 0.0000 0.0000
# 5 0.0000 0.0000 0.0000 0.0000 25.3974 0.0000
# 6 0.0000 0.0000 0.0000 0.0000 0.0000 35.7777
#
#
#
# Elastic Compliance Matrix: (Units=1/GPa)
#
#
# Indices 1 2 3 4 5 6 
#
# 1 0.017713 -0.006517 -0.008461 0.000000 0.000000 0.000000
# 2 -0.006517 0.015067 -0.003479 0.000000 0.000000 0.000000
# 3 -0.008461 -0.003479 0.028988 0.000000 0.000000 0.000000
# 4 0.000000 0.000000 0.000000 0.041575 0.000000 0.000000
# 5 0.000000 0.000000 0.000000 0.000000 0.039374 0.000000
# 6 0.000000 0.000000 0.000000 0.000000 0.000000 0.027950
#
#
# Mechanical properties :
#
#
# Convention : Reuss Voigt Hill
#
# Bulk Modulus (GPa) = 40.23665 47.43943 43.83804
# Shear Modulus (GPa) = 23.16259 25.40814 24.28537
#
# Velocity S-wave (km/s) = 3.51481 3.68125 3.59899
# Velocity P-wave (km/s) = 6.15893 6.58566 6.37587
#
# Compressibility (1/GPa) = 0.02485296
#
# Stress axis : x y z
#
# Youngs Moduli (GPa) = 56.45632 66.37158 34.49721
#
# Poissons Ratio (x) = 0.43253 0.29188
# Poissons Ratio (y) = 0.36791 0.12003
# Poissons Ratio (z) = 0.47767 0.23094
#
# Static dielectric constant tensor:
#      x y z
#    x 3.422740 0.000000 0.000000 
#    y 0.000000 3.505800 0.000000 
#    z 0.000000 0.000000 3.444090 
# 
# 
# High freq. dielectric constant tensor:
#      x y z
#    x 1.727470 0.000000 0.000000 
#    y 0.000000 1.730480 0.000000 
#    z 0.000000 0.000000 1.714280 
# 
# From -- ./inp_files/4701.got.cif
#   From: 2010.06.25/outbox.cif.g09.slc.cpg/sg58_3_cif.got.tgz:4701.got - 2010.06.26 21:38:00.
