data_PCOD8236820
_publ_section_title
;
Structure prediction by ZEFSAII (Michael W. Deem and Ramdas Pophale) SiO2 
 PCOD8236820
Probable space group: P N N M
;
_chemical_formula_sum "Si O2"
_cell_formula_units_Z 40
_cell_length_a 7.092802
_cell_length_b 18.797651
_cell_length_c 14.079942
_cell_angle_alpha 90.000000
_cell_angle_beta 90.000000
_cell_angle_gamma 90.000000
_cell_volume 1877.250741
_symmetry_space_group_name_H-M "P N N M"
_symmetry_group_IT_number 58
_symmetry_cell_setting 'orthorhombic'
loop_
_space_group_symop_operation_xyz
x,y,z
-x,-y,z
1/2+x,1/2-y,1/2-z
1/2-x,1/2+y,1/2-z
-x,-y,-z
x,y,-z
1/2-x,1/2+y,1/2+z
1/2+x,1/2-y,1/2+z
loop_
_atom_site_type_symbol
_atom_site_label
_atom_site_fract_x
_atom_site_fract_y
_atom_site_fract_z
Si Si1 0.284649 0.770674 0.102746
Si Si2 0.347503 0.692903 0.393977
Si Si3 0.698676 0.166148 0.705903
Si Si4 0.830132 0.384968 0.891959
Si Si5 0.060769 0.075894 0.754357
O O1 0.383899 0.812959 0.189004
O O2 0.296133 0.686242 0.116826
O O3 0.065420 0.788418 0.103054
O O4 0.372651 0.792896 0.000000
O O5 0.267119 0.680848 0.500000
O O6 0.239217 0.760281 0.346756
O O7 0.324912 0.620720 0.333591
O O8 0.540087 0.124005 0.648552
O O9 0.880122 0.117096 0.714236
O O10 0.709349 0.441101 0.830604
O O11 0.848379 0.411472 0.000000
O O12 0.000000 0.000000 0.798129
#
# Coordination Sequence:
#
# PCOD8236820 Si02
#       5
#     8   8   8   8   8
#     4   8  15  30  56  87 115 145 189 248 291 338
#     4   9  18  35  61  88 115 156 204 245 293 358
#     4  10  19  37  62  87 119 157 203 246 297 358
#     4  10  21  37  57  82 116 154 198 245 297 356
#     4  11  24  39  59  91 126 156 195 252 311 363
#
# _framework density 21.307756000000001
#
# number of rings (size 3 to 8) (size 9 to 14) (size 15 to 20)
#    0.000    2.400    2.000    1.800    0.000    3.200 
#    0.000    4.000    0.000    0.000    0.000    7.000 
#    0.000    0.000    0.000    0.000    0.000    0.000 
#
# Total GULP energy -495825.336134 kJ/mol
# GULP energy per Si atom -12395.633403 kJ/mol
# Density = 2.125926 g / cm^3
# Si number density = 21.307756 Si / 1000 Ang^3
#
#
#
# Elastic Constant Matrix: (Units=GPa)
#
#
# Indices 1 2 3 4 5 6 
#
# 1 48.3301 26.3874 21.7497 0.0000 0.0000 0.0000
# 2 26.3874 83.4694 32.9212 0.0000 0.0000 0.0000
# 3 21.7497 32.9212 156.0442 0.0000 0.0000 0.0000
# 4 0.0000 0.0000 0.0000 16.5853 0.0000 0.0000
# 5 0.0000 0.0000 0.0000 0.0000 25.8191 0.0000
# 6 0.0000 0.0000 0.0000 0.0000 0.0000 22.9482
#
#
#
# Elastic Compliance Matrix: (Units=1/GPa)
#
#
# Indices 1 2 3 4 5 6 
#
# 1 0.025583 -0.007288 -0.002028 0.000000 0.000000 0.000000
# 2 -0.007288 0.015144 -0.002179 0.000000 0.000000 0.000000
# 3 -0.002028 -0.002179 0.007151 0.000000 0.000000 0.000000
# 4 0.000000 0.000000 0.000000 0.060294 0.000000 0.000000
# 5 0.000000 0.000000 0.000000 0.000000 0.038731 0.000000
# 6 0.000000 0.000000 0.000000 0.000000 0.000000 0.043576
#
#
# Mechanical properties :
#
#
# Convention : Reuss Voigt Hill
#
# Bulk Modulus (GPa) = 40.18111 49.99559 45.08835
# Shear Modulus (GPa) = 22.54640 26.85622 24.70131
#
# Velocity S-wave (km/s) = 3.25642 3.55406 3.40849
# Velocity P-wave (km/s) = 5.74782 6.35266 6.05779
#
# Compressibility (1/GPa) = 0.02488732
#
# Stress axis : x y z
#
# Youngs Moduli (GPa) = 39.08897 66.03381 139.84260
#
# Poissons Ratio (x) = 0.48122 0.28364
# Poissons Ratio (y) = 0.28486 0.30474
# Poissons Ratio (z) = 0.07928 0.14390
#
# Static dielectric constant tensor:
#      x y z
#    x 3.503680 0.000000 0.000000 
#    y 0.000000 3.571460 0.000000 
#    z 0.000000 0.000000 4.432330 
# 
# 
# High freq. dielectric constant tensor:
#      x y z
#    x 1.828420 0.000000 0.000000 
#    y 0.000000 1.794550 0.000000 
#    z 0.000000 0.000000 1.848660 
# 
# From -- ./inp_files/16207.got.cif
#   From: 2010.06.25/outbox.cif.g09.slc.cpg/sg58_9_cif.got.tgz:16207.got - 2010.06.26 21:38:00.
