data_PCOD8236549
_publ_section_title
;
Structure prediction by ZEFSAII (Michael W. Deem and Ramdas Pophale) SiO2 
 PCOD8236549
Probable space group: P N N M
;
_chemical_formula_sum "Si O2"
_cell_formula_units_Z 64
_cell_length_a 28.926382
_cell_length_b 13.040812
_cell_length_c 8.681149
_cell_angle_alpha 90.000000
_cell_angle_beta 90.000000
_cell_angle_gamma 90.000000
_cell_volume 3274.733492
_symmetry_space_group_name_H-M "P N N M"
_symmetry_group_IT_number 58
_symmetry_cell_setting 'orthorhombic'
loop_
_space_group_symop_operation_xyz
x,y,z
-x,-y,z
1/2+x,1/2-y,1/2-z
1/2-x,1/2+y,1/2-z
-x,-y,-z
x,y,-z
1/2-x,1/2+y,1/2+z
1/2+x,1/2-y,1/2+z
loop_
_atom_site_type_symbol
_atom_site_label
_atom_site_fract_x
_atom_site_fract_y
_atom_site_fract_z
Si Si1 0.303013 0.122993 0.317626
Si Si2 0.107446 0.121741 0.816683
Si Si3 0.608292 0.962906 0.818623
Si Si4 0.573822 0.588511 0.329904
Si Si5 0.039262 0.703290 0.817359
Si Si6 0.177853 0.842265 0.170286
Si Si7 0.565003 0.164687 0.681592
Si Si8 0.207982 0.056012 0.816246
O O1 0.310669 0.117380 0.500000
O O2 0.313077 0.235266 0.243620
O O3 0.250537 0.101211 0.275227
O O4 0.338973 0.044653 0.240029
O O5 0.086010 0.227885 0.757398
O O6 0.161304 0.116796 0.768212
O O7 0.078022 0.023695 0.747178
O O8 0.104291 0.111219 0.000000
O O9 0.589635 0.072892 0.768073
O O10 0.577428 0.871356 0.752146
O O11 0.607065 0.955542 0.000000
O O12 0.553013 0.570355 0.500000
O O13 0.543442 0.679184 0.249732
O O14 0.624132 0.636656 0.339700
O O15 0.988975 0.660244 0.776012
O O16 0.047526 0.706810 0.000000
O O17 0.203641 0.939150 0.245837
O O18 0.198680 0.829131 0.000000
O O19 0.573102 0.152872 0.500000
O O20 0.215363 0.061122 0.000000
#
# Coordination Sequence:
#
# PCOD8236549 Si02
#       8
#     8   8   8   8   8   8   8   8
#     4  11  21  36  58  82 106 138 184 234 280 332
#     4   8  16  32  55  83 117 150 182 224 275 331
#     4  12  25  39  55  77 109 149 192 237 283 334
#     4   8  13  27  54  83 109 140 178 224 272 318
#     4  10  19  34  59  86 113 146 187 233 280 329
#     4   8  15  30  53  75 103 140 176 217 269 322
#     4  10  21  36  56  85 118 152 187 228 276 329
#     4   9  18  34  55  81 112 145 178 219 275 336
#
# _framework density 19.543576000000002
#
# number of rings (size 3 to 8) (size 9 to 14) (size 15 to 20)
#    0.000    2.500    1.250    3.375    0.000    3.500 
#    0.000    6.875    0.000    0.750    0.000    1.750 
#    0.000    0.000    0.000    0.000    0.000    0.000 
#
# Total GULP energy -792996.370291 kJ/mol
# GULP energy per Si atom -12390.568286 kJ/mol
# Density = 1.949909 g / cm^3
# Si number density = 19.543576 Si / 1000 Ang^3
#
#
#
# Elastic Constant Matrix: (Units=GPa)
#
#
# Indices 1 2 3 4 5 6 
#
# 1 51.1402 35.9811 22.4076 0.0000 0.0000 0.0000
# 2 35.9811 121.8862 28.6949 0.0000 0.0000 0.0000
# 3 22.4076 28.6949 40.5231 0.0000 0.0000 0.0000
# 4 0.0000 0.0000 0.0000 5.5613 0.0000 0.0000
# 5 0.0000 0.0000 0.0000 0.0000 21.6675 0.0000
# 6 0.0000 0.0000 0.0000 0.0000 0.0000 27.9656
#
#
#
# Elastic Compliance Matrix: (Units=1/GPa)
#
#
# Indices 1 2 3 4 5 6 
#
# 1 0.028763 -0.005696 -0.011871 0.000000 0.000000 0.000000
# 2 -0.005696 0.010974 -0.004621 0.000000 0.000000 0.000000
# 3 -0.011871 -0.004621 0.034514 0.000000 0.000000 0.000000
# 4 0.000000 0.000000 0.000000 0.179814 0.000000 0.000000
# 5 0.000000 0.000000 0.000000 0.000000 0.046152 0.000000
# 6 0.000000 0.000000 0.000000 0.000000 0.000000 0.035758
#
#
# Mechanical properties :
#
#
# Convention : Reuss Voigt Hill
#
# Bulk Modulus (GPa) = 33.47400 43.07963 38.27681
# Shear Modulus (GPa) = 12.81032 19.46993 16.14013
#
# Velocity S-wave (km/s) = 2.56300 3.15974 2.87688
# Velocity P-wave (km/s) = 5.09153 5.95001 5.53743
#
# Compressibility (1/GPa) = 0.02987394
#
# Stress axis : x y z
#
# Youngs Moduli (GPa) = 34.76634 91.12633 28.97390
#
# Poissons Ratio (x) = 0.51908 0.34396
# Poissons Ratio (y) = 0.19804 0.13388
# Poissons Ratio (z) = 0.41273 0.42108
#
# Static dielectric constant tensor:
#      x y z
#    x 3.557750 0.000000 0.000000 
#    y 0.000000 4.045990 0.000000 
#    z 0.000000 0.000000 3.083210 
# 
# 
# High freq. dielectric constant tensor:
#      x y z
#    x 1.761420 0.000000 0.000000 
#    y 0.000000 1.781110 0.000000 
#    z 0.000000 0.000000 1.706570 
# 
# From -- ./inp_files/11040.got.cif
#   From: 2010.06.25/outbox.cif.g09.slc.cpg/sg58_6_cif.got.tgz:11040.got - 2010.06.26 21:38:00.
