data_PCOD8236055
_publ_section_title
;
Structure prediction by ZEFSAII (Michael W. Deem and Ramdas Pophale) SiO2 
 PCOD8236055
Probable space group: P N N M
;
_chemical_formula_sum "Si O2"
_cell_formula_units_Z 64
_cell_length_a 18.529623
_cell_length_b 26.274701
_cell_length_c 8.916393
_cell_angle_alpha 90.000000
_cell_angle_beta 90.000000
_cell_angle_gamma 90.000000
_cell_volume 4341.037806
_symmetry_space_group_name_H-M "P N N M"
_symmetry_group_IT_number 58
_symmetry_cell_setting 'orthorhombic'
loop_
_space_group_symop_operation_xyz
x,y,z
-x,-y,z
1/2+x,1/2-y,1/2-z
1/2-x,1/2+y,1/2-z
-x,-y,-z
x,y,-z
1/2-x,1/2+y,1/2+z
1/2+x,1/2-y,1/2+z
loop_
_atom_site_type_symbol
_atom_site_label
_atom_site_fract_x
_atom_site_fract_y
_atom_site_fract_z
Si Si1 0.923351 0.946165 0.321119
Si Si2 0.415386 0.252676 0.322953
Si Si3 0.424408 0.447468 0.678958
Si Si4 0.204839 0.700585 0.665699
Si Si5 0.832429 0.148608 0.824152
Si Si6 0.656350 0.356246 0.677557
Si Si7 0.207545 0.304745 0.833278
Si Si8 0.423678 0.744702 0.678933
O O1 0.931200 0.949159 0.500000
O O2 0.863182 0.905773 0.273154
O O3 0.998955 0.930144 0.245942
O O4 0.898586 0.000529 0.255892
O O5 0.419298 0.253177 0.500000
O O6 0.364907 0.205521 0.272653
O O7 0.383008 0.305900 0.261190
O O8 0.496028 0.246070 0.257046
O O9 0.431619 0.453913 0.500000
O O10 0.365844 0.405124 0.723969
O O11 0.175697 0.688116 0.500000
O O12 0.260177 0.656533 0.717996
O O13 0.248868 0.752542 0.663698
O O14 0.750794 0.153275 0.762308
O O15 0.827570 0.153771 0.000000
O O16 0.647195 0.366228 0.500000
O O17 0.604416 0.310452 0.732236
O O18 0.128864 0.290485 0.763344
O O19 0.199180 0.327244 0.000000
O O20 0.420859 0.745402 0.500000
#
# Coordination Sequence:
#
# PCOD8236055 Si02
#       8
#     8   8   8   8   8   8   8   8
#     4  11  21  30  41  61  84 101 129 174 210 230
#     4   9  15  24  39  58  81 105 132 166 197 227
#     4  10  19  32  46  57  76 109 141 163 194 241
#     4   8  15  26  39  56  77 103 135 165 193 231
#     4   9  17  27  41  59  77 103 137 167 194 229
#     4   9  16  29  45  56  75 110 143 164 191 238
#     4   8  14  25  40  56  77 104 132 164 198 231
#     4   8  14  25  41  59  78 107 142 165 189 235
#
# _framework density 14.743017999999999
#
# number of rings (size 3 to 8) (size 9 to 14) (size 15 to 20)
#    0.000    3.000    0.000    4.500    0.000    3.500 
#    0.000    5.625    0.000    0.000    0.000    0.000 
#    0.000    1.000    0.000   11.250    0.000    5.000 
#
# Total GULP energy -793147.714834 kJ/mol
# GULP energy per Si atom -12392.933044 kJ/mol
# Density = 1.470946 g / cm^3
# Si number density = 14.743018 Si / 1000 Ang^3
#
#
#
# Elastic Constant Matrix: (Units=GPa)
#
#
# Indices 1 2 3 4 5 6 
#
# 1 111.7813 54.1277 30.1931 0.0000 0.0000 0.0000
# 2 54.1277 76.6478 30.9460 0.0000 0.0000 0.0000
# 3 30.1931 30.9460 44.5963 0.0000 0.0000 0.0000
# 4 0.0000 0.0000 0.0000 18.6414 0.0000 0.0000
# 5 0.0000 0.0000 0.0000 0.0000 22.0429 0.0000
# 6 0.0000 0.0000 0.0000 0.0000 0.0000 27.5604
#
#
#
# Elastic Compliance Matrix: (Units=1/GPa)
#
#
# Indices 1 2 3 4 5 6 
#
# 1 0.014007 -0.008423 -0.003639 0.000000 0.000000 0.000000
# 2 -0.008423 0.023189 -0.010389 0.000000 0.000000 0.000000
# 3 -0.003639 -0.010389 0.032096 0.000000 0.000000 0.000000
# 4 0.000000 0.000000 0.000000 0.053644 0.000000 0.000000
# 5 0.000000 0.000000 0.000000 0.000000 0.045366 0.000000
# 6 0.000000 0.000000 0.000000 0.000000 0.000000 0.036284
#
#
# Mechanical properties :
#
#
# Convention : Reuss Voigt Hill
#
# Bulk Modulus (GPa) = 40.99743 51.50655 46.25199
# Shear Modulus (GPa) = 19.40860 21.49953 20.45407
#
# Velocity S-wave (km/s) = 3.63224 3.82289 3.72879
# Velocity P-wave (km/s) = 6.74235 7.38228 7.06956
#
# Compressibility (1/GPa) = 0.02439177
#
# Stress axis : x y z
#
# Youngs Moduli (GPa) = 71.39061 43.12366 31.15663
#
# Poissons Ratio (x) = 0.36322 0.11337
# Poissons Ratio (y) = 0.60130 0.32368
# Poissons Ratio (z) = 0.25978 0.44800
#
# Static dielectric constant tensor:
#      x y z
#    x 3.075280 0.000000 0.000000 
#    y 0.000000 2.713990 0.000000 
#    z 0.000000 0.000000 2.784910 
# 
# 
# High freq. dielectric constant tensor:
#      x y z
#    x 1.555940 0.000000 0.000000 
#    y 0.000000 1.530950 0.000000 
#    z 0.000000 0.000000 1.554710 
# 
# From -- ./inp_files/8523.got.cif
#   From: 2010.06.25/outbox.cif.g09.slc.cpg/sg58_5_cif.got.tgz:8523.got - 2010.06.26 21:38:00.
