data_PCOD8236853
_publ_section_title
;
Structure prediction by ZEFSAII (Michael W. Deem and Ramdas Pophale) SiO2 
 PCOD8236853
Probable space group: P N N M
;
_chemical_formula_sum "Si O2"
_cell_formula_units_Z 64
_cell_length_a 11.409051
_cell_length_b 22.456957
_cell_length_c 13.332453
_cell_angle_alpha 90.000000
_cell_angle_beta 90.000000
_cell_angle_gamma 90.000000
_cell_volume 3415.942017
_symmetry_space_group_name_H-M "P N N M"
_symmetry_group_IT_number 58
_symmetry_cell_setting 'orthorhombic'
loop_
_space_group_symop_operation_xyz
x,y,z
-x,-y,z
1/2+x,1/2-y,1/2-z
1/2-x,1/2+y,1/2-z
-x,-y,-z
x,y,-z
1/2-x,1/2+y,1/2+z
1/2+x,1/2-y,1/2+z
loop_
_atom_site_type_symbol
_atom_site_label
_atom_site_fract_x
_atom_site_fract_y
_atom_site_fract_z
Si Si1 0.024307 0.206231 0.115291
Si Si2 0.457511 0.172605 0.289432
Si Si3 0.066662 0.079699 0.384807
Si Si4 0.192115 0.186232 0.290564
Si Si5 0.329479 0.390854 0.613160
Si Si6 0.167678 0.963142 0.306218
Si Si7 0.072891 0.442890 0.882178
Si Si8 0.378521 0.804169 0.113861
O O1 0.139711 0.192351 0.179469
O O2 0.977542 0.272409 0.136025
O O3 0.924464 0.158741 0.143332
O O4 0.061002 0.201420 0.000000
O O5 0.320461 0.158071 0.281562
O O6 0.524181 0.115346 0.329300
O O7 0.504133 0.188586 0.178784
O O8 0.094569 0.064645 0.500000
O O9 0.109832 0.145209 0.358922
O O10 0.927544 0.076157 0.366250
O O11 0.135614 0.032640 0.315016
O O12 0.199030 0.249657 0.345153
O O13 0.351653 0.414242 0.500000
O O14 0.336052 0.446449 0.688533
O O15 0.200488 0.362893 0.621632
O O16 0.292045 0.950242 0.354988
O O17 0.000000 0.500000 0.843916
O O18 0.057455 0.434773 0.000000
O O19 0.417422 0.792002 0.000000
#
# Coordination Sequence:
#
# PCOD8236853 Si02
#       8
#     8   8   8   8   8   8   8   8
#     4  10  21  38  58  85 118 152 191 239 291 339
#     4  11  22  36  59  86 116 152 192 237 290 344
#     4  11  23  38  60  87 119 155 188 239 294 341
#     4  11  22  37  59  88 119 153 192 239 288 354
#     4  10  19  38  65  85 112 153 195 237 282 340
#     4  11  21  40  59  85 116 153 192 238 284 342
#     4  11  23  38  58  85 117 153 192 236 287 345
#     4  10  21  38  60  84 115 155 193 234 287 348
#
# _framework density 18.735682000000001
#
# number of rings (size 3 to 8) (size 9 to 14) (size 15 to 20)
#    0.000    1.375    3.750    3.000    0.000    3.000 
#    0.000    1.875    0.000    3.000    0.000    0.000 
#    0.000    0.000    0.000    0.000    0.000    0.000 
#
# Total GULP energy -793864.302921 kJ/mol
# GULP energy per Si atom -12404.129733 kJ/mol
# Density = 1.869304 g / cm^3
# Si number density = 18.735682 Si / 1000 Ang^3
#
#
#
# Elastic Constant Matrix: (Units=GPa)
#
#
# Indices 1 2 3 4 5 6 
#
# 1 119.3085 30.9789 27.5565 0.0000 0.0000 0.0000
# 2 30.9789 65.7462 41.2499 0.0000 0.0000 0.0000
# 3 27.5565 41.2499 115.7460 0.0000 0.0000 0.0000
# 4 0.0000 0.0000 0.0000 27.0660 0.0000 0.0000
# 5 0.0000 0.0000 0.0000 0.0000 22.7457 0.0000
# 6 0.0000 0.0000 0.0000 0.0000 0.0000 26.5031
#
#
#
# Elastic Compliance Matrix: (Units=1/GPa)
#
#
# Indices 1 2 3 4 5 6 
#
# 1 0.009617 -0.003986 -0.000869 0.000000 0.000000 0.000000
# 2 -0.003986 0.021243 -0.006621 0.000000 0.000000 0.000000
# 3 -0.000869 -0.006621 0.011206 0.000000 0.000000 0.000000
# 4 0.000000 0.000000 0.000000 0.036947 0.000000 0.000000
# 5 0.000000 0.000000 0.000000 0.000000 0.043964 0.000000
# 6 0.000000 0.000000 0.000000 0.000000 0.000000 0.037731
#
#
# Mechanical properties :
#
#
# Convention : Reuss Voigt Hill
#
# Bulk Modulus (GPa) = 52.32130 55.59681 53.95906
# Shear Modulus (GPa) = 26.31112 28.66399 27.48756
#
# Velocity S-wave (km/s) = 3.75151 3.91566 3.83446
# Velocity P-wave (km/s) = 6.83752 7.08392 6.96181
#
# Compressibility (1/GPa) = 0.01911268
#
# Stress axis : x y z
#
# Youngs Moduli (GPa) = 103.97793 47.07488 89.23566
#
# Poissons Ratio (x) = 0.18766 0.07755
# Poissons Ratio (y) = 0.41450 0.59087
# Poissons Ratio (z) = 0.09036 0.31171
#
# Static dielectric constant tensor:
#      x y z
#    x 3.472820 0.000000 0.000000 
#    y 0.000000 3.386790 0.000000 
#    z 0.000000 0.000000 3.459090 
# 
# 
# High freq. dielectric constant tensor:
#      x y z
#    x 1.731330 0.000000 0.000000 
#    y 0.000000 1.724880 0.000000 
#    z 0.000000 0.000000 1.731520 
# 
# From -- ./inp_files/14819.got.cif
#   From: 2010.06.25/outbox.cif.g09.slc.cpg/sg58_8_cif.got.tgz:14819.got - 2010.06.26 21:38:00.
