data_PCOD8236752
_publ_section_title
;
Structure prediction by ZEFSAII (Michael W. Deem and Ramdas Pophale) SiO2 
 PCOD8236752
Probable space group: P N N M
;
_chemical_formula_sum "Si O2"
_cell_formula_units_Z 64
_cell_length_a 21.293884
_cell_length_b 10.933407
_cell_length_c 14.418582
_cell_angle_alpha 90.000000
_cell_angle_beta 90.000000
_cell_angle_gamma 90.000000
_cell_volume 3356.857848
_symmetry_space_group_name_H-M "P N N M"
_symmetry_group_IT_number 58
_symmetry_cell_setting 'orthorhombic'
loop_
_space_group_symop_operation_xyz
x,y,z
-x,-y,z
1/2+x,1/2-y,1/2-z
1/2-x,1/2+y,1/2-z
-x,-y,-z
x,y,-z
1/2-x,1/2+y,1/2+z
1/2+x,1/2-y,1/2+z
loop_
_atom_site_type_symbol
_atom_site_label
_atom_site_fract_x
_atom_site_fract_y
_atom_site_fract_z
Si Si1 0.240852 0.575502 0.895757
Si Si2 0.863355 0.451723 0.393618
Si Si3 0.775963 0.602118 0.264472
Si Si4 0.354269 0.673173 0.790368
Si Si5 0.075914 0.787327 0.395612
Si Si6 0.070556 0.954501 0.220935
Si Si7 0.334573 0.312788 0.391323
Si Si8 0.946710 0.668864 0.397394
O O1 0.236509 0.455602 0.834463
O O2 0.308428 0.634760 0.874152
O O3 0.181623 0.668356 0.881596
O O4 0.241899 0.528331 0.000000
O O5 0.842416 0.470190 0.500000
O O6 0.811878 0.504191 0.326076
O O7 0.867281 0.305842 0.372265
O O8 0.927613 0.528989 0.374158
O O9 0.813969 0.724163 0.236668
O O10 0.713125 0.619965 0.322971
O O11 0.378934 0.565751 0.722599
O O12 0.416743 0.732763 0.829412
O O13 0.080989 0.842794 0.500000
O O14 0.069815 0.898147 0.324450
O O15 0.020369 0.688432 0.389437
O O16 0.095831 0.853177 0.146360
O O17 0.000000 0.000000 0.194000
O O18 0.328003 0.351034 0.500000
O O19 0.922404 0.700904 0.500000
#
# Coordination Sequence:
#
# PCOD8236752 Si02
#       8
#     8   8   8   8   8   8   8   8
#     4  10  20  37  63  88 114 145 181 233 292 343
#     4   9  17  30  51  79 109 145 188 231 279 330
#     4  10  19  36  61  82 112 141 184 237 285 337
#     4  10  20  35  54  82 112 147 187 224 276 344
#     4  10  20  31  48  79 115 149 183 228 280 336
#     4  12  23  38  56  79 115 155 194 234 279 336
#     4  10  22  40  61  84 110 148 195 234 279 337
#     4   9  16  29  49  75 111 149 184 221 268 333
#
# _framework density 19.065448
#
# number of rings (size 3 to 8) (size 9 to 14) (size 15 to 20)
#    0.000    2.000    2.500    1.875    0.000    6.000 
#    0.000    0.625    0.000    0.000    0.000    1.750 
#    0.000    0.000    0.000    0.000    0.000    0.000 
#
# Total GULP energy -792882.795995 kJ/mol
# GULP energy per Si atom -12388.793687 kJ/mol
# Density = 1.902205 g / cm^3
# Si number density = 19.065448 Si / 1000 Ang^3
#
#
#
# Elastic Constant Matrix: (Units=GPa)
#
#
# Indices 1 2 3 4 5 6 
#
# 1 56.8622 21.4738 21.3561 0.0000 0.0000 0.0000
# 2 21.4738 71.9001 41.6646 0.0000 0.0000 0.0000
# 3 21.3561 41.6646 94.0660 0.0000 0.0000 0.0000
# 4 0.0000 0.0000 0.0000 27.8210 0.0000 0.0000
# 5 0.0000 0.0000 0.0000 0.0000 14.1011 0.0000
# 6 0.0000 0.0000 0.0000 0.0000 0.0000 21.1573
#
#
#
# Elastic Compliance Matrix: (Units=1/GPa)
#
#
# Indices 1 2 3 4 5 6 
#
# 1 0.020279 -0.004559 -0.002585 0.000000 0.000000 0.000000
# 2 -0.004559 0.019735 -0.007706 0.000000 0.000000 0.000000
# 3 -0.002585 -0.007706 0.014631 0.000000 0.000000 0.000000
# 4 0.000000 0.000000 0.000000 0.035944 0.000000 0.000000
# 5 0.000000 0.000000 0.000000 0.000000 0.070916 0.000000
# 6 0.000000 0.000000 0.000000 0.000000 0.000000 0.047265
#
#
# Mechanical properties :
#
#
# Convention : Reuss Voigt Hill
#
# Bulk Modulus (GPa) = 40.08746 43.53527 41.81136
# Shear Modulus (GPa) = 20.26051 21.83814 21.04933
#
# Velocity S-wave (km/s) = 3.26342 3.38809 3.32634
# Velocity P-wave (km/s) = 5.93900 6.17979 6.06059
#
# Compressibility (1/GPa) = 0.02494546
#
# Stress axis : x y z
#
# Youngs Moduli (GPa) = 49.31284 50.67040 68.34771
#
# Poissons Ratio (x) = 0.23099 0.17666
# Poissons Ratio (y) = 0.22480 0.52672
# Poissons Ratio (z) = 0.12746 0.39049
#
# Static dielectric constant tensor:
#      x y z
#    x 3.512870 0.000000 0.000000 
#    y 0.000000 3.607330 0.000000 
#    z 0.000000 0.000000 3.279660 
# 
# 
# High freq. dielectric constant tensor:
#      x y z
#    x 1.734980 0.000000 0.000000 
#    y 0.000000 1.747000 0.000000 
#    z 0.000000 0.000000 1.717250 
# 
# From -- ./inp_files/17558.got.cif
#   From: 2010.06.25/outbox.cif.g09.slc.cpg/sg58_9_cif.got.tgz:17558.got - 2010.06.26 21:38:00.
