data_PCOD8236190
_publ_section_title
;
Structure prediction by ZEFSAII (Michael W. Deem and Ramdas Pophale) SiO2 
 PCOD8236190
Probable space group: P N N M
;
_chemical_formula_sum "Si O2"
_cell_formula_units_Z 64
_cell_length_a 21.381364
_cell_length_b 16.725212
_cell_length_c 8.914378
_cell_angle_alpha 90.000000
_cell_angle_beta 90.000000
_cell_angle_gamma 90.000000
_cell_volume 3187.851513
_symmetry_space_group_name_H-M "P N N M"
_symmetry_group_IT_number 58
_symmetry_cell_setting 'orthorhombic'
loop_
_space_group_symop_operation_xyz
x,y,z
-x,-y,z
1/2+x,1/2-y,1/2-z
1/2-x,1/2+y,1/2-z
-x,-y,-z
x,y,-z
1/2-x,1/2+y,1/2+z
1/2+x,1/2-y,1/2+z
loop_
_atom_site_type_symbol
_atom_site_label
_atom_site_fract_x
_atom_site_fract_y
_atom_site_fract_z
Si Si1 0.318612 0.088414 0.678417
Si Si2 0.677302 0.449419 0.173704
Si Si3 0.610601 0.052099 0.172242
Si Si4 0.973927 0.675240 0.822165
Si Si5 0.212278 0.312803 0.668624
Si Si6 0.372814 0.697267 0.675329
Si Si7 0.829777 0.129255 0.330887
Si Si8 0.102679 0.714872 0.327802
O O1 0.323209 0.095980 0.500000
O O2 0.249069 0.061671 0.730037
O O3 0.335746 0.172602 0.757212
O O4 0.371095 0.026328 0.735152
O O5 0.628207 0.391044 0.254940
O O6 0.652076 0.538412 0.209508
O O7 0.674255 0.429040 0.000000
O O8 0.549842 0.093502 0.245480
O O9 0.668184 0.111566 0.186065
O O10 0.595889 0.029726 0.000000
O O11 0.932000 0.750815 0.767789
O O12 0.043950 0.690570 0.771461
O O13 0.970168 0.664665 0.000000
O O14 0.212566 0.278976 0.500000
O O15 0.190887 0.241224 0.776013
O O16 0.280540 0.340559 0.711263
O O17 0.374525 0.687555 0.500000
O O18 0.801306 0.131101 0.500000
O O19 0.888903 0.188837 0.319727
O O20 0.093418 0.687656 0.500000
#
# Coordination Sequence:
#
# PCOD8236190 Si02
#       8
#     8   8   8   8   8   8   8   8
#     4  11  22  37  59  87 122 155 189 232 285 346
#     4  10  21  37  59  88 120 151 188 234 286 345
#     4  10  20  35  58  88 118 150 189 234 283 337
#     4  10  22  41  61  82 113 153 199 241 285 340
#     4  10  19  32  55  85 115 148 186 229 283 343
#     4  10  21  36  58  84 112 149 191 238 287 338
#     4  10  21  38  58  83 116 152 189 235 289 343
#     4  11  24  40  59  83 114 152 195 242 288 338
#
# _framework density 20.076217
#
# number of rings (size 3 to 8) (size 9 to 14) (size 15 to 20)
#    0.000    1.750    1.250    3.000    0.000    7.500 
#    0.000    3.125    0.000    3.750    0.000    0.000 
#    0.000    0.000    0.000    0.000    0.000    0.000 
#
# Total GULP energy -793712.884462 kJ/mol
# GULP energy per Si atom -12401.763820 kJ/mol
# Density = 2.003052 g / cm^3
# Si number density = 20.076217 Si / 1000 Ang^3
#
#
#
# Elastic Constant Matrix: (Units=GPa)
#
#
# Indices 1 2 3 4 5 6 
#
# 1 36.2826 8.3280 19.5466 0.0000 0.0000 0.0000
# 2 8.3280 110.1784 32.8550 0.0000 0.0000 0.0000
# 3 19.5466 32.8550 57.0414 0.0000 0.0000 0.0000
# 4 0.0000 0.0000 0.0000 33.6414 0.0000 0.0000
# 5 0.0000 0.0000 0.0000 0.0000 24.0071 0.0000
# 6 0.0000 0.0000 0.0000 0.0000 0.0000 21.3852
#
#
#
# Elastic Compliance Matrix: (Units=1/GPa)
#
#
# Indices 1 2 3 4 5 6 
#
# 1 0.033909 0.001089 -0.012247 0.000000 0.000000 0.000000
# 2 0.001089 0.010993 -0.006705 0.000000 0.000000 0.000000
# 3 -0.012247 -0.006705 0.025590 0.000000 0.000000 0.000000
# 4 0.000000 0.000000 0.000000 0.029725 0.000000 0.000000
# 5 0.000000 0.000000 0.000000 0.000000 0.041654 0.000000
# 6 0.000000 0.000000 0.000000 0.000000 0.000000 0.046761
#
#
# Mechanical properties :
#
#
# Convention : Reuss Voigt Hill
#
# Bulk Modulus (GPa) = 28.76365 36.10684 32.43525
# Shear Modulus (GPa) = 21.19103 25.32493 23.25798
#
# Velocity S-wave (km/s) = 3.25241 3.55553 3.40734
# Velocity P-wave (km/s) = 5.33504 5.90590 5.62771
#
# Compressibility (1/GPa) = 0.03476610
#
# Stress axis : x y z
#
# Youngs Moduli (GPa) = 29.49036 90.96402 39.07774
#
# Poissons Ratio (x) = -0.09906 0.47859
# Poissons Ratio (y) = -0.03212 0.26202
# Poissons Ratio (z) = 0.36117 0.60993
#
# Static dielectric constant tensor:
#      x y z
#    x 3.418580 0.000000 0.000000 
#    y 0.000000 3.881560 0.000000 
#    z 0.000000 0.000000 3.657220 
# 
# 
# High freq. dielectric constant tensor:
#      x y z
#    x 1.758490 0.000000 0.000000 
#    y 0.000000 1.794300 0.000000 
#    z 0.000000 0.000000 1.789700 
# 
# From -- ./inp_files/6872.got.cif
#   From: 2010.06.25/outbox.cif.g09.slc.cpg/sg58_4_cif.got.tgz:6872.got - 2010.06.26 21:38:00.
