data_PCOD8236240
_publ_section_title
;
Structure prediction by ZEFSAII (Michael W. Deem and Ramdas Pophale) SiO2 
 PCOD8236240
Probable space group: P N N M
;
_chemical_formula_sum "Si O2"
_cell_formula_units_Z 64
_cell_length_a 22.763791
_cell_length_b 14.558104
_cell_length_c 9.007182
_cell_angle_alpha 90.000000
_cell_angle_beta 90.000000
_cell_angle_gamma 90.000000
_cell_volume 2984.958829
_symmetry_space_group_name_H-M "P N N M"
_symmetry_group_IT_number 58
_symmetry_cell_setting 'orthorhombic'
loop_
_space_group_symop_operation_xyz
x,y,z
-x,-y,z
1/2+x,1/2-y,1/2-z
1/2-x,1/2+y,1/2-z
-x,-y,-z
x,y,-z
1/2-x,1/2+y,1/2+z
1/2+x,1/2-y,1/2+z
loop_
_atom_site_type_symbol
_atom_site_label
_atom_site_fract_x
_atom_site_fract_y
_atom_site_fract_z
Si Si1 0.686668 0.461368 0.831138
Si Si2 0.606371 0.155153 0.667987
Si Si3 0.969612 0.372567 0.169675
Si Si4 0.335813 0.362620 0.326078
Si Si5 0.879067 0.479923 0.324678
Si Si6 0.549558 0.686481 0.824603
Si Si7 0.582637 0.335604 0.170688
Si Si8 0.794848 0.338631 0.171787
O O1 0.701689 0.548626 0.726850
O O2 0.619814 0.427726 0.802630
O O3 0.728973 0.374557 0.797690
O O4 0.694714 0.494296 0.000000
O O5 0.629704 0.155875 0.500000
O O6 0.538818 0.126985 0.678540
O O7 0.613783 0.255811 0.735320
O O8 0.642547 0.078668 0.760823
O O9 0.943540 0.460377 0.255620
O O10 0.941894 0.284694 0.249425
O O11 0.947568 0.374504 0.000000
O O12 0.346942 0.368550 0.500000
O O13 0.398275 0.374620 0.242305
O O14 0.300976 0.268977 0.283691
O O15 0.882374 0.485815 0.500000
O O16 0.836573 0.398710 0.274871
O O17 0.485181 0.645593 0.782837
O O18 0.557485 0.694957 0.000000
O O19 0.584774 0.303633 0.000000
O O20 0.812605 0.352261 0.000000
#
# Coordination Sequence:
#
# PCOD8236240 Si02
#       8
#     8   8   8   8   8   8   8   8
#     4  10  23  44  67  90 120 160 203 252 309 366
#     4  10  21  35  55  84 122 164 201 245 305 366
#     4  10  19  33  53  82 121 161 201 248 303 361
#     4  11  23  40  64  93 125 160 201 253 306 365
#     4  12  23  34  55  85 118 159 207 254 300 359
#     4  10  19  34  60  91 123 162 205 250 306 366
#     4   9  20  39  61  89 125 162 205 257 309 365
#     4  10  23  43  64  86 119 160 203 254 308 362
#
# _framework density 21.440833000000001
#
# number of rings (size 3 to 8) (size 9 to 14) (size 15 to 20)
#    0.000    1.750    1.250    3.000    0.000    6.500 
#    0.000    3.750    0.000    0.000    0.000    0.000 
#    0.000    0.000    0.000    0.000    0.000    0.000 
#
# Total GULP energy -793539.601953 kJ/mol
# GULP energy per Si atom -12399.056281 kJ/mol
# Density = 2.139203 g / cm^3
# Si number density = 21.440833 Si / 1000 Ang^3
#
#
#
# Elastic Constant Matrix: (Units=GPa)
#
#
# Indices 1 2 3 4 5 6 
#
# 1 53.8541 38.9975 27.8923 0.0000 0.0000 0.0000
# 2 38.9975 124.6110 59.5268 0.0000 0.0000 0.0000
# 3 27.8923 59.5268 127.9697 0.0000 0.0000 0.0000
# 4 0.0000 0.0000 0.0000 37.0742 0.0000 0.0000
# 5 0.0000 0.0000 0.0000 0.0000 20.4251 0.0000
# 6 0.0000 0.0000 0.0000 0.0000 0.0000 21.7709
#
#
#
# Elastic Compliance Matrix: (Units=1/GPa)
#
#
# Indices 1 2 3 4 5 6 
#
# 1 0.024517 -0.006583 -0.002282 0.000000 0.000000 0.000000
# 2 -0.006583 0.012085 -0.004187 0.000000 0.000000 0.000000
# 3 -0.002282 -0.004187 0.010259 0.000000 0.000000 0.000000
# 4 0.000000 0.000000 0.000000 0.026973 0.000000 0.000000
# 5 0.000000 0.000000 0.000000 0.000000 0.048959 0.000000
# 6 0.000000 0.000000 0.000000 0.000000 0.000000 0.045933
#
#
# Mechanical properties :
#
#
# Convention : Reuss Voigt Hill
#
# Bulk Modulus (GPa) = 48.17180 62.14089 55.15634
# Shear Modulus (GPa) = 24.78326 27.85524 26.31925
#
# Velocity S-wave (km/s) = 3.40353 3.60831 3.50741
# Velocity P-wave (km/s) = 6.16128 6.81214 6.49487
#
# Compressibility (1/GPa) = 0.02075904
#
# Stress axis : x y z
#
# Youngs Moduli (GPa) = 40.78755 82.74642 97.47344
#
# Poissons Ratio (x) = 0.54470 0.22241
# Poissons Ratio (y) = 0.26850 0.40810
# Poissons Ratio (z) = 0.09307 0.34644
#
# Static dielectric constant tensor:
#      x y z
#    x 3.948670 0.000000 0.000000 
#    y 0.000000 4.443970 0.000000 
#    z 0.000000 0.000000 3.837530 
# 
# 
# High freq. dielectric constant tensor:
#      x y z
#    x 1.830690 0.000000 0.000000 
#    y 0.000000 1.843060 0.000000 
#    z 0.000000 0.000000 1.838450 
# 
# From -- ./inp_files/9952.got.cif
#   From: 2010.06.25/outbox.cif.g09.slc.cpg/sg58_5_cif.got.tgz:9952.got - 2010.06.26 21:38:00.
