data_PCOD8236724
_publ_section_title
;
Structure prediction by ZEFSAII (Michael W. Deem and Ramdas Pophale) SiO2 
 PCOD8236724
Probable space group: P N N M
;
_chemical_formula_sum "Si O2"
_cell_formula_units_Z 64
_cell_length_a 13.987519
_cell_length_b 9.343659
_cell_length_c 24.830042
_cell_angle_alpha 90.000000
_cell_angle_beta 90.000000
_cell_angle_gamma 90.000000
_cell_volume 3245.152601
_symmetry_space_group_name_H-M "P N N M"
_symmetry_group_IT_number 58
_symmetry_cell_setting 'orthorhombic'
loop_
_space_group_symop_operation_xyz
x,y,z
-x,-y,z
1/2+x,1/2-y,1/2-z
1/2-x,1/2+y,1/2-z
-x,-y,-z
x,y,-z
1/2-x,1/2+y,1/2+z
1/2+x,1/2-y,1/2+z
loop_
_atom_site_type_symbol
_atom_site_label
_atom_site_fract_x
_atom_site_fract_y
_atom_site_fract_z
Si Si1 0.090124 0.918312 0.859248
Si Si2 0.133491 0.701699 0.302653
Si Si3 0.890281 0.988423 0.335003
Si Si4 0.735354 0.054468 0.940202
Si Si5 0.905825 0.815160 0.560969
Si Si6 0.492963 0.167056 0.301691
Si Si7 0.069055 0.622894 0.412364
Si Si8 0.156610 0.130784 0.773395
O O1 0.178971 0.936738 0.898472
O O2 0.062153 0.751781 0.849679
O O3 0.111256 0.989530 0.800893
O O4 0.000000 0.000000 0.885960
O O5 0.065558 0.697519 0.251867
O O6 0.077808 0.612426 0.348025
O O7 0.233884 0.630962 0.289997
O O8 0.157741 0.857817 0.326757
O O9 0.875343 0.936328 0.396380
O O10 0.846079 0.878273 0.291562
O O11 0.000000 0.000000 0.319577
O O12 0.661786 0.181047 0.927188
O O13 0.675652 0.904491 0.936376
O O14 0.778557 0.068478 0.000000
O O15 0.893462 0.873521 0.500000
O O16 0.018176 0.772206 0.570066
O O17 0.600110 0.228388 0.293685
O O18 0.500000 0.000000 0.316775
O O19 0.000000 0.500000 0.434872
#
# Coordination Sequence:
#
# PCOD8236724 Si02
#       8
#     8   8   8   8   8   8   8   8
#     4  10  21  41  62  85 120 157 201 252 307 362
#     4  12  23  36  60  90 118 161 201 244 304 363
#     4  12  22  40  58  84 123 161 203 248 299 370
#     4  10  21  38  61  88 116 153 203 256 306 360
#     4  10  22  37  59  87 124 165 201 249 306 366
#     4  11  24  38  57  90 123 156 200 246 305 368
#     4  10  19  36  58  87 121 152 198 248 302 359
#     4  11  23  40  61  86 124 161 202 251 305 365
#
# _framework density 19.721720999999999
#
# number of rings (size 3 to 8) (size 9 to 14) (size 15 to 20)
#    0.000    1.250    5.000    1.125    3.500    3.000 
#    0.000    0.000    0.000    0.375    0.000    0.000 
#    0.000    0.000    0.000    0.000    0.000    0.000 
#
# Total GULP energy -793398.106386 kJ/mol
# GULP energy per Si atom -12396.845412 kJ/mol
# Density = 1.967683 g / cm^3
# Si number density = 19.721721 Si / 1000 Ang^3
#
#
#
# Elastic Constant Matrix: (Units=GPa)
#
#
# Indices 1 2 3 4 5 6 
#
# 1 86.7860 19.6738 50.0326 0.0000 0.0000 0.0000
# 2 19.6738 97.2564 38.9154 0.0000 0.0000 0.0000
# 3 50.0326 38.9154 109.9258 0.0000 0.0000 0.0000
# 4 0.0000 0.0000 0.0000 46.8133 0.0000 0.0000
# 5 0.0000 0.0000 0.0000 0.0000 24.6452 0.0000
# 6 0.0000 0.0000 0.0000 0.0000 0.0000 20.5748
#
#
#
# Elastic Compliance Matrix: (Units=1/GPa)
#
#
# Indices 1 2 3 4 5 6 
#
# 1 0.015633 -0.000367 -0.006985 0.000000 0.000000 0.000000
# 2 -0.000367 0.011988 -0.004077 0.000000 0.000000 0.000000
# 3 -0.006985 -0.004077 0.013720 0.000000 0.000000 0.000000
# 4 0.000000 0.000000 0.000000 0.021361 0.000000 0.000000
# 5 0.000000 0.000000 0.000000 0.000000 0.040576 0.000000
# 6 0.000000 0.000000 0.000000 0.000000 0.000000 0.048603
#
#
# Mechanical properties :
#
#
# Convention : Reuss Voigt Hill
#
# Bulk Modulus (GPa) = 54.10764 56.80132 55.45448
# Shear Modulus (GPa) = 27.63967 30.76309 29.20138
#
# Velocity S-wave (km/s) = 3.74770 3.95379 3.85212
# Velocity P-wave (km/s) = 6.79869 7.05033 6.92565
#
# Compressibility (1/GPa) = 0.01848168
#
# Stress axis : x y z
#
# Youngs Moduli (GPa) = 63.96764 83.41967 72.88869
#
# Poissons Ratio (x) = 0.03064 0.50915
# Poissons Ratio (y) = 0.02350 0.29714
# Poissons Ratio (z) = 0.44683 0.34007
#
# Static dielectric constant tensor:
#      x y z
#    x 3.711160 0.000000 0.000000 
#    y 0.000000 3.808680 0.000000 
#    z 0.000000 0.000000 3.495890 
# 
# 
# High freq. dielectric constant tensor:
#      x y z
#    x 1.764210 0.000000 0.000000 
#    y 0.000000 1.759520 0.000000 
#    z 0.000000 0.000000 1.760370 
# 
# From -- ./inp_files/31611.got.cif
#   From: 2010.06.25/outbox.cif.g09.slc.cpg/sg58_16_cif.got.tgz:31611.got - 2010.06.26 21:38:00.
