data_PCOD8236761
_publ_section_title
;
Structure prediction by ZEFSAII (Michael W. Deem and Ramdas Pophale) SiO2 
 PCOD8236761
Probable space group: P N N M
;
_chemical_formula_sum "Si O2"
_cell_formula_units_Z 64
_cell_length_a 23.480407
_cell_length_b 15.279089
_cell_length_c 9.093952
_cell_angle_alpha 90.000000
_cell_angle_beta 90.000000
_cell_angle_gamma 90.000000
_cell_volume 3262.539202
_symmetry_space_group_name_H-M "P N N M"
_symmetry_group_IT_number 58
_symmetry_cell_setting 'orthorhombic'
loop_
_space_group_symop_operation_xyz
x,y,z
-x,-y,z
1/2+x,1/2-y,1/2-z
1/2-x,1/2+y,1/2-z
-x,-y,-z
x,y,-z
1/2-x,1/2+y,1/2+z
1/2+x,1/2-y,1/2+z
loop_
_atom_site_type_symbol
_atom_site_label
_atom_site_fract_x
_atom_site_fract_y
_atom_site_fract_z
Si Si1 0.632792 0.900599 0.830183
Si Si2 0.869536 0.894484 0.330180
Si Si3 0.258806 0.655767 0.330517
Si Si4 0.064384 0.255788 0.829800
Si Si5 0.134882 0.425090 0.173621
Si Si6 0.376579 0.407691 0.170496
Si Si7 0.567247 0.746648 0.328309
Si Si8 0.246394 0.851877 0.325868
O O1 0.700576 0.896872 0.810513
O O2 0.605546 0.817186 0.753333
O O3 0.610599 0.989428 0.754902
O O4 0.614785 0.899887 0.000000
O O5 0.863182 0.870720 0.500000
O O6 0.807052 0.893257 0.260349
O O7 0.912937 0.827234 0.258001
O O8 0.894764 0.991749 0.308584
O O9 0.277907 0.659780 0.500000
O O10 0.251525 0.753297 0.265478
O O11 0.096325 0.343294 0.777870
O O12 0.998183 0.269014 0.797505
O O13 0.076989 0.237530 0.000000
O O14 0.199404 0.407615 0.228392
O O15 0.131258 0.441412 0.000000
O O16 0.419685 0.349355 0.264846
O O17 0.312167 0.394421 0.231172
O O18 0.380268 0.379007 0.000000
O O19 0.581647 0.748553 0.500000
O O20 0.246355 0.849073 0.500000
#
# Coordination Sequence:
#
# PCOD8236761 Si02
#       8
#     8   8   8   8   8   8   8   8
#     4  11  23  39  61  89 123 157 189 239 301 353
#     4  11  23  37  61  93 121 152 194 244 293 351
#     4  10  19  36  61  86 118 160 194 230 293 358
#     4  10  23  43  63  83 116 160 201 246 297 346
#     4  10  20  38  63  86 114 154 198 241 287 350
#     4  10  21  39  60  87 122 156 191 237 300 356
#     4  11  24  41  62  87 113 153 208 252 288 343
#     4   9  16  33  61  85 113 156 193 229 288 352
#
# _framework density 19.616622
#
# number of rings (size 3 to 8) (size 9 to 14) (size 15 to 20)
#    0.000    1.750    2.500    1.875    0.000    5.500 
#    0.000    5.625    0.000    0.000    0.000    0.000 
#    0.000    0.000    0.000    0.000    0.000    0.000 
#
# Total GULP energy -793830.944416 kJ/mol
# GULP energy per Si atom -12403.608507 kJ/mol
# Density = 1.957197 g / cm^3
# Si number density = 19.616622 Si / 1000 Ang^3
#
#
#
# Elastic Constant Matrix: (Units=GPa)
#
#
# Indices 1 2 3 4 5 6 
#
# 1 58.2693 19.5309 35.5871 0.0000 0.0000 0.0000
# 2 19.5309 116.8582 51.0590 0.0000 0.0000 0.0000
# 3 35.5871 51.0590 84.8941 0.0000 0.0000 0.0000
# 4 0.0000 0.0000 0.0000 36.4830 0.0000 0.0000
# 5 0.0000 0.0000 0.0000 0.0000 26.8751 0.0000
# 6 0.0000 0.0000 0.0000 0.0000 0.0000 11.3758
#
#
#
# Elastic Compliance Matrix: (Units=1/GPa)
#
#
# Indices 1 2 3 4 5 6 
#
# 1 0.023089 0.000502 -0.009981 0.000000 0.000000 0.000000
# 2 0.000502 0.011619 -0.007198 0.000000 0.000000 0.000000
# 3 -0.009981 -0.007198 0.020293 0.000000 0.000000 0.000000
# 4 0.000000 0.000000 0.000000 0.027410 0.000000 0.000000
# 5 0.000000 0.000000 0.000000 0.000000 0.037209 0.000000
# 6 0.000000 0.000000 0.000000 0.000000 0.000000 0.087906
#
#
# Mechanical properties :
#
#
# Convention : Reuss Voigt Hill
#
# Bulk Modulus (GPa) = 46.19773 52.48618 49.34196
# Shear Modulus (GPa) = 20.15356 25.20308 22.67832
#
# Velocity S-wave (km/s) = 3.20874 3.58827 3.40380
# Velocity P-wave (km/s) = 6.10978 6.63187 6.37617
#
# Compressibility (1/GPa) = 0.02164608
#
# Stress axis : x y z
#
# Youngs Moduli (GPa) = 43.31067 86.06817 49.27895
#
# Poissons Ratio (x) = -0.04320 0.49184
# Poissons Ratio (y) = -0.02174 0.35473
# Poissons Ratio (z) = 0.43227 0.61955
#
# Static dielectric constant tensor:
#      x y z
#    x 3.569300 0.000000 0.000000 
#    y 0.000000 3.620660 0.000000 
#    z 0.000000 0.000000 3.427960 
# 
# 
# High freq. dielectric constant tensor:
#      x y z
#    x 1.761410 0.000000 0.000000 
#    y 0.000000 1.776790 0.000000 
#    z 0.000000 0.000000 1.750140 
# 
# From -- ./inp_files/10024.got.cif
#   From: 2010.06.25/outbox.cif.g09.slc.cpg/sg58_6_cif.got.tgz:10024.got - 2010.06.26 21:38:00.
