data_PCOD8236630
_publ_section_title
;
Structure prediction by ZEFSAII (Michael W. Deem and Ramdas Pophale) SiO2 
 PCOD8236630
Probable space group: P N N M
;
_chemical_formula_sum "Si O2"
_cell_formula_units_Z 48
_cell_length_a 14.045338
_cell_length_b 20.265435
_cell_length_c 8.765204
_cell_angle_alpha 90.000000
_cell_angle_beta 90.000000
_cell_angle_gamma 90.000000
_cell_volume 2494.882826
_symmetry_space_group_name_H-M "P N N M"
_symmetry_group_IT_number 58
_symmetry_cell_setting 'orthorhombic'
loop_
_space_group_symop_operation_xyz
x,y,z
-x,-y,z
1/2+x,1/2-y,1/2-z
1/2-x,1/2+y,1/2-z
-x,-y,-z
x,y,-z
1/2-x,1/2+y,1/2+z
1/2+x,1/2-y,1/2+z
loop_
_atom_site_type_symbol
_atom_site_label
_atom_site_fract_x
_atom_site_fract_y
_atom_site_fract_z
Si Si1 0.746989 0.610109 0.180434
Si Si2 0.545343 0.312398 0.177678
Si Si3 0.554253 0.565388 0.320706
Si Si4 0.941059 0.303567 0.174015
Si Si5 0.240680 0.248829 0.673482
Si Si6 0.047258 0.433977 0.819281
O O1 0.658119 0.569191 0.244764
O O2 0.740763 0.686485 0.226917
O O3 0.845325 0.577676 0.242342
O O4 0.742489 0.606696 0.000000
O O5 0.512520 0.374081 0.275998
O O6 0.476930 0.251432 0.210306
O O7 0.650327 0.291896 0.232968
O O8 0.541037 0.330980 0.000000
O O9 0.500000 0.500000 0.264688
O O10 0.570520 0.565729 0.500000
O O11 0.827137 0.302835 0.184115
O O12 0.980178 0.373573 0.231170
O O13 0.975181 0.289049 0.000000
O O14 0.224582 0.272848 0.500000
O O15 0.000000 0.500000 0.748318
O O16 0.050618 0.440034 0.000000
#
# Coordination Sequence:
#
# PCOD8236630 Si02
#       6
#     8   8   8   8   8   8
#     4  11  21  35  61  91 116 152 198 246 295 352
#     4  11  22  36  58  90 119 150 198 249 291 342
#     4  11  25  43  61  83 118 162 200 243 305 365
#     4  10  19  35  58  83 114 157 196 234 290 350
#     4  10  21  35  57  87 121 158 195 240 293 349
#     4   9  19  35  57  87 120 153 193 237 290 352
#
# _framework density 19.239381000000002
#
# number of rings (size 3 to 8) (size 9 to 14) (size 15 to 20)
#    0.000    1.667    3.333    1.500    0.000    3.333 
#    0.000    3.333    0.000    4.500    0.000    0.000 
#    0.000    0.000    0.000    0.000    0.000    0.000 
#
# Total GULP energy -595269.847346 kJ/mol
# GULP energy per Si atom -12401.455153 kJ/mol
# Density = 1.919559 g / cm^3
# Si number density = 19.239381 Si / 1000 Ang^3
#
#
#
# Elastic Constant Matrix: (Units=GPa)
#
#
# Indices 1 2 3 4 5 6 
#
# 1 156.0384 72.6398 29.6268 0.0000 0.0000 0.0000
# 2 72.6398 139.5407 21.3612 0.0000 0.0000 0.0000
# 3 29.6268 21.3612 39.2458 0.0000 0.0000 0.0000
# 4 0.0000 0.0000 0.0000 -12.8711 0.0000 0.0000
# 5 0.0000 0.0000 0.0000 0.0000 19.9997 0.0000
# 6 0.0000 0.0000 0.0000 0.0000 0.0000 31.5292
#
#
#
# Elastic Compliance Matrix: (Units=1/GPa)
#
#
# Indices 1 2 3 4 5 6 
#
# 1 0.009199 -0.004064 -0.004732 0.000000 0.000000 0.000000
# 2 -0.004064 0.009613 -0.002164 0.000000 0.000000 0.000000
# 3 -0.004732 -0.002164 0.030231 0.000000 0.000000 0.000000
# 4 0.000000 0.000000 0.000000 -0.077694 0.000000 0.000000
# 5 0.000000 0.000000 0.000000 0.000000 0.050001 0.000000
# 6 0.000000 0.000000 0.000000 0.000000 0.000000 0.031717
#
#
# Mechanical properties :
#
#
# Convention : Reuss Voigt Hill
#
# Bulk Modulus (GPa) = 36.87100 64.67561 50.77331
# Shear Modulus (GPa) = 59.50245 21.81137 40.65691
#
# Velocity S-wave (km/s) = 5.56728 3.37067 4.60196
# Velocity P-wave (km/s) = 7.78023 6.98841 7.39493
#
# Compressibility (1/GPa) = 0.02712158
#
# Stress axis : x y z
#
# Youngs Moduli (GPa) = 108.70421 104.02092 33.07865
#
# Poissons Ratio (x) = 0.42278 0.15654
# Poissons Ratio (y) = 0.44181 0.07159
# Poissons Ratio (z) = 0.51443 0.22513
#
# Static dielectric constant tensor:
#      x y z
#    x 3.869290 0.000000 0.000000 
#    y 0.000000 4.805340 0.000000 
#    z 0.000000 0.000000 3.367900 
# 
# 
# High freq. dielectric constant tensor:
#      x y z
#    x 1.767730 0.000000 0.000000 
#    y 0.000000 1.741820 0.000000 
#    z 0.000000 0.000000 1.733220 
# 
# From -- ./inp_files/5760.got.cif
#   From: 2010.06.25/outbox.cif.g09.slc.cpg/sg58_3_cif.got.tgz:5760.got - 2010.06.26 21:38:00.
