data_PCOD8236373
_publ_section_title
;
Structure prediction by ZEFSAII (Michael W. Deem and Ramdas Pophale) SiO2 
 PCOD8236373
Probable space group: P N N M
;
_chemical_formula_sum "Si O2"
_cell_formula_units_Z 64
_cell_length_a 29.414776
_cell_length_b 12.191721
_cell_length_c 8.841662
_cell_angle_alpha 90.000000
_cell_angle_beta 90.000000
_cell_angle_gamma 90.000000
_cell_volume 3170.768023
_symmetry_space_group_name_H-M "P N N M"
_symmetry_group_IT_number 58
_symmetry_cell_setting 'orthorhombic'
loop_
_space_group_symop_operation_xyz
x,y,z
-x,-y,z
1/2+x,1/2-y,1/2-z
1/2-x,1/2+y,1/2-z
-x,-y,-z
x,y,-z
1/2-x,1/2+y,1/2+z
1/2+x,1/2-y,1/2+z
loop_
_atom_site_type_symbol
_atom_site_label
_atom_site_fract_x
_atom_site_fract_y
_atom_site_fract_z
Si Si1 0.617673 0.349488 0.177215
Si Si2 0.663294 0.757526 0.321540
Si Si3 0.655002 0.119514 0.821571
Si Si4 0.280881 0.031517 0.325990
Si Si5 0.568531 0.807256 0.825638
Si Si6 0.528863 0.238001 0.825758
Si Si7 0.430938 0.970544 0.678058
Si Si8 0.318661 0.466448 0.825310
O O1 0.645922 0.243404 0.234543
O O2 0.563966 0.336391 0.219333
O O3 0.639798 0.460435 0.244708
O O4 0.625063 0.358681 0.000000
O O5 0.661803 0.757987 0.500000
O O6 0.694711 0.858154 0.263417
O O7 0.611606 0.761873 0.263285
O O8 0.686065 0.645575 0.266163
O O9 0.620771 0.039522 0.733174
O O10 0.704129 0.075176 0.771529
O O11 0.647674 0.108687 0.000000
O O12 0.294153 0.012072 0.500000
O O13 0.226670 0.039988 0.306620
O O14 0.524080 0.727059 0.806371
O O15 0.550009 0.922179 0.761246
O O16 0.582401 0.818319 0.000000
O O17 0.539466 0.134176 0.721603
O O18 0.538939 0.204609 0.000000
O O19 0.433069 0.989560 0.500000
O O20 0.327257 0.435726 0.000000
#
# Coordination Sequence:
#
# PCOD8236373 Si02
#       8
#     8   8   8   8   8   8   8   8
#     4   8  17  36  60  84 111 148 193 243 288 336
#     4  11  24  41  60  86 122 155 193 243 297 352
#     4  10  19  33  58  85 113 152 196 238 286 346
#     4  10  22  38  58  85 117 150 187 240 296 350
#     4  11  21  35  57  83 114 154 200 248 294 348
#     4   9  19  35  56  84 115 151 201 249 292 350
#     4  11  20  31  50  81 122 158 188 234 295 354
#     4  10  22  41  63  84 113 153 197 240 291 353
#
# _framework density 20.184384999999999
#
# number of rings (size 3 to 8) (size 9 to 14) (size 15 to 20)
#    0.000    2.000    1.250    3.375    1.750    3.500 
#    0.000    3.750    0.000    3.750    0.000    0.000 
#    0.000    0.000    0.000    0.000    0.000    0.000 
#
# Total GULP energy -793301.564877 kJ/mol
# GULP energy per Si atom -12395.336951 kJ/mol
# Density = 2.013844 g / cm^3
# Si number density = 20.184385 Si / 1000 Ang^3
#
#
#
# Elastic Constant Matrix: (Units=GPa)
#
#
# Indices 1 2 3 4 5 6 
#
# 1 103.7307 36.6924 25.4785 0.0000 0.0000 0.0000
# 2 36.6924 79.3750 26.4692 0.0000 0.0000 0.0000
# 3 25.4785 26.4692 58.4192 0.0000 0.0000 0.0000
# 4 0.0000 0.0000 0.0000 21.6547 0.0000 0.0000
# 5 0.0000 0.0000 0.0000 0.0000 26.3926 0.0000
# 6 0.0000 0.0000 0.0000 0.0000 0.0000 23.3468
#
#
#
# Elastic Compliance Matrix: (Units=1/GPa)
#
#
# Indices 1 2 3 4 5 6 
#
# 1 0.012014 -0.004484 -0.003208 0.000000 0.000000 0.000000
# 2 -0.004484 0.016514 -0.005527 0.000000 0.000000 0.000000
# 3 -0.003208 -0.005527 0.021021 0.000000 0.000000 0.000000
# 4 0.000000 0.000000 0.000000 0.046179 0.000000 0.000000
# 5 0.000000 0.000000 0.000000 0.000000 0.037889 0.000000
# 6 0.000000 0.000000 0.000000 0.000000 0.000000 0.042832
#
#
# Mechanical properties :
#
#
# Convention : Reuss Voigt Hill
#
# Bulk Modulus (GPa) = 43.26833 46.53389 44.90111
# Shear Modulus (GPa) = 23.74248 24.47115 24.10681
#
# Velocity S-wave (km/s) = 3.43341 3.48570 3.45966
# Velocity P-wave (km/s) = 6.09925 6.26934 6.18488
#
# Compressibility (1/GPa) = 0.02311159
#
# Stress axis : x y z
#
# Youngs Moduli (GPa) = 83.23293 60.55358 47.57138
#
# Poissons Ratio (x) = 0.27152 0.15262
# Poissons Ratio (y) = 0.37322 0.26292
# Poissons Ratio (z) = 0.26703 0.33467
#
# Static dielectric constant tensor:
#      x y z
#    x 3.880050 0.000000 0.000000 
#    y 0.000000 3.583710 0.000000 
#    z 0.000000 0.000000 3.473420 
# 
# 
# High freq. dielectric constant tensor:
#      x y z
#    x 1.800120 0.000000 0.000000 
#    y 0.000000 1.765410 0.000000 
#    z 0.000000 0.000000 1.770890 
# 
# From -- ./inp_files/10999.got.cif
#   From: 2010.06.25/outbox.cif.g09.slc.cpg/sg58_6_cif.got.tgz:10999.got - 2010.06.26 21:38:00.
