data_PCOD8236971
_publ_section_title
;
Structure prediction by ZEFSAII (Michael W. Deem and Ramdas Pophale) SiO2 
 PCOD8236971
Probable space group: P N N M
;
_chemical_formula_sum "Si O2"
_cell_formula_units_Z 64
_cell_length_a 24.593848
_cell_length_b 14.254984
_cell_length_c 9.273325
_cell_angle_alpha 90.000000
_cell_angle_beta 90.000000
_cell_angle_gamma 90.000000
_cell_volume 3251.087808
_symmetry_space_group_name_H-M "P N N M"
_symmetry_group_IT_number 58
_symmetry_cell_setting 'orthorhombic'
loop_
_space_group_symop_operation_xyz
x,y,z
-x,-y,z
1/2+x,1/2-y,1/2-z
1/2-x,1/2+y,1/2-z
-x,-y,-z
x,y,-z
1/2-x,1/2+y,1/2+z
1/2+x,1/2-y,1/2+z
loop_
_atom_site_type_symbol
_atom_site_label
_atom_site_fract_x
_atom_site_fract_y
_atom_site_fract_z
Si Si1 0.062822 0.978410 0.170349
Si Si2 0.393800 0.644825 0.837951
Si Si3 0.095817 0.790304 0.670660
Si Si4 0.671983 0.017463 0.666731
Si Si5 0.194914 0.294469 0.332930
Si Si6 0.482535 0.785827 0.157701
Si Si7 0.948276 0.552004 0.833006
Si Si8 0.192688 0.691108 0.832657
O O1 0.084443 0.886099 0.247227
O O2 0.103806 0.058644 0.227694
O O3 0.070489 0.967854 0.000000
O O4 0.000000 0.000000 0.209318
O O5 0.352451 0.724414 0.778690
O O6 0.455233 0.683670 0.844459
O O7 0.375790 0.612759 0.000000
O O8 0.102023 0.809427 0.500000
O O9 0.148710 0.739554 0.731170
O O10 0.045158 0.722042 0.704008
O O11 0.681015 0.042351 0.500000
O O12 0.700605 0.919079 0.708319
O O13 0.695551 0.105218 0.754033
O O14 0.608126 0.000409 0.700691
O O15 0.185868 0.316786 0.500000
O O16 0.251353 0.243272 0.302259
O O17 0.446538 0.844828 0.267766
O O18 0.478275 0.832730 0.000000
O O19 0.000000 0.500000 0.760850
O O20 0.958925 0.564029 0.000000
O O21 0.174639 0.699194 0.000000
#
# Coordination Sequence:
#
# PCOD8236971 Si02
#       8
#     8   8   8   8   8   8   8   8
#     4  11  23  37  58  89 124 163 203 247 301 359
#     4  10  20  37  59  85 119 157 198 246 299 355
#     4  11  23  39  60  87 120 160 202 248 302 358
#     4  10  21  38  61  88 121 157 196 244 298 355
#     4  10  22  41  65  89 118 157 201 249 298 351
#     4  10  20  34  55  83 116 152 191 239 294 354
#     4  10  20  33  53  83 117 155 194 238 294 354
#     4  10  23  43  63  87 120 158 200 248 299 352
#
# _framework density 19.685718999999999
#
# number of rings (size 3 to 8) (size 9 to 14) (size 15 to 20)
#    0.000    1.750    2.500    1.500    0.000    5.750 
#    0.000    1.250    0.000    0.000    0.000    0.000 
#    0.000    0.000    0.000    0.000    0.000    0.000 
#
# Total GULP energy -793459.062448 kJ/mol
# GULP energy per Si atom -12397.797851 kJ/mol
# Density = 1.964091 g / cm^3
# Si number density = 19.685719 Si / 1000 Ang^3
#
#
#
# Elastic Constant Matrix: (Units=GPa)
#
#
# Indices 1 2 3 4 5 6 
#
# 1 90.0476 49.1092 48.2531 0.0000 0.0000 0.0000
# 2 49.1092 131.6518 63.0448 0.0000 0.0000 0.0000
# 3 48.2531 63.0448 70.8436 0.0000 0.0000 0.0000
# 4 0.0000 0.0000 0.0000 37.1798 0.0000 0.0000
# 5 0.0000 0.0000 0.0000 0.0000 33.0659 0.0000
# 6 0.0000 0.0000 0.0000 0.0000 0.0000 28.9798
#
#
#
# Elastic Compliance Matrix: (Units=1/GPa)
#
#
# Indices 1 2 3 4 5 6 
#
# 1 0.017644 -0.001440 -0.010736 0.000000 0.000000 0.000000
# 2 -0.001440 0.013354 -0.010903 0.000000 0.000000 0.000000
# 3 -0.010736 -0.010903 0.031131 0.000000 0.000000 0.000000
# 4 0.000000 0.000000 0.000000 0.026896 0.000000 0.000000
# 5 0.000000 0.000000 0.000000 0.000000 0.030243 0.000000
# 6 0.000000 0.000000 0.000000 0.000000 0.000000 0.034507
#
#
# Mechanical properties :
#
#
# Convention : Reuss Voigt Hill
#
# Bulk Modulus (GPa) = 62.61600 68.15082 65.38341
# Shear Modulus (GPa) = 24.35981 28.65415 26.50698
#
# Velocity S-wave (km/s) = 3.52154 3.81935 3.67346
# Velocity P-wave (km/s) = 6.95786 7.35829 7.16088
#
# Compressibility (1/GPa) = 0.01597036
#
# Stress axis : x y z
#
# Youngs Moduli (GPa) = 56.67777 74.88189 32.12268
#
# Poissons Ratio (x) = 0.10787 0.34485
# Poissons Ratio (y) = 0.08164 0.35024
# Poissons Ratio (z) = 0.60847 0.81645
#
# Static dielectric constant tensor:
#      x y z
#    x 3.621560 0.000000 0.000000 
#    y 0.000000 3.569330 0.000000 
#    z 0.000000 0.000000 3.538980 
# 
# 
# High freq. dielectric constant tensor:
#      x y z
#    x 1.766530 0.000000 0.000000 
#    y 0.000000 1.769440 0.000000 
#    z 0.000000 0.000000 1.762410 
# 
# From -- ./inp_files/9957.got.cif
#   From: 2010.06.25/outbox.cif.g09.slc.cpg/sg58_5_cif.got.tgz:9957.got - 2010.06.26 21:38:00.
