data_PCOD8236755
_publ_section_title
;
Structure prediction by ZEFSAII (Michael W. Deem and Ramdas Pophale) SiO2 
 PCOD8236755
Probable space group: P N N M
;
_chemical_formula_sum "Si O2"
_cell_formula_units_Z 48
_cell_length_a 13.943545
_cell_length_b 18.634522
_cell_length_c 9.210131
_cell_angle_alpha 90.000000
_cell_angle_beta 90.000000
_cell_angle_gamma 90.000000
_cell_volume 2393.080275
_symmetry_space_group_name_H-M "P N N M"
_symmetry_group_IT_number 58
_symmetry_cell_setting 'orthorhombic'
loop_
_space_group_symop_operation_xyz
x,y,z
-x,-y,z
1/2+x,1/2-y,1/2-z
1/2-x,1/2+y,1/2-z
-x,-y,-z
x,y,-z
1/2-x,1/2+y,1/2+z
1/2+x,1/2-y,1/2+z
loop_
_atom_site_type_symbol
_atom_site_label
_atom_site_fract_x
_atom_site_fract_y
_atom_site_fract_z
Si Si1 0.654281 0.007111 0.830797
Si Si2 0.956077 0.888438 0.171465
Si Si3 0.171520 0.218010 0.667378
Si Si4 0.134591 0.642948 0.827600
Si Si5 0.636230 0.533544 0.330489
Si Si6 0.947675 0.649730 0.333225
O O1 0.753704 0.047545 0.791093
O O2 0.573010 0.066044 0.796497
O O3 0.644572 0.937296 0.733097
O O4 0.652347 0.984092 0.000000
O O5 0.915555 0.819326 0.250033
O O6 0.066788 0.901856 0.222651
O O7 0.895052 0.956129 0.230578
O O8 0.946524 0.875835 0.000000
O O9 0.165288 0.196545 0.500000
O O10 0.276544 0.193453 0.724752
O O11 0.148738 0.302587 0.692119
O O12 0.036187 0.676449 0.765467
O O13 0.127848 0.640078 0.000000
O O14 0.617722 0.528143 0.500000
O O15 0.980041 0.656279 0.500000
#
# Coordination Sequence:
#
# PCOD8236755 Si02
#       6
#     8   8   8   8   8   8
#     4  10  19  36  61  84 110 150 193 232 274 328
#     4   9  16  30  54  83 111 143 186 230 270 324
#     4  10  22  39  56  81 116 151 184 228 288 341
#     4  11  23  39  60  85 114 146 182 233 289 334
#     4   8  15  28  52  85 111 137 184 234 269 316
#     4  10  23  40  58  81 111 149 193 231 270 333
#
# _framework density 20.057831
#
# number of rings (size 3 to 8) (size 9 to 14) (size 15 to 20)
#    0.000    2.333    1.667    2.000    0.000    5.333 
#    0.000    5.833    0.000    0.000    0.000    0.000 
#    0.000    0.000    0.000    0.000    0.000    0.000 
#
# Total GULP energy -594851.771101 kJ/mol
# GULP energy per Si atom -12392.745231 kJ/mol
# Density = 2.001218 g / cm^3
# Si number density = 20.057831 Si / 1000 Ang^3
#
#
#
# Elastic Constant Matrix: (Units=GPa)
#
#
# Indices 1 2 3 4 5 6 
#
# 1 116.0369 40.8862 39.4455 0.0000 0.0000 0.0000
# 2 40.8862 87.5303 34.2153 0.0000 0.0000 0.0000
# 3 39.4455 34.2153 52.0997 0.0000 0.0000 0.0000
# 4 0.0000 0.0000 0.0000 21.9997 0.0000 0.0000
# 5 0.0000 0.0000 0.0000 0.0000 -17.3461 0.0000
# 6 0.0000 0.0000 0.0000 0.0000 0.0000 30.5601
#
#
#
# Elastic Compliance Matrix: (Units=1/GPa)
#
#
# Indices 1 2 3 4 5 6 
#
# 1 0.012089 -0.002784 -0.007324 0.000000 0.000000 0.000000
# 2 -0.002784 0.016011 -0.008408 0.000000 0.000000 0.000000
# 3 -0.007324 -0.008408 0.030261 0.000000 0.000000 0.000000
# 4 0.000000 0.000000 0.000000 0.045455 0.000000 0.000000
# 5 0.000000 0.000000 0.000000 0.000000 -0.057650 0.000000
# 6 0.000000 0.000000 0.000000 0.000000 0.000000 0.032722
#
#
# Mechanical properties :
#
#
# Convention : Reuss Voigt Hill
#
# Bulk Modulus (GPa) = 46.88307 53.86230 50.37269
# Shear Modulus (GPa) = 40.64067 16.45075 28.54571
#
# Velocity S-wave (km/s) = 4.50619 2.86696 3.77659
# Velocity P-wave (km/s) = 7.10627 6.15395 6.64718
#
# Compressibility (1/GPa) = 0.02132966
#
# Stress axis : x y z
#
# Youngs Moduli (GPa) = 82.72242 62.45562 33.04598
#
# Poissons Ratio (x) = 0.17385 0.24204
# Poissons Ratio (y) = 0.23027 0.27784
# Poissons Ratio (z) = 0.60589 0.52510
#
# Static dielectric constant tensor:
#      x y z
#    x 4.005790 0.000000 0.000000 
#    y 0.000000 3.572880 0.000000 
#    z 0.000000 0.000000 3.319070 
# 
# 
# High freq. dielectric constant tensor:
#      x y z
#    x 1.798430 0.000000 0.000000 
#    y 0.000000 1.774640 0.000000 
#    z 0.000000 0.000000 1.748440 
# 
# From -- ./inp_files/5823.got.cif
#   From: 2010.06.25/outbox.cif.g09.slc.cpg/sg58_3_cif.got.tgz:5823.got - 2010.06.26 21:38:00.
