data_PCOD8236416
_publ_section_title
;
Structure prediction by ZEFSAII (Michael W. Deem and Ramdas Pophale) SiO2 
 PCOD8236416
Probable space group: P N N M
;
_chemical_formula_sum "Si O2"
_cell_formula_units_Z 64
_cell_length_a 25.290699
_cell_length_b 14.461529
_cell_length_c 9.190804
_cell_angle_alpha 90.000000
_cell_angle_beta 90.000000
_cell_angle_gamma 90.000000
_cell_volume 3361.464664
_symmetry_space_group_name_H-M "P N N M"
_symmetry_group_IT_number 58
_symmetry_cell_setting 'orthorhombic'
loop_
_space_group_symop_operation_xyz
x,y,z
-x,-y,z
1/2+x,1/2-y,1/2-z
1/2-x,1/2+y,1/2-z
-x,-y,-z
x,y,-z
1/2-x,1/2+y,1/2+z
1/2+x,1/2-y,1/2+z
loop_
_atom_site_type_symbol
_atom_site_label
_atom_site_fract_x
_atom_site_fract_y
_atom_site_fract_z
Si Si1 0.110514 0.784645 0.327597
Si Si2 0.224205 0.854641 0.326944
Si Si3 0.369187 0.102696 0.670135
Si Si4 0.426841 0.756510 0.172202
Si Si5 0.008424 0.896646 0.672678
Si Si6 0.807193 0.770292 0.332546
Si Si7 0.255314 0.051999 0.332576
Si Si8 0.051072 0.442994 0.168121
O O1 0.109108 0.771097 0.500000
O O2 0.166335 0.825057 0.271802
O O3 0.101191 0.684880 0.254714
O O4 0.064726 0.855110 0.276206
O O5 0.225612 0.853199 0.500000
O O6 0.268785 0.787442 0.268310
O O7 0.236851 0.955866 0.261403
O O8 0.370023 0.128380 0.500000
O O9 0.309787 0.091759 0.735100
O O10 0.397793 0.005515 0.700109
O O11 0.461745 0.670481 0.229542
O O12 0.366755 0.741200 0.222949
O O13 0.448248 0.850885 0.238082
O O14 0.431186 0.764143 0.000000
O O15 0.006642 0.902215 0.500000
O O16 0.000000 0.000000 0.737821
O O17 0.800397 0.739091 0.500000
O O18 0.792779 0.877530 0.312914
O O19 0.268505 0.032816 0.500000
O O20 0.000000 0.500000 0.216114
O O21 0.047954 0.414154 0.000000
#
# Coordination Sequence:
#
# PCOD8236416 Si02
#       8
#     8   8   8   8   8   8   8   8
#     4  10  20  33  54  82 108 135 174 224 270 310
#     4  10  20  34  54  80 107 140 179 221 268 316
#     4  10  19  34  55  76 104 144 178 211 264 323
#     4  10  21  35  55  82 109 142 180 224 276 318
#     4   9  19  35  55  80 109 141 179 222 266 318
#     4  10  20  35  54  78 108 141 178 219 265 320
#     4   9  18  32  51  73 101 138 176 211 256 319
#     4  10  21  36  56  81 107 141 182 220 265 324
#
# _framework density 19.039318999999999
#
# number of rings (size 3 to 8) (size 9 to 14) (size 15 to 20)
#    0.000    2.250    1.250    1.500    1.750    2.250 
#    0.000    1.250    0.000    1.500    0.000    0.000 
#    0.000    0.000    0.000    0.000    0.000    0.000 
#
# Total GULP energy -793643.834802 kJ/mol
# GULP energy per Si atom -12400.684919 kJ/mol
# Density = 1.899598 g / cm^3
# Si number density = 19.039319 Si / 1000 Ang^3
#
#
#
# Elastic Constant Matrix: (Units=GPa)
#
#
# Indices 1 2 3 4 5 6 
#
# 1 144.9450 61.8197 22.8452 0.0000 0.0000 0.0000
# 2 61.8197 135.1521 25.8039 0.0000 0.0000 0.0000
# 3 22.8452 25.8039 19.1257 0.0000 0.0000 0.0000
# 4 0.0000 0.0000 0.0000 20.2499 0.0000 0.0000
# 5 0.0000 0.0000 0.0000 0.0000 20.8355 0.0000
# 6 0.0000 0.0000 0.0000 0.0000 0.0000 33.1090
#
#
#
# Elastic Compliance Matrix: (Units=1/GPa)
#
#
# Indices 1 2 3 4 5 6 
#
# 1 0.009252 -0.002858 -0.007195 0.000000 0.000000 0.000000
# 2 -0.002858 0.010849 -0.011223 0.000000 0.000000 0.000000
# 3 -0.007195 -0.011223 0.076023 0.000000 0.000000 0.000000
# 4 0.000000 0.000000 0.000000 0.049383 0.000000 0.000000
# 5 0.000000 0.000000 0.000000 0.000000 0.047995 0.000000
# 6 0.000000 0.000000 0.000000 0.000000 0.000000 0.030203
#
#
# Mechanical properties :
#
#
# Convention : Reuss Voigt Hill
#
# Bulk Modulus (GPa) = 18.66707 57.79559 38.23133
# Shear Modulus (GPa) = 17.59842 27.42249 22.51045
#
# Velocity S-wave (km/s) = 3.04356 3.79926 3.44221
# Velocity P-wave (km/s) = 4.70922 7.04753 5.99351
#
# Compressibility (1/GPa) = 0.05357027
#
# Stress axis : x y z
#
# Youngs Moduli (GPa) = 108.08085 92.17168 13.15396
#
# Poissons Ratio (x) = 0.26346 0.09465
# Poissons Ratio (y) = 0.30893 0.14763
# Poissons Ratio (z) = 0.77768 1.03448
#
# Static dielectric constant tensor:
#      x y z
#    x 3.751180 0.000000 0.000000 
#    y 0.000000 3.620760 0.000000 
#    z 0.000000 0.000000 3.101670 
# 
# 
# High freq. dielectric constant tensor:
#      x y z
#    x 1.756610 0.000000 0.000000 
#    y 0.000000 1.751370 0.000000 
#    z 0.000000 0.000000 1.698550 
# 
# From -- ./inp_files/9966.got.cif
#   From: 2010.06.25/outbox.cif.g09.slc.cpg/sg58_5_cif.got.tgz:9966.got - 2010.06.26 21:38:00.
