data_PCOD8236168
_publ_section_title
;
Structure prediction by ZEFSAII (Michael W. Deem and Ramdas Pophale) SiO2 
 PCOD8236168
Probable space group: P N N M
;
_chemical_formula_sum "Si O2"
_cell_formula_units_Z 64
_cell_length_a 27.539436
_cell_length_b 12.719469
_cell_length_c 9.444526
_cell_angle_alpha 90.000000
_cell_angle_beta 90.000000
_cell_angle_gamma 90.000000
_cell_volume 3308.294702
_symmetry_space_group_name_H-M "P N N M"
_symmetry_group_IT_number 58
_symmetry_cell_setting 'orthorhombic'
loop_
_space_group_symop_operation_xyz
x,y,z
-x,-y,z
1/2+x,1/2-y,1/2-z
1/2-x,1/2+y,1/2-z
-x,-y,-z
x,y,-z
1/2-x,1/2+y,1/2+z
1/2+x,1/2-y,1/2+z
loop_
_atom_site_type_symbol
_atom_site_label
_atom_site_fract_x
_atom_site_fract_y
_atom_site_fract_z
Si Si1 0.634465 0.126332 0.157020
Si Si2 0.446771 0.037278 0.167849
Si Si3 0.159955 0.059987 0.838001
Si Si4 0.410148 0.233631 0.338965
Si Si5 0.503562 0.619472 0.339526
Si Si6 0.714330 0.223454 0.335260
Si Si7 0.918537 0.844813 0.343646
Si Si8 0.807568 0.170208 0.164933
O O1 0.679579 0.134826 0.264759
O O2 0.611287 0.239427 0.143935
O O3 0.594168 0.046020 0.215935
O O4 0.652723 0.091147 0.000000
O O5 0.432684 0.146978 0.237231
O O6 0.500000 0.000000 0.220932
O O7 0.447420 0.051685 0.000000
O O8 0.195353 0.158370 0.812061
O O9 0.111978 0.068438 0.742450
O O10 0.187565 0.953024 0.797674
O O11 0.142048 0.055685 0.000000
O O12 0.411834 0.191569 0.500000
O O13 0.441872 0.339220 0.323428
O O14 0.355945 0.265435 0.295291
O O15 0.500000 0.500000 0.288212
O O16 0.484858 0.631793 0.500000
O O17 0.467986 0.684621 0.237536
O O18 0.718866 0.195292 0.500000
O O19 0.766302 0.219846 0.261705
O O20 0.929834 0.889517 0.500000
O O21 0.794445 0.184746 0.000000
#
# Coordination Sequence:
#
# PCOD8236168 Si02
#       8
#     8   8   8   8   8   8   8   8
#     4   9  19  36  56  78 107 145 183 219 271 333
#     4  10  21  38  59  82 114 155 191 227 278 339
#     4   9  19  37  58  78 106 145 181 215 267 334
#     4  10  22  37  55  82 111 143 185 229 272 324
#     4  10  20  35  54  75 105 144 178 209 258 325
#     4  10  21  36  57  85 110 138 186 240 280 322
#     4  10  19  32  54  82 107 132 172 224 266 305
#     4  10  21  39  59  78 109 149 183 221 277 338
#
# _framework density 19.345314999999999
#
# number of rings (size 3 to 8) (size 9 to 14) (size 15 to 20)
#    0.000    2.250    0.000    2.250    0.000    7.500 
#    0.000    5.000    0.000    0.000    0.000    0.000 
#    0.000    0.000    0.000    0.000    0.000    0.000 
#
# Total GULP energy -793649.260378 kJ/mol
# GULP energy per Si atom -12400.769693 kJ/mol
# Density = 1.930128 g / cm^3
# Si number density = 19.345315 Si / 1000 Ang^3
#
#
#
# Elastic Constant Matrix: (Units=GPa)
#
#
# Indices 1 2 3 4 5 6 
#
# 1 135.6998 36.7296 64.2919 0.0000 0.0000 0.0000
# 2 36.7296 78.9762 33.1480 0.0000 0.0000 0.0000
# 3 64.2919 33.1480 90.0360 0.0000 0.0000 0.0000
# 4 0.0000 0.0000 0.0000 24.4559 0.0000 0.0000
# 5 0.0000 0.0000 0.0000 0.0000 27.9812 0.0000
# 6 0.0000 0.0000 0.0000 0.0000 0.0000 25.4565
#
#
#
# Elastic Compliance Matrix: (Units=1/GPa)
#
#
# Indices 1 2 3 4 5 6 
#
# 1 0.011463 -0.002242 -0.007360 0.000000 0.000000 0.000000
# 2 -0.002242 0.015415 -0.004074 0.000000 0.000000 0.000000
# 3 -0.007360 -0.004074 0.017862 0.000000 0.000000 0.000000
# 4 0.000000 0.000000 0.000000 0.040890 0.000000 0.000000
# 5 0.000000 0.000000 0.000000 0.000000 0.035738 0.000000
# 6 0.000000 0.000000 0.000000 0.000000 0.000000 0.039283
#
#
# Mechanical properties :
#
#
# Convention : Reuss Voigt Hill
#
# Bulk Modulus (GPa) = 57.51223 63.67231 60.59227
# Shear Modulus (GPa) = 25.79989 26.94822 26.37406
#
# Velocity S-wave (km/s) = 3.65588 3.73635 3.69634
# Velocity P-wave (km/s) = 6.90032 7.18323 7.04320
#
# Compressibility (1/GPa) = 0.01738761
#
# Stress axis : x y z
#
# Youngs Moduli (GPa) = 87.23676 64.87289 55.98417
#
# Poissons Ratio (x) = 0.14544 0.41204
# Poissons Ratio (y) = 0.19558 0.22809
# Poissons Ratio (z) = 0.64206 0.26431
#
# Static dielectric constant tensor:
#      x y z
#    x 3.598400 0.000000 0.000000 
#    y 0.000000 3.452260 0.000000 
#    z 0.000000 0.000000 3.698330 
# 
# 
# High freq. dielectric constant tensor:
#      x y z
#    x 1.757700 0.000000 0.000000 
#    y 0.000000 1.744740 0.000000 
#    z 0.000000 0.000000 1.752410 
# 
# From -- ./inp_files/11021.got.cif
#   From: 2010.06.25/outbox.cif.g09.slc.cpg/sg58_6_cif.got.tgz:11021.got - 2010.06.26 21:38:00.
