data_PCOD8236250
_publ_section_title
;
Structure prediction by ZEFSAII (Michael W. Deem and Ramdas Pophale) SiO2 
 PCOD8236250
Probable space group: P N N M
;
_chemical_formula_sum "Si O2"
_cell_formula_units_Z 64
_cell_length_a 18.538762
_cell_length_b 19.774798
_cell_length_c 9.252559
_cell_angle_alpha 90.000000
_cell_angle_beta 90.000000
_cell_angle_gamma 90.000000
_cell_volume 3391.990662
_symmetry_space_group_name_H-M "P N N M"
_symmetry_group_IT_number 58
_symmetry_cell_setting 'orthorhombic'
loop_
_space_group_symop_operation_xyz
x,y,z
-x,-y,z
1/2+x,1/2-y,1/2-z
1/2-x,1/2+y,1/2-z
-x,-y,-z
x,y,-z
1/2-x,1/2+y,1/2+z
1/2+x,1/2-y,1/2+z
loop_
_atom_site_type_symbol
_atom_site_label
_atom_site_fract_x
_atom_site_fract_y
_atom_site_fract_z
Si Si1 0.511195 0.301785 0.167176
Si Si2 0.249383 0.384014 0.667897
Si Si3 0.940770 0.947519 0.328129
Si Si4 0.406601 0.831192 0.164194
Si Si5 0.833297 0.373181 0.170524
Si Si6 0.865025 0.225100 0.170209
Si Si7 0.014456 0.575372 0.171449
Si Si8 0.218645 0.019428 0.672269
O O1 0.539734 0.372991 0.229426
O O2 0.574910 0.247559 0.189379
O O3 0.441361 0.278167 0.252674
O O4 0.489362 0.309122 0.000000
O O5 0.256456 0.403305 0.500000
O O6 0.177364 0.341388 0.698329
O O7 0.315835 0.337455 0.718878
O O8 0.248548 0.451510 0.761728
O O9 0.939590 0.947822 0.500000
O O10 0.862407 0.969278 0.269656
O O11 0.000000 0.000000 0.267634
O O12 0.452293 0.876836 0.270579
O O13 0.424728 0.852302 0.000000
O O14 0.824854 0.294771 0.215681
O O15 0.908344 0.401644 0.234357
O O16 0.766429 0.417420 0.229088
O O17 0.835326 0.380980 0.000000
O O18 0.879311 0.224678 0.000000
O O19 0.000000 0.500000 0.226952
O O20 0.012267 0.580092 0.000000
O O21 0.220906 0.012840 0.500000
#
# Coordination Sequence:
#
# PCOD8236250 Si02
#       8
#     8   8   8   8   8   8   8   8
#     4  10  20  35  56  82 111 140 180 227 271 322
#     4  10  22  37  54  78 111 145 178 220 274 331
#     4   9  18  32  54  83 110 136 174 229 278 315
#     4  10  21  35  52  79 110 144 178 215 269 326
#     4   9  18  32  52  79 105 137 179 221 263 313
#     4  10  20  36  57  78 107 146 184 220 268 325
#     4  10  19  33  54  78 105 136 177 222 260 307
#     4  10  20  36  59  82 106 141 185 228 272 320
#
# _framework density 18.867975000000001
#
# number of rings (size 3 to 8) (size 9 to 14) (size 15 to 20)
#    0.000    2.250    1.250    1.500    1.750    3.250 
#    0.000    1.875    0.000    2.250    0.000    0.000 
#    0.000    0.000    0.000    0.000    0.000    0.000 
#
# Total GULP energy -793670.665613 kJ/mol
# GULP energy per Si atom -12401.104150 kJ/mol
# Density = 1.882503 g / cm^3
# Si number density = 18.867975 Si / 1000 Ang^3
#
#
#
# Elastic Constant Matrix: (Units=GPa)
#
#
# Indices 1 2 3 4 5 6 
#
# 1 115.7352 49.7432 25.6078 0.0000 0.0000 0.0000
# 2 49.7432 144.0287 30.0728 0.0000 0.0000 0.0000
# 3 25.6078 30.0728 23.2498 0.0000 0.0000 0.0000
# 4 0.0000 0.0000 0.0000 15.2093 0.0000 0.0000
# 5 0.0000 0.0000 0.0000 0.0000 18.0622 0.0000
# 6 0.0000 0.0000 0.0000 0.0000 0.0000 42.1732
#
#
#
# Elastic Compliance Matrix: (Units=1/GPa)
#
#
# Indices 1 2 3 4 5 6 
#
# 1 0.011778 -0.001862 -0.010564 0.000000 0.000000 0.000000
# 2 -0.001862 0.009806 -0.010633 0.000000 0.000000 0.000000
# 3 -0.010564 -0.010633 0.068401 0.000000 0.000000 0.000000
# 4 0.000000 0.000000 0.000000 0.065749 0.000000 0.000000
# 5 0.000000 0.000000 0.000000 0.000000 0.055364 0.000000
# 6 0.000000 0.000000 0.000000 0.000000 0.000000 0.023712
#
#
# Mechanical properties :
#
#
# Convention : Reuss Voigt Hill
#
# Bulk Modulus (GPa) = 22.79672 54.87349 38.83511
# Shear Modulus (GPa) = 16.91754 26.92829 21.92292
#
# Velocity S-wave (km/s) = 2.99762 3.78192 3.41238
# Velocity P-wave (km/s) = 4.90810 6.94382 6.01274
#
# Compressibility (1/GPa) = 0.04386595
#
# Stress axis : x y z
#
# Youngs Moduli (GPa) = 84.90282 101.97459 14.61978
#
# Poissons Ratio (x) = 0.18988 0.15445
# Poissons Ratio (y) = 0.15809 0.15546
# Poissons Ratio (z) = 0.89693 1.08433
#
# Static dielectric constant tensor:
#      x y z
#    x 3.631890 0.000000 0.000000 
#    y 0.000000 3.708410 0.000000 
#    z 0.000000 0.000000 3.099820 
# 
# 
# High freq. dielectric constant tensor:
#      x y z
#    x 1.743130 0.000000 0.000000 
#    y 0.000000 1.749650 0.000000 
#    z 0.000000 0.000000 1.693750 
# 
# From -- ./inp_files/8255.got.cif
#   From: 2010.06.25/outbox.cif.g09.slc.cpg/sg58_5_cif.got.tgz:8255.got - 2010.06.26 21:38:00.
