data_PCOD8236330
_publ_section_title
;
Structure prediction by ZEFSAII (Michael W. Deem and Ramdas Pophale) SiO2 
 PCOD8236330
Probable space group: P N N M
;
_chemical_formula_sum "Si O2"
_cell_formula_units_Z 64
_cell_length_a 33.827186
_cell_length_b 11.714537
_cell_length_c 8.892911
_cell_angle_alpha 90.000000
_cell_angle_beta 90.000000
_cell_angle_gamma 90.000000
_cell_volume 3523.992259
_symmetry_space_group_name_H-M "P N N M"
_symmetry_group_IT_number 58
_symmetry_cell_setting 'orthorhombic'
loop_
_space_group_symop_operation_xyz
x,y,z
-x,-y,z
1/2+x,1/2-y,1/2-z
1/2-x,1/2+y,1/2-z
-x,-y,-z
x,y,-z
1/2-x,1/2+y,1/2+z
1/2+x,1/2-y,1/2+z
loop_
_atom_site_type_symbol
_atom_site_label
_atom_site_fract_x
_atom_site_fract_y
_atom_site_fract_z
Si Si1 0.227872 0.190211 0.327020
Si Si2 0.949391 0.112844 0.177961
Si Si3 0.674766 0.096901 0.175100
Si Si4 0.963843 0.859358 0.822794
Si Si5 0.316601 0.142264 0.325002
Si Si6 0.369950 0.323918 0.177367
Si Si7 0.612418 0.242208 0.327305
Si Si8 0.832879 0.958895 0.828295
O O1 0.219458 0.160045 0.500000
O O2 0.208545 0.311289 0.284876
O O3 0.274152 0.199144 0.292025
O O4 0.209010 0.088895 0.228834
O O5 0.914462 0.178747 0.260647
O O6 0.991201 0.173707 0.221068
O O7 0.951557 0.983418 0.240932
O O8 0.941434 0.116787 0.000000
O O9 0.632038 0.147153 0.221881
O O10 0.684698 0.988070 0.274025
O O11 0.673984 0.065228 0.000000
O O12 0.932794 0.762007 0.770522
O O13 0.960886 0.873191 0.000000
O O14 0.327340 0.148666 0.500000
O O15 0.349520 0.207824 0.230723
O O16 0.345168 0.431338 0.234622
O O17 0.371235 0.326884 0.000000
O O18 0.614278 0.200337 0.500000
O O19 0.633839 0.363381 0.309406
O O20 0.827870 0.997612 0.000000
#
# Coordination Sequence:
#
# PCOD8236330 Si02
#       8
#     8   8   8   8   8   8   8   8
#     4   9  21  39  58  82 110 137 174 227 279 324
#     4   9  16  31  53  79 112 148 183 225 270 324
#     4  10  21  38  56  80 111 142 177 226 277 324
#     4   8  14  27  53  83 111 143 183 224 267 319
#     4  11  24  41  59  79 104 145 190 227 271 329
#     4  12  24  36  52  79 115 151 183 226 278 327
#     4   9  16  31  55  82 108 143 183 220 263 322
#     4  10  19  33  56  81 109 144 183 221 265 324
#
# _framework density 18.161221999999999
#
# number of rings (size 3 to 8) (size 9 to 14) (size 15 to 20)
#    0.000    2.250    1.250    3.000    1.750    2.000 
#    0.000    1.875    0.000    0.750    0.000    5.250 
#    0.000    0.000    0.000    0.000    0.000    0.000 
#
# Total GULP energy -793600.559797 kJ/mol
# GULP energy per Si atom -12400.008747 kJ/mol
# Density = 1.811989 g / cm^3
# Si number density = 18.161222 Si / 1000 Ang^3
#
#
#
# Elastic Constant Matrix: (Units=GPa)
#
#
# Indices 1 2 3 4 5 6 
#
# 1 132.8045 49.8838 50.9686 0.0000 0.0000 0.0000
# 2 49.8838 72.2437 34.9190 0.0000 0.0000 0.0000
# 3 50.9686 34.9190 86.7321 0.0000 0.0000 0.0000
# 4 0.0000 0.0000 0.0000 29.0585 0.0000 0.0000
# 5 0.0000 0.0000 0.0000 0.0000 25.5248 0.0000
# 6 0.0000 0.0000 0.0000 0.0000 0.0000 23.3511
#
#
#
# Elastic Compliance Matrix: (Units=1/GPa)
#
#
# Indices 1 2 3 4 5 6 
#
# 1 0.011359 -0.005733 -0.004367 0.000000 0.000000 0.000000
# 2 -0.005733 0.020079 -0.004715 0.000000 0.000000 0.000000
# 3 -0.004367 -0.004715 0.015995 0.000000 0.000000 0.000000
# 4 0.000000 0.000000 0.000000 0.034413 0.000000 0.000000
# 5 0.000000 0.000000 0.000000 0.000000 0.039178 0.000000
# 6 0.000000 0.000000 0.000000 0.000000 0.000000 0.042824
#
#
# Mechanical properties :
#
#
# Convention : Reuss Voigt Hill
#
# Bulk Modulus (GPa) = 56.17071 62.59147 59.38109
# Shear Modulus (GPa) = 25.07350 25.98748 25.53049
#
# Velocity S-wave (km/s) = 3.71968 3.78687 3.75343
# Velocity P-wave (km/s) = 7.03165 7.32528 7.17997
#
# Compressibility (1/GPa) = 0.01780287
#
# Stress axis : x y z
#
# Youngs Moduli (GPa) = 88.03409 49.80209 62.52066
#
# Poissons Ratio (x) = 0.28549 0.27305
# Poissons Ratio (y) = 0.50466 0.29481
# Poissons Ratio (z) = 0.38448 0.23484
#
# Static dielectric constant tensor:
#      x y z
#    x 3.674480 0.000000 0.000000 
#    y 0.000000 3.149160 0.000000 
#    z 0.000000 0.000000 3.257720 
# 
# 
# High freq. dielectric constant tensor:
#      x y z
#    x 1.711770 0.000000 0.000000 
#    y 0.000000 1.677980 0.000000 
#    z 0.000000 0.000000 1.694380 
# 
# From -- ./inp_files/10945.got.cif
#   From: 2010.06.25/outbox.cif.g09.slc.cpg/sg58_6_cif.got.tgz:10945.got - 2010.06.26 21:38:00.
