data_PCOD8236325
_publ_section_title
;
Structure prediction by ZEFSAII (Michael W. Deem and Ramdas Pophale) SiO2 
 PCOD8236325
Probable space group: P N N M
;
_chemical_formula_sum "Si O2"
_cell_formula_units_Z 64
_cell_length_a 10.380092
_cell_length_b 32.914310
_cell_length_c 8.989291
_cell_angle_alpha 90.000000
_cell_angle_beta 90.000000
_cell_angle_gamma 90.000000
_cell_volume 3071.223325
_symmetry_space_group_name_H-M "P N N M"
_symmetry_group_IT_number 58
_symmetry_cell_setting 'orthorhombic'
loop_
_space_group_symop_operation_xyz
x,y,z
-x,-y,z
1/2+x,1/2-y,1/2-z
1/2-x,1/2+y,1/2-z
-x,-y,-z
x,y,-z
1/2-x,1/2+y,1/2+z
1/2+x,1/2-y,1/2+z
loop_
_atom_site_type_symbol
_atom_site_label
_atom_site_fract_x
_atom_site_fract_y
_atom_site_fract_z
Si Si1 0.250410 0.546644 0.827792
Si Si2 0.511273 0.725075 0.325092
Si Si3 0.211746 0.467253 0.325711
Si Si4 0.122285 0.389849 0.826929
Si Si5 0.111439 0.852192 0.668516
Si Si6 0.841732 0.367674 0.174425
Si Si7 0.459617 0.441176 0.833554
Si Si8 0.247388 0.718606 0.823126
O O1 0.174233 0.511200 0.741631
O O2 0.214463 0.590519 0.757221
O O3 0.402498 0.538366 0.806697
O O4 0.209364 0.545356 0.000000
O O5 0.490561 0.727736 0.500000
O O6 0.550872 0.679770 0.280482
O O7 0.376420 0.737328 0.248238
O O8 0.623755 0.755427 0.271859
O O9 0.192023 0.468955 0.500000
O O10 0.119206 0.432612 0.259440
O O11 0.359852 0.457249 0.287298
O O12 0.243073 0.362226 0.778804
O O13 0.993856 0.364815 0.789914
O O14 0.134170 0.400887 0.000000
O O15 0.109734 0.834834 0.500000
O O16 0.024341 0.892529 0.678388
O O17 0.772785 0.327438 0.238476
O O18 0.816430 0.368300 0.000000
O O19 0.408254 0.451990 0.000000
O O20 0.262098 0.719603 0.000000
#
# Coordination Sequence:
#
# PCOD8236325 Si02
#       8
#     8   8   8   8   8   8   8   8
#     4  10  19  33  56  80 105 141 191 245 288 339
#     4  11  24  39  62  95 127 160 197 244 301 361
#     4  11  22  34  50  78 116 151 184 234 296 354
#     4   9  19  37  61  84 107 149 202 246 284 337
#     4   9  18  34  60  86 115 152 193 241 295 349
#     4   9  19  38  63  84 105 145 200 248 287 337
#     4   9  18  34  56  81 107 146 194 239 285 340
#     4  10  23  43  65  91 124 159 201 248 297 357
#
# _framework density 20.838602000000002
#
# number of rings (size 3 to 8) (size 9 to 14) (size 15 to 20)
#    0.000    2.250    0.000    3.375    1.750    7.500 
#    0.000    5.625    0.000    0.000    0.000    0.000 
#    0.000    0.000    0.000    0.000    0.000    0.000 
#
# Total GULP energy -793622.711523 kJ/mol
# GULP energy per Si atom -12400.354868 kJ/mol
# Density = 2.079117 g / cm^3
# Si number density = 20.838602 Si / 1000 Ang^3
#
#
#
# Elastic Constant Matrix: (Units=GPa)
#
#
# Indices 1 2 3 4 5 6 
#
# 1 92.7696 31.9411 27.9376 0.0000 0.0000 0.0000
# 2 31.9411 102.0279 32.2072 0.0000 0.0000 0.0000
# 3 27.9376 32.2072 61.9662 0.0000 0.0000 0.0000
# 4 0.0000 0.0000 0.0000 23.6620 0.0000 0.0000
# 5 0.0000 0.0000 0.0000 0.0000 21.9441 0.0000
# 6 0.0000 0.0000 0.0000 0.0000 0.0000 31.4948
#
#
#
# Elastic Compliance Matrix: (Units=1/GPa)
#
#
# Indices 1 2 3 4 5 6 
#
# 1 0.013052 -0.002666 -0.004499 0.000000 0.000000 0.000000
# 2 -0.002666 0.012270 -0.005175 0.000000 0.000000 0.000000
# 3 -0.004499 -0.005175 0.020856 0.000000 0.000000 0.000000
# 4 0.000000 0.000000 0.000000 0.042262 0.000000 0.000000
# 5 0.000000 0.000000 0.000000 0.000000 0.045570 0.000000
# 6 0.000000 0.000000 0.000000 0.000000 0.000000 0.031751
#
#
# Mechanical properties :
#
#
# Convention : Reuss Voigt Hill
#
# Bulk Modulus (GPa) = 46.51700 48.99282 47.75491
# Shear Modulus (GPa) = 25.30272 26.39869 25.85071
#
# Velocity S-wave (km/s) = 3.48835 3.56310 3.52592
# Velocity P-wave (km/s) = 6.21255 6.36311 6.28828
#
# Compressibility (1/GPa) = 0.02149752
#
# Stress axis : x y z
#
# Youngs Moduli (GPa) = 76.61576 81.50287 47.94775
#
# Poissons Ratio (x) = 0.21728 0.21571
# Poissons Ratio (y) = 0.20425 0.24814
# Poissons Ratio (z) = 0.34469 0.42179
#
# Static dielectric constant tensor:
#      x y z
#    x 3.837940 0.000000 0.000000 
#    y 0.000000 3.920500 0.000000 
#    z 0.000000 0.000000 3.373810 
# 
# 
# High freq. dielectric constant tensor:
#      x y z
#    x 1.819740 0.000000 0.000000 
#    y 0.000000 1.824110 0.000000 
#    z 0.000000 0.000000 1.776330 
# 
# From -- ./inp_files/4644.got.cif
#   From: 2010.06.25/outbox.cif.g09.slc.cpg/sg58_3_cif.got.tgz:4644.got - 2010.06.26 21:38:00.
