data_PCOD8236744
_publ_section_title
;
Structure prediction by ZEFSAII (Michael W. Deem and Ramdas Pophale) SiO2 
 PCOD8236744
Probable space group: P N N M
;
_chemical_formula_sum "Si O2"
_cell_formula_units_Z 48
_cell_length_a 10.007205
_cell_length_b 27.187525
_cell_length_c 9.104002
_cell_angle_alpha 90.000000
_cell_angle_beta 90.000000
_cell_angle_gamma 90.000000
_cell_volume 2476.936167
_symmetry_space_group_name_H-M "P N N M"
_symmetry_group_IT_number 58
_symmetry_cell_setting 'orthorhombic'
loop_
_space_group_symop_operation_xyz
x,y,z
-x,-y,z
1/2+x,1/2-y,1/2-z
1/2-x,1/2+y,1/2-z
-x,-y,-z
x,y,-z
1/2-x,1/2+y,1/2+z
1/2+x,1/2-y,1/2+z
loop_
_atom_site_type_symbol
_atom_site_label
_atom_site_fract_x
_atom_site_fract_y
_atom_site_fract_z
Si Si1 0.959509 0.109754 0.174158
Si Si2 0.872911 0.216589 0.826502
Si Si3 0.101363 0.290986 0.171841
Si Si4 0.778487 0.541239 0.672004
Si Si5 0.995415 0.601411 0.172992
Si Si6 0.256056 0.572659 0.672309
O O1 0.927758 0.164331 0.231723
O O2 0.846394 0.072590 0.232861
O O3 0.103411 0.092924 0.233544
O O4 0.961770 0.107435 0.000000
O O5 0.731320 0.228831 0.754395
O O6 0.975776 0.258536 0.776726
O O7 0.852723 0.215538 0.000000
O O8 0.074601 0.347327 0.214812
O O9 0.126158 0.284396 0.000000
O O10 0.802810 0.550422 0.500000
O O11 0.911812 0.557003 0.756806
O O12 0.749565 0.484913 0.707252
O O13 0.142951 0.601775 0.240100
O O14 0.005269 0.593799 0.000000
O O15 0.237972 0.583026 0.500000
#
# Coordination Sequence:
#
# PCOD8236744 Si02
#       6
#     8   8   8   8   8   8
#     4   9  18  35  59  85 110 139 181 233 282 325
#     4  10  21  39  62  85 110 144 186 228 277 335
#     4  10  23  40  58  85 115 144 183 232 279 328
#     4  10  19  36  60  84 110 144 190 237 279 323
#     4  11  23  38  54  79 119 154 183 224 277 336
#     4  10  21  35  57  87 113 143 189 238 276 321
#
# _framework density 19.378779999999999
#
# number of rings (size 3 to 8) (size 9 to 14) (size 15 to 20)
#    0.000    2.000    1.667    1.500    2.333    6.000 
#    0.000    1.667    0.000    2.000    0.000    0.000 
#    0.000    0.000    0.000    0.000    0.000    0.000 
#
# Total GULP energy -595434.552883 kJ/mol
# GULP energy per Si atom -12404.886518 kJ/mol
# Density = 1.933467 g / cm^3
# Si number density = 19.378780 Si / 1000 Ang^3
#
#
#
# Elastic Constant Matrix: (Units=GPa)
#
#
# Indices 1 2 3 4 5 6 
#
# 1 145.6921 36.0387 43.9038 0.0000 0.0000 0.0000
# 2 36.0387 74.0067 35.4471 0.0000 0.0000 0.0000
# 3 43.9038 35.4471 42.2586 0.0000 0.0000 0.0000
# 4 0.0000 0.0000 0.0000 19.3696 0.0000 0.0000
# 5 0.0000 0.0000 0.0000 0.0000 27.4460 0.0000
# 6 0.0000 0.0000 0.0000 0.0000 0.0000 40.3677
#
#
#
# Elastic Compliance Matrix: (Units=1/GPa)
#
#
# Indices 1 2 3 4 5 6 
#
# 1 0.009994 0.000178 -0.010532 0.000000 0.000000 0.000000
# 2 0.000178 0.022590 -0.019134 0.000000 0.000000 0.000000
# 3 -0.010532 -0.019134 0.050655 0.000000 0.000000 0.000000
# 4 0.000000 0.000000 0.000000 0.051627 0.000000 0.000000
# 5 0.000000 0.000000 0.000000 0.000000 0.036435 0.000000
# 6 0.000000 0.000000 0.000000 0.000000 0.000000 0.024772
#
#
# Mechanical properties :
#
#
# Convention : Reuss Voigt Hill
#
# Bulk Modulus (GPa) = 41.21387 54.74849 47.98118
# Shear Modulus (GPa) = 19.00149 27.20784 23.10467
#
# Velocity S-wave (km/s) = 3.13474 3.75107 3.45667
# Velocity P-wave (km/s) = 5.86650 6.86103 6.38316
#
# Compressibility (1/GPa) = 0.02426368
#
# Stress axis : x y z
#
# Youngs Moduli (GPa) = 100.06492 44.26701 19.74120
#
# Poissons Ratio (x) = -0.00788 0.20791
# Poissons Ratio (y) = -0.01781 0.37773
# Poissons Ratio (z) = 1.05387 0.84700
#
# Static dielectric constant tensor:
#      x y z
#    x 3.705480 0.000000 0.000000 
#    y 0.000000 3.637360 0.000000 
#    z 0.000000 0.000000 3.212760 
# 
# 
# High freq. dielectric constant tensor:
#      x y z
#    x 1.770420 0.000000 0.000000 
#    y 0.000000 1.763630 0.000000 
#    z 0.000000 0.000000 1.725180 
# 
# From -- ./inp_files/2922.got.cif
#   From: 2010.06.25/outbox.cif.g09.slc.cpg/sg58_2_cif.got.tgz:2922.got - 2010.06.26 21:38:00.
