data_PCOD8236908
_publ_section_title
;
Structure prediction by ZEFSAII (Michael W. Deem and Ramdas Pophale) SiO2 
 PCOD8236908
Probable space group: P N N M
;
_chemical_formula_sum "Si O2"
_cell_formula_units_Z 64
_cell_length_a 23.417666
_cell_length_b 19.264436
_cell_length_c 8.855287
_cell_angle_alpha 90.000000
_cell_angle_beta 90.000000
_cell_angle_gamma 90.000000
_cell_volume 3994.869047
_symmetry_space_group_name_H-M "P N N M"
_symmetry_group_IT_number 58
_symmetry_cell_setting 'orthorhombic'
loop_
_space_group_symop_operation_xyz
x,y,z
-x,-y,z
1/2+x,1/2-y,1/2-z
1/2-x,1/2+y,1/2-z
-x,-y,-z
x,y,-z
1/2-x,1/2+y,1/2+z
1/2+x,1/2-y,1/2+z
loop_
_atom_site_type_symbol
_atom_site_label
_atom_site_fract_x
_atom_site_fract_y
_atom_site_fract_z
Si Si1 0.061287 0.136221 0.678050
Si Si2 0.743558 0.501213 0.821305
Si Si3 0.268527 0.149212 0.320566
Si Si4 0.160964 0.231646 0.678088
Si Si5 0.879891 0.995352 0.175727
Si Si6 0.224406 0.362865 0.321904
Si Si7 0.834384 0.222360 0.178859
Si Si8 0.558692 0.639477 0.675949
O O1 0.064794 0.122954 0.500000
O O2 0.099034 0.203395 0.726849
O O3 0.084805 0.068857 0.761033
O O4 0.997396 0.152631 0.726862
O O5 0.774350 0.430087 0.765058
O O6 0.679849 0.505411 0.758321
O O7 0.782737 0.563867 0.761709
O O8 0.739562 0.503903 0.000000
O O9 0.266460 0.151326 0.500000
O O10 0.209288 0.180209 0.254667
O O11 0.320954 0.198692 0.265044
O O12 0.168100 0.230193 0.500000
O O13 0.172804 0.311254 0.729814
O O14 0.918592 0.062410 0.204127
O O15 0.867480 0.984279 0.000000
O O16 0.223947 0.376522 0.500000
O O17 0.283881 0.328677 0.267860
O O18 0.894986 0.194923 0.239695
O O19 0.836143 0.219026 0.000000
O O20 0.544924 0.651381 0.500000
#
# Coordination Sequence:
#
# PCOD8236908 Si02
#       8
#     8   8   8   8   8   8   8   8
#     4  11  21  33  48  68  92 123 158 195 233 268
#     4  11  19  28  46  73 100 121 148 191 239 275
#     4   8  14  26  46  67  88 116 150 187 226 274
#     4   8  15  29  48  66  87 119 157 187 222 275
#     4  11  21  33  46  64  94 130 165 190 217 268
#     4   9  16  30  50  67  87 121 157 186 222 279
#     4   8  14  28  48  65  84 118 159 187 217 270
#     4  10  20  33  47  65  89 123 161 192 220 265
#
# _framework density 16.02055
#
# number of rings (size 3 to 8) (size 9 to 14) (size 15 to 20)
#    0.000    2.500    2.500    3.000    0.000    2.500 
#    0.000    1.250    0.000    1.500    0.000    0.875 
#    0.000    7.000    0.000    0.000    0.000    0.000 
#
# Total GULP energy -793152.864857 kJ/mol
# GULP energy per Si atom -12393.013513 kJ/mol
# Density = 1.598409 g / cm^3
# Si number density = 16.020550 Si / 1000 Ang^3
#
#
#
# Elastic Constant Matrix: (Units=GPa)
#
#
# Indices 1 2 3 4 5 6 
#
# 1 70.4345 61.0429 19.7437 0.0000 0.0000 0.0000
# 2 61.0429 135.6724 36.9929 0.0000 0.0000 0.0000
# 3 19.7437 36.9929 36.9891 0.0000 0.0000 0.0000
# 4 0.0000 0.0000 0.0000 17.0976 0.0000 0.0000
# 5 0.0000 0.0000 0.0000 0.0000 8.2392 0.0000
# 6 0.0000 0.0000 0.0000 0.0000 0.0000 23.3306
#
#
#
# Elastic Compliance Matrix: (Units=1/GPa)
#
#
# Indices 1 2 3 4 5 6 
#
# 1 0.023467 -0.009821 -0.002704 0.000000 0.000000 0.000000
# 2 -0.009821 0.014245 -0.009004 0.000000 0.000000 0.000000
# 3 -0.002704 -0.009004 0.037483 0.000000 0.000000 0.000000
# 4 0.000000 0.000000 0.000000 0.058488 0.000000 0.000000
# 5 0.000000 0.000000 0.000000 0.000000 0.121371 0.000000
# 6 0.000000 0.000000 0.000000 0.000000 0.000000 0.042862
#
#
# Mechanical properties :
#
#
# Convention : Reuss Voigt Hill
#
# Bulk Modulus (GPa) = 31.11672 53.18388 42.15030
# Shear Modulus (GPa) = 14.21722 18.08791 16.15257
#
# Velocity S-wave (km/s) = 2.98222 3.36377 3.17872
# Velocity P-wave (km/s) = 5.59673 6.95385 6.31187
#
# Compressibility (1/GPa) = 0.03213706
#
# Stress axis : x y z
#
# Youngs Moduli (GPa) = 42.61247 70.20200 26.67888
#
# Poissons Ratio (x) = 0.68948 0.07213
# Poissons Ratio (y) = 0.41851 0.24021
# Poissons Ratio (z) = 0.11521 0.63208
#
# Static dielectric constant tensor:
#      x y z
#    x 3.083290 0.000000 0.000000 
#    y 0.000000 3.434050 0.000000 
#    z 0.000000 0.000000 2.799060 
# 
# 
# High freq. dielectric constant tensor:
#      x y z
#    x 1.591140 0.000000 0.000000 
#    y 0.000000 1.619110 0.000000 
#    z 0.000000 0.000000 1.591980 
# 
# From -- ./inp_files/9394.got.cif
#   From: 2010.06.25/outbox.cif.g09.slc.cpg/sg58_5_cif.got.tgz:9394.got - 2010.06.26 21:38:00.
