data_PCOD8236023
_publ_section_title
;
Structure prediction by ZEFSAII (Michael W. Deem and Ramdas Pophale) SiO2 
 PCOD8236023
Probable space group: P N N M
;
_chemical_formula_sum "Si O2"
_cell_formula_units_Z 56
_cell_length_a 8.925680
_cell_length_b 24.618961
_cell_length_c 14.432831
_cell_angle_alpha 90.000000
_cell_angle_beta 90.000000
_cell_angle_gamma 90.000000
_cell_volume 3171.484252
_symmetry_space_group_name_H-M "P N N M"
_symmetry_group_IT_number 58
_symmetry_cell_setting 'orthorhombic'
loop_
_space_group_symop_operation_xyz
x,y,z
-x,-y,z
1/2+x,1/2-y,1/2-z
1/2-x,1/2+y,1/2-z
-x,-y,-z
x,y,-z
1/2-x,1/2+y,1/2+z
1/2+x,1/2-y,1/2+z
loop_
_atom_site_type_symbol
_atom_site_label
_atom_site_fract_x
_atom_site_fract_y
_atom_site_fract_z
Si Si1 0.031508 0.560036 0.894390
Si Si2 0.468492 0.060036 0.105610
Si Si3 0.482726 0.787171 0.750000
Si Si4 0.206272 0.348832 0.107010
Si Si5 0.955067 0.160702 0.750000
Si Si6 0.706272 0.151168 0.107010
Si Si7 0.284414 0.121471 0.250000
O O1 0.879301 0.594161 0.882452
O O2 0.000000 0.500000 0.855040
O O3 0.166898 0.587890 0.840108
O O4 0.084863 0.557304 0.000000
O O5 0.620700 0.094160 0.117548
O O6 0.333103 0.087890 0.159892
O O7 0.500000 0.000000 0.144960
O O8 0.415137 0.057304 0.000000
O O9 0.388492 0.801828 0.657950
O O10 0.516184 0.724384 0.750000
O O11 0.388492 0.801828 0.842050
O O12 0.640104 0.819076 0.750000
O O13 0.365814 0.355490 0.156995
O O14 0.229058 0.332236 0.000000
O O15 0.106941 0.126818 0.750000
O O16 0.865814 0.144511 0.843005
O O17 0.729057 0.167764 0.000000
#
# Coordination Sequence:
#
# PCOD8236023 Si02
#       7
#     8   8   8   8   8   8   8
#     4   9  18  35  56  73  94 130 173 209 241 290
#     4   9  18  35  56  73  94 130 173 209 241 290
#     4   9  19  36  52  69  97 135 172 201 233 287
#     4   9  19  35  53  73  98 131 168 203 245 295
#     4  11  21  33  49  76 111 132 155 207 258 293
#     4   9  19  35  53  73  98 131 168 203 245 295
#     4  10  19  31  52  77 100 129 166 204 246 296
#
# _framework density 17.657347999999999
#
# number of rings (size 3 to 8) (size 9 to 14) (size 15 to 20)
#    0.000    2.571    0.000    3.000    0.000    2.286 
#    0.000    8.571    0.000    5.143    0.000    0.000 
#    0.000    0.000    0.000    0.000    0.000    0.000 
#
# Total GULP energy -694459.714664 kJ/mol
# GULP energy per Si atom -12401.066333 kJ/mol
# Density = 1.761716 g / cm^3
# Si number density = 17.657348 Si / 1000 Ang^3
#
#
#
# Elastic Constant Matrix: (Units=GPa)
#
#
# Indices 1 2 3 4 5 6 
#
# 1 132.2784 44.2669 63.8606 0.0000 0.0000 0.0000
# 2 44.2669 112.9083 45.5073 0.0000 0.0000 0.0000
# 3 63.8606 45.5073 141.6891 0.0000 0.0000 0.0000
# 4 0.0000 0.0000 0.0000 5.4185 0.0000 0.0000
# 5 0.0000 0.0000 0.0000 0.0000 -93.4848 0.0000
# 6 0.0000 0.0000 0.0000 0.0000 0.0000 12.7709
#
#
#
# Elastic Compliance Matrix: (Units=1/GPa)
#
#
# Indices 1 2 3 4 5 6 
#
# 1 0.010230 -0.002472 -0.003817 0.000000 0.000000 0.000000
# 2 -0.002472 0.010771 -0.002345 0.000000 0.000000 0.000000
# 3 -0.003817 -0.002345 0.009531 0.000000 0.000000 0.000000
# 4 0.000000 0.000000 0.000000 0.184553 0.000000 0.000000
# 5 0.000000 0.000000 0.000000 0.000000 -0.010697 0.000000
# 6 0.000000 0.000000 0.000000 0.000000 0.000000 0.078303
#
#
# Mechanical properties :
#
#
# Convention : Reuss Voigt Hill
#
# Bulk Modulus (GPa) = 75.39291 77.12726 76.26008
# Shear Modulus (GPa) = 16.42680 0.49032 8.45856
#
# Velocity S-wave (km/s) = 3.05341 0.52753 2.19107
# Velocity P-wave (km/s) = 7.43112 6.64424 7.04867
#
# Compressibility (1/GPa) = 0.01326385
#
# Stress axis : x y z
#
# Youngs Moduli (GPa) = 97.75418 92.83935 104.92007
#
# Poissons Ratio (x) = 0.22954 0.40043
# Poissons Ratio (y) = 0.24169 0.24605
# Poissons Ratio (z) = 0.37308 0.21772
#
# Static dielectric constant tensor:
#      x y z
#    x 3.181910 0.000000 0.000000 
#    y 0.000000 3.247080 0.000000 
#    z 0.000000 0.000000 3.557700 
# 
# 
# High freq. dielectric constant tensor:
#      x y z
#    x 1.669920 0.000000 0.000000 
#    y 0.000000 1.681720 0.000000 
#    z 0.000000 0.000000 1.694370 
# 
# From -- ./inp_files/20110.got.cif
#   From: 2010.06.25/outbox.cif.g09.slc.cpg/sg58_11_cif.got.tgz:20110.got - 2010.06.26 21:38:00.
