data_PCOD8236021
_publ_section_title
;
Structure prediction by ZEFSAII (Michael W. Deem and Ramdas Pophale) SiO2 
 PCOD8236021
Probable space group: P N N M
;
_chemical_formula_sum "Si O2"
_cell_formula_units_Z 48
_cell_length_a 9.369775
_cell_length_b 12.903029
_cell_length_c 22.772226
_cell_angle_alpha 90.000000
_cell_angle_beta 90.000000
_cell_angle_gamma 90.000000
_cell_volume 2753.127477
_symmetry_space_group_name_H-M "P N N M"
_symmetry_group_IT_number 58
_symmetry_cell_setting 'orthorhombic'
loop_
_space_group_symop_operation_xyz
x,y,z
-x,-y,z
1/2+x,1/2-y,1/2-z
1/2-x,1/2+y,1/2-z
-x,-y,-z
x,y,-z
1/2-x,1/2+y,1/2+z
1/2+x,1/2-y,1/2+z
loop_
_atom_site_type_symbol
_atom_site_label
_atom_site_fract_x
_atom_site_fract_y
_atom_site_fract_z
Si Si1 0.401602 0.592038 0.064865
Si Si2 0.080625 0.243873 0.667249
Si Si3 0.761478 0.188028 0.335421
Si Si4 0.144722 0.453709 0.934779
Si Si5 0.108507 0.133095 0.785362
Si Si6 0.218083 0.915014 0.785185
O O1 0.500000 0.500000 0.093325
O O2 0.390220 0.694321 0.103975
O O3 0.241942 0.553740 0.058701
O O4 0.464224 0.620202 0.000000
O O5 0.135550 0.166741 0.717968
O O6 0.165145 0.353793 0.674533
O O7 0.909416 0.252039 0.669575
O O8 0.728927 0.131719 0.396620
O O9 0.641629 0.274516 0.329518
O O10 0.749041 0.104161 0.283331
O O11 0.000000 0.500000 0.905893
O O12 0.114310 0.406632 0.000000
O O13 0.943726 0.115374 0.799417
O O14 0.218319 0.038159 0.797133
#
# Coordination Sequence:
#
# PCOD8236021 Si02
#       6
#     8   8   8   8   8   8
#     4  10  19  32  52  76 101 131 162 202 256 304
#     4  10  19  31  52  75 102 131 170 208 250 303
#     4  10  19  33  50  76 101 133 168 208 254 300
#     4  10  21  34  50  76 105 132 165 206 255 308
#     4   9  19  33  50  70 104 136 168 205 251 300
#     4   9  19  34  49  73 100 136 170 206 250 301
#
# _framework density 17.434716000000002
#
# number of rings (size 3 to 8) (size 9 to 14) (size 15 to 20)
#    0.000    2.333    1.667    1.000    4.667    0.667 
#    6.000    0.000    0.000    1.000    0.000    4.667 
#    0.000    0.000    0.000    0.000    0.000    0.000 
#
# Total GULP energy -594698.326510 kJ/mol
# GULP energy per Si atom -12389.548469 kJ/mol
# Density = 1.739503 g / cm^3
# Si number density = 17.434716 Si / 1000 Ang^3
#
#
#
# Elastic Constant Matrix: (Units=GPa)
#
#
# Indices 1 2 3 4 5 6 
#
# 1 69.3792 22.7205 17.9187 0.0000 0.0000 0.0000
# 2 22.7205 62.3850 31.0607 0.0000 0.0000 0.0000
# 3 17.9187 31.0607 76.8460 0.0000 0.0000 0.0000
# 4 0.0000 0.0000 0.0000 22.5092 0.0000 0.0000
# 5 0.0000 0.0000 0.0000 0.0000 22.8623 0.0000
# 6 0.0000 0.0000 0.0000 0.0000 0.0000 32.6945
#
#
#
# Elastic Compliance Matrix: (Units=1/GPa)
#
#
# Indices 1 2 3 4 5 6 
#
# 1 0.016558 -0.005143 -0.001782 0.000000 0.000000 0.000000
# 2 -0.005143 0.021666 -0.007558 0.000000 0.000000 0.000000
# 3 -0.001782 -0.007558 0.016483 0.000000 0.000000 0.000000
# 4 0.000000 0.000000 0.000000 0.044426 0.000000 0.000000
# 5 0.000000 0.000000 0.000000 0.000000 0.043740 0.000000
# 6 0.000000 0.000000 0.000000 0.000000 0.000000 0.030586
#
#
# Mechanical properties :
#
#
# Convention : Reuss Voigt Hill
#
# Bulk Modulus (GPa) = 38.84871 39.11223 38.98047
# Shear Modulus (GPa) = 23.69601 24.74057 24.21829
#
# Velocity S-wave (km/s) = 3.69063 3.77110 3.73109
# Velocity P-wave (km/s) = 6.36332 6.43769 6.40061
#
# Compressibility (1/GPa) = 0.02574088
#
# Stress axis : x y z
#
# Youngs Moduli (GPa) = 60.39343 46.15624 60.66702
#
# Poissons Ratio (x) = 0.23739 0.10812
# Poissons Ratio (y) = 0.31061 0.45851
# Poissons Ratio (z) = 0.10763 0.34884
#
# Static dielectric constant tensor:
#      x y z
#    x 3.428280 0.000000 0.000000 
#    y 0.000000 3.100320 0.000000 
#    z 0.000000 0.000000 3.161770 
# 
# 
# High freq. dielectric constant tensor:
#      x y z
#    x 1.687290 0.000000 0.000000 
#    y 0.000000 1.649990 0.000000 
#    z 0.000000 0.000000 1.652290 
# 
# From -- ./inp_files/28821.got.cif
#   From: 2010.06.25/outbox.cif.g09.slc.cpg/sg58_15_cif.got.tgz:28821.got - 2010.06.26 21:38:00.
