data_PCOD8236927
_publ_section_title
;
Structure prediction by ZEFSAII (Michael W. Deem and Ramdas Pophale) SiO2 
 PCOD8236927
Probable space group: P N N M
;
_chemical_formula_sum "Si O2"
_cell_formula_units_Z 56
_cell_length_a 17.798266
_cell_length_b 18.690851
_cell_length_c 9.226118
_cell_angle_alpha 90.000000
_cell_angle_beta 90.000000
_cell_angle_gamma 90.000000
_cell_volume 3069.204126
_symmetry_space_group_name_H-M "P N N M"
_symmetry_group_IT_number 58
_symmetry_cell_setting 'orthorhombic'
loop_
_space_group_symop_operation_xyz
x,y,z
-x,-y,z
1/2+x,1/2-y,1/2-z
1/2-x,1/2+y,1/2-z
-x,-y,-z
x,y,-z
1/2-x,1/2+y,1/2+z
1/2+x,1/2-y,1/2+z
loop_
_atom_site_type_symbol
_atom_site_label
_atom_site_fract_x
_atom_site_fract_y
_atom_site_fract_z
Si Si1 0.524405 0.922097 0.332280
Si Si2 0.324734 0.543808 0.330670
Si Si3 0.486813 0.788615 0.163346
Si Si4 0.546222 0.345945 0.668204
Si Si5 0.621735 0.613744 0.668096
Si Si6 0.195225 0.617396 0.831174
Si Si7 0.660175 0.747118 0.164030
O O1 0.504358 0.911209 0.500000
O O2 0.475928 0.864143 0.243741
O O3 0.612548 0.913276 0.303758
O O4 0.500000 0.000000 0.276875
O O5 0.305236 0.550355 0.500000
O O6 0.390783 0.597703 0.286101
O O7 0.351037 0.464683 0.289373
O O8 0.251583 0.559998 0.236544
O O9 0.439454 0.726916 0.243121
O O10 0.573487 0.767745 0.168360
O O11 0.456928 0.796038 0.000000
O O12 0.550458 0.325920 0.500000
O O13 0.466227 0.381131 0.706673
O O14 0.635234 0.631011 0.500000
O O15 0.670518 0.670266 0.760181
O O16 0.207097 0.693394 0.751383
O O17 0.212018 0.628330 0.000000
O O18 0.690866 0.743428 0.000000
#
# Coordination Sequence:
#
# PCOD8236927 Si02
#       7
#     8   8   8   8   8   8   8
#     4   9  18  34  55  75  95 125 167 211 253 300
#     4  10  20  33  50  74 105 137 166 203 251 299
#     4   9  17  29  48  75 101 124 156 201 248 291
#     4   9  17  31  51  73  99 134 172 205 240 290
#     4   9  17  31  52  76 100 130 171 210 243 287
#     4  10  20  34  52  73  98 130 167 207 253 303
#     4   9  17  31  51  72  95 125 162 202 245 295
#
# _framework density 18.245771999999999
#
# number of rings (size 3 to 8) (size 9 to 14) (size 15 to 20)
#    0.000    2.714    0.000    1.714    0.000    7.143 
#    0.000    1.429    0.000    9.429    0.000    0.000 
#    0.000    0.000    0.000    0.000    0.000    0.000 
#
# Total GULP energy -694501.536001 kJ/mol
# GULP energy per Si atom -12401.813143 kJ/mol
# Density = 1.820424 g / cm^3
# Si number density = 18.245772 Si / 1000 Ang^3
#
#
#
# Elastic Constant Matrix: (Units=GPa)
#
#
# Indices 1 2 3 4 5 6 
#
# 1 39.3961 42.7437 35.1382 0.0000 0.0000 0.0000
# 2 42.7437 175.8888 84.0297 0.0000 0.0000 0.0000
# 3 35.1382 84.0297 104.4062 0.0000 0.0000 0.0000
# 4 0.0000 0.0000 0.0000 32.2978 0.0000 0.0000
# 5 0.0000 0.0000 0.0000 0.0000 23.7878 0.0000
# 6 0.0000 0.0000 0.0000 0.0000 0.0000 19.8282
#
#
#
# Elastic Compliance Matrix: (Units=1/GPa)
#
#
# Indices 1 2 3 4 5 6 
#
# 1 0.039005 -0.005211 -0.008933 0.000000 0.000000 0.000000
# 2 -0.005211 0.009933 -0.006241 0.000000 0.000000 0.000000
# 3 -0.008933 -0.006241 0.017607 0.000000 0.000000 0.000000
# 4 0.000000 0.000000 0.000000 0.030962 0.000000 0.000000
# 5 0.000000 0.000000 0.000000 0.000000 0.042038 0.000000
# 6 0.000000 0.000000 0.000000 0.000000 0.000000 0.050433
#
#
# Mechanical properties :
#
#
# Convention : Reuss Voigt Hill
#
# Bulk Modulus (GPa) = 38.79694 71.50159 55.14927
# Shear Modulus (GPa) = 20.89075 25.70140 23.29608
#
# Velocity S-wave (km/s) = 3.38740 3.75723 3.57710
# Velocity P-wave (km/s) = 6.05054 7.62204 6.88130
#
# Compressibility (1/GPa) = 0.02577523
#
# Stress axis : x y z
#
# Youngs Moduli (GPa) = 25.63798 100.67142 56.79447
#
# Poissons Ratio (x) = 0.52460 0.50735
# Poissons Ratio (y) = 0.13360 0.35445
# Poissons Ratio (z) = 0.22903 0.62828
#
# Static dielectric constant tensor:
#      x y z
#    x 3.048820 0.000000 0.000000 
#    y 0.000000 3.497590 0.000000 
#    z 0.000000 0.000000 3.421880 
# 
# 
# High freq. dielectric constant tensor:
#      x y z
#    x 1.673160 0.000000 0.000000 
#    y 0.000000 1.716810 0.000000 
#    z 0.000000 0.000000 1.709220 
# 
# From -- ./inp_files/9040.got.cif
#   From: 2010.06.25/outbox.cif.g09.slc.cpg/sg58_5_cif.got.tgz:9040.got - 2010.06.26 21:38:00.
