data_PCOD8236244
_publ_section_title
;
Structure prediction by ZEFSAII (Michael W. Deem and Ramdas Pophale) SiO2 
 PCOD8236244
Probable space group: P N N M
;
_chemical_formula_sum "Si O2"
_cell_formula_units_Z 48
_cell_length_a 18.974548
_cell_length_b 15.322655
_cell_length_c 8.800158
_cell_angle_alpha 90.000000
_cell_angle_beta 90.000000
_cell_angle_gamma 90.000000
_cell_volume 2558.561921
_symmetry_space_group_name_H-M "P N N M"
_symmetry_group_IT_number 58
_symmetry_cell_setting 'orthorhombic'
loop_
_space_group_symop_operation_xyz
x,y,z
-x,-y,z
1/2+x,1/2-y,1/2-z
1/2-x,1/2+y,1/2-z
-x,-y,-z
x,y,-z
1/2-x,1/2+y,1/2+z
1/2+x,1/2-y,1/2+z
loop_
_atom_site_type_symbol
_atom_site_label
_atom_site_fract_x
_atom_site_fract_y
_atom_site_fract_z
Si Si1 0.578465 0.258187 0.819867
Si Si2 0.679640 0.405581 0.178727
Si Si3 0.662358 0.908793 0.680169
Si Si4 0.666239 0.091827 0.820840
Si Si5 0.579875 0.752077 0.820332
Si Si6 0.814437 0.101200 0.678333
O O1 0.624317 0.337640 0.747637
O O2 0.611858 0.166522 0.770083
O O3 0.498864 0.264420 0.758351
O O4 0.578346 0.267130 0.000000
O O5 0.758684 0.386756 0.239637
O O6 0.657383 0.504485 0.220157
O O7 0.680047 0.391703 0.000000
O O8 0.659072 0.909576 0.500000
O O9 0.608200 0.839330 0.744451
O O10 0.640553 0.004031 0.739382
O O11 0.743659 0.122347 0.769648
O O12 0.666171 0.076937 0.000000
O O13 0.626358 0.669404 0.770386
O O14 0.580955 0.765370 0.000000
O O15 0.797086 0.107268 0.500000
#
# Coordination Sequence:
#
# PCOD8236244 Si02
#       6
#     8   8   8   8   8   8
#     4   9  18  31  49  74 102 133 169 207 248 298
#     4   8  15  30  51  74  98 127 165 206 246 291
#     4  10  20  35  54  75 100 131 170 215 260 303
#     4  10  19  33  54  76  99 132 174 215 253 296
#     4  10  20  33  50  75 105 135 168 206 249 300
#     4   9  18  32  52  78 105 132 165 207 253 300
#
# _framework density 18.760539999999999
#
# number of rings (size 3 to 8) (size 9 to 14) (size 15 to 20)
#    0.000    2.667    0.000    3.000    0.000    3.333 
#    0.000    8.333    0.000    6.000    0.000    5.833 
#    0.000    0.000    0.000    0.000    0.000    0.000 
#
# Total GULP energy -595162.253284 kJ/mol
# GULP energy per Si atom -12399.213610 kJ/mol
# Density = 1.871784 g / cm^3
# Si number density = 18.760540 Si / 1000 Ang^3
#
#
#
# Elastic Constant Matrix: (Units=GPa)
#
#
# Indices 1 2 3 4 5 6 
#
# 1 106.7191 64.8502 16.6928 0.0000 0.0000 0.0000
# 2 64.8502 109.0952 16.0000 0.0000 0.0000 0.0000
# 3 16.6928 16.0000 25.7915 0.0000 0.0000 0.0000
# 4 0.0000 0.0000 0.0000 20.9773 0.0000 0.0000
# 5 0.0000 0.0000 0.0000 0.0000 23.1359 0.0000
# 6 0.0000 0.0000 0.0000 0.0000 0.0000 20.0902
#
#
#
# Elastic Compliance Matrix: (Units=1/GPa)
#
#
# Indices 1 2 3 4 5 6 
#
# 1 0.015158 -0.008330 -0.004643 0.000000 0.000000 0.000000
# 2 -0.008330 0.014661 -0.003704 0.000000 0.000000 0.000000
# 3 -0.004643 -0.003704 0.044076 0.000000 0.000000 0.000000
# 4 0.000000 0.000000 0.000000 0.047670 0.000000 0.000000
# 5 0.000000 0.000000 0.000000 0.000000 0.043223 0.000000
# 6 0.000000 0.000000 0.000000 0.000000 0.000000 0.049776
#
#
# Mechanical properties :
#
#
# Convention : Reuss Voigt Hill
#
# Bulk Modulus (GPa) = 24.66651 48.52133 36.59392
# Shear Modulus (GPa) = 19.12545 22.44487 20.78516
#
# Velocity S-wave (km/s) = 3.19635 3.46264 3.33215
# Velocity P-wave (km/s) = 5.17676 6.47349 5.86110
#
# Compressibility (1/GPa) = 0.04054079
#
# Stress axis : x y z
#
# Youngs Moduli (GPa) = 65.96978 68.20798 22.68834
#
# Poissons Ratio (x) = 0.56815 0.10535
# Poissons Ratio (y) = 0.54951 0.08404
# Poissons Ratio (z) = 0.30633 0.25264
#
# Static dielectric constant tensor:
#      x y z
#    x 3.672970 0.000000 0.000000 
#    y 0.000000 3.636050 0.000000 
#    z 0.000000 0.000000 3.109060 
# 
# 
# High freq. dielectric constant tensor:
#      x y z
#    x 1.726530 0.000000 0.000000 
#    y 0.000000 1.743400 0.000000 
#    z 0.000000 0.000000 1.695530 
# 
# From -- ./inp_files/5786.got.cif
#   From: 2010.06.25/outbox.cif.g09.slc.cpg/sg58_3_cif.got.tgz:5786.got - 2010.06.26 21:38:00.
