data_PCOD8236749
_publ_section_title
;
Structure prediction by ZEFSAII (Michael W. Deem and Ramdas Pophale) SiO2 
 PCOD8236749
Probable space group: P N N M
;
_chemical_formula_sum "Si O2"
_cell_formula_units_Z 52
_cell_length_a 12.194694
_cell_length_b 27.605957
_cell_length_c 7.541498
_cell_angle_alpha 90.000000
_cell_angle_beta 90.000000
_cell_angle_gamma 90.000000
_cell_volume 2538.816630
_symmetry_space_group_name_H-M "P N N M"
_symmetry_group_IT_number 58
_symmetry_cell_setting 'orthorhombic'
loop_
_space_group_symop_operation_xyz
x,y,z
-x,-y,z
1/2+x,1/2-y,1/2-z
1/2-x,1/2+y,1/2-z
-x,-y,-z
x,y,-z
1/2-x,1/2+y,1/2+z
1/2+x,1/2-y,1/2+z
loop_
_atom_site_type_symbol
_atom_site_label
_atom_site_fract_x
_atom_site_fract_y
_atom_site_fract_z
Si Si1 0.230278 0.970051 0.000000
Si Si2 0.238645 0.653124 0.787896
Si Si3 0.660122 0.601031 0.207231
Si Si4 0.391957 0.858438 0.300110
Si Si5 0.046699 0.724892 0.796749
Si Si6 0.961939 0.574191 0.500000
Si Si7 0.979759 0.827806 0.301408
Si Si8 0.203068 0.573290 0.500000
O O1 0.175695 0.947329 0.823448
O O2 0.361066 0.962481 0.000000
O O3 0.211887 0.028004 0.000000
O O4 0.149352 0.693112 0.728022
O O5 0.357214 0.673213 0.722086
O O6 0.219211 0.603880 0.679698
O O7 0.230701 0.643147 0.000000
O O8 0.762687 0.637393 0.235763
O O9 0.556974 0.631008 0.286332
O O10 0.649398 0.586224 0.000000
O O11 0.422609 0.873818 0.500000
O O12 0.432612 0.803729 0.264167
O O13 0.460044 0.893352 0.175258
O O14 0.038020 0.775683 0.697310
O O15 0.064444 0.737972 0.000000
O O16 0.081066 0.549493 0.500000
O O17 0.968336 0.845820 0.500000
#
# Coordination Sequence:
#
# PCOD8236749 Si02
#       8
#     4   8   8   8   8   4   8   4
#     4  10  23  39  64  95 117 156 214 258 317 366
#     4  10  24  43  57  88 128 159 203 254 302 363
#     4   9  20  40  60  84 122 157 200 254 303 359
#     4   9  18  34  55  84 117 156 189 238 294 357
#     4  10  21  35  56  85 119 158 199 238 300 361
#     4  10  19  36  60  88 124 152 192 252 304 355
#     4  10  23  39  60  85 120 164 205 249 296 365
#     4  12  23  39  68  87 121 168 204 262 314 358
#
# _framework density 20.481981000000001
#
# number of rings (size 3 to 8) (size 9 to 14) (size 15 to 20)
#    0.000    2.154    1.538    0.231    6.462    0.615 
#    0.000    1.538    0.000    7.385    0.000    0.000 
#    0.000    0.000    0.000    0.000    0.000    0.000 
#
# Total GULP energy -644475.687417 kJ/mol
# GULP energy per Si atom -12393.763220 kJ/mol
# Density = 2.043536 g / cm^3
# Si number density = 20.481981 Si / 1000 Ang^3
#
#
#
# Elastic Constant Matrix: (Units=GPa)
#
#
# Indices 1 2 3 4 5 6 
#
# 1 100.6439 32.7463 20.5643 0.0000 0.0000 0.0000
# 2 32.7463 94.4535 26.8223 0.0000 0.0000 0.0000
# 3 20.5643 26.8223 73.4427 0.0000 0.0000 0.0000
# 4 0.0000 0.0000 0.0000 22.9393 0.0000 0.0000
# 5 0.0000 0.0000 0.0000 0.0000 16.6636 0.0000
# 6 0.0000 0.0000 0.0000 0.0000 0.0000 17.0321
#
#
#
# Elastic Compliance Matrix: (Units=1/GPa)
#
#
# Indices 1 2 3 4 5 6 
#
# 1 0.011446 -0.003412 -0.001959 0.000000 0.000000 0.000000
# 2 -0.003412 0.012829 -0.003730 0.000000 0.000000 0.000000
# 3 -0.001959 -0.003730 0.015527 0.000000 0.000000 0.000000
# 4 0.000000 0.000000 0.000000 0.043593 0.000000 0.000000
# 5 0.000000 0.000000 0.000000 0.000000 0.060011 0.000000
# 6 0.000000 0.000000 0.000000 0.000000 0.000000 0.058713
#
#
# Mechanical properties :
#
#
# Convention : Reuss Voigt Hill
#
# Bulk Modulus (GPa) = 46.29520 47.64510 46.97015
# Shear Modulus (GPa) = 21.97589 23.88749 22.93169
#
# Velocity S-wave (km/s) = 3.27913 3.41877 3.34968
# Velocity P-wave (km/s) = 6.08185 6.23670 6.15976
#
# Compressibility (1/GPa) = 0.02160051
#
# Stress axis : x y z
#
# Youngs Moduli (GPa) = 87.36315 77.94586 64.40467
#
# Poissons Ratio (x) = 0.26596 0.12616
# Poissons Ratio (y) = 0.29809 0.24023
# Poissons Ratio (z) = 0.17114 0.29074
#
# Static dielectric constant tensor:
#      x y z
#    x 4.058030 0.000000 0.000000 
#    y 0.000000 3.356430 0.000000 
#    z 0.000000 0.000000 3.683740 
# 
# 
# High freq. dielectric constant tensor:
#      x y z
#    x 1.808060 0.000000 0.000000 
#    y 0.000000 1.775340 0.000000 
#    z 0.000000 0.000000 1.802740 
# 
# From -- ./inp_files/4405.got.cif
#   From: 2010.06.25/outbox.cif.g09.slc.cpg/sg58_3_cif.got.tgz:4405.got - 2010.06.26 21:38:00.
