data_PCOD8236990
_publ_section_title
;
Structure prediction by ZEFSAII (Michael W. Deem and Ramdas Pophale) SiO2 
 PCOD8236990
Probable space group: P N N M
;
_chemical_formula_sum "Si O2"
_cell_formula_units_Z 64
_cell_length_a 16.996198
_cell_length_b 14.121031
_cell_length_c 13.242031
_cell_angle_alpha 90.000000
_cell_angle_beta 90.000000
_cell_angle_gamma 90.000000
_cell_volume 3178.138274
_symmetry_space_group_name_H-M "P N N M"
_symmetry_group_IT_number 58
_symmetry_cell_setting 'orthorhombic'
loop_
_space_group_symop_operation_xyz
x,y,z
-x,-y,z
1/2+x,1/2-y,1/2-z
1/2-x,1/2+y,1/2-z
-x,-y,-z
x,y,-z
1/2-x,1/2+y,1/2+z
1/2+x,1/2-y,1/2+z
loop_
_atom_site_type_symbol
_atom_site_label
_atom_site_fract_x
_atom_site_fract_y
_atom_site_fract_z
Si Si1 0.220967 0.650041 0.281981
Si Si2 0.137225 0.448720 0.111946
Si Si3 0.641914 0.265708 0.389116
Si Si4 0.006132 0.775826 0.224674
Si Si5 0.290483 0.457791 0.758990
Si Si6 0.832899 0.207524 0.880345
Si Si7 0.943810 0.425069 0.726989
Si Si8 0.558861 0.586051 0.887178
O O1 0.267277 0.727519 0.349316
O O2 0.283690 0.565208 0.279790
O O3 0.201638 0.697518 0.173255
O O4 0.137187 0.611389 0.327993
O O5 0.109072 0.340878 0.103977
O O6 0.219387 0.440068 0.167157
O O7 0.078568 0.517249 0.171599
O O8 0.146602 0.492579 0.000000
O O9 0.640540 0.312568 0.500000
O O10 0.576831 0.315671 0.317768
O O11 0.074516 0.800288 0.144102
O O12 0.002238 0.663813 0.245507
O O13 0.020002 0.824362 0.332586
O O14 0.289341 0.385282 0.664280
O O15 0.367833 0.447812 0.823637
O O16 0.817993 0.213879 0.000000
O O17 0.000000 0.500000 0.664096
O O18 0.500000 0.500000 0.892875
O O19 0.583577 0.617820 0.000000
#
# Coordination Sequence:
#
# PCOD8236990 Si02
#       8
#     8   8   8   8   8   8   8   8
#     4  10  22  37  58  87 121 159 203 251 305 365
#     4  10  20  33  57  88 118 153 195 246 305 357
#     4  11  21  36  59  88 119 152 195 246 302 361
#     4  10  21  37  61  89 121 155 196 249 313 368
#     4  10  20  37  58  82 118 158 198 252 300 359
#     4  10  21  38  58  86 121 162 202 247 309 375
#     4  10  20  37  57  86 122 161 193 245 306 370
#     4  10  21  38  60  86 115 154 205 256 302 354
#
# _framework density 20.137574999999998
#
# number of rings (size 3 to 8) (size 9 to 14) (size 15 to 20)
#    0.000    1.875    2.500    1.500    0.000    6.250 
#    0.000    0.625    0.000    6.375    0.000    0.000 
#    0.000    0.000    0.000    0.000    0.000    0.000 
#
# Total GULP energy -793031.157091 kJ/mol
# GULP energy per Si atom -12391.111830 kJ/mol
# Density = 2.009174 g / cm^3
# Si number density = 20.137575 Si / 1000 Ang^3
#
#
#
# Elastic Constant Matrix: (Units=GPa)
#
#
# Indices 1 2 3 4 5 6 
#
# 1 94.5272 27.4161 15.1409 0.0000 0.0000 0.0000
# 2 27.4161 95.1053 26.2735 0.0000 0.0000 0.0000
# 3 15.1409 26.2735 40.9239 0.0000 0.0000 0.0000
# 4 0.0000 0.0000 0.0000 19.8747 0.0000 0.0000
# 5 0.0000 0.0000 0.0000 0.0000 12.6080 0.0000
# 6 0.0000 0.0000 0.0000 0.0000 0.0000 38.8728
#
#
#
# Elastic Compliance Matrix: (Units=1/GPa)
#
#
# Indices 1 2 3 4 5 6 
#
# 1 0.011775 -0.002663 -0.002647 0.000000 0.000000 0.000000
# 2 -0.002663 0.013384 -0.007607 0.000000 0.000000 0.000000
# 3 -0.002647 -0.007607 0.030299 0.000000 0.000000 0.000000
# 4 0.000000 0.000000 0.000000 0.050315 0.000000 0.000000
# 5 0.000000 0.000000 0.000000 0.000000 0.079315 0.000000
# 6 0.000000 0.000000 0.000000 0.000000 0.000000 0.025725
#
#
# Mechanical properties :
#
#
# Convention : Reuss Voigt Hill
#
# Bulk Modulus (GPa) = 33.75703 40.91303 37.33503
# Shear Modulus (GPa) = 20.28217 25.05283 22.66750
#
# Velocity S-wave (km/s) = 3.17705 3.53098 3.35868
# Velocity P-wave (km/s) = 5.50071 6.08150 5.79838
#
# Compressibility (1/GPa) = 0.02962346
#
# Stress axis : x y z
#
# Youngs Moduli (GPa) = 84.92311 74.71621 33.00471
#
# Poissons Ratio (x) = 0.19899 0.08735
# Poissons Ratio (y) = 0.22618 0.25108
# Poissons Ratio (z) = 0.22477 0.56838
#
# Static dielectric constant tensor:
#      x y z
#    x 3.692720 0.000000 0.000000 
#    y 0.000000 4.026690 0.000000 
#    z 0.000000 0.000000 3.551220 
# 
# 
# High freq. dielectric constant tensor:
#      x y z
#    x 1.796790 0.000000 0.000000 
#    y 0.000000 1.796030 0.000000 
#    z 0.000000 0.000000 1.754990 
# 
# From -- ./inp_files/16534.got.cif
#   From: 2010.06.25/outbox.cif.g09.slc.cpg/sg58_9_cif.got.tgz:16534.got - 2010.06.26 21:38:00.
