data_PCOD8236493
_publ_section_title
;
Structure prediction by ZEFSAII (Michael W. Deem and Ramdas Pophale) SiO2 
 PCOD8236493
Probable space group: P N N M
;
_chemical_formula_sum "Si O2"
_cell_formula_units_Z 56
_cell_length_a 19.643929
_cell_length_b 16.525124
_cell_length_c 8.974067
_cell_angle_alpha 90.000000
_cell_angle_beta 90.000000
_cell_angle_gamma 90.000000
_cell_volume 2913.146935
_symmetry_space_group_name_H-M "P N N M"
_symmetry_group_IT_number 58
_symmetry_cell_setting 'orthorhombic'
loop_
_space_group_symop_operation_xyz
x,y,z
-x,-y,z
1/2+x,1/2-y,1/2-z
1/2-x,1/2+y,1/2-z
-x,-y,-z
x,y,-z
1/2-x,1/2+y,1/2+z
1/2+x,1/2-y,1/2+z
loop_
_atom_site_type_symbol
_atom_site_label
_atom_site_fract_x
_atom_site_fract_y
_atom_site_fract_z
Si Si1 0.118051 0.312481 0.172689
Si Si2 0.307555 0.426964 0.324973
Si Si3 0.942884 0.063681 0.675894
Si Si4 0.341396 0.971107 0.824343
Si Si5 0.621009 0.852050 0.828656
Si Si6 0.232735 0.771520 0.330698
Si Si7 0.020521 0.767619 0.175540
O O1 0.115057 0.398403 0.255709
O O2 0.187592 0.264271 0.211199
O O3 0.056103 0.255816 0.223381
O O4 0.111934 0.333047 0.000000
O O5 0.318978 0.435101 0.500000
O O6 0.371362 0.468424 0.242369
O O7 0.237352 0.468338 0.270710
O O8 0.305584 0.332565 0.280037
O O9 0.936700 0.070864 0.500000
O O10 0.960309 0.151271 0.739702
O O11 0.000000 0.000000 0.725256
O O12 0.374842 0.055388 0.773992
O O13 0.343285 0.960805 0.000000
O O14 0.697095 0.815305 0.813225
O O15 0.568702 0.805992 0.723449
O O16 0.596299 0.846332 0.000000
O O17 0.224819 0.804191 0.500000
O O18 0.027681 0.782293 0.000000
#
# Coordination Sequence:
#
# PCOD8236493 Si02
#       7
#     8   8   8   8   8   8   8
#     4   9  20  37  56  81 114 152 191 236 287 337
#     4  10  19  34  57  83 111 140 183 235 283 332
#     4  11  24  40  58  82 114 152 191 230 286 353
#     4   9  20  36  56  85 115 149 192 238 282 333
#     4  10  20  35  57  83 113 151 193 233 283 344
#     4   9  17  33  57  78 104 147 192 229 279 340
#     4  11  23  38  58  85 116 150 192 239 289 339
#
# _framework density 19.223198
#
# number of rings (size 3 to 8) (size 9 to 14) (size 15 to 20)
#    0.000    2.143    1.429    1.286    0.000    5.143 
#    0.000    5.714    0.000    0.000    0.000    0.000 
#    0.000    0.000    0.000    0.000    0.000    0.000 
#
# Total GULP energy -694459.936509 kJ/mol
# GULP energy per Si atom -12401.070295 kJ/mol
# Density = 1.917945 g / cm^3
# Si number density = 19.223198 Si / 1000 Ang^3
#
#
#
# Elastic Constant Matrix: (Units=GPa)
#
#
# Indices 1 2 3 4 5 6 
#
# 1 90.7271 15.4852 24.6194 0.0000 0.0000 0.0000
# 2 15.4852 44.4723 13.4586 0.0000 0.0000 0.0000
# 3 24.6194 13.4586 47.0312 0.0000 0.0000 0.0000
# 4 0.0000 0.0000 0.0000 23.2540 0.0000 0.0000
# 5 0.0000 0.0000 0.0000 0.0000 28.0475 0.0000
# 6 0.0000 0.0000 0.0000 0.0000 0.0000 28.2965
#
#
#
# Elastic Compliance Matrix: (Units=1/GPa)
#
#
# Indices 1 2 3 4 5 6 
#
# 1 0.013143 -0.002731 -0.006099 0.000000 0.000000 0.000000
# 2 -0.002731 0.025185 -0.005778 0.000000 0.000000 0.000000
# 3 -0.006099 -0.005778 0.026108 0.000000 0.000000 0.000000
# 4 0.000000 0.000000 0.000000 0.043003 0.000000 0.000000
# 5 0.000000 0.000000 0.000000 0.000000 0.035654 0.000000
# 6 0.000000 0.000000 0.000000 0.000000 0.000000 0.035340
#
#
# Mechanical properties :
#
#
# Convention : Reuss Voigt Hill
#
# Bulk Modulus (GPa) = 28.39082 32.15077 30.27080
# Shear Modulus (GPa) = 22.79063 24.49742 23.64403
#
# Velocity S-wave (km/s) = 3.44696 3.57370 3.51090
# Velocity P-wave (km/s) = 5.53563 5.81290 5.67595
#
# Compressibility (1/GPa) = 0.03522265
#
# Stress axis : x y z
#
# Youngs Moduli (GPa) = 76.08598 39.70579 38.30216
#
# Poissons Ratio (x) = 0.10843 0.23359
# Poissons Ratio (y) = 0.20778 0.22129
# Poissons Ratio (z) = 0.46401 0.22940
#
# Static dielectric constant tensor:
#      x y z
#    x 3.865210 0.000000 0.000000 
#    y 0.000000 3.397850 0.000000 
#    z 0.000000 0.000000 3.488760 
# 
# 
# High freq. dielectric constant tensor:
#      x y z
#    x 1.759280 0.000000 0.000000 
#    y 0.000000 1.734600 0.000000 
#    z 0.000000 0.000000 1.745580 
# 
# From -- ./inp_files/8988.got.cif
#   From: 2010.06.25/outbox.cif.g09.slc.cpg/sg58_5_cif.got.tgz:8988.got - 2010.06.26 21:38:00.
