data_PCOD8236953
_publ_section_title
;
Structure prediction by ZEFSAII (Michael W. Deem and Ramdas Pophale) SiO2 
 PCOD8236953
Probable space group: P N N M
;
_chemical_formula_sum "Si O2"
_cell_formula_units_Z 56
_cell_length_a 14.762745
_cell_length_b 20.860855
_cell_length_c 9.187947
_cell_angle_alpha 90.000000
_cell_angle_beta 90.000000
_cell_angle_gamma 90.000000
_cell_volume 2829.552158
_symmetry_space_group_name_H-M "P N N M"
_symmetry_group_IT_number 58
_symmetry_cell_setting 'orthorhombic'
loop_
_space_group_symop_operation_xyz
x,y,z
-x,-y,z
1/2+x,1/2-y,1/2-z
1/2-x,1/2+y,1/2-z
-x,-y,-z
x,y,-z
1/2-x,1/2+y,1/2+z
1/2+x,1/2-y,1/2+z
loop_
_atom_site_type_symbol
_atom_site_label
_atom_site_fract_x
_atom_site_fract_y
_atom_site_fract_z
Si Si1 0.734455 0.894012 0.829152
Si Si2 0.802920 0.768394 0.670537
Si Si3 0.256291 0.465227 0.666831
Si Si4 0.929838 0.357453 0.836513
Si Si5 0.924298 0.545529 0.837321
Si Si6 0.651375 0.663135 0.329744
Si Si7 0.988219 0.238152 0.671174
O O1 0.782945 0.833385 0.757880
O O2 0.638658 0.905623 0.746873
O O3 0.789424 0.961297 0.803841
O O4 0.719889 0.881203 0.000000
O O5 0.794953 0.783160 0.500000
O O6 0.736166 0.709766 0.714923
O O7 0.906730 0.752403 0.711886
O O8 0.230622 0.456399 0.500000
O O9 0.165344 0.448353 0.748394
O O10 0.328609 0.411155 0.711323
O O11 0.927674 0.292791 0.745126
O O12 0.031294 0.384119 0.842196
O O13 0.893701 0.343502 0.000000
O O14 0.000000 0.500000 0.764137
O O15 0.902479 0.519667 0.000000
O O16 0.630631 0.671214 0.500000
O O17 0.558973 0.675186 0.239235
O O18 0.972879 0.239117 0.500000
#
# Coordination Sequence:
#
# PCOD8236953 Si02
#       7
#     8   8   8   8   8   8   8
#     4  11  22  36  58  87 117 152 198 243 288 349
#     4  10  22  40  62  86 118 157 197 244 300 352
#     4  10  22  38  57  84 119 158 197 244 297 347
#     4  11  21  35  56  82 117 156 190 235 297 353
#     4  10  20  33  51  80 116 153 191 231 284 355
#     4  10  21  40  62  85 118 159 196 240 300 355
#     4  11  23  39  61  90 117 149 199 251 295 350
#
# _framework density 19.791118000000001
#
# number of rings (size 3 to 8) (size 9 to 14) (size 15 to 20)
#    0.000    1.571    2.857    2.143    0.000    4.857 
#    0.000    0.714    0.000    4.286    0.000    0.000 
#    0.000    0.000    0.000    0.000    0.000    0.000 
#
# Total GULP energy -694052.539031 kJ/mol
# GULP energy per Si atom -12393.795340 kJ/mol
# Density = 1.974607 g / cm^3
# Si number density = 19.791118 Si / 1000 Ang^3
#
#
#
# Elastic Constant Matrix: (Units=GPa)
#
#
# Indices 1 2 3 4 5 6 
#
# 1 52.0042 9.9173 25.6081 0.0000 0.0000 0.0000
# 2 9.9173 99.8985 37.3506 0.0000 0.0000 0.0000
# 3 25.6081 37.3506 68.7898 0.0000 0.0000 0.0000
# 4 0.0000 0.0000 0.0000 -12.5489 0.0000 0.0000
# 5 0.0000 0.0000 0.0000 0.0000 33.0418 0.0000
# 6 0.0000 0.0000 0.0000 0.0000 0.0000 26.1713
#
#
#
# Elastic Compliance Matrix: (Units=1/GPa)
#
#
# Indices 1 2 3 4 5 6 
#
# 1 0.023657 0.001185 -0.009450 0.000000 0.000000 0.000000
# 2 0.001185 0.012619 -0.007293 0.000000 0.000000 0.000000
# 3 -0.009450 -0.007293 0.022015 0.000000 0.000000 0.000000
# 4 0.000000 0.000000 0.000000 -0.079688 0.000000 0.000000
# 5 0.000000 0.000000 0.000000 0.000000 0.030265 0.000000
# 6 0.000000 0.000000 0.000000 0.000000 0.000000 0.038210
#
#
# Mechanical properties :
#
#
# Convention : Reuss Voigt Hill
#
# Bulk Modulus (GPa) = 36.79914 40.71606 38.75760
# Shear Modulus (GPa) = 57.30595 19.18728 38.24661
#
# Velocity S-wave (km/s) = 5.38686 3.11704 4.40081
# Velocity P-wave (km/s) = 7.57134 5.79415 6.74156
#
# Compressibility (1/GPa) = 0.02717455
#
# Stress axis : x y z
#
# Youngs Moduli (GPa) = 42.27150 79.24413 45.42436
#
# Poissons Ratio (x) = -0.09388 0.42925
# Poissons Ratio (y) = -0.05008 0.33127
# Poissons Ratio (z) = 0.39946 0.57791
#
# Static dielectric constant tensor:
#      x y z
#    x 3.500220 0.000000 0.000000 
#    y 0.000000 3.848160 0.000000 
#    z 0.000000 0.000000 3.592820 
# 
# 
# High freq. dielectric constant tensor:
#      x y z
#    x 1.751420 0.000000 0.000000 
#    y 0.000000 1.780880 0.000000 
#    z 0.000000 0.000000 1.771580 
# 
# From -- ./inp_files/6256.got.cif
#   From: 2010.06.25/outbox.cif.g09.slc.cpg/sg58_4_cif.got.tgz:6256.got - 2010.06.26 21:38:00.
