data_PCOD8236376
_publ_section_title
;
Structure prediction by ZEFSAII (Michael W. Deem and Ramdas Pophale) SiO2 
 PCOD8236376
Probable space group: P N N M
;
_chemical_formula_sum "Si O2"
_cell_formula_units_Z 48
_cell_length_a 9.902333
_cell_length_b 16.475543
_cell_length_c 13.964720
_cell_angle_alpha 90.000000
_cell_angle_beta 90.000000
_cell_angle_gamma 90.000000
_cell_volume 2278.292582
_symmetry_space_group_name_H-M "P N N M"
_symmetry_group_IT_number 58
_symmetry_cell_setting 'orthorhombic'
loop_
_space_group_symop_operation_xyz
x,y,z
-x,-y,z
1/2+x,1/2-y,1/2-z
1/2-x,1/2+y,1/2-z
-x,-y,-z
x,y,-z
1/2-x,1/2+y,1/2+z
1/2+x,1/2-y,1/2+z
loop_
_atom_site_type_symbol
_atom_site_label
_atom_site_fract_x
_atom_site_fract_y
_atom_site_fract_z
Si Si1 0.721442 0.688187 0.797931
Si Si2 0.227380 0.628724 0.237389
Si Si3 0.385340 0.562285 0.606682
Si Si4 0.496403 0.145244 0.607527
Si Si5 0.979552 0.906097 0.611609
Si Si6 0.112155 0.819619 0.102695
O O1 0.699430 0.784936 0.789810
O O2 0.610118 0.648167 0.866047
O O3 0.707403 0.651243 0.689858
O O4 0.863049 0.663344 0.842584
O O5 0.258781 0.563247 0.321317
O O6 0.098028 0.591667 0.178728
O O7 0.356232 0.634411 0.168027
O O8 0.500000 0.500000 0.640809
O O9 0.333548 0.541800 0.500000
O O10 0.457999 0.649715 0.613427
O O11 0.516761 0.108232 0.500000
O O12 0.400290 0.223395 0.600487
O O13 0.946211 0.900325 0.500000
O O14 0.000000 0.000000 0.642230
O O15 0.171686 0.850983 0.000000
#
# Coordination Sequence:
#
# PCOD8236376 Si02
#       6
#     8   8   8   8   8   8
#     4  11  20  36  59  90 120 164 213 255 309 371
#     4  11  20  37  58  89 122 160 204 257 315 367
#     4  10  19  33  58  87 114 151 200 251 305 366
#     4  10  20  34  54  81 119 155 193 250 308 361
#     4  11  24  41  64  92 126 168 217 264 311 377
#     4   9  18  33  53  80 113 149 194 247 301 355
#
# _framework density 21.068408999999999
#
# number of rings (size 3 to 8) (size 9 to 14) (size 15 to 20)
#    0.000    1.667    3.333    2.500    0.000    1.333 
#    0.000    1.667    0.000    3.000    0.000    3.500 
#    0.000    0.000    0.000    0.000    0.000    0.000 
#
# Total GULP energy -594756.222506 kJ/mol
# GULP energy per Si atom -12390.754636 kJ/mol
# Density = 2.102046 g / cm^3
# Si number density = 21.068409 Si / 1000 Ang^3
#
#
#
# Elastic Constant Matrix: (Units=GPa)
#
#
# Indices 1 2 3 4 5 6 
#
# 1 104.8845 6.4786 48.7644 0.0000 0.0000 0.0000
# 2 6.4786 42.9579 6.3266 0.0000 0.0000 0.0000
# 3 48.7644 6.3266 139.9612 0.0000 0.0000 0.0000
# 4 0.0000 0.0000 0.0000 19.1946 0.0000 0.0000
# 5 0.0000 0.0000 0.0000 0.0000 33.0882 0.0000
# 6 0.0000 0.0000 0.0000 0.0000 0.0000 28.2182
#
#
#
# Elastic Compliance Matrix: (Units=1/GPa)
#
#
# Indices 1 2 3 4 5 6 
#
# 1 0.011433 -0.001145 -0.003932 0.000000 0.000000 0.000000
# 2 -0.001145 0.023549 -0.000665 0.000000 0.000000 0.000000
# 3 -0.003932 -0.000665 0.008545 0.000000 0.000000 0.000000
# 4 0.000000 0.000000 0.000000 0.052098 0.000000 0.000000
# 5 0.000000 0.000000 0.000000 0.000000 0.030222 0.000000
# 6 0.000000 0.000000 0.000000 0.000000 0.000000 0.035438
#
#
# Mechanical properties :
#
#
# Convention : Reuss Voigt Hill
#
# Bulk Modulus (GPa) = 31.20865 45.66030 38.43448
# Shear Modulus (GPa) = 27.25526 31.18249 29.21887
#
# Velocity S-wave (km/s) = 3.60064 3.85133 3.72809
# Velocity P-wave (km/s) = 5.66845 6.44177 6.06744
#
# Compressibility (1/GPa) = 0.03204240
#
# Stress axis : x y z
#
# Youngs Moduli (GPa) = 87.46625 42.46409 117.03092
#
# Poissons Ratio (x) = 0.04863 0.46012
# Poissons Ratio (y) = 0.10017 0.07788
# Poissons Ratio (z) = 0.34389 0.02826
#
# Static dielectric constant tensor:
#      x y z
#    x 3.755850 0.000000 0.000000 
#    y 0.000000 3.707290 0.000000 
#    z 0.000000 0.000000 4.412380 
# 
# 
# High freq. dielectric constant tensor:
#      x y z
#    x 1.798980 0.000000 0.000000 
#    y 0.000000 1.803440 0.000000 
#    z 0.000000 0.000000 1.852990 
# 
# From -- ./inp_files/19800.got.cif
#   From: 2010.06.25/outbox.cif.g09.slc.cpg/sg58_10_cif.got.tgz:19800.got - 2010.06.26 21:38:00.
