data_PCOD8236451
_publ_section_title
;
Structure prediction by ZEFSAII (Michael W. Deem and Ramdas Pophale) SiO2 
 PCOD8236451
Probable space group: P N N M
;
_chemical_formula_sum "Si O2"
_cell_formula_units_Z 64
_cell_length_a 9.374521
_cell_length_b 26.239732
_cell_length_c 13.437958
_cell_angle_alpha 90.000000
_cell_angle_beta 90.000000
_cell_angle_gamma 90.000000
_cell_volume 3305.535006
_symmetry_space_group_name_H-M "P N N M"
_symmetry_group_IT_number 58
_symmetry_cell_setting 'orthorhombic'
loop_
_space_group_symop_operation_xyz
x,y,z
-x,-y,z
1/2+x,1/2-y,1/2-z
1/2-x,1/2+y,1/2-z
-x,-y,-z
x,y,-z
1/2-x,1/2+y,1/2+z
1/2+x,1/2-y,1/2+z
loop_
_atom_site_type_symbol
_atom_site_label
_atom_site_fract_x
_atom_site_fract_y
_atom_site_fract_z
Si Si1 0.830163 0.106847 0.610182
Si Si2 0.598551 0.455736 0.889013
Si Si3 0.178189 0.555568 0.722822
Si Si4 0.298701 0.843508 0.111311
Si Si5 0.079036 0.810838 0.752686
Si Si6 0.827073 0.853283 0.884430
Si Si7 0.570468 0.780220 0.888618
Si Si8 0.651895 0.059041 0.769966
O O1 0.766906 0.115213 0.500000
O O2 0.828927 0.159182 0.670126
O O3 0.731185 0.064044 0.663255
O O4 0.996809 0.092978 0.604653
O O5 0.500000 0.500000 0.840102
O O6 0.736655 0.441169 0.826088
O O7 0.648475 0.472844 0.000000
O O8 0.248699 0.593472 0.642439
O O9 0.181259 0.497001 0.684105
O O10 0.015354 0.570757 0.744758
O O11 0.196745 0.800996 0.162012
O O12 0.461645 0.826822 0.120132
O O13 0.278666 0.899754 0.156719
O O14 0.245038 0.847822 0.000000
O O15 0.029295 0.759368 0.698578
O O16 0.953221 0.843092 0.805479
O O17 0.724998 0.804526 0.871996
O O18 0.878213 0.857342 0.000000
O O19 0.559614 0.755604 0.000000
#
# Coordination Sequence:
#
# PCOD8236451 Si02
#       8
#     8   8   8   8   8   8   8   8
#     4  10  20  35  56  83 115 148 187 234 284 338
#     4  10  19  34  56  81 112 150 187 230 285 340
#     4  11  21  37  56  86 114 153 194 237 280 337
#     4  10  21  39  58  83 116 151 191 233 282 340
#     4  11  21  37  61  87 112 149 188 235 288 339
#     4  11  23  39  59  86 118 148 189 237 284 335
#     4  10  21  39  62  84 111 148 189 235 286 343
#     4  10  22  35  58  82 116 153 195 234 281 337
#
# _framework density 19.361466
#
# number of rings (size 3 to 8) (size 9 to 14) (size 15 to 20)
#    0.000    1.625    3.750    1.500    0.000    1.000 
#    0.000    2.500    0.000    4.125    0.000    0.000 
#    0.000    0.000    0.000    0.000    0.000    0.000 
#
# Total GULP energy -793255.305560 kJ/mol
# GULP energy per Si atom -12394.614149 kJ/mol
# Density = 1.931740 g / cm^3
# Si number density = 19.361466 Si / 1000 Ang^3
#
#
#
# Elastic Constant Matrix: (Units=GPa)
#
#
# Indices 1 2 3 4 5 6 
#
# 1 72.4577 19.1747 42.8507 0.0000 0.0000 0.0000
# 2 19.1747 80.0601 53.3118 0.0000 0.0000 0.0000
# 3 42.8507 53.3118 133.8704 0.0000 0.0000 0.0000
# 4 0.0000 0.0000 0.0000 27.3627 0.0000 0.0000
# 5 0.0000 0.0000 0.0000 0.0000 26.6604 0.0000
# 6 0.0000 0.0000 0.0000 0.0000 0.0000 26.3697
#
#
#
# Elastic Compliance Matrix: (Units=1/GPa)
#
#
# Indices 1 2 3 4 5 6 
#
# 1 0.017046 -0.000611 -0.005213 0.000000 0.000000 0.000000
# 2 -0.000611 0.017020 -0.006582 0.000000 0.000000 0.000000
# 3 -0.005213 -0.006582 0.011760 0.000000 0.000000 0.000000
# 4 0.000000 0.000000 0.000000 0.036546 0.000000 0.000000
# 5 0.000000 0.000000 0.000000 0.000000 0.037509 0.000000
# 6 0.000000 0.000000 0.000000 0.000000 0.000000 0.037922
#
#
# Mechanical properties :
#
#
# Convention : Reuss Voigt Hill
#
# Bulk Modulus (GPa) = 47.59002 57.45138 52.52070
# Shear Modulus (GPa) = 26.36853 27.48196 26.92524
#
# Velocity S-wave (km/s) = 3.69441 3.77160 3.73320
# Velocity P-wave (km/s) = 6.54456 6.97883 6.76518
#
# Compressibility (1/GPa) = 0.02101281
#
# Stress axis : x y z
#
# Youngs Moduli (GPa) = 58.66596 58.75373 85.03583
#
# Poissons Ratio (x) = 0.03592 0.44326
# Poissons Ratio (y) = 0.03587 0.55973
# Poissons Ratio (z) = 0.30581 0.38674
#
# Static dielectric constant tensor:
#      x y z
#    x 3.517880 0.000000 0.000000 
#    y 0.000000 3.383430 0.000000 
#    z 0.000000 0.000000 3.636890 
# 
# 
# High freq. dielectric constant tensor:
#      x y z
#    x 1.753580 0.000000 0.000000 
#    y 0.000000 1.744410 0.000000 
#    z 0.000000 0.000000 1.753560 
# 
# From -- ./inp_files/20322.got.cif
#   From: 2010.06.25/outbox.cif.g09.slc.cpg/sg58_11_cif.got.tgz:20322.got - 2010.06.26 21:38:00.
