data_PCOD8236064
_publ_section_title
;
Structure prediction by ZEFSAII (Michael W. Deem and Ramdas Pophale) SiO2 
 PCOD8236064
Probable space group: P N N M
;
_chemical_formula_sum "Si O2"
_cell_formula_units_Z 48
_cell_length_a 23.597834
_cell_length_b 13.826914
_cell_length_c 8.656113
_cell_angle_alpha 90.000000
_cell_angle_beta 90.000000
_cell_angle_gamma 90.000000
_cell_volume 2824.361746
_symmetry_space_group_name_H-M "P N N M"
_symmetry_group_IT_number 58
_symmetry_cell_setting 'orthorhombic'
loop_
_space_group_symop_operation_xyz
x,y,z
-x,-y,z
1/2+x,1/2-y,1/2-z
1/2-x,1/2+y,1/2-z
-x,-y,-z
x,y,-z
1/2-x,1/2+y,1/2+z
1/2+x,1/2-y,1/2+z
loop_
_atom_site_type_symbol
_atom_site_label
_atom_site_fract_x
_atom_site_fract_y
_atom_site_fract_z
Si Si1 0.334403 0.225004 0.319568
Si Si2 0.061446 0.399186 0.681695
Si Si3 0.337960 0.786061 0.317932
Si Si4 0.722098 0.386864 0.817881
Si Si5 0.441961 0.105602 0.682977
Si Si6 0.726319 0.604558 0.817834
O O1 0.335355 0.244192 0.500000
O O2 0.284614 0.150767 0.274811
O O3 0.393483 0.179837 0.262919
O O4 0.325268 0.328322 0.238445
O O5 0.062593 0.417889 0.500000
O O6 0.105719 0.317198 0.728968
O O7 0.076959 0.498027 0.769486
O O8 0.999295 0.362940 0.731568
O O9 0.347617 0.795273 0.500000
O O10 0.324895 0.675435 0.272260
O O11 0.286182 0.853057 0.257863
O O12 0.717478 0.496278 0.755143
O O13 0.710569 0.379772 0.000000
O O14 0.451126 0.107855 0.500000
O O15 0.727286 0.603836 0.000000
#
# Coordination Sequence:
#
# PCOD8236064 Si02
#       6
#     8   8   8   8   8   8
#     4   9  18  31  49  71  97 126 158 193 233 279
#     4  11  21  32  48  72  98 126 159 198 238 281
#     4  10  19  32  49  71  97 128 161 194 234 283
#     4   9  17  31  48  70  98 127 157 193 233 277
#     4  10  19  33  51  71  97 129 159 194 237 284
#     4   9  18  31  49  71  98 128 159 194 236 282
#
# _framework density 16.994990000000001
#
# number of rings (size 3 to 8) (size 9 to 14) (size 15 to 20)
#    0.000    2.333    0.000    4.500    0.000    5.333 
#    0.000    3.333    0.000    1.000    0.000    7.000 
#    0.000    0.000    0.000    0.000    0.000    0.000 
#
# Total GULP energy -595288.447386 kJ/mol
# GULP energy per Si atom -12401.842654 kJ/mol
# Density = 1.695631 g / cm^3
# Si number density = 16.994990 Si / 1000 Ang^3
#
#
#
# Elastic Constant Matrix: (Units=GPa)
#
#
# Indices 1 2 3 4 5 6 
#
# 1 98.9781 63.0125 23.5014 0.0000 0.0000 0.0000
# 2 63.0125 129.5279 20.6649 0.0000 0.0000 0.0000
# 3 23.5014 20.6649 37.3345 0.0000 0.0000 0.0000
# 4 0.0000 0.0000 0.0000 28.9240 0.0000 0.0000
# 5 0.0000 0.0000 0.0000 0.0000 25.4886 0.0000
# 6 0.0000 0.0000 0.0000 0.0000 0.0000 28.5511
#
#
#
# Elastic Compliance Matrix: (Units=1/GPa)
#
#
# Indices 1 2 3 4 5 6 
#
# 1 0.015870 -0.006720 -0.006270 0.000000 0.000000 0.000000
# 2 -0.006720 0.011314 -0.002032 0.000000 0.000000 0.000000
# 3 -0.006270 -0.002032 0.031857 0.000000 0.000000 0.000000
# 4 0.000000 0.000000 0.000000 0.034573 0.000000 0.000000
# 5 0.000000 0.000000 0.000000 0.000000 0.039233 0.000000
# 6 0.000000 0.000000 0.000000 0.000000 0.000000 0.035025
#
#
# Mechanical properties :
#
#
# Convention : Reuss Voigt Hill
#
# Bulk Modulus (GPa) = 34.48802 53.35536 43.92169
# Shear Modulus (GPa) = 24.08675 27.17017 25.62846
#
# Velocity S-wave (km/s) = 3.76877 4.00273 3.88751
# Velocity P-wave (km/s) = 6.26700 7.26811 6.78604
#
# Compressibility (1/GPa) = 0.02899557
#
# Stress axis : x y z
#
# Youngs Moduli (GPa) = 63.01029 88.38787 31.39054
#
# Poissons Ratio (x) = 0.59399 0.19683
# Poissons Ratio (y) = 0.42344 0.06378
# Poissons Ratio (z) = 0.39510 0.17960
#
# Static dielectric constant tensor:
#      x y z
#    x 3.179190 0.000000 0.000000 
#    y 0.000000 3.238140 0.000000 
#    z 0.000000 0.000000 3.119710 
# 
# 
# High freq. dielectric constant tensor:
#      x y z
#    x 1.645100 0.000000 0.000000 
#    y 0.000000 1.646820 0.000000 
#    z 0.000000 0.000000 1.658560 
# 
# From -- ./inp_files/4244.got.cif
#   From: 2010.06.25/outbox.cif.g09.slc.cpg/sg58_3_cif.got.tgz:4244.got - 2010.06.26 21:38:00.
