data_PCOD8236132
_publ_section_title
;
Structure prediction by ZEFSAII (Michael W. Deem and Ramdas Pophale) SiO2 
 PCOD8236132
Probable space group: P N N M
;
_chemical_formula_sum "Si O2"
_cell_formula_units_Z 64
_cell_length_a 14.735658
_cell_length_b 24.509579
_cell_length_c 9.329827
_cell_angle_alpha 90.000000
_cell_angle_beta 90.000000
_cell_angle_gamma 90.000000
_cell_volume 3369.604859
_symmetry_space_group_name_H-M "P N N M"
_symmetry_group_IT_number 58
_symmetry_cell_setting 'orthorhombic'
loop_
_space_group_symop_operation_xyz
x,y,z
-x,-y,z
1/2+x,1/2-y,1/2-z
1/2-x,1/2+y,1/2-z
-x,-y,-z
x,y,-z
1/2-x,1/2+y,1/2+z
1/2+x,1/2-y,1/2+z
loop_
_atom_site_type_symbol
_atom_site_label
_atom_site_fract_x
_atom_site_fract_y
_atom_site_fract_z
Si Si1 0.136512 0.657846 0.655339
Si Si2 0.553004 0.922354 0.661517
Si Si3 0.854724 0.594045 0.163401
Si Si4 0.429741 0.691971 0.169358
Si Si5 0.685444 0.200667 0.170327
Si Si6 0.133980 0.784857 0.341434
Si Si7 0.178225 0.104662 0.830426
Si Si8 0.272504 0.014889 0.668566
O O1 0.121188 0.630768 0.500000
O O2 0.059320 0.635763 0.759703
O O3 0.126259 0.721112 0.644776
O O4 0.235821 0.641705 0.710534
O O5 0.579729 0.911070 0.500000
O O6 0.448684 0.941309 0.676693
O O7 0.629192 0.963136 0.723609
O O8 0.858688 0.645421 0.268588
O O9 0.774638 0.550499 0.199822
O O10 0.844351 0.615248 0.000000
O O11 0.372735 0.746035 0.218724
O O12 0.535451 0.695924 0.211060
O O13 0.402626 0.637356 0.254671
O O14 0.415748 0.683595 0.000000
O O15 0.788177 0.200561 0.228833
O O16 0.688058 0.196783 0.000000
O O17 0.157166 0.809204 0.500000
O O18 0.192969 0.044483 0.759888
O O19 0.160005 0.098684 0.000000
O O20 0.256013 0.025450 0.500000
#
# Coordination Sequence:
#
# PCOD8236132 Si02
#       8
#     8   8   8   8   8   8   8   8
#     4   9  17  30  48  72 105 140 172 212 263 314
#     4   9  17  29  49  77 106 139 181 222 259 310
#     4  10  20  34  52  75 107 147 183 218 267 324
#     4  10  21  36  56  80 109 145 181 221 272 324
#     4  11  23  37  55  81 113 146 181 225 270 320
#     4  10  20  36  55  76 107 146 183 221 268 325
#     4  10  19  32  53  78 105 137 176 222 266 312
#     4   9  18  33  53  76 106 143 183 224 266 318
#
# _framework density 18.993324999999999
#
# number of rings (size 3 to 8) (size 9 to 14) (size 15 to 20)
#    0.000    2.250    1.250    1.875    0.000    5.500 
#    0.000    0.000    0.000    4.500    0.000    5.250 
#    0.000    0.000    0.000    0.000    0.000    0.000 
#
# Total GULP energy -793003.616568 kJ/mol
# GULP energy per Si atom -12390.681509 kJ/mol
# Density = 1.895010 g / cm^3
# Si number density = 18.993325 Si / 1000 Ang^3
#
#
#
# Elastic Constant Matrix: (Units=GPa)
#
#
# Indices 1 2 3 4 5 6 
#
# 1 64.1426 4.2659 20.2116 0.0000 0.0000 0.0000
# 2 4.2659 43.8027 17.4080 0.0000 0.0000 0.0000
# 3 20.2116 17.4080 58.0627 0.0000 0.0000 0.0000
# 4 0.0000 0.0000 0.0000 25.6973 0.0000 0.0000
# 5 0.0000 0.0000 0.0000 0.0000 25.7836 0.0000
# 6 0.0000 0.0000 0.0000 0.0000 0.0000 20.7011
#
#
#
# Elastic Compliance Matrix: (Units=1/GPa)
#
#
# Indices 1 2 3 4 5 6 
#
# 1 0.017537 0.000815 -0.006349 0.000000 0.000000 0.000000
# 2 0.000815 0.025956 -0.008066 0.000000 0.000000 0.000000
# 3 -0.006349 -0.008066 0.021851 0.000000 0.000000 0.000000
# 4 0.000000 0.000000 0.000000 0.038915 0.000000 0.000000
# 5 0.000000 0.000000 0.000000 0.000000 0.038784 0.000000
# 6 0.000000 0.000000 0.000000 0.000000 0.000000 0.048307
#
#
# Mechanical properties :
#
#
# Convention : Reuss Voigt Hill
#
# Bulk Modulus (GPa) = 26.21595 27.75323 26.98459
# Shear Modulus (GPa) = 21.62047 22.71124 22.16586
#
# Velocity S-wave (km/s) = 3.37756 3.46171 3.41989
# Velocity P-wave (km/s) = 5.38918 5.53369 5.46191
#
# Compressibility (1/GPa) = 0.03814472
#
# Stress axis : x y z
#
# Youngs Moduli (GPa) = 57.02356 38.52719 45.76441
#
# Poissons Ratio (x) = -0.03141 0.29056
# Poissons Ratio (y) = -0.04649 0.36912
# Poissons Ratio (z) = 0.36204 0.31075
#
# Static dielectric constant tensor:
#      x y z
#    x 3.601590 0.000000 0.000000 
#    y 0.000000 3.411110 0.000000 
#    z 0.000000 0.000000 3.561230 
# 
# 
# High freq. dielectric constant tensor:
#      x y z
#    x 1.720930 0.000000 0.000000 
#    y 0.000000 1.728270 0.000000 
#    z 0.000000 0.000000 1.733100 
# 
# From -- ./inp_files/6854.got.cif
#   From: 2010.06.25/outbox.cif.g09.slc.cpg/sg58_4_cif.got.tgz:6854.got - 2010.06.26 21:38:00.
