data_PCOD8236491
_publ_section_title
;
Structure prediction by ZEFSAII (Michael W. Deem and Ramdas Pophale) SiO2 
 PCOD8236491
Probable space group: P N N M
;
_chemical_formula_sum "Si O2"
_cell_formula_units_Z 64
_cell_length_a 21.972231
_cell_length_b 5.167755
_cell_length_c 27.797698
_cell_angle_alpha 90.000000
_cell_angle_beta 90.000000
_cell_angle_gamma 90.000000
_cell_volume 3156.348178
_symmetry_space_group_name_H-M "P N N M"
_symmetry_group_IT_number 58
_symmetry_cell_setting 'orthorhombic'
loop_
_space_group_symop_operation_xyz
x,y,z
-x,-y,z
1/2+x,1/2-y,1/2-z
1/2-x,1/2+y,1/2-z
-x,-y,-z
x,y,-z
1/2-x,1/2+y,1/2+z
1/2+x,1/2-y,1/2+z
loop_
_atom_site_type_symbol
_atom_site_label
_atom_site_fract_x
_atom_site_fract_y
_atom_site_fract_z
Si Si1 0.282406 0.780763 0.554537
Si Si2 0.316492 0.828762 0.161412
Si Si3 0.089028 0.433307 0.054403
Si Si4 0.034643 0.750419 0.556996
Si Si5 0.661080 0.656148 0.103976
Si Si6 0.713317 0.257775 0.740863
Si Si7 0.811449 0.021237 0.852535
Si Si8 0.563404 0.580930 0.388330
O O1 0.279128 0.666982 0.500000
O O2 0.337632 0.989675 0.557435
O O3 0.217138 0.903650 0.568048
O O4 0.296241 0.558075 0.592922
O O5 0.352500 0.612698 0.131419
O O6 0.336667 0.820578 0.217810
O O7 0.242316 0.775833 0.161320
O O8 0.325554 0.118124 0.142052
O O9 0.052175 0.653924 0.082599
O O10 0.078657 0.148045 0.074902
O O11 0.065697 0.437866 0.000000
O O12 0.033451 0.745492 0.500000
O O13 0.103966 0.754544 0.573212
O O14 0.000000 0.500000 0.578015
O O15 0.000000 0.000000 0.577488
O O16 0.764603 0.039105 0.740782
O O17 0.687349 0.285972 0.686640
O O18 0.880617 0.132121 0.851372
O O19 0.500000 0.500000 0.361683
#
# Coordination Sequence:
#
# PCOD8236491 Si02
#       8
#     8   8   8   8   8   8   8   8
#     4   9  18  33  53  80 110 139 171 214 274 328
#     4  10  20  34  56  85 108 136 178 228 284 333
#     4  10  21  36  52  73 104 139 180 228 266 305
#     4  10  21  37  56  80 112 154 196 227 264 324
#     4  11  20  35  56  82 112 141 177 224 277 329
#     4  10  19  34  57  83 109 138 174 219 275 333
#     4   9  20  36  55  79 113 142 175 225 275 319
#     4  11  22  35  52  74 101 142 185 218 263 318
#
# _framework density 20.276595
#
# number of rings (size 3 to 8) (size 9 to 14) (size 15 to 20)
#    0.000    2.000    0.000    4.875    0.000    5.000 
#    0.000    8.125    0.000    2.250    0.000    1.750 
#    0.000    0.000    0.000    0.000    0.000    0.000 
#
# Total GULP energy -792896.364225 kJ/mol
# GULP energy per Si atom -12389.005691 kJ/mol
# Density = 2.023044 g / cm^3
# Si number density = 20.276595 Si / 1000 Ang^3
#
#
#
# Elastic Constant Matrix: (Units=GPa)
#
#
# Indices 1 2 3 4 5 6 
#
# 1 82.0312 6.8267 -2.3364 0.0000 0.0000 0.0000
# 2 6.8267 99.5029 20.1417 0.0000 0.0000 0.0000
# 3 -2.3364 20.1417 81.7592 0.0000 0.0000 0.0000
# 4 0.0000 0.0000 0.0000 23.1723 0.0000 0.0000
# 5 0.0000 0.0000 0.0000 0.0000 14.7759 0.0000
# 6 0.0000 0.0000 0.0000 0.0000 0.0000 25.2984
#
#
#
# Elastic Compliance Matrix: (Units=1/GPa)
#
#
# Indices 1 2 3 4 5 6 
#
# 1 0.012287 -0.000962 0.000588 0.000000 0.000000 0.000000
# 2 -0.000962 0.010653 -0.002652 0.000000 0.000000 0.000000
# 3 0.000588 -0.002652 0.012901 0.000000 0.000000 0.000000
# 4 0.000000 0.000000 0.000000 0.043155 0.000000 0.000000
# 5 0.000000 0.000000 0.000000 0.000000 0.067678 0.000000
# 6 0.000000 0.000000 0.000000 0.000000 0.000000 0.039528
#
#
# Mechanical properties :
#
#
# Convention : Reuss Voigt Hill
#
# Bulk Modulus (GPa) = 33.56870 34.72860 34.14865
# Shear Modulus (GPa) = 24.73001 28.56008 26.64504
#
# Velocity S-wave (km/s) = 3.49611 3.75710 3.62896
# Velocity P-wave (km/s) = 5.73484 5.99881 5.86831
#
# Compressibility (1/GPa) = 0.02978965
#
# Stress axis : x y z
#
# Youngs Moduli (GPa) = 81.38483 93.87244 77.51259
#
# Poissons Ratio (x) = 0.09031 -0.04559
# Poissons Ratio (y) = 0.07830 0.20555
# Poissons Ratio (z) = -0.04786 0.24893
#
# Static dielectric constant tensor:
#      x y z
#    x 3.929960 0.000000 0.000000 
#    y 0.000000 3.577290 0.000000 
#    z 0.000000 0.000000 3.836160 
# 
# 
# High freq. dielectric constant tensor:
#      x y z
#    x 1.773550 0.000000 0.000000 
#    y 0.000000 1.789230 0.000000 
#    z 0.000000 0.000000 1.782140 
# 
# From -- ./inp_files/33855.got.cif
#   From: 2010.06.25/outbox.cif.g09.slc.cpg/sg58_17_cif.got.tgz:33855.got - 2010.06.26 21:38:00.
