data_PCOD8236762
_publ_section_title
;
Structure prediction by ZEFSAII (Michael W. Deem and Ramdas Pophale) SiO2 
 PCOD8236762
Probable space group: P N N M
;
_chemical_formula_sum "Si O2"
_cell_formula_units_Z 24
_cell_length_a 14.575578
_cell_length_b 12.483744
_cell_length_c 5.362304
_cell_angle_alpha 90.000000
_cell_angle_beta 90.000000
_cell_angle_gamma 90.000000
_cell_volume 975.712955
_symmetry_space_group_name_H-M "P N N M"
_symmetry_group_IT_number 58
_symmetry_cell_setting 'orthorhombic'
loop_
_space_group_symop_operation_xyz
x,y,z
-x,-y,z
1/2+x,1/2-y,1/2-z
1/2-x,1/2+y,1/2-z
-x,-y,-z
x,y,-z
1/2-x,1/2+y,1/2+z
1/2+x,1/2-y,1/2+z
loop_
_atom_site_type_symbol
_atom_site_label
_atom_site_fract_x
_atom_site_fract_y
_atom_site_fract_z
Si Si1 0.320048 0.998861 0.500000
Si Si2 0.551818 0.320225 0.000000
Si Si3 0.040369 0.117391 0.000000
Si Si4 0.585939 0.075270 0.000000
Si Si5 0.659732 0.642897 0.000000
Si Si6 0.857232 0.250485 0.000000
O O1 0.357674 0.943217 0.251262
O O2 0.210736 0.972606 0.500000
O O3 0.347146 0.122355 0.500000
O O4 0.601570 0.364117 0.251002
O O5 0.545276 0.193856 0.000000
O O6 0.449703 0.373888 0.000000
O O7 0.962788 0.211040 0.000000
O O8 0.000000 0.000000 0.000000
O O9 0.500000 0.000000 0.000000
O O10 0.691572 0.707122 0.249091
#
# Coordination Sequence:
#
# PCOD8236762 Si02
#       6
#     4   4   4   4   4   4
#     4  12  24  42  68  97 127 171 224 266 323 398
#     4  10  21  39  60  89 129 166 206 263 323 379
#     4  10  19  36  61  86 120 164 206 250 317 386
#     4  12  23  40  67  99 130 167 214 274 332 388
#     4  10  22  42  63  90 125 168 212 257 318 380
#     4  10  21  41  64  91 127 166 208 266 318 375
#
# _framework density 24.597397000000001
#
# number of rings (size 3 to 8) (size 9 to 14) (size 15 to 20)
#    0.000    1.333    0.000    8.000    0.000    0.000 
#    0.000   20.000    0.000    0.000    0.000    0.000 
#    0.000    0.000    0.000    0.000    0.000    0.000 
#
# Total GULP energy -297387.913968 kJ/mol
# GULP energy per Si atom -12391.163082 kJ/mol
# Density = 2.454141 g / cm^3
# Si number density = 24.597397 Si / 1000 Ang^3
#
#
#
# Elastic Constant Matrix: (Units=GPa)
#
#
# Indices 1 2 3 4 5 6 
#
# 1 50.7371 0.4339 4.0451 0.0000 0.0000 0.0000
# 2 0.4339 95.4032 50.8329 0.0000 0.0000 0.0000
# 3 4.0451 50.8329 291.3129 0.0000 0.0000 0.0000
# 4 0.0000 0.0000 0.0000 56.7122 0.0000 0.0000
# 5 0.0000 0.0000 0.0000 0.0000 19.2387 0.0000
# 6 0.0000 0.0000 0.0000 0.0000 0.0000 39.2971
#
#
#
# Elastic Compliance Matrix: (Units=1/GPa)
#
#
# Indices 1 2 3 4 5 6 
#
# 1 0.019732 0.000062 -0.000285 0.000000 0.000000 0.000000
# 2 0.000062 0.011556 -0.002017 0.000000 0.000000 0.000000
# 3 -0.000285 -0.002017 0.003789 0.000000 0.000000 0.000000
# 4 0.000000 0.000000 0.000000 0.017633 0.000000 0.000000
# 5 0.000000 0.000000 0.000000 0.000000 0.051979 0.000000
# 6 0.000000 0.000000 0.000000 0.000000 0.000000 0.025447
#
#
# Mechanical properties :
#
#
# Convention : Reuss Voigt Hill
#
# Bulk Modulus (GPa) = 32.68358 60.89744 46.79051
# Shear Modulus (GPa) = 34.52688 48.52569 41.52628
#
# Velocity S-wave (km/s) = 3.75064 4.44644 4.11328
# Velocity P-wave (km/s) = 5.66327 7.15350 6.45155
#
# Compressibility (1/GPa) = 0.03059640
#
# Stress axis : x y z
#
# Youngs Moduli (GPa) = 50.68005 86.53165 263.94139
#
# Poissons Ratio (x) = -0.00537 0.07517
# Poissons Ratio (y) = -0.00314 0.53248
# Poissons Ratio (z) = 0.01443 0.17457
#
# Static dielectric constant tensor:
#      x y z
#    x 3.741950 0.000000 0.000000 
#    y 0.000000 4.325140 0.000000 
#    z 0.000000 0.000000 6.301230 
# 
# 
# High freq. dielectric constant tensor:
#      x y z
#    x 1.928970 0.000000 0.000000 
#    y 0.000000 1.986210 0.000000 
#    z 0.000000 0.000000 2.029970 
# 
# From -- ./inp_files/739.got.cif
#   From: 2010.06.25/outbox.cif.g09.slc.cpg/sg58_1_cif.got.tgz:739.got - 2010.06.26 21:38:00.
