data_PCOD8236097
_publ_section_title
;
Structure prediction by ZEFSAII (Michael W. Deem and Ramdas Pophale) SiO2 
 PCOD8236097
Probable space group: P N N M
;
_chemical_formula_sum "Si O2"
_cell_formula_units_Z 56
_cell_length_a 16.508675
_cell_length_b 19.830706
_cell_length_c 9.656405
_cell_angle_alpha 90.000000
_cell_angle_beta 90.000000
_cell_angle_gamma 90.000000
_cell_volume 3161.301126
_symmetry_space_group_name_H-M "P N N M"
_symmetry_group_IT_number 58
_symmetry_cell_setting 'orthorhombic'
loop_
_space_group_symop_operation_xyz
x,y,z
-x,-y,z
1/2+x,1/2-y,1/2-z
1/2-x,1/2+y,1/2-z
-x,-y,-z
x,y,-z
1/2-x,1/2+y,1/2+z
1/2+x,1/2-y,1/2+z
loop_
_atom_site_type_symbol
_atom_site_label
_atom_site_fract_x
_atom_site_fract_y
_atom_site_fract_z
Si Si1 0.809082 0.107191 0.659806
Si Si2 0.078208 0.698596 0.664464
Si Si3 0.752152 0.484972 0.660938
Si Si4 0.487910 0.337683 0.159295
Si Si5 0.254035 0.250620 0.163792
Si Si6 0.932113 0.449994 0.664813
Si Si7 0.864873 0.860600 0.839668
O O1 0.793452 0.088409 0.500000
O O2 0.752577 0.170549 0.706102
O O3 0.902551 0.126023 0.683273
O O4 0.787761 0.044913 0.754791
O O5 0.085729 0.696573 0.500000
O O6 0.166737 0.714445 0.728259
O O7 0.048569 0.625758 0.720029
O O8 0.017332 0.758999 0.706256
O O9 0.751494 0.504753 0.500000
O O10 0.843404 0.473058 0.714842
O O11 0.700893 0.418016 0.688390
O O12 0.554848 0.375054 0.251567
O O13 0.514413 0.343486 0.000000
O O14 0.173779 0.210676 0.211347
O O15 0.262615 0.245184 0.000000
O O16 0.935027 0.450924 0.500000
O O17 0.000000 0.500000 0.727417
O O18 0.889836 0.858234 0.000000
#
# Coordination Sequence:
#
# PCOD8236097 Si02
#       7
#     8   8   8   8   8   8   8
#     4   9  19  35  53  72 100 139 175 208 251 304
#     4   8  13  27  48  67  91 123 162 202 240 291
#     4  10  20  33  51  77 105 134 168 210 259 306
#     4   9  19  33  51  75  99 131 174 215 251 291
#     4   8  14  29  51  68  88 129 174 202 237 300
#     4   9  16  27  47  75 103 129 159 202 257 306
#     4  10  19  32  52  75 101 134 171 208 253 308
#
# _framework density 17.714224000000002
#
# number of rings (size 3 to 8) (size 9 to 14) (size 15 to 20)
#    0.000    3.000    1.429    1.714    0.000    2.857 
#    0.000    5.000    0.000    2.143    0.000    0.000 
#    0.000    0.000    0.000    0.000    0.000    0.000 
#
# Total GULP energy -694055.013116 kJ/mol
# GULP energy per Si atom -12393.839520 kJ/mol
# Density = 1.767391 g / cm^3
# Si number density = 17.714224 Si / 1000 Ang^3
#
#
#
# Elastic Constant Matrix: (Units=GPa)
#
#
# Indices 1 2 3 4 5 6 
#
# 1 96.0301 58.4801 41.9213 0.0000 0.0000 0.0000
# 2 58.4801 87.2592 48.7417 0.0000 0.0000 0.0000
# 3 41.9213 48.7417 42.4310 0.0000 0.0000 0.0000
# 4 0.0000 0.0000 0.0000 22.6692 0.0000 0.0000
# 5 0.0000 0.0000 0.0000 0.0000 19.7530 0.0000
# 6 0.0000 0.0000 0.0000 0.0000 0.0000 22.7616
#
#
#
# Elastic Compliance Matrix: (Units=1/GPa)
#
#
# Indices 1 2 3 4 5 6 
#
# 1 0.019530 -0.006448 -0.011888 0.000000 0.000000 0.000000
# 2 -0.006448 0.034110 -0.032813 0.000000 0.000000 0.000000
# 3 -0.011888 -0.032813 0.073006 0.000000 0.000000 0.000000
# 4 0.000000 0.000000 0.000000 0.044113 0.000000 0.000000
# 5 0.000000 0.000000 0.000000 0.000000 0.050625 0.000000
# 6 0.000000 0.000000 0.000000 0.000000 0.000000 0.043934
#
#
# Mechanical properties :
#
#
# Convention : Reuss Voigt Hill
#
# Bulk Modulus (GPa) = 41.07104 58.22295 49.64700
# Shear Modulus (GPa) = 13.30738 18.14192 15.72465
#
# Velocity S-wave (km/s) = 2.74382 3.20370 2.98264
# Velocity P-wave (km/s) = 5.76834 6.82819 6.32052
#
# Compressibility (1/GPa) = 0.02434806
#
# Stress axis : x y z
#
# Youngs Moduli (GPa) = 51.20378 29.31662 13.69753
#
# Poissons Ratio (x) = 0.18904 0.16284
# Poissons Ratio (y) = 0.33017 0.44945
# Poissons Ratio (z) = 0.60871 0.96196
#
# Static dielectric constant tensor:
#      x y z
#    x 3.287300 0.000000 0.000000 
#    y 0.000000 3.550880 0.000000 
#    z 0.000000 0.000000 2.795520 
# 
# 
# High freq. dielectric constant tensor:
#      x y z
#    x 1.682500 0.000000 0.000000 
#    y 0.000000 1.696350 0.000000 
#    z 0.000000 0.000000 1.633140 
# 
# From -- ./inp_files/8122.got.cif
#   From: 2010.06.25/outbox.cif.g09.slc.cpg/sg58_5_cif.got.tgz:8122.got - 2010.06.26 21:38:00.
