data_PCOD8236367
_publ_section_title
;
Structure prediction by ZEFSAII (Michael W. Deem and Ramdas Pophale) SiO2 
 PCOD8236367
Probable space group: P N N M
;
_chemical_formula_sum "Si O2"
_cell_formula_units_Z 64
_cell_length_a 28.361021
_cell_length_b 12.786724
_cell_length_c 9.110408
_cell_angle_alpha 90.000000
_cell_angle_beta 90.000000
_cell_angle_gamma 90.000000
_cell_volume 3303.839790
_symmetry_space_group_name_H-M "P N N M"
_symmetry_group_IT_number 58
_symmetry_cell_setting 'orthorhombic'
loop_
_space_group_symop_operation_xyz
x,y,z
-x,-y,z
1/2+x,1/2-y,1/2-z
1/2-x,1/2+y,1/2-z
-x,-y,-z
x,y,-z
1/2-x,1/2+y,1/2+z
1/2+x,1/2-y,1/2+z
loop_
_atom_site_type_symbol
_atom_site_label
_atom_site_fract_x
_atom_site_fract_y
_atom_site_fract_z
Si Si1 0.030963 0.187365 0.329695
Si Si2 0.208108 0.127623 0.327476
Si Si3 0.611895 0.476259 0.170825
Si Si4 0.062561 0.835767 0.174321
Si Si5 0.427581 0.901628 0.826896
Si Si6 0.299351 0.062989 0.836312
Si Si7 0.905780 0.374398 0.327630
Si Si8 0.329452 0.838007 0.166858
O O1 0.017164 0.174982 0.500000
O O2 0.034066 0.312166 0.289022
O O3 0.989893 0.137672 0.231498
O O4 0.079344 0.125467 0.296015
O O5 0.213056 0.132555 0.500000
O O6 0.259428 0.100794 0.271362
O O7 0.195976 0.240421 0.256433
O O8 0.165848 0.048622 0.284095
O O9 0.597449 0.575286 0.267458
O O10 0.607803 0.506686 0.000000
O O11 0.077766 0.722855 0.232719
O O12 0.063313 0.835644 0.000000
O O13 0.378778 0.863551 0.752783
O O14 0.437219 0.022582 0.779263
O O15 0.419121 0.907850 0.000000
O O16 0.351054 0.103651 0.790799
O O17 0.295951 0.937973 0.828394
O O18 0.288004 0.102305 0.000000
O O19 0.913108 0.349966 0.500000
O O20 0.340807 0.803603 0.000000
#
# Coordination Sequence:
#
# PCOD8236367 Si02
#       8
#     8   8   8   8   8   8   8   8
#     4  10  19  36  63  88 108 139 190 240 284 336
#     4  10  19  33  57  85 110 139 181 229 276 329
#     4  10  21  38  60  84 110 145 192 239 277 332
#     4  12  26  39  53  78 118 158 188 228 289 344
#     4   8  14  30  60  87 103 131 183 236 275 319
#     4   9  19  34  55  82 112 144 180 223 276 332
#     4   9  19  38  60  81 110 149 192 234 274 331
#     4   8  14  30  53  77 104 135 173 222 272 316
#
# _framework density 19.371400000000001
#
# number of rings (size 3 to 8) (size 9 to 14) (size 15 to 20)
#    0.000    2.500    1.250    3.000    0.000    4.500 
#    0.000    6.250    0.000    1.500    0.000    0.000 
#    0.000    0.000    0.000    0.000    0.000    0.000 
#
# Total GULP energy -793073.569508 kJ/mol
# GULP energy per Si atom -12391.774524 kJ/mol
# Density = 1.932731 g / cm^3
# Si number density = 19.371400 Si / 1000 Ang^3
#
#
#
# Elastic Constant Matrix: (Units=GPa)
#
#
# Indices 1 2 3 4 5 6 
#
# 1 41.3427 2.4497 18.1246 0.0000 0.0000 0.0000
# 2 2.4497 87.7473 29.1672 0.0000 0.0000 0.0000
# 3 18.1246 29.1672 55.7265 0.0000 0.0000 0.0000
# 4 0.0000 0.0000 0.0000 9.5437 0.0000 0.0000
# 5 0.0000 0.0000 0.0000 0.0000 26.9963 0.0000
# 6 0.0000 0.0000 0.0000 0.0000 0.0000 20.6918
#
#
#
# Elastic Compliance Matrix: (Units=1/GPa)
#
#
# Indices 1 2 3 4 5 6 
#
# 1 0.028765 0.002793 -0.010817 0.000000 0.000000 0.000000
# 2 0.002793 0.014068 -0.008271 0.000000 0.000000 0.000000
# 3 -0.010817 -0.008271 0.025792 0.000000 0.000000 0.000000
# 4 0.000000 0.000000 0.000000 0.104781 0.000000 0.000000
# 5 0.000000 0.000000 0.000000 0.000000 0.037042 0.000000
# 6 0.000000 0.000000 0.000000 0.000000 0.000000 0.048328
#
#
# Mechanical properties :
#
#
# Convention : Reuss Voigt Hill
#
# Bulk Modulus (GPa) = 27.75233 31.58881 29.67057
# Shear Modulus (GPa) = 16.48102 20.45136 18.46619
#
# Velocity S-wave (km/s) = 2.92000 3.25276 3.09086
# Velocity P-wave (km/s) = 5.07209 5.51811 5.29979
#
# Compressibility (1/GPa) = 0.03603302
#
# Stress axis : x y z
#
# Youngs Moduli (GPa) = 34.76462 71.08434 38.77138
#
# Poissons Ratio (x) = -0.19851 0.41940
# Poissons Ratio (y) = -0.09708 0.32069
# Poissons Ratio (z) = 0.37606 0.58796
#
# Static dielectric constant tensor:
#      x y z
#    x 3.503550 0.000000 0.000000 
#    y 0.000000 3.812750 0.000000 
#    z 0.000000 0.000000 3.103140 
# 
# 
# High freq. dielectric constant tensor:
#      x y z
#    x 1.752870 0.000000 0.000000 
#    y 0.000000 1.769900 0.000000 
#    z 0.000000 0.000000 1.705310 
# 
# From -- ./inp_files/10936.got.cif
#   From: 2010.06.25/outbox.cif.g09.slc.cpg/sg58_6_cif.got.tgz:10936.got - 2010.06.26 21:38:00.
