data_PCOD8236289
_publ_section_title
;
Structure prediction by ZEFSAII (Michael W. Deem and Ramdas Pophale) SiO2 
 PCOD8236289
Probable space group: P N N M
;
_chemical_formula_sum "Si O2"
_cell_formula_units_Z 48
_cell_length_a 19.679788
_cell_length_b 14.859118
_cell_length_c 9.141678
_cell_angle_alpha 90.000000
_cell_angle_beta 90.000000
_cell_angle_gamma 90.000000
_cell_volume 2673.248718
_symmetry_space_group_name_H-M "P N N M"
_symmetry_group_IT_number 58
_symmetry_cell_setting 'orthorhombic'
loop_
_space_group_symop_operation_xyz
x,y,z
-x,-y,z
1/2+x,1/2-y,1/2-z
1/2-x,1/2+y,1/2-z
-x,-y,-z
x,y,-z
1/2-x,1/2+y,1/2+z
1/2+x,1/2-y,1/2+z
loop_
_atom_site_type_symbol
_atom_site_label
_atom_site_fract_x
_atom_site_fract_y
_atom_site_fract_z
Si Si1 0.442338 0.571076 0.672532
Si Si2 0.465072 0.092706 0.670973
Si Si3 0.489234 0.269590 0.172368
Si Si4 0.688379 0.876354 0.330191
Si Si5 0.165281 0.797435 0.331597
Si Si6 0.188544 0.998497 0.670813
O O1 0.500000 0.500000 0.716695
O O2 0.439111 0.586746 0.500000
O O3 0.457095 0.665089 0.751332
O O4 0.370833 0.535708 0.728815
O O5 0.474846 0.113968 0.500000
O O6 0.501599 0.170120 0.764357
O O7 0.385708 0.086682 0.713784
O O8 0.500000 0.000000 0.716263
O O9 0.413680 0.302534 0.214924
O O10 0.502108 0.269989 0.000000
O O11 0.693330 0.856687 0.500000
O O12 0.704418 0.781061 0.254195
O O13 0.742755 0.951049 0.282424
O O14 0.171290 0.771805 0.500000
O O15 0.199929 0.892912 0.296048
O O16 0.170073 0.012668 0.500000
#
# Coordination Sequence:
#
# PCOD8236289 Si02
#       6
#     8   8   8   8   8   8
#     4  11  22  34  53  82 110 137 175 223 274 325
#     4   9  18  35  57  80 109 143 181 224 270 316
#     4  10  19  33  55  79 106 141 179 220 266 322
#     4   9  19  35  55  77 105 141 180 221 263 316
#     4   9  18  33  54  76 102 141 179 215 264 318
#     4  10  20  36  55  76 107 145 181 219 269 323
#
# _framework density 17.955680000000001
#
# number of rings (size 3 to 8) (size 9 to 14) (size 15 to 20)
#    0.000    2.333    1.667    1.000    0.000    3.000 
#    3.000    0.000    0.000    0.000    0.000    0.000 
#    0.000    0.000    0.000    0.000    0.000    0.000 
#
# Total GULP energy -595336.085253 kJ/mol
# GULP energy per Si atom -12402.835109 kJ/mol
# Density = 1.791481 g / cm^3
# Si number density = 17.955680 Si / 1000 Ang^3
#
#
#
# Elastic Constant Matrix: (Units=GPa)
#
#
# Indices 1 2 3 4 5 6 
#
# 1 75.8083 66.0262 37.0709 0.0000 0.0000 0.0000
# 2 66.0262 154.5977 58.8539 0.0000 0.0000 0.0000
# 3 37.0709 58.8539 61.7455 0.0000 0.0000 0.0000
# 4 0.0000 0.0000 0.0000 33.6067 0.0000 0.0000
# 5 0.0000 0.0000 0.0000 0.0000 21.3749 0.0000
# 6 0.0000 0.0000 0.0000 0.0000 0.0000 35.3294
#
#
#
# Elastic Compliance Matrix: (Units=1/GPa)
#
#
# Indices 1 2 3 4 5 6 
#
# 1 0.022733 -0.007083 -0.006897 0.000000 0.000000 0.000000
# 2 -0.007083 0.012359 -0.007528 0.000000 0.000000 0.000000
# 3 -0.006897 -0.007528 0.027512 0.000000 0.000000 0.000000
# 4 0.000000 0.000000 0.000000 0.029756 0.000000 0.000000
# 5 0.000000 0.000000 0.000000 0.000000 0.046784 0.000000
# 6 0.000000 0.000000 0.000000 0.000000 0.000000 0.028305
#
#
# Mechanical properties :
#
#
# Convention : Reuss Voigt Hill
#
# Bulk Modulus (GPa) = 51.05202 68.45039 59.75120
# Shear Modulus (GPa) = 23.04202 26.74223 24.89213
#
# Velocity S-wave (km/s) = 3.58617 3.86339 3.72736
# Velocity P-wave (km/s) = 6.75584 7.62271 7.20233
#
# Compressibility (1/GPa) = 0.01958786
#
# Stress axis : x y z
#
# Youngs Moduli (GPa) = 43.98848 80.91017 36.34823
#
# Poissons Ratio (x) = 0.57312 0.25069
# Poissons Ratio (y) = 0.31159 0.27362
# Poissons Ratio (z) = 0.30339 0.60908
#
# Static dielectric constant tensor:
#      x y z
#    x 3.266580 0.000000 0.000000 
#    y 0.000000 3.461620 0.000000 
#    z 0.000000 0.000000 3.281270 
# 
# 
# High freq. dielectric constant tensor:
#      x y z
#    x 1.676050 0.000000 0.000000 
#    y 0.000000 1.704280 0.000000 
#    z 0.000000 0.000000 1.695400 
# 
# From -- ./inp_files/5774.got.cif
#   From: 2010.06.25/outbox.cif.g09.slc.cpg/sg58_3_cif.got.tgz:5774.got - 2010.06.26 21:38:00.
