data_PCOD8236261
_publ_section_title
;
Structure prediction by ZEFSAII (Michael W. Deem and Ramdas Pophale) SiO2 
 PCOD8236261
Probable space group: P N N M
;
_chemical_formula_sum "Si O2"
_cell_formula_units_Z 64
_cell_length_a 12.634948
_cell_length_b 28.166026
_cell_length_c 9.158814
_cell_angle_alpha 90.000000
_cell_angle_beta 90.000000
_cell_angle_gamma 90.000000
_cell_volume 3259.404599
_symmetry_space_group_name_H-M "P N N M"
_symmetry_group_IT_number 58
_symmetry_cell_setting 'orthorhombic'
loop_
_space_group_symop_operation_xyz
x,y,z
-x,-y,z
1/2+x,1/2-y,1/2-z
1/2-x,1/2+y,1/2-z
-x,-y,-z
x,y,-z
1/2-x,1/2+y,1/2+z
1/2+x,1/2-y,1/2+z
loop_
_atom_site_type_symbol
_atom_site_label
_atom_site_fract_x
_atom_site_fract_y
_atom_site_fract_z
Si Si1 0.054395 0.078529 0.328155
Si Si2 0.759273 0.675826 0.669483
Si Si3 0.187230 0.163864 0.660978
Si Si4 0.312906 0.235644 0.829448
Si Si5 0.000980 0.333496 0.670411
Si Si6 0.379667 0.091186 0.663728
Si Si7 0.839426 0.076492 0.166412
Si Si8 0.261206 0.524918 0.668133
O O1 0.064528 0.067456 0.500000
O O2 0.936597 0.068991 0.274971
O O3 0.082379 0.134110 0.296101
O O4 0.131861 0.043737 0.241829
O O5 0.741161 0.685695 0.500000
O O6 0.686472 0.712736 0.756911
O O7 0.725509 0.622891 0.713189
O O8 0.881776 0.683198 0.712747
O O9 0.174875 0.186993 0.500000
O O10 0.211016 0.205710 0.774482
O O11 0.280206 0.125764 0.660131
O O12 0.421145 0.208906 0.785344
O O13 0.301794 0.242234 0.000000
O O14 0.990783 0.345522 0.500000
O O15 0.975752 0.381937 0.756757
O O16 0.414430 0.076897 0.500000
O O17 0.344460 0.044261 0.752313
O O18 0.760073 0.032046 0.181233
O O19 0.881486 0.080640 0.000000
O O20 0.259463 0.541733 0.500000
#
# Coordination Sequence:
#
# PCOD8236261 Si02
#       8
#     8   8   8   8   8   8   8   8
#     4  10  20  33  53  81 111 143 178 221 274 324
#     4  10  22  40  57  75 106 145 181 218 265 319
#     4   8  16  31  50  75 105 136 170 209 257 315
#     4  10  20  34  55  82 105 131 173 220 266 315
#     4   9  19  37  59  79 103 138 176 216 263 317
#     4   9  17  31  54  82 107 133 171 218 267 315
#     4  10  22  37  52  74 106 146 187 225 268 320
#     4  10  19  33  54  79 108 142 182 223 263 317
#
# _framework density 19.635487000000001
#
# number of rings (size 3 to 8) (size 9 to 14) (size 15 to 20)
#    0.000    2.500    0.000    2.625    0.000    8.500 
#    0.000    4.375    0.000    3.750    0.000    0.000 
#    0.000    0.000    0.000    0.000    0.000    0.000 
#
# Total GULP energy -793615.940275 kJ/mol
# GULP energy per Si atom -12400.249067 kJ/mol
# Density = 1.959080 g / cm^3
# Si number density = 19.635487 Si / 1000 Ang^3
#
#
#
# Elastic Constant Matrix: (Units=GPa)
#
#
# Indices 1 2 3 4 5 6 
#
# 1 48.2363 28.1645 27.3255 0.0000 0.0000 0.0000
# 2 28.1645 118.0580 52.2824 0.0000 0.0000 0.0000
# 3 27.3255 52.2824 93.7586 0.0000 0.0000 0.0000
# 4 0.0000 0.0000 0.0000 31.8933 0.0000 0.0000
# 5 0.0000 0.0000 0.0000 0.0000 15.6821 0.0000
# 6 0.0000 0.0000 0.0000 0.0000 0.0000 24.5234
#
#
#
# Elastic Compliance Matrix: (Units=1/GPa)
#
#
# Indices 1 2 3 4 5 6 
#
# 1 0.026047 -0.003787 -0.005479 0.000000 0.000000 0.000000
# 2 -0.003787 0.011799 -0.005476 0.000000 0.000000 0.000000
# 3 -0.005479 -0.005476 0.015316 0.000000 0.000000 0.000000
# 4 0.000000 0.000000 0.000000 0.031355 0.000000 0.000000
# 5 0.000000 0.000000 0.000000 0.000000 0.063767 0.000000
# 6 0.000000 0.000000 0.000000 0.000000 0.000000 0.040777
#
#
# Mechanical properties :
#
#
# Convention : Reuss Voigt Hill
#
# Bulk Modulus (GPa) = 42.23490 52.84419 47.53955
# Shear Modulus (GPa) = 22.08121 24.57178 23.32649
#
# Velocity S-wave (km/s) = 3.35708 3.54135 3.45044
# Velocity P-wave (km/s) = 6.04837 6.61003 6.33543
#
# Compressibility (1/GPa) = 0.02367710
#
# Stress axis : x y z
#
# Youngs Moduli (GPa) = 38.39274 84.75445 65.29157
#
# Poissons Ratio (x) = 0.32099 0.35775
# Poissons Ratio (y) = 0.14540 0.35751
# Poissons Ratio (z) = 0.21036 0.46408
#
# Static dielectric constant tensor:
#      x y z
#    x 3.392980 0.000000 0.000000 
#    y 0.000000 3.613160 0.000000 
#    z 0.000000 0.000000 3.647630 
# 
# 
# High freq. dielectric constant tensor:
#      x y z
#    x 1.741710 0.000000 0.000000 
#    y 0.000000 1.763420 0.000000 
#    z 0.000000 0.000000 1.768280 
# 
# From -- ./inp_files/4635.got.cif
#   From: 2010.06.25/outbox.cif.g09.slc.cpg/sg58_3_cif.got.tgz:4635.got - 2010.06.26 21:38:00.
