data_PCOD8236126
_publ_section_title
;
Structure prediction by ZEFSAII (Michael W. Deem and Ramdas Pophale) SiO2 
 PCOD8236126
Probable space group: P N N M
;
_chemical_formula_sum "Si O2"
_cell_formula_units_Z 64
_cell_length_a 21.513651
_cell_length_b 12.806608
_cell_length_c 13.067232
_cell_angle_alpha 90.000000
_cell_angle_beta 90.000000
_cell_angle_gamma 90.000000
_cell_volume 3600.243187
_symmetry_space_group_name_H-M "P N N M"
_symmetry_group_IT_number 58
_symmetry_cell_setting 'orthorhombic'
loop_
_space_group_symop_operation_xyz
x,y,z
-x,-y,z
1/2+x,1/2-y,1/2-z
1/2-x,1/2+y,1/2-z
-x,-y,-z
x,y,-z
1/2-x,1/2+y,1/2+z
1/2+x,1/2-y,1/2+z
loop_
_atom_site_type_symbol
_atom_site_label
_atom_site_fract_x
_atom_site_fract_y
_atom_site_fract_z
Si Si1 0.226598 0.816294 0.720803
Si Si2 0.661329 0.272259 0.619606
Si Si3 0.682412 0.460804 0.227889
Si Si4 0.786168 0.348020 0.116778
Si Si5 0.920076 0.405400 0.196031
Si Si6 0.449650 0.873680 0.381500
Si Si7 0.107968 0.731820 0.381562
Si Si8 0.434858 0.459345 0.880534
O O1 0.291321 0.818113 0.658021
O O2 0.235619 0.754039 0.824544
O O3 0.179144 0.757894 0.644418
O O4 0.202427 0.925206 0.765496
O O5 0.670432 0.294941 0.500000
O O6 0.675404 0.380150 0.678673
O O7 0.592152 0.228189 0.642159
O O8 0.737794 0.437042 0.148897
O O9 0.616928 0.468926 0.171520
O O10 0.857247 0.377647 0.137516
O O11 0.777409 0.322241 0.000000
O O12 0.929231 0.530279 0.191583
O O13 0.916563 0.364864 0.313309
O O14 0.978264 0.347327 0.141191
O O15 0.441445 0.907712 0.500000
O O16 0.102013 0.698798 0.500000
O O17 0.068986 0.836243 0.356066
O O18 0.500000 0.500000 0.837258
O O19 0.427827 0.479644 0.000000
#
# Coordination Sequence:
#
# PCOD8236126 Si02
#       8
#     8   8   8   8   8   8   8   8
#     4   9  19  34  51  75 102 135 166 211 257 310
#     4  10  21  35  54  77 106 141 176 217 266 316
#     4  10  20  34  54  78 106 134 174 218 264 312
#     4  10  19  32  53  78 101 130 169 214 258 303
#     4  10  19  32  53  75 102 136 173 216 261 306
#     4  10  20  34  51  74 102 134 175 218 260 314
#     4   9  18  32  51  75 100 130 172 211 254 312
#     4   9  18  32  52  76 102 137 173 211 261 313
#
# _framework density 17.776577
#
# number of rings (size 3 to 8) (size 9 to 14) (size 15 to 20)
#    0.000    2.375    0.000    3.000    1.750    3.000 
#    0.000    1.250    0.000    8.625    0.000    0.000 
#    0.000    0.000    0.000    0.000    0.000    0.000 
#
# Total GULP energy -793333.559370 kJ/mol
# GULP energy per Si atom -12395.836865 kJ/mol
# Density = 1.773612 g / cm^3
# Si number density = 17.776577 Si / 1000 Ang^3
#
#
#
# Elastic Constant Matrix: (Units=GPa)
#
#
# Indices 1 2 3 4 5 6 
#
# 1 118.9777 36.0524 41.8944 0.0000 0.0000 0.0000
# 2 36.0524 73.4574 46.4949 0.0000 0.0000 0.0000
# 3 41.8944 46.4949 110.3131 0.0000 0.0000 0.0000
# 4 0.0000 0.0000 0.0000 23.5321 0.0000 0.0000
# 5 0.0000 0.0000 0.0000 0.0000 23.2554 0.0000
# 6 0.0000 0.0000 0.0000 0.0000 0.0000 24.3825
#
#
#
# Elastic Compliance Matrix: (Units=1/GPa)
#
#
# Indices 1 2 3 4 5 6 
#
# 1 0.010332 -0.003529 -0.002437 0.000000 0.000000 0.000000
# 2 -0.003529 0.019772 -0.006993 0.000000 0.000000 0.000000
# 3 -0.002437 -0.006993 0.012938 0.000000 0.000000 0.000000
# 4 0.000000 0.000000 0.000000 0.042495 0.000000 0.000000
# 5 0.000000 0.000000 0.000000 0.000000 0.043001 0.000000
# 6 0.000000 0.000000 0.000000 0.000000 0.000000 0.041013
#
#
# Mechanical properties :
#
#
# Convention : Reuss Voigt Hill
#
# Bulk Modulus (GPa) = 58.39545 61.29239 59.84392
# Shear Modulus (GPa) = 24.85387 26.12111 25.48749
#
# Velocity S-wave (km/s) = 3.74321 3.83745 3.79062
# Velocity P-wave (km/s) = 7.18353 7.36131 7.27296
#
# Compressibility (1/GPa) = 0.01712462
#
# Stress axis : x y z
#
# Youngs Moduli (GPa) = 96.78494 50.57773 77.29173
#
# Poissons Ratio (x) = 0.17847 0.18833
# Poissons Ratio (y) = 0.34152 0.54052
# Poissons Ratio (z) = 0.23583 0.35370
#
# Static dielectric constant tensor:
#      x y z
#    x 3.570070 0.000000 0.000000 
#    y 0.000000 3.006210 0.000000 
#    z 0.000000 0.000000 3.190930 
# 
# 
# High freq. dielectric constant tensor:
#      x y z
#    x 1.703430 0.000000 0.000000 
#    y 0.000000 1.677310 0.000000 
#    z 0.000000 0.000000 1.678180 
# 
# From -- ./inp_files/14807.got.cif
#   From: 2010.06.25/outbox.cif.g09.slc.cpg/sg58_8_cif.got.tgz:14807.got - 2010.06.26 21:38:00.
