data_PCOD8236035
_publ_section_title
;
Structure prediction by ZEFSAII (Michael W. Deem and Ramdas Pophale) SiO2 
 PCOD8236035
Probable space group: P N N M
;
_chemical_formula_sum "Si O2"
_cell_formula_units_Z 56
_cell_length_a 14.003587
_cell_length_b 22.298235
_cell_length_c 9.168889
_cell_angle_alpha 90.000000
_cell_angle_beta 90.000000
_cell_angle_gamma 90.000000
_cell_volume 2863.033945
_symmetry_space_group_name_H-M "P N N M"
_symmetry_group_IT_number 58
_symmetry_cell_setting 'orthorhombic'
loop_
_space_group_symop_operation_xyz
x,y,z
-x,-y,z
1/2+x,1/2-y,1/2-z
1/2-x,1/2+y,1/2-z
-x,-y,-z
x,y,-z
1/2-x,1/2+y,1/2+z
1/2+x,1/2-y,1/2+z
loop_
_atom_site_type_symbol
_atom_site_label
_atom_site_fract_x
_atom_site_fract_y
_atom_site_fract_z
Si Si1 0.894355 0.024104 0.669283
Si Si2 0.586270 0.883462 0.672574
Si Si3 0.314392 0.825983 0.665656
Si Si4 0.103282 0.840233 0.333747
Si Si5 0.274624 0.039777 0.167645
Si Si6 0.497521 0.757553 0.333198
Si Si7 0.591706 0.072194 0.167008
O O1 0.863861 0.021543 0.500000
O O2 0.889538 0.092319 0.728910
O O3 0.822691 0.982814 0.760040
O O4 0.000000 0.000000 0.694525
O O5 0.593499 0.892548 0.500000
O O6 0.686748 0.901198 0.747796
O O7 0.560701 0.814926 0.714492
O O8 0.502583 0.926104 0.734203
O O9 0.333185 0.849464 0.500000
O O10 0.204748 0.806088 0.684443
O O11 0.385544 0.770728 0.697517
O O12 0.332145 0.879273 0.778188
O O13 0.070413 0.844349 0.500000
O O14 0.023084 0.801918 0.254047
O O15 0.359002 0.991764 0.181285
O O16 0.253075 0.055941 0.000000
O O17 0.517110 0.742647 0.500000
O O18 0.563094 0.085751 0.000000
#
# Coordination Sequence:
#
# PCOD8236035 Si02
#       7
#     8   8   8   8   8   8   8
#     4  10  22  41  63  85 112 149 197 244 287 347
#     4  10  21  36  55  81 117 155 188 229 283 346
#     4   9  18  35  57  80 108 148 193 229 280 350
#     4  10  20  37  62  85 110 148 191 237 287 344
#     4  11  22  35  55  85 117 150 188 234 290 342
#     4   9  20  37  56  82 114 146 188 238 283 339
#     4  10  19  31  52  84 116 144 182 231 281 338
#
# _framework density 19.559671000000002
#
# number of rings (size 3 to 8) (size 9 to 14) (size 15 to 20)
#    0.000    2.143    1.429    2.571    0.000    7.714 
#    2.571    0.000    0.000    0.000    0.000    0.000 
#    0.000    0.000    0.000    0.000    0.000    0.000 
#
# Total GULP energy -694389.390574 kJ/mol
# GULP energy per Si atom -12399.810546 kJ/mol
# Density = 1.951515 g / cm^3
# Si number density = 19.559671 Si / 1000 Ang^3
#
#
#
# Elastic Constant Matrix: (Units=GPa)
#
#
# Indices 1 2 3 4 5 6 
#
# 1 82.3266 40.2969 35.8018 0.0000 0.0000 0.0000
# 2 40.2969 46.3594 23.1333 0.0000 0.0000 0.0000
# 3 35.8018 23.1333 80.4475 0.0000 0.0000 0.0000
# 4 0.0000 0.0000 0.0000 29.8683 0.0000 0.0000
# 5 0.0000 0.0000 0.0000 0.0000 29.2028 0.0000
# 6 0.0000 0.0000 0.0000 0.0000 0.0000 29.0302
#
#
#
# Elastic Compliance Matrix: (Units=1/GPa)
#
#
# Indices 1 2 3 4 5 6 
#
# 1 0.022870 -0.017280 -0.005209 0.000000 0.000000 0.000000
# 2 -0.017280 0.038241 -0.003306 0.000000 0.000000 0.000000
# 3 -0.005209 -0.003306 0.015699 0.000000 0.000000 0.000000
# 4 0.000000 0.000000 0.000000 0.033480 0.000000 0.000000
# 5 0.000000 0.000000 0.000000 0.000000 0.034243 0.000000
# 6 0.000000 0.000000 0.000000 0.000000 0.000000 0.034447
#
#
# Mechanical properties :
#
#
# Convention : Reuss Voigt Hill
#
# Bulk Modulus (GPa) = 39.65150 45.28861 42.47005
# Shear Modulus (GPa) = 20.92243 24.94703 22.93473
#
# Velocity S-wave (km/s) = 3.27413 3.57519 3.42797
# Velocity P-wave (km/s) = 5.88297 6.34405 6.11786
#
# Compressibility (1/GPa) = 0.02521973
#
# Stress axis : x y z
#
# Youngs Moduli (GPa) = 43.72505 26.15008 63.69694
#
# Poissons Ratio (x) = 0.45188 0.33179
# Poissons Ratio (y) = 0.75558 0.21060
# Poissons Ratio (z) = 0.22776 0.08646
#
# Static dielectric constant tensor:
#      x y z
#    x 3.528620 0.000000 0.000000 
#    y 0.000000 3.388530 0.000000 
#    z 0.000000 0.000000 3.581550 
# 
# 
# High freq. dielectric constant tensor:
#      x y z
#    x 1.760710 0.000000 0.000000 
#    y 0.000000 1.743920 0.000000 
#    z 0.000000 0.000000 1.761310 
# 
# From -- ./inp_files/6284.got.cif
#   From: 2010.06.25/outbox.cif.g09.slc.cpg/sg58_4_cif.got.tgz:6284.got - 2010.06.26 21:38:00.
