data_PCOD8236370
_publ_section_title
;
Structure prediction by ZEFSAII (Michael W. Deem and Ramdas Pophale) SiO2 
 PCOD8236370
Probable space group: P N N M
;
_chemical_formula_sum "Si O2"
_cell_formula_units_Z 64
_cell_length_a 20.643390
_cell_length_b 17.722129
_cell_length_c 8.469438
_cell_angle_alpha 90.000000
_cell_angle_beta 90.000000
_cell_angle_gamma 90.000000
_cell_volume 3098.500026
_symmetry_space_group_name_H-M "P N N M"
_symmetry_group_IT_number 58
_symmetry_cell_setting 'orthorhombic'
loop_
_space_group_symop_operation_xyz
x,y,z
-x,-y,z
1/2+x,1/2-y,1/2-z
1/2-x,1/2+y,1/2-z
-x,-y,-z
x,y,-z
1/2-x,1/2+y,1/2+z
1/2+x,1/2-y,1/2+z
loop_
_atom_site_type_symbol
_atom_site_label
_atom_site_fract_x
_atom_site_fract_y
_atom_site_fract_z
Si Si1 0.249169 0.826770 0.184370
Si Si2 0.993525 0.664686 0.682861
Si Si3 0.006787 0.170498 0.814522
Si Si4 0.629368 0.068395 0.183518
Si Si5 0.120651 0.910640 0.812064
Si Si6 0.743488 0.834114 0.184124
Si Si7 0.870461 0.919566 0.811864
Si Si8 0.881399 0.406745 0.818420
O O1 0.307518 0.883049 0.219381
O O2 0.183530 0.865504 0.246049
O O3 0.261688 0.752424 0.286154
O O4 0.245197 0.805777 0.000000
O O5 0.986523 0.685121 0.500000
O O6 0.058705 0.618211 0.711080
O O7 0.993416 0.741375 0.780068
O O8 0.933538 0.614088 0.740187
O O9 0.070498 0.130455 0.742512
O O10 0.942664 0.131130 0.742589
O O11 0.005972 0.158046 0.000000
O O12 0.635847 0.993008 0.284562
O O13 0.624380 0.046452 0.000000
O O14 0.122885 0.995729 0.745442
O O15 0.119574 0.913139 0.000000
O O16 0.802711 0.885050 0.247159
O O17 0.679736 0.854321 0.281621
O O18 0.730616 0.848760 0.000000
O O19 0.872353 0.918426 0.000000
O O20 0.900685 0.395853 0.000000
#
# Coordination Sequence:
#
# PCOD8236370 Si02
#       8
#     8   8   8   8   8   8   8   8
#     4  10  20  36  58  84 117 155 194 234 279 338
#     4  11  23  39  59  83 115 153 189 230 287 351
#     4  10  19  33  57  87 116 148 190 236 277 326
#     4  10  22  40  61  85 116 154 192 233 286 347
#     4   9  17  31  54  82 111 146 188 231 274 323
#     4  11  22  37  58  83 115 153 192 237 290 346
#     4   9  18  33  55  83 113 148 191 236 280 330
#     4  12  25  40  60  85 113 147 192 245 295 345
#
# _framework density 20.655156000000002
#
# number of rings (size 3 to 8) (size 9 to 14) (size 15 to 20)
#    0.000    1.750    0.000    4.875    0.000    7.500 
#    0.000    0.625    0.000    3.750    0.000    0.000 
#    0.000    0.000    0.000    0.000    0.000    0.000 
#
# Total GULP energy -793943.010420 kJ/mol
# GULP energy per Si atom -12405.359538 kJ/mol
# Density = 2.060814 g / cm^3
# Si number density = 20.655156 Si / 1000 Ang^3
#
#
#
# Elastic Constant Matrix: (Units=GPa)
#
#
# Indices 1 2 3 4 5 6 
#
# 1 119.1497 21.3326 13.4337 0.0000 0.0000 0.0000
# 2 21.3326 107.0193 10.8301 0.0000 0.0000 0.0000
# 3 13.4337 10.8301 24.5476 0.0000 0.0000 0.0000
# 4 0.0000 0.0000 0.0000 29.2031 0.0000 0.0000
# 5 0.0000 0.0000 0.0000 0.0000 9.8151 0.0000
# 6 0.0000 0.0000 0.0000 0.0000 0.0000 40.4105
#
#
#
# Elastic Compliance Matrix: (Units=1/GPa)
#
#
# Indices 1 2 3 4 5 6 
#
# 1 0.009134 -0.001376 -0.004392 0.000000 0.000000 0.000000
# 2 -0.001376 0.009988 -0.003653 0.000000 0.000000 0.000000
# 3 -0.004392 -0.003653 0.044752 0.000000 0.000000 0.000000
# 4 0.000000 0.000000 0.000000 0.034243 0.000000 0.000000
# 5 0.000000 0.000000 0.000000 0.000000 0.101884 0.000000
# 6 0.000000 0.000000 0.000000 0.000000 0.000000 0.024746
#
#
# Mechanical properties :
#
#
# Convention : Reuss Voigt Hill
#
# Bulk Modulus (GPa) = 22.20635 37.98992 30.09814
# Shear Modulus (GPa) = 19.33478 29.56042 24.44760
#
# Velocity S-wave (km/s) = 3.06285 3.78715 3.44409
# Velocity P-wave (km/s) = 4.82519 6.12827 5.51535
#
# Compressibility (1/GPa) = 0.04503216
#
# Stress axis : x y z
#
# Youngs Moduli (GPa) = 109.47663 100.11829 22.34519
#
# Poissons Ratio (x) = 0.13780 0.09813
# Poissons Ratio (y) = 0.15068 0.08164
# Poissons Ratio (z) = 0.48077 0.36577
#
# Static dielectric constant tensor:
#      x y z
#    x 4.011660 0.000000 0.000000 
#    y 0.000000 3.780330 0.000000 
#    z 0.000000 0.000000 3.337210 
# 
# 
# High freq. dielectric constant tensor:
#      x y z
#    x 1.828290 0.000000 0.000000 
#    y 0.000000 1.823150 0.000000 
#    z 0.000000 0.000000 1.771730 
# 
# From -- ./inp_files/9297.got.cif
#   From: 2010.06.25/outbox.cif.g09.slc.cpg/sg58_5_cif.got.tgz:9297.got - 2010.06.26 21:38:00.
