data_PCOD8236499
_publ_section_title
;
Structure prediction by ZEFSAII (Michael W. Deem and Ramdas Pophale) SiO2 
 PCOD8236499
Probable space group: P N N M
;
_chemical_formula_sum "Si O2"
_cell_formula_units_Z 48
_cell_length_a 18.298855
_cell_length_b 17.739572
_cell_length_c 7.779412
_cell_angle_alpha 90.000000
_cell_angle_beta 90.000000
_cell_angle_gamma 90.000000
_cell_volume 2525.304925
_symmetry_space_group_name_H-M "P N N M"
_symmetry_group_IT_number 58
_symmetry_cell_setting 'orthorhombic'
loop_
_space_group_symop_operation_xyz
x,y,z
-x,-y,z
1/2+x,1/2-y,1/2-z
1/2-x,1/2+y,1/2-z
-x,-y,-z
x,y,-z
1/2-x,1/2+y,1/2+z
1/2+x,1/2-y,1/2+z
loop_
_atom_site_type_symbol
_atom_site_label
_atom_site_fract_x
_atom_site_fract_y
_atom_site_fract_z
Si Si1 0.214931 0.440263 0.302226
Si Si2 0.426230 0.403076 0.000000
Si Si3 0.309863 0.581424 0.693350
Si Si4 0.422197 0.021367 0.695929
Si Si5 0.337061 0.331273 0.301102
Si Si6 0.827365 0.342056 0.201070
Si Si7 0.912638 0.919667 0.500000
O O1 0.195770 0.451147 0.500000
O O2 0.274346 0.502542 0.244058
O O3 0.137378 0.453166 0.207354
O O4 0.253049 0.359144 0.263915
O O5 0.391183 0.373827 0.824619
O O6 0.422115 0.491805 0.000000
O O7 0.510257 0.376841 0.000000
O O8 0.342244 0.575425 0.500000
O O9 0.247267 0.644732 0.696295
O O10 0.372100 0.605889 0.826192
O O11 0.440453 0.038289 0.500000
O O12 0.388607 0.099253 0.773600
O O13 0.500000 0.000000 0.786973
O O14 0.356117 0.350845 0.500000
O O15 0.349226 0.243559 0.263227
O O16 0.813437 0.357457 0.000000
#
# Coordination Sequence:
#
# PCOD8236499 Si02
#       7
#     8   4   8   8   8   8   4
#     4   9  18  32  53  78 105 139 182 231 275 328
#     4  11  24  36  60  82 113 158 188 231 291 350
#     4  10  19  34  57  84 110 141 188 239 276 332
#     4   9  18  32  54  83 110 146 186 225 280 340
#     4  10  21  37  56  84 113 148 193 236 285 339
#     4   9  18  34  58  81 114 149 189 236 282 336
#     4  11  22  38  56  86 112 146 196 237 288 332
#
# _framework density 19.007605000000002
#
# number of rings (size 3 to 8) (size 9 to 14) (size 15 to 20)
#    0.000    2.333    2.500    0.000    3.500    1.000 
#    0.000    3.333    0.000    2.000    0.000    0.000 
#    0.000    0.000    0.000    0.000    0.000    0.000 
#
# Total GULP energy -594895.934446 kJ/mol
# GULP energy per Si atom -12393.665301 kJ/mol
# Density = 1.896434 g / cm^3
# Si number density = 19.007605 Si / 1000 Ang^3
#
#
#
# Elastic Constant Matrix: (Units=GPa)
#
#
# Indices 1 2 3 4 5 6 
#
# 1 147.7116 47.9567 49.2242 0.0000 0.0000 0.0000
# 2 47.9567 86.5196 23.3393 0.0000 0.0000 0.0000
# 3 49.2242 23.3393 73.1387 0.0000 0.0000 0.0000
# 4 0.0000 0.0000 0.0000 -10.0733 0.0000 0.0000
# 5 0.0000 0.0000 0.0000 0.0000 14.1831 0.0000
# 6 0.0000 0.0000 0.0000 0.0000 0.0000 19.6081
#
#
#
# Elastic Compliance Matrix: (Units=1/GPa)
#
#
# Indices 1 2 3 4 5 6 
#
# 1 0.009859 -0.004021 -0.005352 0.000000 0.000000 0.000000
# 2 -0.004021 0.014287 -0.001853 0.000000 0.000000 0.000000
# 3 -0.005352 -0.001853 0.017866 0.000000 0.000000 0.000000
# 4 0.000000 0.000000 0.000000 -0.099272 0.000000 0.000000
# 5 0.000000 0.000000 0.000000 0.000000 0.070507 0.000000
# 6 0.000000 0.000000 0.000000 0.000000 0.000000 0.050999
#
#
# Mechanical properties :
#
#
# Convention : Reuss Voigt Hill
#
# Bulk Modulus (GPa) = 51.12540 60.93449 56.02994
# Shear Modulus (GPa) = 53.63825 17.20023 35.41924
#
# Velocity S-wave (km/s) = 5.31795 3.01144 4.32142
# Velocity P-wave (km/s) = 8.04134 6.64976 7.37843
#
# Compressibility (1/GPa) = 0.01955975
#
# Stress axis : x y z
#
# Youngs Moduli (GPa) = 101.43013 69.99554 55.97196
#
# Poissons Ratio (x) = 0.28145 0.29958
# Poissons Ratio (y) = 0.40784 0.10371
# Poissons Ratio (z) = 0.54288 0.12969
#
# Static dielectric constant tensor:
#      x y z
#    x 3.614570 0.000000 0.000000 
#    y 0.000000 3.442010 0.000000 
#    z 0.000000 0.000000 3.454020 
# 
# 
# High freq. dielectric constant tensor:
#      x y z
#    x 1.724370 0.000000 0.000000 
#    y 0.000000 1.718200 0.000000 
#    z 0.000000 0.000000 1.740730 
# 
# From -- ./inp_files/5947.got.cif
#   From: 2010.06.25/outbox.cif.g09.slc.cpg/sg58_3_cif.got.tgz:5947.got - 2010.06.26 21:38:00.
