data_PCOD8236086
_publ_section_title
;
Structure prediction by ZEFSAII (Michael W. Deem and Ramdas Pophale) SiO2 
 PCOD8236086
Probable space group: P N N M
;
_chemical_formula_sum "Si O2"
_cell_formula_units_Z 64
_cell_length_a 15.110923
_cell_length_b 25.184116
_cell_length_c 8.787818
_cell_angle_alpha 90.000000
_cell_angle_beta 90.000000
_cell_angle_gamma 90.000000
_cell_volume 3344.250168
_symmetry_space_group_name_H-M "P N N M"
_symmetry_group_IT_number 58
_symmetry_cell_setting 'orthorhombic'
loop_
_space_group_symop_operation_xyz
x,y,z
-x,-y,z
1/2+x,1/2-y,1/2-z
1/2-x,1/2+y,1/2-z
-x,-y,-z
x,y,-z
1/2-x,1/2+y,1/2+z
1/2+x,1/2-y,1/2+z
loop_
_atom_site_type_symbol
_atom_site_label
_atom_site_fract_x
_atom_site_fract_y
_atom_site_fract_z
Si Si1 0.200331 0.539448 0.319988
Si Si2 0.983680 0.719388 0.820617
Si Si3 0.648243 0.077777 0.825787
Si Si4 0.545207 0.883949 0.825963
Si Si5 0.795040 0.682811 0.179282
Si Si6 0.949802 0.073955 0.819638
Si Si7 0.387467 0.309921 0.320622
Si Si8 0.878919 0.971132 0.679753
O O1 0.215688 0.542611 0.500000
O O2 0.174211 0.480343 0.268600
O O3 0.125042 0.579947 0.266115
O O4 0.288043 0.556610 0.229628
O O5 0.882606 0.713960 0.757182
O O6 0.042203 0.669138 0.772700
O O7 0.033244 0.772059 0.759418
O O8 0.978128 0.720596 0.000000
O O9 0.543179 0.081705 0.807161
O O10 0.698639 0.121014 0.724378
O O11 0.677787 0.087272 0.000000
O O12 0.559656 0.867056 0.000000
O O13 0.706282 0.708027 0.249655
O O14 0.788755 0.687869 0.000000
O O15 0.910042 0.130340 0.770947
O O16 0.043194 0.067114 0.736102
O O17 0.883324 0.028294 0.763044
O O18 0.963328 0.069434 0.000000
O O19 0.378503 0.304386 0.500000
O O20 0.885622 0.979052 0.500000
#
# Coordination Sequence:
#
# PCOD8236086 Si02
#       8
#     8   8   8   8   8   8   8   8
#     4  10  19  32  51  77 108 144 181 215 258 318
#     4   9  20  39  56  76 110 144 175 220 276 322
#     4   9  17  31  53  78 106 140 181 222 261 310
#     4   9  18  33  53  77 105 139 180 223 263 308
#     4  10  20  34  55  82 110 139 175 223 274 321
#     4  10  20  37  59  78 101 138 180 221 266 318
#     4  10  21  38  60  81 104 140 183 224 266 318
#     4  11  22  35  52  78 113 142 170 217 271 321
#
# _framework density 19.137325000000001
#
# number of rings (size 3 to 8) (size 9 to 14) (size 15 to 20)
#    0.000    2.250    0.000    3.750    0.000    7.500 
#    2.250    0.000    0.000    3.750    0.000    0.000 
#    0.000    0.000    0.000    0.000    0.000    0.000 
#
# Total GULP energy -793656.265103 kJ/mol
# GULP energy per Si atom -12400.879142 kJ/mol
# Density = 1.909377 g / cm^3
# Si number density = 19.137325 Si / 1000 Ang^3
#
#
#
# Elastic Constant Matrix: (Units=GPa)
#
#
# Indices 1 2 3 4 5 6 
#
# 1 125.9799 61.4824 32.3030 0.0000 0.0000 0.0000
# 2 61.4824 78.9252 22.9409 0.0000 0.0000 0.0000
# 3 32.3030 22.9409 43.4816 0.0000 0.0000 0.0000
# 4 0.0000 0.0000 0.0000 22.0811 0.0000 0.0000
# 5 0.0000 0.0000 0.0000 0.0000 27.9405 0.0000
# 6 0.0000 0.0000 0.0000 0.0000 0.0000 24.6047
#
#
#
# Elastic Compliance Matrix: (Units=1/GPa)
#
#
# Indices 1 2 3 4 5 6 
#
# 1 0.013807 -0.009182 -0.005413 0.000000 0.000000 0.000000
# 2 -0.009182 0.021072 -0.004296 0.000000 0.000000 0.000000
# 3 -0.005413 -0.004296 0.029286 0.000000 0.000000 0.000000
# 4 0.000000 0.000000 0.000000 0.045288 0.000000 0.000000
# 5 0.000000 0.000000 0.000000 0.000000 0.035790 0.000000
# 6 0.000000 0.000000 0.000000 0.000000 0.000000 0.040643
#
#
# Mechanical properties :
#
#
# Convention : Reuss Voigt Hill
#
# Bulk Modulus (GPa) = 37.90336 53.53771 45.72054
# Shear Modulus (GPa) = 21.50894 23.70261 22.60578
#
# Velocity S-wave (km/s) = 3.35614 3.52313 3.44065
# Velocity P-wave (km/s) = 5.90485 6.67729 6.30291
#
# Compressibility (1/GPa) = 0.02638288
#
# Stress axis : x y z
#
# Youngs Moduli (GPa) = 72.42749 47.45683 34.14601
#
# Poissons Ratio (x) = 0.43576 0.18483
# Poissons Ratio (y) = 0.66504 0.14669
# Poissons Ratio (z) = 0.39204 0.20387
#
# Static dielectric constant tensor:
#      x y z
#    x 3.742890 0.000000 0.000000 
#    y 0.000000 3.462660 0.000000 
#    z 0.000000 0.000000 3.354220 
# 
# 
# High freq. dielectric constant tensor:
#      x y z
#    x 1.758330 0.000000 0.000000 
#    y 0.000000 1.727670 0.000000 
#    z 0.000000 0.000000 1.733940 
# 
# From -- ./inp_files/6747.got.cif
#   From: 2010.06.25/outbox.cif.g09.slc.cpg/sg58_4_cif.got.tgz:6747.got - 2010.06.26 21:38:00.
