data_PCOD8236547
_publ_section_title
;
Structure prediction by ZEFSAII (Michael W. Deem and Ramdas Pophale) SiO2 
 PCOD8236547
Probable space group: P N N M
;
_chemical_formula_sum "Si O2"
_cell_formula_units_Z 48
_cell_length_a 9.678000
_cell_length_b 9.294029
_cell_length_c 26.678033
_cell_angle_alpha 90.000000
_cell_angle_beta 90.000000
_cell_angle_gamma 90.000000
_cell_volume 2399.625379
_symmetry_space_group_name_H-M "P N N M"
_symmetry_group_IT_number 58
_symmetry_cell_setting 'orthorhombic'
loop_
_space_group_symop_operation_xyz
x,y,z
-x,-y,z
1/2+x,1/2-y,1/2-z
1/2-x,1/2+y,1/2-z
-x,-y,-z
x,y,-z
1/2-x,1/2+y,1/2+z
1/2+x,1/2-y,1/2+z
loop_
_atom_site_type_symbol
_atom_site_label
_atom_site_fract_x
_atom_site_fract_y
_atom_site_fract_z
Si Si1 0.351599 0.069745 0.760181
Si Si2 0.884453 0.181671 0.604919
Si Si3 0.662987 0.233440 0.944074
Si Si4 0.881135 0.103355 0.717771
Si Si5 0.847185 0.494648 0.944221
Si Si6 0.660562 0.984475 0.130601
O O1 0.361026 0.243710 0.753061
O O2 0.276910 0.024913 0.813232
O O3 0.500000 0.000000 0.753680
O O4 0.257104 0.994101 0.718048
O O5 0.925784 0.143824 0.661559
O O6 0.812923 0.337560 0.600696
O O7 0.026199 0.177654 0.572881
O O8 0.767813 0.075135 0.587057
O O9 0.797754 0.331161 0.946804
O O10 0.711010 0.113552 0.904261
O O11 0.633402 0.169840 0.000000
O O12 0.000000 0.000000 0.741325
O O13 0.000000 0.500000 0.919171
O O14 0.855991 0.562275 0.000000
O O15 0.500000 0.000000 0.140629
#
# Coordination Sequence:
#
# PCOD8236547 Si02
#       6
#     8   8   8   8   8   8
#     4  10  21  38  57  79 111 150 187 230 285 339
#     4  10  20  35  57  82 107 139 181 229 277 328
#     4  10  19  34  59  86 111 145 186 229 281 335
#     4  11  22  37  58  84 112 144 187 236 284 336
#     4  10  21  35  50  74 110 146 180 220 267 323
#     4   8  18  35  55  81 109 136 177 230 277 326
#
# _framework density 20.003121
#
# number of rings (size 3 to 8) (size 9 to 14) (size 15 to 20)
#    0.000    2.167    0.000    4.000    0.000    7.000 
#    0.000    4.167    0.000    3.000    0.000    0.000 
#    0.000    0.000    0.000    0.000    0.000    0.000 
#
# Total GULP energy -594821.097817 kJ/mol
# GULP energy per Si atom -12392.106205 kJ/mol
# Density = 1.995759 g / cm^3
# Si number density = 20.003121 Si / 1000 Ang^3
#
#
#
# Elastic Constant Matrix: (Units=GPa)
#
#
# Indices 1 2 3 4 5 6 
#
# 1 85.7757 46.3268 14.1001 0.0000 0.0000 0.0000
# 2 46.3268 128.1142 22.7717 0.0000 0.0000 0.0000
# 3 14.1001 22.7717 52.0242 0.0000 0.0000 0.0000
# 4 0.0000 0.0000 0.0000 41.4504 0.0000 0.0000
# 5 0.0000 0.0000 0.0000 0.0000 27.2651 0.0000
# 6 0.0000 0.0000 0.0000 0.0000 0.0000 22.7726
#
#
#
# Elastic Compliance Matrix: (Units=1/GPa)
#
#
# Indices 1 2 3 4 5 6 
#
# 1 0.014640 -0.004976 -0.001790 0.000000 0.000000 0.000000
# 2 -0.004976 0.010155 -0.003096 0.000000 0.000000 0.000000
# 3 -0.001790 -0.003096 0.021062 0.000000 0.000000 0.000000
# 4 0.000000 0.000000 0.000000 0.024125 0.000000 0.000000
# 5 0.000000 0.000000 0.000000 0.000000 0.036677 0.000000
# 6 0.000000 0.000000 0.000000 0.000000 0.000000 0.043912
#
#
# Mechanical properties :
#
#
# Convention : Reuss Voigt Hill
#
# Bulk Modulus (GPa) = 38.26557 48.03458 43.15008
# Shear Modulus (GPa) = 27.93184 30.47865 29.20524
#
# Velocity S-wave (km/s) = 3.74086 3.90769 3.82518
# Velocity P-wave (km/s) = 6.15062 6.66526 6.41310
#
# Compressibility (1/GPa) = 0.02613315
#
# Stress axis : x y z
#
# Youngs Moduli (GPa) = 68.30659 98.47210 47.47817
#
# Poissons Ratio (x) = 0.48997 0.08498
# Poissons Ratio (y) = 0.33987 0.14702
# Poissons Ratio (z) = 0.12226 0.30492
#
# Static dielectric constant tensor:
#      x y z
#    x 3.390380 0.000000 0.000000 
#    y 0.000000 2.448920 0.000000 
#    z 0.000000 0.000000 3.732590 
# 
# 
# High freq. dielectric constant tensor:
#      x y z
#    x 1.758480 0.000000 0.000000 
#    y 0.000000 1.791790 0.000000 
#    z 0.000000 0.000000 1.772540 
# 
# From -- ./inp_files/34530.got.cif
#   From: 2010.06.25/outbox.cif.g09.slc.cpg/sg58_18_cif.got.tgz:34530.got - 2010.06.26 21:38:00.
