data_PCOD8236280
_publ_section_title
;
Structure prediction by ZEFSAII (Michael W. Deem and Ramdas Pophale) SiO2 
 PCOD8236280
Probable space group: P N N M
;
_chemical_formula_sum "Si O2"
_cell_formula_units_Z 64
_cell_length_a 15.147560
_cell_length_b 24.887694
_cell_length_c 8.840216
_cell_angle_alpha 90.000000
_cell_angle_beta 90.000000
_cell_angle_gamma 90.000000
_cell_volume 3332.653918
_symmetry_space_group_name_H-M "P N N M"
_symmetry_group_IT_number 58
_symmetry_cell_setting 'orthorhombic'
loop_
_space_group_symop_operation_xyz
x,y,z
-x,-y,z
1/2+x,1/2-y,1/2-z
1/2-x,1/2+y,1/2-z
-x,-y,-z
x,y,-z
1/2-x,1/2+y,1/2+z
1/2+x,1/2-y,1/2+z
loop_
_atom_site_type_symbol
_atom_site_label
_atom_site_fract_x
_atom_site_fract_y
_atom_site_fract_z
Si Si1 0.796406 0.355474 0.323250
Si Si2 0.267876 0.254063 0.672764
Si Si3 0.969329 0.219154 0.171672
Si Si4 0.679645 0.558044 0.320382
Si Si5 0.176735 0.056530 0.322938
Si Si6 0.991855 0.109524 0.677034
Si Si7 0.821854 0.640671 0.323331
Si Si8 0.508402 0.828550 0.175316
O O1 0.780472 0.365234 0.500000
O O2 0.756280 0.297867 0.277948
O O3 0.750635 0.401655 0.228107
O O4 0.900374 0.357455 0.279525
O O5 0.246174 0.237216 0.500000
O O6 0.364327 0.279653 0.684527
O O7 0.203439 0.300060 0.738129
O O8 0.006272 0.170876 0.273282
O O9 0.009024 0.274848 0.230186
O O10 0.000145 0.209808 0.000000
O O11 0.679065 0.557315 0.500000
O O12 0.694824 0.498552 0.261907
O O13 0.587689 0.582200 0.265662
O O14 0.761108 0.593672 0.253597
O O15 0.185677 0.046741 0.500000
O O16 0.079867 0.077360 0.280135
O O17 0.971560 0.106866 0.500000
O O18 0.800986 0.641841 0.500000
O O19 0.926182 0.631195 0.290620
O O20 0.511305 0.811793 0.000000
#
# Coordination Sequence:
#
# PCOD8236280 Si02
#       8
#     8   8   8   8   8   8   8   8
#     4  10  21  37  57  85 115 147 193 245 284 325
#     4   9  17  33  55  80 115 154 184 222 283 346
#     4  10  19  33  54  84 118 150 188 232 280 331
#     4  11  22  40  63  88 115 147 190 242 288 337
#     4  11  25  42  59  80 111 157 198 235 289 349
#     4  11  23  38  57  82 115 154 192 229 281 348
#     4   9  18  35  59  85 115 152 188 225 285 350
#     4   9  19  36  58  84 117 153 190 231 282 345
#
# _framework density 19.203914999999999
#
# number of rings (size 3 to 8) (size 9 to 14) (size 15 to 20)
#    0.000    2.000    1.250    2.250    1.750    4.500 
#    0.000    1.875    0.000    3.750    0.000    0.000 
#    0.000    0.000    0.000    0.000    0.000    0.000 
#
# Total GULP energy -793661.135022 kJ/mol
# GULP energy per Si atom -12400.955235 kJ/mol
# Density = 1.916021 g / cm^3
# Si number density = 19.203915 Si / 1000 Ang^3
#
#
#
# Elastic Constant Matrix: (Units=GPa)
#
#
# Indices 1 2 3 4 5 6 
#
# 1 112.7335 72.8789 41.9042 0.0000 0.0000 0.0000
# 2 72.8789 104.9704 35.7038 0.0000 0.0000 0.0000
# 3 41.9042 35.7038 55.1031 0.0000 0.0000 0.0000
# 4 0.0000 0.0000 0.0000 33.4817 0.0000 0.0000
# 5 0.0000 0.0000 0.0000 0.0000 24.9177 0.0000
# 6 0.0000 0.0000 0.0000 0.0000 0.0000 24.2738
#
#
#
# Elastic Compliance Matrix: (Units=1/GPa)
#
#
# Indices 1 2 3 4 5 6 
#
# 1 0.018078 -0.010101 -0.007203 0.000000 0.000000 0.000000
# 2 -0.010101 0.017864 -0.003893 0.000000 0.000000 0.000000
# 3 -0.007203 -0.003893 0.026148 0.000000 0.000000 0.000000
# 4 0.000000 0.000000 0.000000 0.029867 0.000000 0.000000
# 5 0.000000 0.000000 0.000000 0.000000 0.040132 0.000000
# 6 0.000000 0.000000 0.000000 0.000000 0.000000 0.041197
#
#
# Mechanical properties :
#
#
# Convention : Reuss Voigt Hill
#
# Bulk Modulus (GPa) = 50.77314 63.75343 57.26329
# Shear Modulus (GPa) = 22.49776 24.68933 23.59354
#
# Velocity S-wave (km/s) = 3.42646 3.58947 3.50891
# Velocity P-wave (km/s) = 6.49234 7.10277 6.80440
#
# Compressibility (1/GPa) = 0.01969545
#
# Stress axis : x y z
#
# Youngs Moduli (GPa) = 55.31587 55.97918 38.24437
#
# Poissons Ratio (x) = 0.56546 0.27546
# Poissons Ratio (y) = 0.55876 0.14889
# Poissons Ratio (z) = 0.39842 0.21793
#
# Static dielectric constant tensor:
#      x y z
#    x 3.625100 0.000000 0.000000 
#    y 0.000000 3.534350 0.000000 
#    z 0.000000 0.000000 3.496980 
# 
# 
# High freq. dielectric constant tensor:
#      x y z
#    x 1.752910 0.000000 0.000000 
#    y 0.000000 1.740070 0.000000 
#    z 0.000000 0.000000 1.740820 
# 
# From -- ./inp_files/6828.got.cif
#   From: 2010.06.25/outbox.cif.g09.slc.cpg/sg58_4_cif.got.tgz:6828.got - 2010.06.26 21:38:00.
