data_PCOD8236369
_publ_section_title
;
Structure prediction by ZEFSAII (Michael W. Deem and Ramdas Pophale) SiO2 
 PCOD8236369
Probable space group: P N N M
;
_chemical_formula_sum "Si O2"
_cell_formula_units_Z 48
_cell_length_a 9.935025
_cell_length_b 16.427771
_cell_length_c 13.762531
_cell_angle_alpha 90.000000
_cell_angle_beta 90.000000
_cell_angle_gamma 90.000000
_cell_volume 2246.187028
_symmetry_space_group_name_H-M "P N N M"
_symmetry_group_IT_number 58
_symmetry_cell_setting 'orthorhombic'
loop_
_space_group_symop_operation_xyz
x,y,z
-x,-y,z
1/2+x,1/2-y,1/2-z
1/2-x,1/2+y,1/2-z
-x,-y,-z
x,y,-z
1/2-x,1/2+y,1/2+z
1/2+x,1/2-y,1/2+z
loop_
_atom_site_type_symbol
_atom_site_label
_atom_site_fract_x
_atom_site_fract_y
_atom_site_fract_z
Si Si1 0.264776 0.195669 0.813347
Si Si2 0.647605 0.505019 0.106561
Si Si3 0.996965 0.902578 0.114957
Si Si4 0.453669 0.824256 0.106611
Si Si5 0.266544 0.676827 0.103434
Si Si6 0.746202 0.629826 0.250762
O O1 0.138919 0.138135 0.841235
O O2 0.386394 0.171839 0.882823
O O3 0.319104 0.184628 0.701661
O O4 0.235566 0.292053 0.820121
O O5 0.500000 0.500000 0.154017
O O6 0.698630 0.415718 0.091789
O O7 0.742068 0.552902 0.180371
O O8 0.642296 0.548112 0.000000
O O9 0.120017 0.862506 0.174805
O O10 0.008931 0.881827 0.000000
O O11 0.000000 0.000000 0.130612
O O12 0.401240 0.731216 0.119351
O O13 0.378982 0.882004 0.183737
O O14 0.419154 0.858008 0.000000
O O15 0.195746 0.703528 0.000000
#
# Coordination Sequence:
#
# PCOD8236369 Si02
#       6
#     8   8   8   8   8   8
#     4  11  21  37  61  90 120 158 206 256 305 357
#     4  10  19  33  57  86 115 150 192 241 297 358
#     4  11  24  42  64  89 123 168 213 254 302 370
#     4  10  21  37  58  85 119 156 198 249 302 356
#     4   9  19  36  56  80 113 153 191 232 292 358
#     4  11  21  37  60  91 123 155 198 252 311 364
#
# _framework density 21.369547000000001
#
# number of rings (size 3 to 8) (size 9 to 14) (size 15 to 20)
#    0.000    1.667    0.000    6.500    0.000    3.333 
#    0.000    4.167    0.000    8.000    0.000    0.000 
#    0.000    0.000    0.000    0.000    0.000    0.000 
#
# Total GULP energy -594688.236631 kJ/mol
# GULP energy per Si atom -12389.338263 kJ/mol
# Density = 2.132091 g / cm^3
# Si number density = 21.369547 Si / 1000 Ang^3
#
#
#
# Elastic Constant Matrix: (Units=GPa)
#
#
# Indices 1 2 3 4 5 6 
#
# 1 68.0192 11.5937 12.3679 0.0000 0.0000 0.0000
# 2 11.5937 77.4728 28.3430 0.0000 0.0000 0.0000
# 3 12.3679 28.3430 110.4300 0.0000 0.0000 0.0000
# 4 0.0000 0.0000 0.0000 42.4372 0.0000 0.0000
# 5 0.0000 0.0000 0.0000 0.0000 33.9673 0.0000
# 6 0.0000 0.0000 0.0000 0.0000 0.0000 22.5307
#
#
#
# Elastic Compliance Matrix: (Units=1/GPa)
#
#
# Indices 1 2 3 4 5 6 
#
# 1 0.015238 -0.001828 -0.001238 0.000000 0.000000 0.000000
# 2 -0.001828 0.014465 -0.003508 0.000000 0.000000 0.000000
# 3 -0.001238 -0.003508 0.010094 0.000000 0.000000 0.000000
# 4 0.000000 0.000000 0.000000 0.023564 0.000000 0.000000
# 5 0.000000 0.000000 0.000000 0.000000 0.029440 0.000000
# 6 0.000000 0.000000 0.000000 0.000000 0.000000 0.044384
#
#
# Mechanical properties :
#
#
# Convention : Reuss Voigt Hill
#
# Bulk Modulus (GPa) = 37.52165 40.05903 38.79034
# Shear Modulus (GPa) = 31.40403 33.36154 32.38278
#
# Velocity S-wave (km/s) = 3.83765 3.95545 3.89700
# Velocity P-wave (km/s) = 6.10192 6.29661 6.20003
#
# Compressibility (1/GPa) = 0.02665128
#
# Stress axis : x y z
#
# Youngs Moduli (GPa) = 65.62428 69.13451 99.06454
#
# Poissons Ratio (x) = 0.12635 0.12260
# Poissons Ratio (y) = 0.11994 0.34750
# Poissons Ratio (z) = 0.08121 0.24251
#
# Static dielectric constant tensor:
#      x y z
#    x 3.438960 0.000000 0.000000 
#    y 0.000000 3.748180 0.000000 
#    z 0.000000 0.000000 4.553860 
# 
# 
# High freq. dielectric constant tensor:
#      x y z
#    x 1.802690 0.000000 0.000000 
#    y 0.000000 1.832940 0.000000 
#    z 0.000000 0.000000 1.868520 
# 
# From -- ./inp_files/19824.got.cif
#   From: 2010.06.25/outbox.cif.g09.slc.cpg/sg58_10_cif.got.tgz:19824.got - 2010.06.26 21:38:00.
