data_PCOD8236921
_publ_section_title
;
Structure prediction by ZEFSAII (Michael W. Deem and Ramdas Pophale) SiO2 
 PCOD8236921
Probable space group: P N N M
;
_chemical_formula_sum "Si O2"
_cell_formula_units_Z 48
_cell_length_a 9.686585
_cell_length_b 31.087638
_cell_length_c 9.266508
_cell_angle_alpha 90.000000
_cell_angle_beta 90.000000
_cell_angle_gamma 90.000000
_cell_volume 2790.451798
_symmetry_space_group_name_H-M "P N N M"
_symmetry_group_IT_number 58
_symmetry_cell_setting 'orthorhombic'
loop_
_space_group_symop_operation_xyz
x,y,z
-x,-y,z
1/2+x,1/2-y,1/2-z
1/2-x,1/2+y,1/2-z
-x,-y,-z
x,y,-z
1/2-x,1/2+y,1/2+z
1/2+x,1/2-y,1/2+z
loop_
_atom_site_type_symbol
_atom_site_label
_atom_site_fract_x
_atom_site_fract_y
_atom_site_fract_z
Si Si1 0.402154 0.719830 0.837270
Si Si2 0.368013 0.626921 0.838009
Si Si3 0.097894 0.630827 0.666418
Si Si4 0.106316 0.535776 0.667845
Si Si5 0.609622 0.466815 0.834443
Si Si6 0.578060 0.787207 0.668004
O O1 0.458567 0.670438 0.822223
O O2 0.488204 0.748151 0.727471
O O3 0.239333 0.720899 0.798055
O O4 0.425147 0.736836 0.000000
O O5 0.256675 0.627834 0.711926
O O6 0.451760 0.582108 0.821407
O O7 0.298912 0.628215 0.000000
O O8 0.086763 0.644054 0.500000
O O9 0.036847 0.582927 0.694777
O O10 0.024614 0.668302 0.759180
O O11 0.141734 0.529931 0.500000
O O12 0.246329 0.529159 0.754211
O O13 0.000000 0.500000 0.722994
O O14 0.500000 0.500000 0.765395
O O15 0.636558 0.479315 0.000000
O O16 0.548975 0.790947 0.500000
#
# Coordination Sequence:
#
# PCOD8236921 Si02
#       6
#     8   8   8   8   8   8
#     4   9  18  32  49  69  94 124 157 193 233 276
#     4   8  15  29  47  67  94 125 157 193 230 273
#     4   9  16  28  48  69  91 123 159 191 228 277
#     4   9  18  32  49  70  96 125 157 193 232 275
#     4   9  17  30  49  72  97 125 157 193 233 277
#     4  10  20  33  50  72  96 122 155 195 236 278
#
# _framework density 17.201514
#
# number of rings (size 3 to 8) (size 9 to 14) (size 15 to 20)
#    0.000    3.000    0.000    2.000    0.000    4.667 
#    0.000    1.667    0.000    4.000    0.000    0.000 
#    0.000    0.000    0.000    0.000    0.000    0.000 
#
# Total GULP energy -594701.485272 kJ/mol
# GULP energy per Si atom -12389.614277 kJ/mol
# Density = 1.716236 g / cm^3
# Si number density = 17.201514 Si / 1000 Ang^3
#
#
#
# Elastic Constant Matrix: (Units=GPa)
#
#
# Indices 1 2 3 4 5 6 
#
# 1 53.5746 59.9213 38.2676 0.0000 0.0000 0.0000
# 2 59.9213 167.8320 68.0057 0.0000 0.0000 0.0000
# 3 38.2676 68.0057 82.5376 0.0000 0.0000 0.0000
# 4 0.0000 0.0000 0.0000 28.1608 0.0000 0.0000
# 5 0.0000 0.0000 0.0000 0.0000 23.5169 0.0000
# 6 0.0000 0.0000 0.0000 0.0000 0.0000 29.7803
#
#
#
# Elastic Compliance Matrix: (Units=1/GPa)
#
#
# Indices 1 2 3 4 5 6 
#
# 1 0.034938 -0.008872 -0.008888 0.000000 0.000000 0.000000
# 2 -0.008872 0.011198 -0.005113 0.000000 0.000000 0.000000
# 3 -0.008888 -0.005113 0.020449 0.000000 0.000000 0.000000
# 4 0.000000 0.000000 0.000000 0.035510 0.000000 0.000000
# 5 0.000000 0.000000 0.000000 0.000000 0.042523 0.000000
# 6 0.000000 0.000000 0.000000 0.000000 0.000000 0.033579
#
#
# Mechanical properties :
#
#
# Convention : Reuss Voigt Hill
#
# Bulk Modulus (GPa) = 47.98901 70.70370 59.34635
# Shear Modulus (GPa) = 21.65543 25.47490 23.56517
#
# Velocity S-wave (km/s) = 3.55198 3.85251 3.70530
# Velocity P-wave (km/s) = 6.69185 7.80907 7.27194
#
# Compressibility (1/GPa) = 0.02083810
#
# Stress axis : x y z
#
# Youngs Moduli (GPa) = 28.62244 89.30426 48.90194
#
# Poissons Ratio (x) = 0.79234 0.43465
# Poissons Ratio (y) = 0.25395 0.25002
# Poissons Ratio (z) = 0.25440 0.45658
#
# Static dielectric constant tensor:
#      x y z
#    x 2.745350 0.000000 0.000000 
#    y 0.000000 3.748780 0.000000 
#    z 0.000000 0.000000 3.235040 
# 
# 
# High freq. dielectric constant tensor:
#      x y z
#    x 1.605480 0.000000 0.000000 
#    y 0.000000 1.689150 0.000000 
#    z 0.000000 0.000000 1.670980 
# 
# From -- ./inp_files/4330.got.cif
#   From: 2010.06.25/outbox.cif.g09.slc.cpg/sg58_3_cif.got.tgz:4330.got - 2010.06.26 21:38:00.
