data_PCOD8236267
_publ_section_title
;
Structure prediction by ZEFSAII (Michael W. Deem and Ramdas Pophale) SiO2 
 PCOD8236267
Probable space group: P N N M
;
_chemical_formula_sum "Si O2"
_cell_formula_units_Z 64
_cell_length_a 13.903714
_cell_length_b 23.350245
_cell_length_c 9.833044
_cell_angle_alpha 90.000000
_cell_angle_beta 90.000000
_cell_angle_gamma 90.000000
_cell_volume 3192.348161
_symmetry_space_group_name_H-M "P N N M"
_symmetry_group_IT_number 58
_symmetry_cell_setting 'orthorhombic'
loop_
_space_group_symop_operation_xyz
x,y,z
-x,-y,z
1/2+x,1/2-y,1/2-z
1/2-x,1/2+y,1/2-z
-x,-y,-z
x,y,-z
1/2-x,1/2+y,1/2+z
1/2+x,1/2-y,1/2+z
loop_
_atom_site_type_symbol
_atom_site_label
_atom_site_fract_x
_atom_site_fract_y
_atom_site_fract_z
Si Si1 0.250321 0.175247 0.153777
Si Si2 0.046364 0.721292 0.342560
Si Si3 0.805174 0.449931 0.651672
Si Si4 0.900369 0.625578 0.654602
Si Si5 0.975526 0.437403 0.146030
Si Si6 0.707488 0.569376 0.346027
Si Si7 0.076292 0.175513 0.343147
Si Si8 0.533239 0.562720 0.843211
O O1 0.352346 0.198159 0.219583
O O2 0.239199 0.106427 0.148360
O O3 0.164668 0.196626 0.250735
O O4 0.235869 0.199431 0.000000
O O5 0.063981 0.712919 0.500000
O O6 0.951476 0.684639 0.299941
O O7 0.018793 0.786628 0.304537
O O8 0.850299 0.459620 0.500000
O O9 0.749252 0.507061 0.695637
O O10 0.881579 0.432158 0.763795
O O11 0.930452 0.609414 0.500000
O O12 0.934679 0.579378 0.762079
O O13 0.784568 0.621563 0.666539
O O14 0.000000 0.500000 0.100909
O O15 0.964280 0.403563 0.000000
O O16 0.668079 0.566250 0.500000
O O17 0.622145 0.584520 0.245029
O O18 0.104267 0.187794 0.500000
O O19 0.052136 0.108571 0.322029
O O20 0.500000 0.500000 0.793301
O O21 0.565822 0.560393 0.000000
#
# Coordination Sequence:
#
# PCOD8236267 Si02
#       8
#     8   8   8   8   8   8   8   8
#     4  10  20  36  60  85 108 144 191 236 282 334
#     4   9  19  37  60  83 111 149 190 232 281 338
#     4  10  19  33  54  80 111 151 191 229 279 332
#     4  10  19  35  56  79 112 152 189 228 280 340
#     4  11  21  30  46  78 117 152 187 230 276 323
#     4  10  21  33  55  87 113 144 189 233 278 331
#     4  10  22  40  60  83 112 148 188 233 288 344
#     4  10  22  40  59  79 110 152 188 227 288 349
#
# _framework density 20.047939
#
# number of rings (size 3 to 8) (size 9 to 14) (size 15 to 20)
#    0.000    2.000    2.500    1.125    0.000    3.750 
#    0.000    1.250    0.000    0.000    0.000    0.000 
#    0.000    0.000    0.000    0.000    0.000    0.000 
#
# Total GULP energy -792872.225918 kJ/mol
# GULP energy per Si atom -12388.628530 kJ/mol
# Density = 2.000231 g / cm^3
# Si number density = 20.047939 Si / 1000 Ang^3
#
#
#
# Elastic Constant Matrix: (Units=GPa)
#
#
# Indices 1 2 3 4 5 6 
#
# 1 109.1536 31.5400 54.6193 0.0000 0.0000 0.0000
# 2 31.5400 78.6237 12.8101 0.0000 0.0000 0.0000
# 3 54.6193 12.8101 99.5501 0.0000 0.0000 0.0000
# 4 0.0000 0.0000 0.0000 17.8034 0.0000 0.0000
# 5 0.0000 0.0000 0.0000 0.0000 30.5353 0.0000
# 6 0.0000 0.0000 0.0000 0.0000 0.0000 22.4985
#
#
#
# Elastic Compliance Matrix: (Units=1/GPa)
#
#
# Indices 1 2 3 4 5 6 
#
# 1 0.014009 -0.004461 -0.007112 0.000000 0.000000 0.000000
# 2 -0.004461 0.014412 0.000593 0.000000 0.000000 0.000000
# 3 -0.007112 0.000593 0.013871 0.000000 0.000000 0.000000
# 4 0.000000 0.000000 0.000000 0.056169 0.000000 0.000000
# 5 0.000000 0.000000 0.000000 0.000000 0.032749 0.000000
# 6 0.000000 0.000000 0.000000 0.000000 0.000000 0.044447
#
#
# Mechanical properties :
#
#
# Convention : Reuss Voigt Hill
#
# Bulk Modulus (GPa) = 49.18443 53.91847 51.55145
# Shear Modulus (GPa) = 24.46238 26.72465 25.59352
#
# Velocity S-wave (km/s) = 3.49692 3.65504 3.57685
# Velocity P-wave (km/s) = 6.39463 6.69071 6.54434
#
# Compressibility (1/GPa) = 0.02033164
#
# Stress axis : x y z
#
# Youngs Moduli (GPa) = 71.38084 69.38794 72.09217
#
# Poissons Ratio (x) = 0.30954 0.51274
# Poissons Ratio (y) = 0.31843 -0.04276
# Poissons Ratio (z) = 0.50768 -0.04115
#
# Static dielectric constant tensor:
#      x y z
#    x 3.388130 0.000000 0.000000 
#    y 0.000000 3.848420 0.000000 
#    z 0.000000 0.000000 3.646890 
# 
# 
# High freq. dielectric constant tensor:
#      x y z
#    x 1.765510 0.000000 0.000000 
#    y 0.000000 1.772050 0.000000 
#    z 0.000000 0.000000 1.775780 
# 
# From -- ./inp_files/6978.got.cif
#   From: 2010.06.25/outbox.cif.g09.slc.cpg/sg58_4_cif.got.tgz:6978.got - 2010.06.26 21:38:00.
