data_PCOD8236794
_publ_section_title
;
Structure prediction by ZEFSAII (Michael W. Deem and Ramdas Pophale) SiO2 
 PCOD8236794
Probable space group: P N N M
;
_chemical_formula_sum "Si O2"
_cell_formula_units_Z 40
_cell_length_a 5.483698
_cell_length_b 11.770210
_cell_length_c 22.053629
_cell_angle_alpha 90.000000
_cell_angle_beta 90.000000
_cell_angle_gamma 90.000000
_cell_volume 1423.435540
_symmetry_space_group_name_H-M "P N N M"
_symmetry_group_IT_number 58
_symmetry_cell_setting 'orthorhombic'
loop_
_space_group_symop_operation_xyz
x,y,z
-x,-y,z
1/2+x,1/2-y,1/2-z
1/2-x,1/2+y,1/2-z
-x,-y,-z
x,y,-z
1/2-x,1/2+y,1/2+z
1/2+x,1/2-y,1/2+z
loop_
_atom_site_type_symbol
_atom_site_label
_atom_site_fract_x
_atom_site_fract_y
_atom_site_fract_z
Si Si1 0.138227 0.317540 0.249904
Si Si2 0.022579 0.131520 0.930201
Si Si3 0.767390 0.868295 0.429747
Si Si4 0.520739 0.125394 0.120028
Si Si5 0.234021 0.378746 0.119593
O O1 0.392747 0.253505 0.262057
O O2 0.178872 0.395622 0.190711
O O3 0.090387 0.390928 0.309760
O O4 0.748094 0.185294 0.917153
O O5 0.248428 0.182108 0.888689
O O6 0.093500 0.146469 0.000000
O O7 0.000000 0.000000 0.911179
O O8 0.831276 0.858030 0.500000
O O9 0.495332 0.815384 0.414752
O O10 0.997685 0.817817 0.389632
O O11 0.750540 0.999460 0.411413
O O12 0.500000 0.000000 0.090720
#
# Coordination Sequence:
#
# PCOD8236794 Si02
#       5
#     8   8   8   8   8
#     4  12  26  43  59  83 129 175 205 248 310 373
#     4   9  17  33  59  90 117 144 183 250 314 349
#     4  10  19  36  65 100 123 146 201 271 319 363
#     4  10  21  37  62  91 116 150 208 258 293 358
#     4  10  20  35  59  87 119 164 195 243 306 371
#
# _framework density 28.101023999999999
#
# number of rings (size 3 to 8) (size 9 to 14) (size 15 to 20)
#    0.000    1.800    0.000    6.000    2.800    2.400 
#    7.200    0.000    0.000   31.200    0.000    0.000 
#    0.000    0.000    0.000    0.000    0.000    0.000 
#
# Total GULP energy -496285.485270 kJ/mol
# GULP energy per Si atom -12407.137132 kJ/mol
# Density = 2.803706 g / cm^3
# Si number density = 28.101024 Si / 1000 Ang^3
#
#
#
# Elastic Constant Matrix: (Units=GPa)
#
#
# Indices 1 2 3 4 5 6 
#
# 1 310.2116 101.6928 89.0774 0.0000 0.0000 0.0000
# 2 101.6928 113.9421 18.3292 0.0000 0.0000 0.0000
# 3 89.0774 18.3292 218.6286 0.0000 0.0000 0.0000
# 4 0.0000 0.0000 0.0000 23.6629 0.0000 0.0000
# 5 0.0000 0.0000 0.0000 0.0000 60.9337 0.0000
# 6 0.0000 0.0000 0.0000 0.0000 0.0000 50.9137
#
#
#
# Elastic Compliance Matrix: (Units=1/GPa)
#
#
# Indices 1 2 3 4 5 6 
#
# 1 0.005130 -0.004300 -0.001730 0.000000 0.000000 0.000000
# 2 -0.004300 0.012501 0.000704 0.000000 0.000000 0.000000
# 3 -0.001730 0.000704 0.005220 0.000000 0.000000 0.000000
# 4 0.000000 0.000000 0.000000 0.042260 0.000000 0.000000
# 5 0.000000 0.000000 0.000000 0.000000 0.016411 0.000000
# 6 0.000000 0.000000 0.000000 0.000000 0.000000 0.019641
#
#
# Mechanical properties :
#
#
# Convention : Reuss Voigt Hill
#
# Bulk Modulus (GPa) = 81.97372 117.88678 99.93025
# Shear Modulus (GPa) = 43.14761 56.01425 49.58093
#
# Velocity S-wave (km/s) = 3.92273 4.46950 4.20501
# Velocity P-wave (km/s) = 7.05347 8.28718 7.69509
#
# Compressibility (1/GPa) = 0.01219903
#
# Stress axis : x y z
#
# Youngs Moduli (GPa) = 194.93338 79.99313 191.58354
#
# Poissons Ratio (x) = 0.34399 0.33137
# Poissons Ratio (y) = 0.83826 -0.13488
# Poissons Ratio (z) = 0.33716 -0.05632
#
# Static dielectric constant tensor:
#      x y z
#    x 7.813320 0.000000 0.000000 
#    y 0.000000 5.789980 0.000000 
#    z 0.000000 0.000000 4.785490 
# 
# 
# High freq. dielectric constant tensor:
#      x y z
#    x 2.210840 0.000000 0.000000 
#    y 0.000000 2.223040 0.000000 
#    z 0.000000 0.000000 2.108310 
# 
# From -- ./inp_files/24186.got.cif
#   From: 2010.06.25/outbox.cif.g09.slc.cpg/sg58_13_cif.got.tgz:24186.got - 2010.06.26 21:38:00.
