data_PCOD8236660
_publ_section_title
;
Structure prediction by ZEFSAII (Michael W. Deem and Ramdas Pophale) SiO2 
 PCOD8236660
Probable space group: P N N M
;
_chemical_formula_sum "Si O2"
_cell_formula_units_Z 56
_cell_length_a 14.598860
_cell_length_b 21.860435
_cell_length_c 8.923996
_cell_angle_alpha 90.000000
_cell_angle_beta 90.000000
_cell_angle_gamma 90.000000
_cell_volume 2847.981150
_symmetry_space_group_name_H-M "P N N M"
_symmetry_group_IT_number 58
_symmetry_cell_setting 'orthorhombic'
loop_
_space_group_symop_operation_xyz
x,y,z
-x,-y,z
1/2+x,1/2-y,1/2-z
1/2-x,1/2+y,1/2-z
-x,-y,-z
x,y,-z
1/2-x,1/2+y,1/2+z
1/2+x,1/2-y,1/2+z
loop_
_atom_site_type_symbol
_atom_site_label
_atom_site_fract_x
_atom_site_fract_y
_atom_site_fract_z
Si Si1 0.271123 0.487510 0.178762
Si Si2 0.411678 0.386355 0.177080
Si Si3 0.605676 0.741467 0.670816
Si Si4 0.936415 0.675682 0.823178
Si Si5 0.810738 0.769419 0.672549
Si Si6 0.385429 0.602393 0.821995
Si Si7 0.082968 0.454453 0.674879
O O1 0.332617 0.430975 0.237731
O O2 0.319283 0.549282 0.238495
O O3 0.172041 0.484017 0.251107
O O4 0.261662 0.486775 0.000000
O O5 0.392666 0.318120 0.228351
O O6 0.510975 0.409482 0.234633
O O7 0.411293 0.387284 0.000000
O O8 0.587884 0.721493 0.500000
O O9 0.527101 0.787554 0.725831
O O10 0.701911 0.775707 0.689006
O O11 0.847131 0.712211 0.767835
O O12 0.941083 0.610166 0.747007
O O13 0.929591 0.666190 0.000000
O O14 0.839610 0.759417 0.500000
O O15 0.853025 0.831784 0.739344
O O16 0.380685 0.602633 0.000000
O O17 0.100829 0.445079 0.500000
O O18 0.000000 0.500000 0.707466
#
# Coordination Sequence:
#
# PCOD8236660 Si02
#       7
#     8   8   8   8   8   8   8
#     4  10  21  37  62  91 119 154 198 246 291 343
#     4  10  19  35  59  89 120 155 195 234 288 351
#     4  10  22  36  56  86 117 150 193 241 292 347
#     4  11  23  40  62  89 118 151 196 247 294 344
#     4  10  20  37  60  86 119 160 197 238 296 353
#     4   9  18  34  59  88 119 154 196 241 290 348
#     4  11  26  45  62  84 117 157 200 243 297 358
#
# _framework density 19.663052
#
# number of rings (size 3 to 8) (size 9 to 14) (size 15 to 20)
#    0.000    1.857    1.429    2.143    2.000    6.857 
#    0.000    1.429    0.000    1.714    0.000    0.000 
#    0.000    0.000    0.000    0.000    0.000    0.000 
#
# Total GULP energy -694572.650246 kJ/mol
# GULP energy per Si atom -12403.083040 kJ/mol
# Density = 1.961830 g / cm^3
# Si number density = 19.663052 Si / 1000 Ang^3
#
#
#
# Elastic Constant Matrix: (Units=GPa)
#
#
# Indices 1 2 3 4 5 6 
#
# 1 126.5710 50.8045 38.8762 0.0000 0.0000 0.0000
# 2 50.8045 128.7246 40.6096 0.0000 0.0000 0.0000
# 3 38.8762 40.6096 44.5953 0.0000 0.0000 0.0000
# 4 0.0000 0.0000 0.0000 18.5324 0.0000 0.0000
# 5 0.0000 0.0000 0.0000 0.0000 21.5165 0.0000
# 6 0.0000 0.0000 0.0000 0.0000 0.0000 34.2012
#
#
#
# Elastic Compliance Matrix: (Units=1/GPa)
#
#
# Indices 1 2 3 4 5 6 
#
# 1 0.011099 -0.001863 -0.007979 0.000000 0.000000 0.000000
# 2 -0.001863 0.011213 -0.008586 0.000000 0.000000 0.000000
# 3 -0.007979 -0.008586 0.037198 0.000000 0.000000 0.000000
# 4 0.000000 0.000000 0.000000 0.053960 0.000000 0.000000
# 5 0.000000 0.000000 0.000000 0.000000 0.046476 0.000000
# 6 0.000000 0.000000 0.000000 0.000000 0.000000 0.029239
#
#
# Mechanical properties :
#
#
# Convention : Reuss Voigt Hill
#
# Bulk Modulus (GPa) = 44.14374 62.27462 53.20918
# Shear Modulus (GPa) = 21.40473 26.15672 23.78073
#
# Velocity S-wave (km/s) = 3.30294 3.65121 3.48143
# Velocity P-wave (km/s) = 6.08643 7.03667 6.57873
#
# Compressibility (1/GPa) = 0.02265327
#
# Stress axis : x y z
#
# Youngs Moduli (GPa) = 90.09446 89.18469 26.88290
#
# Poissons Ratio (x) = 0.16619 0.21450
# Poissons Ratio (y) = 0.16789 0.23082
# Poissons Ratio (z) = 0.71887 0.76574
#
# Static dielectric constant tensor:
#      x y z
#    x 3.824630 0.000000 0.000000 
#    y 0.000000 3.691530 0.000000 
#    z 0.000000 0.000000 3.391690 
# 
# 
# High freq. dielectric constant tensor:
#      x y z
#    x 1.783880 0.000000 0.000000 
#    y 0.000000 1.776000 0.000000 
#    z 0.000000 0.000000 1.742900 
# 
# From -- ./inp_files/6454.got.cif
#   From: 2010.06.25/outbox.cif.g09.slc.cpg/sg58_4_cif.got.tgz:6454.got - 2010.06.26 21:38:00.
