data_PCOD8236218
_publ_section_title
;
Structure prediction by ZEFSAII (Michael W. Deem and Ramdas Pophale) SiO2 
 PCOD8236218
Probable space group: P N N M
;
_chemical_formula_sum "Si O2"
_cell_formula_units_Z 48
_cell_length_a 7.879533
_cell_length_b 13.908424
_cell_length_c 20.818455
_cell_angle_alpha 90.000000
_cell_angle_beta 90.000000
_cell_angle_gamma 90.000000
_cell_volume 2281.533745
_symmetry_space_group_name_H-M "P N N M"
_symmetry_group_IT_number 58
_symmetry_cell_setting 'orthorhombic'
loop_
_space_group_symop_operation_xyz
x,y,z
-x,-y,z
1/2+x,1/2-y,1/2-z
1/2-x,1/2+y,1/2-z
-x,-y,-z
x,y,-z
1/2-x,1/2+y,1/2+z
1/2+x,1/2-y,1/2+z
loop_
_atom_site_type_symbol
_atom_site_label
_atom_site_fract_x
_atom_site_fract_y
_atom_site_fract_z
Si Si1 0.869188 0.105505 0.929375
Si Si2 0.144521 0.158523 0.687264
Si Si3 0.966846 0.732871 0.571492
Si Si4 0.333665 0.062035 0.110759
Si Si5 0.101335 0.819762 0.799514
Si Si6 0.309591 0.997411 0.750930
O O1 0.694270 0.163807 0.918981
O O2 0.979867 0.137902 0.866939
O O3 0.826752 0.990273 0.925043
O O4 0.947380 0.128505 0.000000
O O5 0.041760 0.177734 0.621247
O O6 0.319941 0.216528 0.685635
O O7 0.186629 0.045203 0.696955
O O8 0.042780 0.197818 0.748152
O O9 0.975008 0.776387 0.500000
O O10 0.136905 0.669923 0.584648
O O11 0.303645 0.066486 0.186908
O O12 0.500000 0.000000 0.094532
O O13 0.243797 0.892408 0.770773
O O14 0.500000 0.000000 0.723202
#
# Coordination Sequence:
#
# PCOD8236218 Si02
#       6
#     8   8   8   8   8   8
#     4   8  14  25  44  71 101 131 161 198 250 309
#     4  11  20  33  52  75 104 134 169 211 253 301
#     4   9  16  26  44  71  99 130 168 208 251 297
#     4   8  13  24  44  70  99 127 158 198 246 306
#     4  10  20  32  51  76 103 136 169 207 253 304
#     4  10  19  33  52  76 101 129 169 211 255 301
#
# _framework density 21.038478999999999
#
# number of rings (size 3 to 8) (size 9 to 14) (size 15 to 20)
#    0.000    2.667    0.000    6.000    0.000    2.000 
#    0.000    0.000    0.000   14.500    0.000    0.000 
#    0.000    0.000    0.000    0.000    0.000    0.000 
#
# Total GULP energy -594883.561781 kJ/mol
# GULP energy per Si atom -12393.407537 kJ/mol
# Density = 2.099059 g / cm^3
# Si number density = 21.038479 Si / 1000 Ang^3
#
#
#
# Elastic Constant Matrix: (Units=GPa)
#
#
# Indices 1 2 3 4 5 6 
#
# 1 9.1908 -1.2398 19.1783 0.0000 0.0000 0.0000
# 2 -1.2398 40.1187 27.7470 0.0000 0.0000 0.0000
# 3 19.1783 27.7470 144.2076 0.0000 0.0000 0.0000
# 4 0.0000 0.0000 0.0000 30.4447 0.0000 0.0000
# 5 0.0000 0.0000 0.0000 0.0000 21.0144 0.0000
# 6 0.0000 0.0000 0.0000 0.0000 0.0000 24.4858
#
#
#
# Elastic Compliance Matrix: (Units=1/GPa)
#
#
# Indices 1 2 3 4 5 6 
#
# 1 0.168308 0.023857 -0.026974 0.000000 0.000000 0.000000
# 2 0.023857 0.032134 -0.009356 0.000000 0.000000 0.000000
# 3 -0.026974 -0.009356 0.012322 0.000000 0.000000 0.000000
# 4 0.000000 0.000000 0.000000 0.032846 0.000000 0.000000
# 5 0.000000 0.000000 0.000000 0.000000 0.047586 0.000000
# 6 0.000000 0.000000 0.000000 0.000000 0.000000 0.040840
#
#
# Mechanical properties :
#
#
# Convention : Reuss Voigt Hill
#
# Bulk Modulus (GPa) = 5.32427 31.65424 18.48926
# Shear Modulus (GPa) = 11.85993 25.04444 18.45218
#
# Velocity S-wave (km/s) = 2.37687 3.45398 2.96475
# Velocity P-wave (km/s) = 3.17315 5.56643 4.53067
#
# Compressibility (1/GPa) = 0.18781915
#
# Stress axis : x y z
#
# Youngs Moduli (GPa) = 5.94148 31.11981 81.15673
#
# Poissons Ratio (x) = -0.74243 2.18910
# Poissons Ratio (y) = -0.14175 0.75927
# Poissons Ratio (z) = 0.16026 0.29115
#
# Static dielectric constant tensor:
#      x y z
#    x 3.720470 0.000000 0.000000 
#    y 0.000000 3.511360 0.000000 
#    z 0.000000 0.000000 3.922150 
# 
# 
# High freq. dielectric constant tensor:
#      x y z
#    x 1.817550 0.000000 0.000000 
#    y 0.000000 1.784490 0.000000 
#    z 0.000000 0.000000 1.814410 
# 
# From -- ./inp_files/28833.got.cif
#   From: 2010.06.25/outbox.cif.g09.slc.cpg/sg58_15_cif.got.tgz:28833.got - 2010.06.26 21:38:00.
