data_PCOD8236970
_publ_section_title
;
Structure prediction by ZEFSAII (Michael W. Deem and Ramdas Pophale) SiO2 
 PCOD8236970
Probable space group: P N N M
;
_chemical_formula_sum "Si O2"
_cell_formula_units_Z 64
_cell_length_a 14.240429
_cell_length_b 24.625308
_cell_length_c 9.509815
_cell_angle_alpha 90.000000
_cell_angle_beta 90.000000
_cell_angle_gamma 90.000000
_cell_volume 3334.853901
_symmetry_space_group_name_H-M "P N N M"
_symmetry_group_IT_number 58
_symmetry_cell_setting 'orthorhombic'
loop_
_space_group_symop_operation_xyz
x,y,z
-x,-y,z
1/2+x,1/2-y,1/2-z
1/2-x,1/2+y,1/2-z
-x,-y,-z
x,y,-z
1/2-x,1/2+y,1/2+z
1/2+x,1/2-y,1/2+z
loop_
_atom_site_type_symbol
_atom_site_label
_atom_site_fract_x
_atom_site_fract_y
_atom_site_fract_z
Si Si1 0.716489 0.990106 0.658357
Si Si2 0.773260 0.089119 0.836219
Si Si3 0.476518 0.172233 0.161804
Si Si4 0.436873 0.051313 0.841825
Si Si5 0.681282 0.199723 0.166423
Si Si6 0.354041 0.601904 0.157546
Si Si7 0.209860 0.693765 0.833130
Si Si8 0.513280 0.561711 0.662831
O O1 0.684540 0.003990 0.500000
O O2 0.645902 0.947194 0.728601
O O3 0.816308 0.959855 0.658403
O O4 0.716877 0.044398 0.749271
O O5 0.738959 0.147335 0.780157
O O6 0.883170 0.083278 0.806471
O O7 0.749919 0.080001 0.000000
O O8 0.493497 0.107408 0.173574
O O9 0.572933 0.199392 0.219261
O O10 0.389967 0.192110 0.255763
O O11 0.456235 0.188562 0.000000
O O12 0.500000 0.000000 0.803502
O O13 0.396187 0.045646 0.000000
O O14 0.735099 0.252874 0.220199
O O15 0.679117 0.198471 0.000000
O O16 0.274420 0.643115 0.212861
O O17 0.444999 0.603172 0.256013
O O18 0.384036 0.619171 0.000000
O O19 0.191279 0.694168 0.000000
O O20 0.500000 0.500000 0.716579
O O21 0.486345 0.565029 0.500000
#
# Coordination Sequence:
#
# PCOD8236970 Si02
#       8
#     8   8   8   8   8   8   8   8
#     4  11  21  33  52  81 114 148 186 228 280 340
#     4  10  20  37  58  81 112 150 191 235 286 340
#     4  10  20  36  59  86 111 142 189 237 277 327
#     4  10  20  34  55  82 112 148 188 231 283 338
#     4   9  20  39  62  83 109 149 192 230 276 339
#     4  10  21  35  53  78 111 149 186 223 277 341
#     4  10  21  40  61  82 112 152 190 230 283 337
#     4  10  20  33  53  82 112 145 187 236 282 326
#
# _framework density 19.191244999999999
#
# number of rings (size 3 to 8) (size 9 to 14) (size 15 to 20)
#    0.000    2.000    2.500    1.125    0.000    5.000 
#    0.000    3.125    0.000    0.000    0.000    0.000 
#    0.000    0.000    0.000    0.000    0.000    0.000 
#
# Total GULP energy -793597.497298 kJ/mol
# GULP energy per Si atom -12399.960895 kJ/mol
# Density = 1.914757 g / cm^3
# Si number density = 19.191245 Si / 1000 Ang^3
#
#
#
# Elastic Constant Matrix: (Units=GPa)
#
#
# Indices 1 2 3 4 5 6 
#
# 1 124.0598 56.3786 48.2603 0.0000 0.0000 0.0000
# 2 56.3786 112.0561 30.7384 0.0000 0.0000 0.0000
# 3 48.2603 30.7384 63.8743 0.0000 0.0000 0.0000
# 4 0.0000 0.0000 0.0000 19.3067 0.0000 0.0000
# 5 0.0000 0.0000 0.0000 0.0000 29.9445 0.0000
# 6 0.0000 0.0000 0.0000 0.0000 0.0000 34.8776
#
#
#
# Elastic Compliance Matrix: (Units=1/GPa)
#
#
# Indices 1 2 3 4 5 6 
#
# 1 0.013107 -0.004468 -0.007753 0.000000 0.000000 0.000000
# 2 -0.004468 0.011804 -0.002305 0.000000 0.000000 0.000000
# 3 -0.007753 -0.002305 0.022623 0.000000 0.000000 0.000000
# 4 0.000000 0.000000 0.000000 0.051796 0.000000 0.000000
# 5 0.000000 0.000000 0.000000 0.000000 0.033395 0.000000
# 6 0.000000 0.000000 0.000000 0.000000 0.000000 0.028672
#
#
# Mechanical properties :
#
#
# Convention : Reuss Voigt Hill
#
# Bulk Modulus (GPa) = 54.10499 63.41609 58.76054
# Shear Modulus (GPa) = 25.43127 27.79996 26.61562
#
# Velocity S-wave (km/s) = 3.64421 3.81014 3.72810
# Velocity P-wave (km/s) = 6.77944 7.24378 7.01545
#
# Compressibility (1/GPa) = 0.01848258
#
# Stress axis : x y z
#
# Youngs Moduli (GPa) = 76.29540 84.71540 44.20334
#
# Poissons Ratio (x) = 0.37849 0.34271
# Poissons Ratio (y) = 0.34087 0.10189
# Poissons Ratio (z) = 0.59151 0.19527
#
# Static dielectric constant tensor:
#      x y z
#    x 3.490540 0.000000 0.000000 
#    y 0.000000 3.572830 0.000000 
#    z 0.000000 0.000000 3.336210 
# 
# 
# High freq. dielectric constant tensor:
#      x y z
#    x 1.749370 0.000000 0.000000 
#    y 0.000000 1.743410 0.000000 
#    z 0.000000 0.000000 1.726890 
# 
# From -- ./inp_files/6878.got.cif
#   From: 2010.06.25/outbox.cif.g09.slc.cpg/sg58_4_cif.got.tgz:6878.got - 2010.06.26 21:38:00.
