data_PCOD8236884
_publ_section_title
;
Structure prediction by ZEFSAII (Michael W. Deem and Ramdas Pophale) SiO2 
 PCOD8236884
Probable space group: P N N M
;
_chemical_formula_sum "Si O2"
_cell_formula_units_Z 64
_cell_length_a 14.116343
_cell_length_b 28.504855
_cell_length_c 9.156011
_cell_angle_alpha 90.000000
_cell_angle_beta 90.000000
_cell_angle_gamma 90.000000
_cell_volume 3684.235172
_symmetry_space_group_name_H-M "P N N M"
_symmetry_group_IT_number 58
_symmetry_cell_setting 'orthorhombic'
loop_
_space_group_symop_operation_xyz
x,y,z
-x,-y,z
1/2+x,1/2-y,1/2-z
1/2-x,1/2+y,1/2-z
-x,-y,-z
x,y,-z
1/2-x,1/2+y,1/2+z
1/2+x,1/2-y,1/2+z
loop_
_atom_site_type_symbol
_atom_site_label
_atom_site_fract_x
_atom_site_fract_y
_atom_site_fract_z
Si Si1 0.227386 0.946490 0.671654
Si Si2 0.596720 0.878149 0.325621
Si Si3 0.905790 0.121606 0.829155
Si Si4 0.251736 0.803590 0.171219
Si Si5 0.750135 0.449093 0.172144
Si Si6 0.763128 0.300862 0.828180
Si Si7 0.399054 0.628202 0.829765
Si Si8 0.883909 0.628360 0.171085
O O1 0.205202 0.946903 0.500000
O O2 0.137324 0.924059 0.751448
O O3 0.322436 0.917605 0.707465
O O4 0.241692 0.998628 0.737046
O O5 0.599692 0.878654 0.500000
O O6 0.655909 0.923053 0.265976
O O7 0.647672 0.830704 0.266771
O O8 0.489512 0.880646 0.267790
O O9 0.842243 0.166939 0.793193
O O10 0.009026 0.132054 0.768778
O O11 0.910979 0.111379 0.000000
O O12 0.237270 0.751520 0.237832
O O13 0.342217 0.826264 0.249240
O O14 0.273663 0.802451 0.000000
O O15 0.656694 0.419373 0.211510
O O16 0.761046 0.452937 0.000000
O O17 0.665428 0.327056 0.789960
O O18 0.775271 0.297104 0.000000
O O19 0.427120 0.628295 0.000000
O O20 0.884970 0.639208 0.000000
#
# Coordination Sequence:
#
# PCOD8236884 Si02
#       8
#     8   8   8   8   8   8   8   8
#     4   9  17  30  47  68  93 119 150 185 222 265
#     4   8  14  26  45  70  94 113 142 184 227 267
#     4  10  20  32  46  66  93 123 152 185 225 265
#     4   9  18  32  47  63  88 122 153 179 216 269
#     4   8  15  28  47  69  91 117 148 183 223 269
#     4   8  15  29  48  67  88 117 150 182 219 267
#     4   9  17  31  50  68  87 115 152 189 222 261
#     4   9  17  28  46  71  94 116 144 185 227 261
#
# _framework density 17.371312
#
# number of rings (size 3 to 8) (size 9 to 14) (size 15 to 20)
#    0.000    3.250    0.000    1.875    0.000    2.500 
#    0.000    7.500    0.000    4.500    0.000    3.500 
#    0.000    0.000    0.000    0.000    0.000    0.000 
#
# Total GULP energy -793384.108011 kJ/mol
# GULP energy per Si atom -12396.626688 kJ/mol
# Density = 1.733177 g / cm^3
# Si number density = 17.371312 Si / 1000 Ang^3
#
#
#
# Elastic Constant Matrix: (Units=GPa)
#
#
# Indices 1 2 3 4 5 6 
#
# 1 120.9100 56.0957 32.1288 0.0000 0.0000 0.0000
# 2 56.0957 153.0757 26.4081 0.0000 0.0000 0.0000
# 3 32.1288 26.4081 28.0916 0.0000 0.0000 0.0000
# 4 0.0000 0.0000 0.0000 17.7809 0.0000 0.0000
# 5 0.0000 0.0000 0.0000 0.0000 13.9299 0.0000
# 6 0.0000 0.0000 0.0000 0.0000 0.0000 14.4584
#
#
#
# Elastic Compliance Matrix: (Units=1/GPa)
#
#
# Indices 1 2 3 4 5 6 
#
# 1 0.012668 -0.002558 -0.012085 0.000000 0.000000 0.000000
# 2 -0.002558 0.008314 -0.004890 0.000000 0.000000 0.000000
# 3 -0.012085 -0.004890 0.054017 0.000000 0.000000 0.000000
# 4 0.000000 0.000000 0.000000 0.056240 0.000000 0.000000
# 5 0.000000 0.000000 0.000000 0.000000 0.071788 0.000000
# 6 0.000000 0.000000 0.000000 0.000000 0.000000 0.069164
#
#
# Mechanical properties :
#
#
# Convention : Reuss Voigt Hill
#
# Bulk Modulus (GPa) = 27.82923 59.03803 43.43363
# Shear Modulus (GPa) = 15.46869 21.73016 18.59942
#
# Velocity S-wave (km/s) = 2.98732 3.54067 3.27570
# Velocity P-wave (km/s) = 5.28713 7.12565 6.27410
#
# Compressibility (1/GPa) = 0.03593344
#
# Stress axis : x y z
#
# Youngs Moduli (GPa) = 78.93642 120.28462 18.51285
#
# Poissons Ratio (x) = 0.30764 0.22372
# Poissons Ratio (y) = 0.20189 0.09053
# Poissons Ratio (z) = 0.95393 0.58822
#
# Static dielectric constant tensor:
#      x y z
#    x 3.307510 0.000000 0.000000 
#    y 0.000000 3.690000 0.000000 
#    z 0.000000 0.000000 2.829770 
# 
# 
# High freq. dielectric constant tensor:
#      x y z
#    x 1.674380 0.000000 0.000000 
#    y 0.000000 1.678260 0.000000 
#    z 0.000000 0.000000 1.627710 
# 
# From -- ./inp_files/7174.got.cif
#   From: 2010.06.25/outbox.cif.g09.slc.cpg/sg58_4_cif.got.tgz:7174.got - 2010.06.26 21:38:00.
