data_PCOD8236540
_publ_section_title
;
Structure prediction by ZEFSAII (Michael W. Deem and Ramdas Pophale) SiO2 
 PCOD8236540
Probable space group: P N N M
;
_chemical_formula_sum "Si O2"
_cell_formula_units_Z 64
_cell_length_a 14.326946
_cell_length_b 25.215768
_cell_length_c 8.600653
_cell_angle_alpha 90.000000
_cell_angle_beta 90.000000
_cell_angle_gamma 90.000000
_cell_volume 3107.114446
_symmetry_space_group_name_H-M "P N N M"
_symmetry_group_IT_number 58
_symmetry_cell_setting 'orthorhombic'
loop_
_space_group_symop_operation_xyz
x,y,z
-x,-y,z
1/2+x,1/2-y,1/2-z
1/2-x,1/2+y,1/2-z
-x,-y,-z
x,y,-z
1/2-x,1/2+y,1/2+z
1/2+x,1/2-y,1/2+z
loop_
_atom_site_type_symbol
_atom_site_label
_atom_site_fract_x
_atom_site_fract_y
_atom_site_fract_z
Si Si1 0.643398 0.229492 0.180655
Si Si2 0.956307 0.946735 0.684091
Si Si3 0.751936 0.420655 0.815851
Si Si4 0.693136 0.118924 0.679231
Si Si5 0.949756 0.248974 0.820133
Si Si6 0.208398 0.692924 0.680703
Si Si7 0.097293 0.859024 0.679088
Si Si8 0.395641 0.990178 0.315248
O O1 0.658179 0.168175 0.220653
O O2 0.557582 0.253698 0.275451
O O3 0.732674 0.264363 0.223044
O O4 0.622038 0.235365 0.000000
O O5 0.966372 0.948798 0.500000
O O6 0.849129 0.942217 0.734542
O O7 0.015782 0.896782 0.744941
O O8 0.000000 0.000000 0.757620
O O9 0.767568 0.366378 0.726753
O O10 0.828594 0.462696 0.756706
O O11 0.757983 0.410863 0.000000
O O12 0.665686 0.129262 0.500000
O O13 0.804174 0.110812 0.695586
O O14 0.642906 0.066232 0.745191
O O15 0.899515 0.295704 0.722715
O O16 0.900763 0.193190 0.783325
O O17 0.938245 0.262237 0.000000
O O18 0.227510 0.701810 0.500000
O O19 0.079146 0.842769 0.500000
O O20 0.395077 0.989665 0.500000
O O21 0.500000 0.000000 0.250241
#
# Coordination Sequence:
#
# PCOD8236540 Si02
#       8
#     8   8   8   8   8   8   8   8
#     4  12  25  42  64  93 127 166 212 261 319 382
#     4   9  17  31  56  89 121 157 202 251 302 362
#     4  10  20  36  60  89 123 164 213 262 314 374
#     4  10  20  36  60  88 122 164 211 259 310 369
#     4  12  25  41  63  90 123 164 209 258 320 383
#     4  12  25  43  64  92 129 167 211 262 319 378
#     4  10  19  34  58  88 123 159 203 256 309 367
#     4   9  19  35  57  88 122 163 214 264 309 369
#
# _framework density 20.597891000000001
#
# number of rings (size 3 to 8) (size 9 to 14) (size 15 to 20)
#    0.000    1.500    1.250    4.875    1.750    4.000 
#    0.000    0.625    0.000    3.750    0.000    0.000 
#    0.000    0.000    0.000    0.000    0.000    0.000 
#
# Total GULP energy -793893.709730 kJ/mol
# GULP energy per Si atom -12404.589215 kJ/mol
# Density = 2.055101 g / cm^3
# Si number density = 20.597891 Si / 1000 Ang^3
#
#
#
# Elastic Constant Matrix: (Units=GPa)
#
#
# Indices 1 2 3 4 5 6 
#
# 1 125.6962 54.4509 25.5973 0.0000 0.0000 0.0000
# 2 54.4509 139.4397 39.8784 0.0000 0.0000 0.0000
# 3 25.5973 39.8784 59.6640 0.0000 0.0000 0.0000
# 4 0.0000 0.0000 0.0000 27.4299 0.0000 0.0000
# 5 0.0000 0.0000 0.0000 0.0000 -202.0120 0.0000
# 6 0.0000 0.0000 0.0000 0.0000 0.0000 43.5898
#
#
#
# Elastic Compliance Matrix: (Units=1/GPa)
#
#
# Indices 1 2 3 4 5 6 
#
# 1 0.009770 -0.003235 -0.002030 0.000000 0.000000 0.000000
# 2 -0.003235 0.009937 -0.005254 0.000000 0.000000 0.000000
# 3 -0.002030 -0.005254 0.021143 0.000000 0.000000 0.000000
# 4 0.000000 0.000000 0.000000 0.036457 0.000000 0.000000
# 5 0.000000 0.000000 0.000000 0.000000 -0.004950 0.000000
# 6 0.000000 0.000000 0.000000 0.000000 0.000000 0.022941
#
#
# Mechanical properties :
#
#
# Convention : Reuss Voigt Hill
#
# Bulk Modulus (GPa) = 50.47041 62.73922 56.60482
# Shear Modulus (GPa) = 40.67025 -12.54023 14.06501
#
# Velocity S-wave (km/s) = 4.44834 -2.47009 2.61595
# Velocity P-wave (km/s) = 7.13719 4.73181 6.05515
#
# Compressibility (1/GPa) = 0.01981359
#
# Stress axis : x y z
#
# Youngs Moduli (GPa) = 102.35076 100.63000 47.29687
#
# Poissons Ratio (x) = 0.32552 0.09599
# Poissons Ratio (y) = 0.33109 0.24851
# Poissons Ratio (z) = 0.20773 0.52873
#
# Static dielectric constant tensor:
#      x y z
#    x 3.990070 0.000000 0.000000 
#    y 0.000000 3.792300 0.000000 
#    z 0.000000 0.000000 3.380350 
# 
# 
# High freq. dielectric constant tensor:
#      x y z
#    x 1.821630 0.000000 0.000000 
#    y 0.000000 1.814710 0.000000 
#    z 0.000000 0.000000 1.770680 
# 
# From -- ./inp_files/6808.got.cif
#   From: 2010.06.25/outbox.cif.g09.slc.cpg/sg58_4_cif.got.tgz:6808.got - 2010.06.26 21:38:00.
