data_PCOD8236673
_publ_section_title
;
Structure prediction by ZEFSAII (Michael W. Deem and Ramdas Pophale) SiO2 
 PCOD8236673
Probable space group: P N N M
;
_chemical_formula_sum "Si O2"
_cell_formula_units_Z 64
_cell_length_a 16.678713
_cell_length_b 21.207941
_cell_length_c 9.082743
_cell_angle_alpha 90.000000
_cell_angle_beta 90.000000
_cell_angle_gamma 90.000000
_cell_volume 3212.758401
_symmetry_space_group_name_H-M "P N N M"
_symmetry_group_IT_number 58
_symmetry_cell_setting 'orthorhombic'
loop_
_space_group_symop_operation_xyz
x,y,z
-x,-y,z
1/2+x,1/2-y,1/2-z
1/2-x,1/2+y,1/2-z
-x,-y,-z
x,y,-z
1/2-x,1/2+y,1/2+z
1/2+x,1/2-y,1/2+z
loop_
_atom_site_type_symbol
_atom_site_label
_atom_site_fract_x
_atom_site_fract_y
_atom_site_fract_z
Si Si1 0.144500 0.101797 0.672871
Si Si2 0.596831 0.944438 0.832724
Si Si3 0.218706 0.667126 0.669227
Si Si4 0.322792 0.460530 0.830909
Si Si5 0.536129 0.633038 0.831865
Si Si6 0.669456 0.078591 0.172245
Si Si7 0.028611 0.367116 0.172544
Si Si8 0.589721 0.756064 0.327141
O O1 0.159588 0.108563 0.500000
O O2 0.195461 0.155431 0.755793
O O3 0.052522 0.112753 0.714721
O O4 0.169668 0.032072 0.727355
O O5 0.669636 0.896872 0.810938
O O6 0.523066 0.926781 0.728034
O O7 0.628795 0.012351 0.787604
O O8 0.564609 0.943137 0.000000
O O9 0.231797 0.685744 0.500000
O O10 0.172177 0.724126 0.747852
O O11 0.408941 0.428252 0.812244
O O12 0.258769 0.420903 0.736887
O O13 0.294713 0.459897 0.000000
O O14 0.566270 0.686942 0.723507
O O15 0.538713 0.657815 0.000000
O O16 0.615223 0.132867 0.247746
O O17 0.674698 0.091910 0.000000
O O18 0.982577 0.303130 0.216492
O O19 0.042047 0.373144 0.000000
O O20 0.605759 0.757342 0.500000
#
# Coordination Sequence:
#
# PCOD8236673 Si02
#       8
#     8   8   8   8   8   8   8   8
#     4  10  20  37  63  92 120 151 194 242 292 351
#     4   9  18  32  51  79 116 151 187 233 287 345
#     4  10  19  35  60  88 119 156 195 239 290 346
#     4  10  21  38  61  88 120 154 191 241 296 350
#     4  10  22  41  63  88 117 154 196 242 297 350
#     4  11  21  34  53  82 119 153 190 237 289 348
#     4  10  21  35  54  81 111 150 196 239 286 345
#     4  10  22  41  61  84 116 154 199 245 291 345
#
# _framework density 19.920577000000002
#
# number of rings (size 3 to 8) (size 9 to 14) (size 15 to 20)
#    0.000    2.000    1.250    2.250    0.000    7.000 
#    2.250    0.000    0.000    2.250    0.000    0.000 
#    0.000    0.000    0.000    0.000    0.000    0.000 
#
# Total GULP energy -793865.168163 kJ/mol
# GULP energy per Si atom -12404.143253 kJ/mol
# Density = 1.987524 g / cm^3
# Si number density = 19.920577 Si / 1000 Ang^3
#
#
#
# Elastic Constant Matrix: (Units=GPa)
#
#
# Indices 1 2 3 4 5 6 
#
# 1 131.7897 29.6768 56.4706 0.0000 0.0000 0.0000
# 2 29.6768 53.2064 29.1417 0.0000 0.0000 0.0000
# 3 56.4706 29.1417 85.7615 0.0000 0.0000 0.0000
# 4 0.0000 0.0000 0.0000 26.8946 0.0000 0.0000
# 5 0.0000 0.0000 0.0000 0.0000 30.6320 0.0000
# 6 0.0000 0.0000 0.0000 0.0000 0.0000 16.6599
#
#
#
# Elastic Compliance Matrix: (Units=1/GPa)
#
#
# Indices 1 2 3 4 5 6 
#
# 1 0.010862 -0.002631 -0.006258 0.000000 0.000000 0.000000
# 2 -0.002631 0.023730 -0.006331 0.000000 0.000000 0.000000
# 3 -0.006258 -0.006331 0.017932 0.000000 0.000000 0.000000
# 4 0.000000 0.000000 0.000000 0.037182 0.000000 0.000000
# 5 0.000000 0.000000 0.000000 0.000000 0.032646 0.000000
# 6 0.000000 0.000000 0.000000 0.000000 0.000000 0.060024
#
#
# Mechanical properties :
#
#
# Convention : Reuss Voigt Hill
#
# Bulk Modulus (GPa) = 45.28199 55.70398 50.49299
# Shear Modulus (GPa) = 22.70900 25.20187 23.95544
#
# Velocity S-wave (km/s) = 3.38002 3.56071 3.47154
# Velocity P-wave (km/s) = 6.16549 6.70288 6.43979
#
# Compressibility (1/GPa) = 0.02208384
#
# Stress axis : x y z
#
# Youngs Moduli (GPa) = 92.06580 42.14133 55.76536
#
# Poissons Ratio (x) = 0.11086 0.34899
# Poissons Ratio (y) = 0.24220 0.35306
# Poissons Ratio (z) = 0.57616 0.26680
#
# Static dielectric constant tensor:
#      x y z
#    x 3.668910 0.000000 0.000000 
#    y 0.000000 3.432720 0.000000 
#    z 0.000000 0.000000 3.564200 
# 
# 
# High freq. dielectric constant tensor:
#      x y z
#    x 1.784140 0.000000 0.000000 
#    y 0.000000 1.761630 0.000000 
#    z 0.000000 0.000000 1.775510 
# 
# From -- ./inp_files/6974.got.cif
#   From: 2010.06.25/outbox.cif.g09.slc.cpg/sg58_4_cif.got.tgz:6974.got - 2010.06.26 21:38:00.
