data_PCOD8236664
_publ_section_title
;
Structure prediction by ZEFSAII (Michael W. Deem and Ramdas Pophale) SiO2 
 PCOD8236664
Probable space group: P N N M
;
_chemical_formula_sum "Si O2"
_cell_formula_units_Z 64
_cell_length_a 18.965481
_cell_length_b 10.566209
_cell_length_c 15.777139
_cell_angle_alpha 90.000000
_cell_angle_beta 90.000000
_cell_angle_gamma 90.000000
_cell_volume 3161.631940
_symmetry_space_group_name_H-M "P N N M"
_symmetry_group_IT_number 58
_symmetry_cell_setting 'orthorhombic'
loop_
_space_group_symop_operation_xyz
x,y,z
-x,-y,z
1/2+x,1/2-y,1/2-z
1/2-x,1/2+y,1/2-z
-x,-y,-z
x,y,-z
1/2-x,1/2+y,1/2+z
1/2+x,1/2-y,1/2+z
loop_
_atom_site_type_symbol
_atom_site_label
_atom_site_fract_x
_atom_site_fract_y
_atom_site_fract_z
Si Si1 0.766785 0.853458 0.660015
Si Si2 0.162750 0.029818 0.189237
Si Si3 0.286184 0.914230 0.907951
Si Si4 0.995376 0.648958 0.758785
Si Si5 0.254836 0.368902 0.096613
Si Si6 0.104449 0.250825 0.901604
Si Si7 0.644482 0.730308 0.758411
Si Si8 0.560073 0.103641 0.091554
O O1 0.825206 0.875365 0.732647
O O2 0.793498 0.737298 0.603465
O O3 0.690862 0.816226 0.696698
O O4 0.759054 0.980045 0.604762
O O5 0.119729 0.102198 0.116211
O O6 0.241057 0.985742 0.161880
O O7 0.122090 0.903126 0.215578
O O8 0.365109 0.968906 0.902843
O O9 0.252144 0.940693 0.000000
O O10 0.961527 0.707709 0.843631
O O11 0.948329 0.688456 0.676230
O O12 0.000000 0.500000 0.774803
O O13 0.071791 0.697846 0.731360
O O14 0.175484 0.327757 0.121968
O O15 0.312114 0.296970 0.154888
O O16 0.270950 0.329069 0.000000
O O17 0.083439 0.268905 0.000000
O O18 0.500000 0.000000 0.095367
O O19 0.555536 0.177151 0.000000
#
# Coordination Sequence:
#
# PCOD8236664 Si02
#       8
#     8   8   8   8   8   8   8   8
#     4  10  19  35  60  84 118 153 198 247 303 364
#     4  10  21  36  61  84 115 150 201 254 299 348
#     4  10  20  35  56  85 116 149 193 246 300 353
#     4  11  24  39  61  86 123 166 202 245 308 372
#     4  10  21  37  62  93 122 155 204 263 310 359
#     4  11  23  40  61  89 123 163 206 253 309 365
#     4  10  22  38  59  90 117 158 204 248 303 365
#     4   9  20  34  54  85 119 154 193 242 299 363
#
# _framework density 20.242711
#
# number of rings (size 3 to 8) (size 9 to 14) (size 15 to 20)
#    0.000    1.875    1.250    2.250    7.000    1.250 
#    0.000    4.375    0.000    0.000    0.000    7.000 
#    0.000    0.000    0.000    0.000    0.000    0.000 
#
# Total GULP energy -793193.565758 kJ/mol
# GULP energy per Si atom -12393.649465 kJ/mol
# Density = 2.019664 g / cm^3
# Si number density = 20.242711 Si / 1000 Ang^3
#
#
#
# Elastic Constant Matrix: (Units=GPa)
#
#
# Indices 1 2 3 4 5 6 
#
# 1 79.2498 24.3471 36.8475 0.0000 0.0000 0.0000
# 2 24.3471 72.4995 18.6180 0.0000 0.0000 0.0000
# 3 36.8475 18.6180 114.6190 0.0000 0.0000 0.0000
# 4 0.0000 0.0000 0.0000 23.0612 0.0000 0.0000
# 5 0.0000 0.0000 0.0000 0.0000 30.1738 0.0000
# 6 0.0000 0.0000 0.0000 0.0000 0.0000 24.0690
#
#
#
# Elastic Compliance Matrix: (Units=1/GPa)
#
#
# Indices 1 2 3 4 5 6 
#
# 1 0.015987 -0.004225 -0.004453 0.000000 0.000000 0.000000
# 2 -0.004225 0.015510 -0.001161 0.000000 0.000000 0.000000
# 3 -0.004453 -0.001161 0.010345 0.000000 0.000000 0.000000
# 4 0.000000 0.000000 0.000000 0.043363 0.000000 0.000000
# 5 0.000000 0.000000 0.000000 0.000000 0.033141 0.000000
# 6 0.000000 0.000000 0.000000 0.000000 0.000000 0.041547
#
#
# Mechanical properties :
#
#
# Convention : Reuss Voigt Hill
#
# Bulk Modulus (GPa) = 45.12006 47.33260 46.22633
# Shear Modulus (GPa) = 26.74370 27.89784 27.32077
#
# Velocity S-wave (km/s) = 3.63871 3.71640 3.67776
# Velocity P-wave (km/s) = 6.32389 6.46906 6.39689
#
# Compressibility (1/GPa) = 0.02216309
#
# Stress axis : x y z
#
# Youngs Moduli (GPa) = 62.55128 64.47335 96.66747
#
# Poissons Ratio (x) = 0.27241 0.43047
# Poissons Ratio (y) = 0.26429 0.11224
# Poissons Ratio (z) = 0.27855 0.07486
#
# Static dielectric constant tensor:
#      x y z
#    x 3.493010 0.000000 0.000000 
#    y 0.000000 3.662940 0.000000 
#    z 0.000000 0.000000 4.020240 
# 
# 
# High freq. dielectric constant tensor:
#      x y z
#    x 1.778320 0.000000 0.000000 
#    y 0.000000 1.782700 0.000000 
#    z 0.000000 0.000000 1.803190 
# 
# From -- ./inp_files/22963.got.cif
#   From: 2010.06.25/outbox.cif.g09.slc.cpg/sg58_12_cif.got.tgz:22963.got - 2010.06.26 21:38:00.
