data_PCOD8236715
_publ_section_title
;
Structure prediction by ZEFSAII (Michael W. Deem and Ramdas Pophale) SiO2 
 PCOD8236715
Probable space group: P N N M
;
_chemical_formula_sum "Si O2"
_cell_formula_units_Z 64
_cell_length_a 24.214409
_cell_length_b 14.562267
_cell_length_c 8.622089
_cell_angle_alpha 90.000000
_cell_angle_beta 90.000000
_cell_angle_gamma 90.000000
_cell_volume 3040.292476
_symmetry_space_group_name_H-M "P N N M"
_symmetry_group_IT_number 58
_symmetry_cell_setting 'orthorhombic'
loop_
_space_group_symop_operation_xyz
x,y,z
-x,-y,z
1/2+x,1/2-y,1/2-z
1/2-x,1/2+y,1/2-z
-x,-y,-z
x,y,-z
1/2-x,1/2+y,1/2+z
1/2+x,1/2-y,1/2+z
loop_
_atom_site_type_symbol
_atom_site_label
_atom_site_fract_x
_atom_site_fract_y
_atom_site_fract_z
Si Si1 0.307012 0.964375 0.319317
Si Si2 0.005783 0.234263 0.321804
Si Si3 0.202352 0.845770 0.317412
Si Si4 0.156698 0.136461 0.320212
Si Si5 0.227687 0.641287 0.318527
Si Si6 0.586637 0.634890 0.322261
Si Si7 0.557139 0.435925 0.675152
Si Si8 0.392477 0.813048 0.320105
O O1 0.298872 0.986380 0.500000
O O2 0.255078 0.903564 0.255752
O O3 0.364924 0.911698 0.291662
O O4 0.314300 0.058609 0.222140
O O5 0.001105 0.262186 0.500000
O O6 0.033462 0.134084 0.302892
O O7 0.043086 0.310777 0.233931
O O8 0.944036 0.223744 0.251006
O O9 0.202371 0.851772 0.500000
O O10 0.205019 0.739780 0.262574
O O11 0.144523 0.886871 0.258704
O O12 0.144762 0.115869 0.500000
O O13 0.219738 0.115747 0.284042
O O14 0.122684 0.068161 0.208117
O O15 0.142593 0.241786 0.281004
O O16 0.241892 0.644299 0.500000
O O17 0.598798 0.655278 0.500000
O O18 0.543926 0.545820 0.305999
O O19 0.543558 0.402202 0.500000
O O20 0.388632 0.784755 0.500000
#
# Coordination Sequence:
#
# PCOD8236715 Si02
#       8
#     8   8   8   8   8   8   8   8
#     4  10  21  38  60  86 115 149 189 233 285 341
#     4  11  22  35  55  82 111 149 191 234 282 337
#     4  10  22  40  58  81 117 155 189 231 285 341
#     4  11  20  31  51  79 111 147 188 229 274 332
#     4  11  22  37  56  81 115 153 190 233 289 341
#     4  11  23  37  54  79 110 149 192 234 284 340
#     4  10  20  34  53  79 112 148 188 234 283 336
#     4  10  19  36  58  80 111 146 183 231 281 329
#
# _framework density 21.050604
#
# number of rings (size 3 to 8) (size 9 to 14) (size 15 to 20)
#    0.000    1.500    1.250    6.375    0.000    8.000 
#    0.000    0.000    0.000    0.750    0.000    5.250 
#    0.000    0.000    0.000    0.000    0.000    0.000 
#
# Total GULP energy -793395.430305 kJ/mol
# GULP energy per Si atom -12396.803599 kJ/mol
# Density = 2.100269 g / cm^3
# Si number density = 21.050604 Si / 1000 Ang^3
#
#
#
# Elastic Constant Matrix: (Units=GPa)
#
#
# Indices 1 2 3 4 5 6 
#
# 1 32.5638 -9.6860 -7.4976 0.0000 0.0000 0.0000
# 2 -9.6860 77.6897 12.3880 0.0000 0.0000 0.0000
# 3 -7.4976 12.3880 44.3379 0.0000 0.0000 0.0000
# 4 0.0000 0.0000 0.0000 26.3350 0.0000 0.0000
# 5 0.0000 0.0000 0.0000 0.0000 23.5152 0.0000
# 6 0.0000 0.0000 0.0000 0.0000 0.0000 28.4874
#
#
#
# Elastic Compliance Matrix: (Units=1/GPa)
#
#
# Indices 1 2 3 4 5 6 
#
# 1 0.032766 0.003351 0.004604 0.000000 0.000000 0.000000
# 2 0.003351 0.013815 -0.003293 0.000000 0.000000 0.000000
# 3 0.004604 -0.003293 0.024253 0.000000 0.000000 0.000000
# 4 0.000000 0.000000 0.000000 0.037972 0.000000 0.000000
# 5 0.000000 0.000000 0.000000 0.000000 0.042526 0.000000
# 6 0.000000 0.000000 0.000000 0.000000 0.000000 0.035103
#
#
# Mechanical properties :
#
#
# Convention : Reuss Voigt Hill
#
# Bulk Modulus (GPa) = 12.47543 16.11115 14.29329
# Shear Modulus (GPa) = 24.53035 26.29333 25.41184
#
# Velocity S-wave (km/s) = 3.41736 3.53803 3.47822
# Velocity P-wave (km/s) = 4.63793 4.93562 4.78909
#
# Compressibility (1/GPa) = 0.08015753
#
# Stress axis : x y z
#
# Youngs Moduli (GPa) = 30.51966 72.38711 41.23238
#
# Poissons Ratio (x) = -0.24256 -0.18985
# Poissons Ratio (y) = -0.10227 0.13579
# Poissons Ratio (z) = -0.14053 0.23838
#
# Static dielectric constant tensor:
#      x y z
#    x 4.000260 0.000000 0.000000 
#    y 0.000000 3.694750 0.000000 
#    z 0.000000 0.000000 3.619890 
# 
# 
# High freq. dielectric constant tensor:
#      x y z
#    x 1.826330 0.000000 0.000000 
#    y 0.000000 1.799280 0.000000 
#    z 0.000000 0.000000 1.820980 
# 
# From -- ./inp_files/10113.got.cif
#   From: 2010.06.25/outbox.cif.g09.slc.cpg/sg58_6_cif.got.tgz:10113.got - 2010.06.26 21:38:00.
