data_PCOD8236285
_publ_section_title
;
Structure prediction by ZEFSAII (Michael W. Deem and Ramdas Pophale) SiO2 
 PCOD8236285
Probable space group: P N N M
;
_chemical_formula_sum "Si O2"
_cell_formula_units_Z 48
_cell_length_a 17.845483
_cell_length_b 15.520921
_cell_length_c 9.173499
_cell_angle_alpha 90.000000
_cell_angle_beta 90.000000
_cell_angle_gamma 90.000000
_cell_volume 2540.860450
_symmetry_space_group_name_H-M "P N N M"
_symmetry_group_IT_number 58
_symmetry_cell_setting 'orthorhombic'
loop_
_space_group_symop_operation_xyz
x,y,z
-x,-y,z
1/2+x,1/2-y,1/2-z
1/2-x,1/2+y,1/2-z
-x,-y,-z
x,y,-z
1/2-x,1/2+y,1/2+z
1/2+x,1/2-y,1/2+z
loop_
_atom_site_type_symbol
_atom_site_label
_atom_site_fract_x
_atom_site_fract_y
_atom_site_fract_z
Si Si1 0.963120 0.911381 0.827352
Si Si2 0.787377 0.235067 0.668661
Si Si3 0.543504 0.082951 0.826761
Si Si4 0.793870 0.905428 0.826941
Si Si5 0.537852 0.745217 0.168202
Si Si6 0.213997 0.422667 0.326518
O O1 0.878446 0.909632 0.767690
O O2 0.010142 0.834516 0.760839
O O3 0.965668 0.902038 0.000000
O O4 0.000000 0.000000 0.774747
O O5 0.768090 0.217781 0.500000
O O6 0.742884 0.317512 0.730846
O O7 0.874128 0.255991 0.690528
O O8 0.764181 0.152776 0.761135
O O9 0.502076 0.168812 0.771634
O O10 0.628798 0.084107 0.769682
O O11 0.500000 0.000000 0.762224
O O12 0.542092 0.078144 0.000000
O O13 0.747502 0.987246 0.768438
O O14 0.792022 0.906939 0.000000
O O15 0.517129 0.729561 0.000000
O O16 0.218307 0.415999 0.500000
#
# Coordination Sequence:
#
# PCOD8236285 Si02
#       6
#     8   8   8   8   8   8
#     4  10  20  34  52  73  99 132 168 204 243 292
#     4  10  20  34  51  72 102 136 165 199 248 301
#     4   9  17  31  53  79 103 128 163 207 251 295
#     4   9  18  33  52  73  99 133 167 198 243 300
#     4  10  20  33  51  76 102 129 164 205 249 294
#     4  10  19  33  55  78  99 128 169 211 244 286
#
# _framework density 18.891238000000001
#
# number of rings (size 3 to 8) (size 9 to 14) (size 15 to 20)
#    0.000    2.333    0.000    3.000    0.000    6.333 
#    0.000    1.667    0.000    4.000    0.000    0.000 
#    0.000    0.000    0.000    0.000    0.000    0.000 
#
# Total GULP energy -595315.932962 kJ/mol
# GULP energy per Si atom -12402.415270 kJ/mol
# Density = 1.884824 g / cm^3
# Si number density = 18.891238 Si / 1000 Ang^3
#
#
#
# Elastic Constant Matrix: (Units=GPa)
#
#
# Indices 1 2 3 4 5 6 
#
# 1 97.0622 35.1458 17.7121 0.0000 0.0000 0.0000
# 2 35.1458 138.8739 24.2127 0.0000 0.0000 0.0000
# 3 17.7121 24.2127 18.6690 0.0000 0.0000 0.0000
# 4 0.0000 0.0000 0.0000 7.0975 0.0000 0.0000
# 5 0.0000 0.0000 0.0000 0.0000 22.2408 0.0000
# 6 0.0000 0.0000 0.0000 0.0000 0.0000 46.3592
#
#
#
# Elastic Compliance Matrix: (Units=1/GPa)
#
#
# Indices 1 2 3 4 5 6 
#
# 1 0.012678 -0.001436 -0.010165 0.000000 0.000000 0.000000
# 2 -0.001436 0.009467 -0.010916 0.000000 0.000000 0.000000
# 3 -0.010165 -0.010916 0.077367 0.000000 0.000000 0.000000
# 4 0.000000 0.000000 0.000000 0.140896 0.000000 0.000000
# 5 0.000000 0.000000 0.000000 0.000000 0.044962 0.000000
# 6 0.000000 0.000000 0.000000 0.000000 0.000000 0.021571
#
#
# Mechanical properties :
#
#
# Convention : Reuss Voigt Hill
#
# Bulk Modulus (GPa) = 18.35653 45.41627 31.88640
# Shear Modulus (GPa) = 13.50858 26.97513 20.24186
#
# Velocity S-wave (km/s) = 2.67698 3.78288 3.27692
# Velocity P-wave (km/s) = 4.39238 6.57064 5.58867
#
# Compressibility (1/GPa) = 0.05447654
#
# Stress axis : x y z
#
# Youngs Moduli (GPa) = 78.87887 105.62468 12.92543
#
# Poissons Ratio (x) = 0.15169 0.13139
# Poissons Ratio (y) = 0.11328 0.14110
# Poissons Ratio (z) = 0.80183 1.15303
#
# Static dielectric constant tensor:
#      x y z
#    x 3.823340 0.000000 0.000000 
#    y 0.000000 3.671180 0.000000 
#    z 0.000000 0.000000 3.018760 
# 
# 
# High freq. dielectric constant tensor:
#      x y z
#    x 1.754480 0.000000 0.000000 
#    y 0.000000 1.752220 0.000000 
#    z 0.000000 0.000000 1.685790 
# 
# From -- ./inp_files/5814.got.cif
#   From: 2010.06.25/outbox.cif.g09.slc.cpg/sg58_3_cif.got.tgz:5814.got - 2010.06.26 21:38:00.
