data_PCOD8236865
_publ_section_title
;
Structure prediction by ZEFSAII (Michael W. Deem and Ramdas Pophale) SiO2 
 PCOD8236865
Probable space group: P N N M
;
_chemical_formula_sum "Si O2"
_cell_formula_units_Z 40
_cell_length_a 10.480161
_cell_length_b 9.462542
_cell_length_c 20.361172
_cell_angle_alpha 90.000000
_cell_angle_beta 90.000000
_cell_angle_gamma 90.000000
_cell_volume 2019.196326
_symmetry_space_group_name_H-M "P N N M"
_symmetry_group_IT_number 58
_symmetry_cell_setting 'orthorhombic'
loop_
_space_group_symop_operation_xyz
x,y,z
-x,-y,z
1/2+x,1/2-y,1/2-z
1/2-x,1/2+y,1/2-z
-x,-y,-z
x,y,-z
1/2-x,1/2+y,1/2+z
1/2+x,1/2-y,1/2+z
loop_
_atom_site_type_symbol
_atom_site_label
_atom_site_fract_x
_atom_site_fract_y
_atom_site_fract_z
Si Si1 0.474744 0.157465 0.573897
Si Si2 0.123229 0.089556 0.898967
Si Si3 0.237678 0.742502 0.173378
Si Si4 0.871532 0.579982 0.426821
Si Si5 0.858377 0.994051 0.246035
O O1 0.417747 0.152564 0.500000
O O2 0.604843 0.249770 0.575362
O O3 0.379771 0.234748 0.623511
O O4 0.500000 0.000000 0.599371
O O5 0.132743 0.095104 0.820538
O O6 0.252606 0.027829 0.928668
O O7 0.000000 0.000000 0.922833
O O8 0.354502 0.800930 0.129243
O O9 0.269265 0.589962 0.202973
O O10 0.201619 0.851556 0.231861
O O11 0.884887 0.646505 0.500000
O O12 0.000000 0.500000 0.406965
O O13 0.000000 0.000000 0.277173
#
# Coordination Sequence:
#
# PCOD8236865 Si02
#       5
#     8   8   8   8   8
#     4  11  23  39  64  96 123 156 207 266 316 356
#     4  10  19  40  65  90 116 161 209 255 297 362
#     4  11  23  39  62  89 122 163 198 262 300 368
#     4  10  21  38  62  92 122 159 207 251 306 369
#     4  10  22  39  58  89 122 158 206 243 308 367
#
# _framework density 19.809861999999999
#
# number of rings (size 3 to 8) (size 9 to 14) (size 15 to 20)
#    0.000    1.600    6.000    1.200    2.800    4.000 
#    0.000    0.000    0.000    1.200    0.000    0.000 
#    0.000    0.000    0.000    0.000    0.000    0.000 
#
# Total GULP energy -495917.789257 kJ/mol
# GULP energy per Si atom -12397.944731 kJ/mol
# Density = 1.976477 g / cm^3
# Si number density = 19.809862 Si / 1000 Ang^3
#
#
#
# Elastic Constant Matrix: (Units=GPa)
#
#
# Indices 1 2 3 4 5 6 
#
# 1 98.4055 27.4297 24.2201 0.0000 0.0000 0.0000
# 2 27.4297 106.0535 26.7145 0.0000 0.0000 0.0000
# 3 24.2201 26.7145 61.7996 0.0000 0.0000 0.0000
# 4 0.0000 0.0000 0.0000 45.5419 0.0000 0.0000
# 5 0.0000 0.0000 0.0000 0.0000 -0.5707 0.0000
# 6 0.0000 0.0000 0.0000 0.0000 0.0000 27.0354
#
#
#
# Elastic Compliance Matrix: (Units=1/GPa)
#
#
# Indices 1 2 3 4 5 6 
#
# 1 0.011646 -0.002090 -0.003661 0.000000 0.000000 0.000000
# 2 -0.002090 0.010956 -0.003917 0.000000 0.000000 0.000000
# 3 -0.003661 -0.003917 0.019309 0.000000 0.000000 0.000000
# 4 0.000000 0.000000 0.000000 0.021958 0.000000 0.000000
# 5 0.000000 0.000000 0.000000 0.000000 -1.752279 0.000000
# 6 0.000000 0.000000 0.000000 0.000000 0.000000 0.036988
#
#
# Mechanical properties :
#
#
# Convention : Reuss Voigt Hill
#
# Bulk Modulus (GPa) = 44.29501 46.99857 45.64679
# Shear Modulus (GPa) = -3.07776 26.92762 11.92493
#
# Velocity S-wave (km/s) = -1.24781 3.69087 2.45617
# Velocity P-wave (km/s) = 4.50917 6.47609 5.57998
#
# Compressibility (1/GPa) = 0.02257590
#
# Stress axis : x y z
#
# Youngs Moduli (GPa) = 85.86966 91.27034 51.78862
#
# Poissons Ratio (x) = 0.19075 0.18958
# Poissons Ratio (y) = 0.17946 0.20286
# Poissons Ratio (z) = 0.31434 0.35752
#
# Static dielectric constant tensor:
#      x y z
#    x 3.565740 0.000000 0.000000 
#    y 0.000000 3.548980 0.000000 
#    z 0.000000 0.000000 3.537190 
# 
# 
# High freq. dielectric constant tensor:
#      x y z
#    x 1.761170 0.000000 0.000000 
#    y 0.000000 1.762770 0.000000 
#    z 0.000000 0.000000 1.772710 
# 
# From -- ./inp_files/28715.got.cif
#   From: 2010.06.25/outbox.cif.g09.slc.cpg/sg58_15_cif.got.tgz:28715.got - 2010.06.26 21:38:00.
