data_PCOD8236282
_publ_section_title
;
Structure prediction by ZEFSAII (Michael W. Deem and Ramdas Pophale) SiO2 
 PCOD8236282
Probable space group: P N N M
;
_chemical_formula_sum "Si O2"
_cell_formula_units_Z 52
_cell_length_a 8.124174
_cell_length_b 14.171543
_cell_length_c 24.196529
_cell_angle_alpha 90.000000
_cell_angle_beta 90.000000
_cell_angle_gamma 90.000000
_cell_volume 2785.796741
_symmetry_space_group_name_H-M "P N N M"
_symmetry_group_IT_number 58
_symmetry_cell_setting 'orthorhombic'
loop_
_space_group_symop_operation_xyz
x,y,z
-x,-y,z
1/2+x,1/2-y,1/2-z
1/2-x,1/2+y,1/2-z
-x,-y,-z
x,y,-z
1/2-x,1/2+y,1/2+z
1/2+x,1/2-y,1/2+z
loop_
_atom_site_type_symbol
_atom_site_label
_atom_site_fract_x
_atom_site_fract_y
_atom_site_fract_z
Si Si1 0.728418 0.955237 0.317141
Si Si2 0.250080 0.853125 0.616718
Si Si3 0.780934 0.665906 0.300958
Si Si4 0.500000 0.000000 0.222030
Si Si5 0.017137 0.832293 0.706681
Si Si6 0.602490 0.786439 0.613137
Si Si7 0.229622 0.430517 0.000000
Si Si8 0.143982 0.636896 0.000000
O O1 0.647332 0.884548 0.359601
O O2 0.916854 0.928027 0.305051
O O3 0.709690 0.058057 0.343616
O O4 0.629438 0.944686 0.260095
O O5 0.103314 0.799544 0.648865
O O6 0.403712 0.780987 0.612885
O O7 0.190977 0.886366 0.555727
O O8 0.896250 0.575425 0.314578
O O9 0.647639 0.642021 0.254111
O O10 0.685195 0.697178 0.356473
O O11 0.893864 0.749065 0.275727
O O12 0.674550 0.793771 0.551479
O O13 0.261071 0.543888 0.000000
O O14 0.038375 0.405588 0.000000
#
# Coordination Sequence:
#
# PCOD8236282 Si02
#       8
#     8   8   8   4   8   8   4   4
#     4  11  19  32  54  79 109 147 176 226 268 332
#     4  11  18  33  53  83 115 148 179 219 269 342
#     4  11  23  36  53  75 105 151 191 238 279 332
#     4  12  22  36  54  78 110 146 196 236 276 316
#     4  11  22  36  51  77 111 148 188 224 284 329
#     4  10  19  33  55  77 110 144 186 221 282 333
#     4   9  18  28  54  83 111 150 179 213 272 339
#     4   9  16  30  51  81 108 141 185 224 265 352
#
# _framework density 18.666114
#
# number of rings (size 3 to 8) (size 9 to 14) (size 15 to 20)
#    0.000    1.385    4.615    3.231    0.000    0.000 
#    0.000    4.615    0.000    0.462    0.000    0.000 
#    0.000    6.154    0.000    0.000    0.000    0.077 
#
# Total GULP energy -644552.510640 kJ/mol
# GULP energy per Si atom -12395.240589 kJ/mol
# Density = 1.862363 g / cm^3
# Si number density = 18.666114 Si / 1000 Ang^3
#
#
#
# Elastic Constant Matrix: (Units=GPa)
#
#
# Indices 1 2 3 4 5 6 
#
# 1 80.5466 32.8517 36.5922 0.0000 0.0000 0.0000
# 2 32.8517 55.1019 37.2000 0.0000 0.0000 0.0000
# 3 36.5922 37.2000 120.0388 0.0000 0.0000 0.0000
# 4 0.0000 0.0000 0.0000 29.4285 0.0000 0.0000
# 5 0.0000 0.0000 0.0000 0.0000 0.7045 0.0000
# 6 0.0000 0.0000 0.0000 0.0000 0.0000 35.1220
#
#
#
# Elastic Compliance Matrix: (Units=1/GPa)
#
#
# Indices 1 2 3 4 5 6 
#
# 1 0.017015 -0.008400 -0.002584 0.000000 0.000000 0.000000
# 2 -0.008400 0.027097 -0.005837 0.000000 0.000000 0.000000
# 3 -0.002584 -0.005837 0.010927 0.000000 0.000000 0.000000
# 4 0.000000 0.000000 0.000000 0.033981 0.000000 0.000000
# 5 0.000000 0.000000 0.000000 0.000000 1.419389 0.000000
# 6 0.000000 0.000000 0.000000 0.000000 0.000000 0.028472
#
#
# Mechanical properties :
#
#
# Convention : Reuss Voigt Hill
#
# Bulk Modulus (GPa) = 46.73323 52.10833 49.42078
# Shear Modulus (GPa) = 3.16926 22.98723 13.07825
#
# Velocity S-wave (km/s) = 1.30444 3.51307 2.64983
# Velocity P-wave (km/s) = 5.23063 6.66575 5.99131
#
# Compressibility (1/GPa) = 0.02139805
#
# Stress axis : x y z
#
# Youngs Moduli (GPa) = 58.77183 36.90488 91.51665
#
# Poissons Ratio (x) = 0.31000 0.23644
# Poissons Ratio (y) = 0.49369 0.53415
# Poissons Ratio (z) = 0.15184 0.21540
#
# Static dielectric constant tensor:
#      x y z
#    x 3.843330 0.000000 0.000000 
#    y 0.000000 3.189240 0.000000 
#    z 0.000000 0.000000 3.545340 
# 
# 
# High freq. dielectric constant tensor:
#      x y z
#    x 1.736180 0.000000 0.000000 
#    y 0.000000 1.685390 0.000000 
#    z 0.000000 0.000000 1.709400 
# 
# From -- ./inp_files/31584.got.cif
#   From: 2010.06.25/outbox.cif.g09.slc.cpg/sg58_16_cif.got.tgz:31584.got - 2010.06.26 21:38:00.
