data_PCOD8236982
_publ_section_title
;
Structure prediction by ZEFSAII (Michael W. Deem and Ramdas Pophale) SiO2 
 PCOD8236982
Probable space group: P N N M
;
_chemical_formula_sum "Si O2"
_cell_formula_units_Z 64
_cell_length_a 20.498868
_cell_length_b 19.329195
_cell_length_c 8.943521
_cell_angle_alpha 90.000000
_cell_angle_beta 90.000000
_cell_angle_gamma 90.000000
_cell_volume 3543.661069
_symmetry_space_group_name_H-M "P N N M"
_symmetry_group_IT_number 58
_symmetry_cell_setting 'orthorhombic'
loop_
_space_group_symop_operation_xyz
x,y,z
-x,-y,z
1/2+x,1/2-y,1/2-z
1/2-x,1/2+y,1/2-z
-x,-y,-z
x,y,-z
1/2-x,1/2+y,1/2+z
1/2+x,1/2-y,1/2+z
loop_
_atom_site_type_symbol
_atom_site_label
_atom_site_fract_x
_atom_site_fract_y
_atom_site_fract_z
Si Si1 0.938427 0.289203 0.672132
Si Si2 0.188434 0.212691 0.327097
Si Si3 0.372344 0.070835 0.171548
Si Si4 0.929683 0.713760 0.824711
Si Si5 0.760899 0.935469 0.671539
Si Si6 0.272214 0.425344 0.671655
Si Si7 0.381410 0.917385 0.830577
Si Si8 0.308004 0.290312 0.823765
O O1 0.955622 0.274065 0.500000
O O2 0.926843 0.371122 0.697768
O O3 0.874568 0.247501 0.722208
O O4 0.997861 0.264532 0.774879
O O5 0.190565 0.234751 0.500000
O O6 0.120522 0.236108 0.257404
O O7 0.192104 0.130172 0.306948
O O8 0.248067 0.250011 0.247467
O O9 0.310902 0.086595 0.275535
O O10 0.403353 0.995793 0.207678
O O11 0.346879 0.071469 0.000000
O O12 0.917441 0.633941 0.781604
O O13 0.921851 0.723360 0.000000
O O14 0.756586 0.958596 0.500000
O O15 0.789988 0.998970 0.765898
O O16 0.293641 0.422139 0.500000
O O17 0.195829 0.410497 0.692084
O O18 0.312319 0.368358 0.763409
O O19 0.401196 0.897730 0.000000
O O20 0.297536 0.290729 0.000000
#
# Coordination Sequence:
#
# PCOD8236982 Si02
#       8
#     8   8   8   8   8   8   8   8
#     4  10  22  39  57  79 112 150 187 231 284 340
#     4  11  22  37  58  83 113 149 185 232 286 331
#     4   9  18  34  55  79 108 148 189 224 274 334
#     4  12  25  37  54  79 111 151 193 237 277 329
#     4  10  20  33  55  85 114 143 182 233 279 327
#     4  10  20  34  56  83 115 150 181 225 280 334
#     4   9  18  33  53  77 110 149 186 224 271 330
#     4  11  21  35  60  87 111 144 188 235 278 331
#
# _framework density 18.060417999999999
#
# number of rings (size 3 to 8) (size 9 to 14) (size 15 to 20)
#    0.000    1.750    2.500    3.375    0.000    5.500 
#    0.000    2.500    0.000    0.750    0.000    5.250 
#    0.000    0.000    0.000    0.000    0.000    0.000 
#
# Total GULP energy -793821.768828 kJ/mol
# GULP energy per Si atom -12403.465138 kJ/mol
# Density = 1.801931 g / cm^3
# Si number density = 18.060418 Si / 1000 Ang^3
#
#
#
# Elastic Constant Matrix: (Units=GPa)
#
#
# Indices 1 2 3 4 5 6 
#
# 1 86.9759 50.3910 47.9631 0.0000 0.0000 0.0000
# 2 50.3910 94.1005 51.5802 0.0000 0.0000 0.0000
# 3 47.9631 51.5802 105.9972 0.0000 0.0000 0.0000
# 4 0.0000 0.0000 0.0000 30.3787 0.0000 0.0000
# 5 0.0000 0.0000 0.0000 0.0000 28.5692 0.0000
# 6 0.0000 0.0000 0.0000 0.0000 0.0000 21.2880
#
#
#
# Elastic Compliance Matrix: (Units=1/GPa)
#
#
# Indices 1 2 3 4 5 6 
#
# 1 0.018292 -0.007171 -0.004787 0.000000 0.000000 0.000000
# 2 -0.007171 0.017304 -0.005175 0.000000 0.000000 0.000000
# 3 -0.004787 -0.005175 0.014119 0.000000 0.000000 0.000000
# 4 0.000000 0.000000 0.000000 0.032918 0.000000 0.000000
# 5 0.000000 0.000000 0.000000 0.000000 0.035003 0.000000
# 6 0.000000 0.000000 0.000000 0.000000 0.000000 0.046975
#
#
# Mechanical properties :
#
#
# Convention : Reuss Voigt Hill
#
# Bulk Modulus (GPa) = 64.73832 65.21578 64.97705
# Shear Modulus (GPa) = 24.50639 25.18981 24.84810
#
# Velocity S-wave (km/s) = 3.68762 3.73869 3.71325
# Velocity P-wave (km/s) = 7.35219 7.40441 7.37834
#
# Compressibility (1/GPa) = 0.01544680
#
# Stress axis : x y z
#
# Youngs Moduli (GPa) = 54.66759 57.78964 70.82657
#
# Poissons Ratio (x) = 0.41443 0.33908
# Poissons Ratio (y) = 0.39204 0.36656
# Poissons Ratio (z) = 0.26172 0.29909
#
# Static dielectric constant tensor:
#      x y z
#    x 3.100340 0.000000 0.000000 
#    y 0.000000 3.554700 0.000000 
#    z 0.000000 0.000000 3.410460 
# 
# 
# High freq. dielectric constant tensor:
#      x y z
#    x 1.671570 0.000000 0.000000 
#    y 0.000000 1.706030 0.000000 
#    z 0.000000 0.000000 1.706670 
# 
# From -- ./inp_files/9324.got.cif
#   From: 2010.06.25/outbox.cif.g09.slc.cpg/sg58_5_cif.got.tgz:9324.got - 2010.06.26 21:38:00.
