data_PCOD8236293
_publ_section_title
;
Structure prediction by ZEFSAII (Michael W. Deem and Ramdas Pophale) SiO2 
 PCOD8236293
Probable space group: P N N M
;
_chemical_formula_sum "Si O2"
_cell_formula_units_Z 64
_cell_length_a 19.464837
_cell_length_b 19.772079
_cell_length_c 8.969045
_cell_angle_alpha 90.000000
_cell_angle_beta 90.000000
_cell_angle_gamma 90.000000
_cell_volume 3451.829304
_symmetry_space_group_name_H-M "P N N M"
_symmetry_group_IT_number 58
_symmetry_cell_setting 'orthorhombic'
loop_
_space_group_symop_operation_xyz
x,y,z
-x,-y,z
1/2+x,1/2-y,1/2-z
1/2-x,1/2+y,1/2-z
-x,-y,-z
x,y,-z
1/2-x,1/2+y,1/2+z
1/2+x,1/2-y,1/2+z
loop_
_atom_site_type_symbol
_atom_site_label
_atom_site_fract_x
_atom_site_fract_y
_atom_site_fract_z
Si Si1 0.325237 0.088236 0.828054
Si Si2 0.064104 0.040745 0.323312
Si Si3 0.788167 0.639666 0.171818
Si Si4 0.032886 0.571046 0.174751
Si Si5 0.102048 0.184828 0.675848
Si Si6 0.261832 0.711029 0.669473
Si Si7 0.072606 0.333269 0.323363
Si Si8 0.285513 0.496838 0.825410
O O1 0.388637 0.069407 0.724619
O O2 0.307932 0.168142 0.808511
O O3 0.260084 0.045527 0.775438
O O4 0.342063 0.071299 0.000000
O O5 0.057577 0.039842 0.500000
O O6 0.061151 0.118736 0.265399
O O7 0.135470 0.005528 0.275961
O O8 0.000000 0.000000 0.251674
O O9 0.749569 0.710182 0.210432
O O10 0.857776 0.631247 0.266519
O O11 0.735345 0.580265 0.210553
O O12 0.810855 0.636483 0.000000
O O13 0.000000 0.500000 0.220434
O O14 0.994091 0.630939 0.258606
O O15 0.028178 0.584156 0.000000
O O16 0.103321 0.184472 0.500000
O O17 0.180429 0.178457 0.726925
O O18 0.069206 0.255196 0.733152
O O19 0.287997 0.704838 0.500000
O O20 0.070997 0.338611 0.500000
O O21 0.275110 0.514335 0.000000
#
# Coordination Sequence:
#
# PCOD8236293 Si02
#       8
#     8   8   8   8   8   8   8   8
#     4  11  22  35  55  81 109 141 176 222 273 321
#     4   9  17  31  52  80 107 136 177 224 266 308
#     4   9  18  33  53  79 107 141 180 218 260 312
#     4  11  24  40  56  76 105 143 183 223 267 321
#     4   9  17  32  55  80 105 137 178 218 258 312
#     4   9  18  33  52  76 105 137 173 214 262 315
#     4  10  20  34  54  82 110 142 177 219 269 317
#     4  10  19  33  55  80 106 139 180 222 265 315
#
# _framework density 18.540893000000001
#
# number of rings (size 3 to 8) (size 9 to 14) (size 15 to 20)
#    0.000    2.250    1.250    1.875    0.000    5.500 
#    2.250    0.000    0.000    1.500    0.000    0.000 
#    0.000    0.000    0.000    0.000    0.000    0.000 
#
# Total GULP energy -793526.576660 kJ/mol
# GULP energy per Si atom -12398.852760 kJ/mol
# Density = 1.849869 g / cm^3
# Si number density = 18.540893 Si / 1000 Ang^3
#
#
#
# Elastic Constant Matrix: (Units=GPa)
#
#
# Indices 1 2 3 4 5 6 
#
# 1 110.5860 62.9893 20.5223 0.0000 0.0000 0.0000
# 2 62.9893 120.2854 29.7139 0.0000 0.0000 0.0000
# 3 20.5223 29.7139 28.6496 0.0000 0.0000 0.0000
# 4 0.0000 0.0000 0.0000 22.6151 0.0000 0.0000
# 5 0.0000 0.0000 0.0000 0.0000 18.1927 0.0000
# 6 0.0000 0.0000 0.0000 0.0000 0.0000 31.1330
#
#
#
# Elastic Compliance Matrix: (Units=1/GPa)
#
#
# Indices 1 2 3 4 5 6 
#
# 1 0.013081 -0.006098 -0.003046 0.000000 0.000000 0.000000
# 2 -0.006098 0.014020 -0.010173 0.000000 0.000000 0.000000
# 3 -0.003046 -0.010173 0.047637 0.000000 0.000000 0.000000
# 4 0.000000 0.000000 0.000000 0.044218 0.000000 0.000000
# 5 0.000000 0.000000 0.000000 0.000000 0.054967 0.000000
# 6 0.000000 0.000000 0.000000 0.000000 0.000000 0.032120
#
#
# Mechanical properties :
#
#
# Convention : Reuss Voigt Hill
#
# Bulk Modulus (GPa) = 27.69692 53.99688 40.84690
# Shear Modulus (GPa) = 19.47713 24.14118 21.80915
#
# Velocity S-wave (km/s) = 3.24465 3.61231 3.43340
# Velocity P-wave (km/s) = 5.38588 6.82530 6.14786
#
# Compressibility (1/GPa) = 0.03610509
#
# Stress axis : x y z
#
# Youngs Moduli (GPa) = 76.44519 71.32854 20.99210
#
# Poissons Ratio (x) = 0.43494 0.06394
# Poissons Ratio (y) = 0.46614 0.21354
# Poissons Ratio (z) = 0.23286 0.72559
#
# Static dielectric constant tensor:
#      x y z
#    x 3.309270 0.000000 0.000000 
#    y 0.000000 3.925100 0.000000 
#    z 0.000000 0.000000 3.287050 
# 
# 
# High freq. dielectric constant tensor:
#      x y z
#    x 1.702790 0.000000 0.000000 
#    y 0.000000 1.736590 0.000000 
#    z 0.000000 0.000000 1.706230 
# 
# From -- ./inp_files/8420.got.cif
#   From: 2010.06.25/outbox.cif.g09.slc.cpg/sg58_5_cif.got.tgz:8420.got - 2010.06.26 21:38:00.
