data_PCOD8236763
_publ_section_title
;
Structure prediction by ZEFSAII (Michael W. Deem and Ramdas Pophale) SiO2 
 PCOD8236763
Probable space group: P N N M
;
_chemical_formula_sum "Si O2"
_cell_formula_units_Z 40
_cell_length_a 12.018477
_cell_length_b 14.144646
_cell_length_c 11.660741
_cell_angle_alpha 90.000000
_cell_angle_beta 90.000000
_cell_angle_gamma 90.000000
_cell_volume 1982.292184
_symmetry_space_group_name_H-M "P N N M"
_symmetry_group_IT_number 58
_symmetry_cell_setting 'orthorhombic'
loop_
_space_group_symop_operation_xyz
x,y,z
-x,-y,z
1/2+x,1/2-y,1/2-z
1/2-x,1/2+y,1/2-z
-x,-y,-z
x,y,-z
1/2-x,1/2+y,1/2+z
1/2+x,1/2-y,1/2+z
loop_
_atom_site_type_symbol
_atom_site_label
_atom_site_fract_x
_atom_site_fract_y
_atom_site_fract_z
Si Si1 0.397077 0.070275 0.373786
Si Si2 0.541743 0.604457 0.864327
Si Si3 0.954887 0.369057 0.500000
Si Si4 0.269116 0.917968 0.245118
Si Si5 0.980187 0.712538 0.268224
Si Si6 0.806732 0.532907 0.500000
O O1 0.343975 0.084341 0.500000
O O2 0.436070 0.173444 0.329619
O O3 0.500000 0.000000 0.380123
O O4 0.309377 0.020390 0.290193
O O5 0.500000 0.500000 0.836843
O O6 0.668886 0.616225 0.823977
O O7 0.469342 0.673619 0.779986
O O8 0.530157 0.627346 0.000000
O O9 0.834922 0.421764 0.500000
O O10 0.956927 0.307582 0.386654
O O11 0.067119 0.430059 0.500000
O O12 0.361306 0.835582 0.251007
O O13 0.237583 0.933401 0.111414
#
# Coordination Sequence:
#
# PCOD8236763 Si02
#       6
#     8   8   4   8   8   4
#     4   9  17  31  57  90 119 146 188 248 303 351
#     4  11  25  43  60  83 122 165 204 245 296 361
#     4   9  14  30  59  90 112 141 200 258 290 339
#     4  10  20  36  61  89 119 156 198 248 303 358
#     4  10  19  36  61  87 115 153 206 251 292 353
#     4   9  16  30  59  90 116 147 189 251 308 346
#
# _framework density 20.178661000000002
#
# number of rings (size 3 to 8) (size 9 to 14) (size 15 to 20)
#    0.000    2.200    3.000    0.600    0.000    2.400 
#    1.800    0.500    0.000    0.000    0.000    0.000 
#    0.000    0.000    0.000    0.000    0.000    0.000 
#
# Total GULP energy -495560.150793 kJ/mol
# GULP energy per Si atom -12389.003770 kJ/mol
# Density = 2.013273 g / cm^3
# Si number density = 20.178661 Si / 1000 Ang^3
#
#
#
# Elastic Constant Matrix: (Units=GPa)
#
#
# Indices 1 2 3 4 5 6 
#
# 1 57.0232 32.3105 22.1187 0.0000 0.0000 0.0000
# 2 32.3105 126.7683 42.9906 0.0000 0.0000 0.0000
# 3 22.1187 42.9906 118.6892 0.0000 0.0000 0.0000
# 4 0.0000 0.0000 0.0000 31.7371 0.0000 0.0000
# 5 0.0000 0.0000 0.0000 0.0000 27.4320 0.0000
# 6 0.0000 0.0000 0.0000 0.0000 0.0000 18.4530
#
#
#
# Elastic Compliance Matrix: (Units=1/GPa)
#
#
# Indices 1 2 3 4 5 6 
#
# 1 0.021012 -0.004592 -0.002253 0.000000 0.000000 0.000000
# 2 -0.004592 0.009996 -0.002765 0.000000 0.000000 0.000000
# 3 -0.002253 -0.002765 0.009847 0.000000 0.000000 0.000000
# 4 0.000000 0.000000 0.000000 0.031509 0.000000 0.000000
# 5 0.000000 0.000000 0.000000 0.000000 0.036454 0.000000
# 6 0.000000 0.000000 0.000000 0.000000 0.000000 0.054192
#
#
# Mechanical properties :
#
#
# Convention : Reuss Voigt Hill
#
# Bulk Modulus (GPa) = 46.21808 55.25780 50.73794
# Shear Modulus (GPa) = 26.39346 29.19515 27.79431
#
# Velocity S-wave (km/s) = 3.62054 3.80785 3.71538
# Velocity P-wave (km/s) = 6.35861 6.83935 6.60335
#
# Compressibility (1/GPa) = 0.02163656
#
# Stress axis : x y z
#
# Youngs Moduli (GPa) = 47.59136 100.03551 101.55657
#
# Poissons Ratio (x) = 0.45933 0.22877
# Poissons Ratio (y) = 0.21852 0.28082
# Poissons Ratio (z) = 0.10721 0.27661
#
# Static dielectric constant tensor:
#      x y z
#    x 3.264640 0.000000 0.000000 
#    y 0.000000 3.766790 0.000000 
#    z 0.000000 0.000000 4.020400 
# 
# 
# High freq. dielectric constant tensor:
#      x y z
#    x 1.744870 0.000000 0.000000 
#    y 0.000000 1.783390 0.000000 
#    z 0.000000 0.000000 1.795040 
# 
# From -- ./inp_files/14146.got.cif
#   From: 2010.06.25/outbox.cif.g09.slc.cpg/sg58_8_cif.got.tgz:14146.got - 2010.06.26 21:38:00.
