data_PCOD8236348
_publ_section_title
;
Structure prediction by ZEFSAII (Michael W. Deem and Ramdas Pophale) SiO2 
 PCOD8236348
Probable space group: P N N M
;
_chemical_formula_sum "Si O2"
_cell_formula_units_Z 64
_cell_length_a 24.659091
_cell_length_b 15.025514
_cell_length_c 9.046518
_cell_angle_alpha 90.000000
_cell_angle_beta 90.000000
_cell_angle_gamma 90.000000
_cell_volume 3351.875294
_symmetry_space_group_name_H-M "P N N M"
_symmetry_group_IT_number 58
_symmetry_cell_setting 'orthorhombic'
loop_
_space_group_symop_operation_xyz
x,y,z
-x,-y,z
1/2+x,1/2-y,1/2-z
1/2-x,1/2+y,1/2-z
-x,-y,-z
x,y,-z
1/2-x,1/2+y,1/2+z
1/2+x,1/2-y,1/2+z
loop_
_atom_site_type_symbol
_atom_site_label
_atom_site_fract_x
_atom_site_fract_y
_atom_site_fract_z
Si Si1 0.896203 0.998055 0.672439
Si Si2 0.437833 0.327187 0.325196
Si Si3 0.951461 0.813349 0.671593
Si Si4 0.167783 0.511338 0.327798
Si Si5 0.246218 0.770052 0.669609
Si Si6 0.774620 0.026023 0.331744
Si Si7 0.147023 0.311223 0.671155
Si Si8 0.350692 0.182331 0.325223
O O1 0.902818 0.020309 0.500000
O O2 0.924222 0.076339 0.762374
O O3 0.832996 0.987106 0.713291
O O4 0.925384 0.907163 0.717299
O O5 0.438800 0.333628 0.500000
O O6 0.495813 0.294530 0.268111
O O7 0.393882 0.255210 0.270436
O O8 0.967563 0.813899 0.500000
O O9 0.909973 0.734091 0.708036
O O10 0.164984 0.532327 0.500000
O O11 0.230429 0.515472 0.277156
O O12 0.142200 0.415492 0.288781
O O13 0.133128 0.585902 0.240941
O O14 0.246334 0.739089 0.500000
O O15 0.222197 0.868330 0.688005
O O16 0.307010 0.764137 0.731614
O O17 0.208705 0.704801 0.763648
O O18 0.759025 0.000837 0.500000
O O19 0.163091 0.298396 0.500000
O O20 0.348582 0.176735 0.500000
#
# Coordination Sequence:
#
# PCOD8236348 Si02
#       8
#     8   8   8   8   8   8   8   8
#     4  10  20  36  58  85 117 155 192 227 277 349
#     4  11  24  40  58  83 115 151 194 246 293 333
#     4  10  22  39  61  84 111 154 196 232 284 348
#     4  10  21  36  57  85 117 150 191 240 289 342
#     4  10  19  33  56  85 115 150 188 232 283 336
#     4   9  18  33  54  83 119 153 185 223 277 344
#     4   9  20  39  59  84 118 153 189 234 289 346
#     4  11  23  38  57  81 113 154 196 238 293 346
#
# _framework density 19.093789000000001
#
# number of rings (size 3 to 8) (size 9 to 14) (size 15 to 20)
#    0.000    2.000    1.250    1.875    1.750    5.500 
#    0.000    0.625    0.000    3.750    0.000    0.000 
#    0.000    0.000    0.000    0.000    0.000    0.000 
#
# Total GULP energy -793877.365076 kJ/mol
# GULP energy per Si atom -12404.333829 kJ/mol
# Density = 1.905033 g / cm^3
# Si number density = 19.093789 Si / 1000 Ang^3
#
#
#
# Elastic Constant Matrix: (Units=GPa)
#
#
# Indices 1 2 3 4 5 6 
#
# 1 78.9131 49.7012 35.7519 0.0000 0.0000 0.0000
# 2 49.7012 106.8495 42.3293 0.0000 0.0000 0.0000
# 3 35.7519 42.3293 68.8530 0.0000 0.0000 0.0000
# 4 0.0000 0.0000 0.0000 29.1105 0.0000 0.0000
# 5 0.0000 0.0000 0.0000 0.0000 32.2291 0.0000
# 6 0.0000 0.0000 0.0000 0.0000 0.0000 20.9916
#
#
#
# Elastic Compliance Matrix: (Units=1/GPa)
#
#
# Indices 1 2 3 4 5 6 
#
# 1 0.019669 -0.006746 -0.006066 0.000000 0.000000 0.000000
# 2 -0.006746 0.014686 -0.005526 0.000000 0.000000 0.000000
# 3 -0.006066 -0.005526 0.021070 0.000000 0.000000 0.000000
# 4 0.000000 0.000000 0.000000 0.034352 0.000000 0.000000
# 5 0.000000 0.000000 0.000000 0.000000 0.031028 0.000000
# 6 0.000000 0.000000 0.000000 0.000000 0.000000 0.047638
#
#
# Mechanical properties :
#
#
# Convention : Reuss Voigt Hill
#
# Bulk Modulus (GPa) = 53.33251 56.68671 55.00961
# Shear Modulus (GPa) = 23.65531 24.92176 24.28853
#
# Velocity S-wave (km/s) = 3.52362 3.61671 3.57047
# Velocity P-wave (km/s) = 6.67436 6.86978 6.77277
#
# Compressibility (1/GPa) = 0.01875029
#
# Stress axis : x y z
#
# Youngs Moduli (GPa) = 50.84098 68.09222 47.45976
#
# Poissons Ratio (x) = 0.45936 0.28788
# Poissons Ratio (y) = 0.34298 0.26225
# Poissons Ratio (z) = 0.30839 0.37626
#
# Static dielectric constant tensor:
#      x y z
#    x 3.425860 0.000000 0.000000 
#    y 0.000000 3.618570 0.000000 
#    z 0.000000 0.000000 3.464280 
# 
# 
# High freq. dielectric constant tensor:
#      x y z
#    x 1.731880 0.000000 0.000000 
#    y 0.000000 1.749330 0.000000 
#    z 0.000000 0.000000 1.742670 
# 
# From -- ./inp_files/6912.got.cif
#   From: 2010.06.25/outbox.cif.g09.slc.cpg/sg58_4_cif.got.tgz:6912.got - 2010.06.26 21:38:00.
