data_PCOD8236437
_publ_section_title
;
Structure prediction by ZEFSAII (Michael W. Deem and Ramdas Pophale) SiO2 
 PCOD8236437
Probable space group: P N N M
;
_chemical_formula_sum "Si O2"
_cell_formula_units_Z 64
_cell_length_a 17.472894
_cell_length_b 22.526216
_cell_length_c 8.825263
_cell_angle_alpha 90.000000
_cell_angle_beta 90.000000
_cell_angle_gamma 90.000000
_cell_volume 3473.607494
_symmetry_space_group_name_H-M "P N N M"
_symmetry_group_IT_number 58
_symmetry_cell_setting 'orthorhombic'
loop_
_space_group_symop_operation_xyz
x,y,z
-x,-y,z
1/2+x,1/2-y,1/2-z
1/2-x,1/2+y,1/2-z
-x,-y,-z
x,y,-z
1/2-x,1/2+y,1/2+z
1/2+x,1/2-y,1/2+z
loop_
_atom_site_type_symbol
_atom_site_label
_atom_site_fract_x
_atom_site_fract_y
_atom_site_fract_z
Si Si1 0.075626 0.034299 0.320683
Si Si2 0.718952 0.880461 0.322702
Si Si3 0.427363 0.162280 0.827466
Si Si4 0.624779 0.347966 0.678829
Si Si5 0.760492 0.010604 0.678380
Si Si6 0.581683 0.225216 0.821140
Si Si7 0.494463 0.933911 0.334095
Si Si8 0.167391 0.379727 0.167910
O O1 0.076726 0.043334 0.500000
O O2 0.073588 0.098887 0.245373
O O3 0.151526 0.998256 0.268067
O O4 0.000000 0.000000 0.266057
O O5 0.736156 0.874484 0.500000
O O6 0.647150 0.838625 0.279231
O O7 0.788495 0.852498 0.231931
O O8 0.711867 0.950812 0.277314
O O9 0.494110 0.207815 0.777088
O O10 0.465446 0.098507 0.805006
O O11 0.401955 0.172259 0.000000
O O12 0.620237 0.350090 0.500000
O O13 0.591517 0.286453 0.736658
O O14 0.755936 0.018767 0.500000
O O15 0.727793 0.073333 0.745900
O O16 0.646845 0.177907 0.768794
O O17 0.590644 0.232393 0.000000
O O18 0.534925 0.922725 0.500000
O O19 0.406967 0.918710 0.352414
O O20 0.500000 0.000000 0.281694
O O21 0.195250 0.358250 0.000000
#
# Coordination Sequence:
#
# PCOD8236437 Si02
#       8
#     8   8   8   8   8   8   8   8
#     4   9  18  35  59  84 109 139 175 217 271 330
#     4  10  19  34  56  79 105 137 173 214 266 326
#     4  10  20  32  48  73 103 134 173 220 262 305
#     4  11  22  37  58  81 105 137 180 227 272 317
#     4   8  15  29  51  78 105 136 173 213 260 316
#     4  10  21  37  53  72 104 145 184 220 265 321
#     4   9  16  26  42  65  95 134 174 208 249 302
#     4   9  16  28  47  71 100 134 173 213 252 302
#
# _framework density 18.424648000000001
#
# number of rings (size 3 to 8) (size 9 to 14) (size 15 to 20)
#    0.000    2.500    0.000    3.750    0.000    4.000 
#    0.000    6.875    0.000    6.000    0.000    0.000 
#    0.000    0.000    0.000    0.000    0.000    0.000 
#
# Total GULP energy -792898.392246 kJ/mol
# GULP energy per Si atom -12389.037379 kJ/mol
# Density = 1.838271 g / cm^3
# Si number density = 18.424648 Si / 1000 Ang^3
#
#
#
# Elastic Constant Matrix: (Units=GPa)
#
#
# Indices 1 2 3 4 5 6 
#
# 1 78.9161 57.4539 25.7407 0.0000 0.0000 0.0000
# 2 57.4539 114.5243 41.1060 0.0000 0.0000 0.0000
# 3 25.7407 41.1060 55.3174 0.0000 0.0000 0.0000
# 4 0.0000 0.0000 0.0000 31.6649 0.0000 0.0000
# 5 0.0000 0.0000 0.0000 0.0000 24.9946 0.0000
# 6 0.0000 0.0000 0.0000 0.0000 0.0000 21.8489
#
#
#
# Elastic Compliance Matrix: (Units=1/GPa)
#
#
# Indices 1 2 3 4 5 6 
#
# 1 0.020224 -0.009230 -0.002552 0.000000 0.000000 0.000000
# 2 -0.009230 0.016120 -0.007684 0.000000 0.000000 0.000000
# 3 -0.002552 -0.007684 0.024975 0.000000 0.000000 0.000000
# 4 0.000000 0.000000 0.000000 0.031581 0.000000 0.000000
# 5 0.000000 0.000000 0.000000 0.000000 0.040009 0.000000
# 6 0.000000 0.000000 0.000000 0.000000 0.000000 0.045769
#
#
# Mechanical properties :
#
#
# Convention : Reuss Voigt Hill
#
# Bulk Modulus (GPa) = 44.66821 55.26211 49.96516
# Shear Modulus (GPa) = 22.21524 23.99882 23.10703
#
# Velocity S-wave (km/s) = 3.47614 3.61299 3.54522
# Velocity P-wave (km/s) = 6.35671 6.88938 6.62840
#
# Compressibility (1/GPa) = 0.02238729
#
# Stress axis : x y z
#
# Youngs Moduli (GPa) = 49.44696 62.03469 40.04017
#
# Poissons Ratio (x) = 0.57256 0.10219
# Poissons Ratio (y) = 0.45638 0.30766
# Poissons Ratio (z) = 0.12620 0.47667
#
# Static dielectric constant tensor:
#      x y z
#    x 3.491200 0.000000 0.000000 
#    y 0.000000 3.371500 0.000000 
#    z 0.000000 0.000000 3.286780 
# 
# 
# High freq. dielectric constant tensor:
#      x y z
#    x 1.709020 0.000000 0.000000 
#    y 0.000000 1.705390 0.000000 
#    z 0.000000 0.000000 1.700860 
# 
# From -- ./inp_files/8281.got.cif
#   From: 2010.06.25/outbox.cif.g09.slc.cpg/sg58_5_cif.got.tgz:8281.got - 2010.06.26 21:38:00.
