data_PCOD8236408
_publ_section_title
;
Structure prediction by ZEFSAII (Michael W. Deem and Ramdas Pophale) SiO2 
 PCOD8236408
Probable space group: P N N M
;
_chemical_formula_sum "Si O2"
_cell_formula_units_Z 64
_cell_length_a 9.526420
_cell_length_b 19.370435
_cell_length_c 17.723508
_cell_angle_alpha 90.000000
_cell_angle_beta 90.000000
_cell_angle_gamma 90.000000
_cell_volume 3270.534872
_symmetry_space_group_name_H-M "P N N M"
_symmetry_group_IT_number 58
_symmetry_cell_setting 'orthorhombic'
loop_
_space_group_symop_operation_xyz
x,y,z
-x,-y,z
1/2+x,1/2-y,1/2-z
1/2-x,1/2+y,1/2-z
-x,-y,-z
x,y,-z
1/2-x,1/2+y,1/2+z
1/2+x,1/2-y,1/2+z
loop_
_atom_site_type_symbol
_atom_site_label
_atom_site_fract_x
_atom_site_fract_y
_atom_site_fract_z
Si Si1 0.979088 0.201750 0.412124
Si Si2 0.283132 0.423338 0.304518
Si Si3 0.738614 0.201880 0.912257
Si Si4 0.471796 0.577348 0.803439
Si Si5 0.954277 0.280365 0.177703
Si Si6 0.272512 0.072476 0.801748
Si Si7 0.974206 0.572315 0.796759
Si Si8 0.259254 0.220858 0.824642
O O1 0.982114 0.185445 0.500000
O O2 0.101586 0.254865 0.388779
O O3 0.999146 0.129373 0.370813
O O4 0.828365 0.234354 0.391067
O O5 0.235762 0.369985 0.367720
O O6 0.436507 0.405672 0.271863
O O7 0.279802 0.501052 0.340510
O O8 0.185796 0.419835 0.229959
O O9 0.879061 0.244795 0.893177
O O10 0.739553 0.183907 0.000000
O O11 0.500000 0.500000 0.833308
O O12 0.311246 0.584635 0.777082
O O13 0.979182 0.360710 0.155834
O O14 0.103773 0.245969 0.195422
O O15 0.856013 0.271167 0.250617
O O16 0.435482 0.066075 0.780370
O O17 0.251764 0.140842 0.852892
O O18 0.000000 0.500000 0.842796
#
# Coordination Sequence:
#
# PCOD8236408 Si02
#       8
#     8   8   8   8   8   8   8   8
#     4  11  23  37  53  78 113 149 184 221 264 319
#     4  10  19  34  54  78 103 133 175 221 269 317
#     4  11  23  37  53  75 107 145 182 219 263 318
#     4  10  20  35  57  82 105 135 177 225 275 322
#     4  11  20  33  57  80 105 138 179 225 270 317
#     4   9  18  31  53  79 104 130 170 222 267 313
#     4   9  17  29  50  78 103 127 163 216 266 309
#     4  11  20  34  57  83 108 138 178 224 268 316
#
# _framework density 19.568663999999998
#
# number of rings (size 3 to 8) (size 9 to 14) (size 15 to 20)
#    0.000    1.750    0.000    7.500    0.000    0.750 
#    0.000    0.625    0.000   12.375    0.000    0.000 
#    0.000    0.000    0.000    0.000    0.000    0.000 
#
# Total GULP energy -793438.671629 kJ/mol
# GULP energy per Si atom -12397.479244 kJ/mol
# Density = 1.952412 g / cm^3
# Si number density = 19.568664 Si / 1000 Ang^3
#
#
#
# Elastic Constant Matrix: (Units=GPa)
#
#
# Indices 1 2 3 4 5 6 
#
# 1 98.1070 30.4440 19.6190 0.0000 0.0000 0.0000
# 2 30.4440 153.7942 47.6673 0.0000 0.0000 0.0000
# 3 19.6190 47.6673 59.6792 0.0000 0.0000 0.0000
# 4 0.0000 0.0000 0.0000 16.6119 0.0000 0.0000
# 5 0.0000 0.0000 0.0000 0.0000 13.9225 0.0000
# 6 0.0000 0.0000 0.0000 0.0000 0.0000 30.3363
#
#
#
# Elastic Compliance Matrix: (Units=1/GPa)
#
#
# Indices 1 2 3 4 5 6 
#
# 1 0.011139 -0.001422 -0.002526 0.000000 0.000000 0.000000
# 2 -0.001422 0.008823 -0.006580 0.000000 0.000000 0.000000
# 3 -0.002526 -0.006580 0.022842 0.000000 0.000000 0.000000
# 4 0.000000 0.000000 0.000000 0.060198 0.000000 0.000000
# 5 0.000000 0.000000 0.000000 0.000000 0.071826 0.000000
# 6 0.000000 0.000000 0.000000 0.000000 0.000000 0.032964
#
#
# Mechanical properties :
#
#
# Convention : Reuss Voigt Hill
#
# Bulk Modulus (GPa) = 45.97972 56.33788 51.15880
# Shear Modulus (GPa) = 21.17768 26.43082 23.80425
#
# Velocity S-wave (km/s) = 3.29329 3.67913 3.49154
# Velocity P-wave (km/s) = 6.16511 6.84839 6.51571
#
# Compressibility (1/GPa) = 0.02174872
#
# Stress axis : x y z
#
# Youngs Moduli (GPa) = 89.77131 113.33966 43.77889
#
# Poissons Ratio (x) = 0.16119 0.11059
# Poissons Ratio (y) = 0.12767 0.28805
# Poissons Ratio (z) = 0.22677 0.74574
#
# Static dielectric constant tensor:
#      x y z
#    x 3.813890 0.000000 0.000000 
#    y 0.000000 4.066950 0.000000 
#    z 0.000000 0.000000 2.938840 
# 
# 
# High freq. dielectric constant tensor:
#      x y z
#    x 1.785110 0.000000 0.000000 
#    y 0.000000 1.793720 0.000000 
#    z 0.000000 0.000000 1.687080 
# 
# From -- ./inp_files/25681.got.cif
#   From: 2010.06.25/outbox.cif.g09.slc.cpg/sg58_13_cif.got.tgz:25681.got - 2010.06.26 21:38:00.
