data_PCOD8237523
_publ_section_title
;
Structure prediction by ZEFSAII (Michael W. Deem and Ramdas Pophale) SiO2 
 PCOD8237523
Probable space group: P N N M
;
_chemical_formula_sum "Si O2"
_cell_formula_units_Z 40
_cell_length_a 18.527510
_cell_length_b 12.165235
_cell_length_c 9.199495
_cell_angle_alpha 90.000000
_cell_angle_beta 90.000000
_cell_angle_gamma 90.000000
_cell_volume 2073.488098
_symmetry_space_group_name_H-M "P N N M"
_symmetry_group_IT_number 58
_symmetry_cell_setting 'orthorhombic'
loop_
_space_group_symop_operation_xyz
x,y,z
-x,-y,z
1/2+x,1/2-y,1/2-z
1/2-x,1/2+y,1/2-z
-x,-y,-z
x,y,-z
1/2-x,1/2+y,1/2+z
1/2+x,1/2-y,1/2+z
loop_
_atom_site_type_symbol
_atom_site_label
_atom_site_fract_x
_atom_site_fract_y
_atom_site_fract_z
Si Si1 0.823426 0.091896 0.331749
Si Si2 0.164119 0.473831 0.167696
Si Si3 0.461919 0.806914 0.330586
Si Si4 0.928055 0.940172 0.170092
Si Si5 0.110758 0.677716 0.672539
O O1 0.841611 0.076503 0.500000
O O2 0.738128 0.090887 0.302063
O O3 0.855416 0.207045 0.274795
O O4 0.858797 0.990513 0.247859
O O5 0.099367 0.393343 0.211055
O O6 0.161824 0.581860 0.266743
O O7 0.158233 0.509711 0.000000
O O8 0.483059 0.812523 0.500000
O O9 0.432344 0.687320 0.288789
O O10 0.531325 0.837062 0.236951
O O11 0.918252 0.959466 0.000000
O O12 0.000000 0.000000 0.227640
O O13 0.107651 0.669351 0.500000
#
# Coordination Sequence:
#
# PCOD8237523 Si02
#       5
#     8   8   8   8   8
#     4  10  23  40  58  85 120 155 191 242 300 346
#     4  10  23  41  60  83 117 159 197 235 292 356
#     4  10  21  39  63  87 116 155 198 240 288 350
#     4  10  20  36  61  89 115 151 199 242 284 344
#     4  11  23  39  61  88 120 152 193 246 294 341
#
# _framework density 19.291163999999998
#
# number of rings (size 3 to 8) (size 9 to 14) (size 15 to 20)
#    0.000    1.800    2.000    1.200    2.800    6.000 
#    0.000    0.000    0.000    0.000    0.000    0.000 
#    0.000    0.000    0.000    0.000    0.000    0.000 
#
# Total GULP energy -496241.174426 kJ/mol
# GULP energy per Si atom -12406.029361 kJ/mol
# Density = 1.924726 g / cm^3
# Si number density = 19.291164 Si / 1000 Ang^3
#
#
#
# Elastic Constant Matrix: (Units=GPa)
#
#
# Indices 1 2 3 4 5 6 
#
# 1 106.1157 30.2676 32.2354 0.0000 0.0000 0.0000
# 2 30.2676 97.1175 29.2700 0.0000 0.0000 0.0000
# 3 32.2354 29.2700 45.1669 0.0000 0.0000 0.0000
# 4 0.0000 0.0000 0.0000 23.6147 0.0000 0.0000
# 5 0.0000 0.0000 0.0000 0.0000 30.4333 0.0000
# 6 0.0000 0.0000 0.0000 0.0000 0.0000 34.3400
#
#
#
# Elastic Compliance Matrix: (Units=1/GPa)
#
#
# Indices 1 2 3 4 5 6 
#
# 1 0.012197 -0.001464 -0.007757 0.000000 0.000000 0.000000
# 2 -0.001464 0.012972 -0.007362 0.000000 0.000000 0.000000
# 3 -0.007757 -0.007362 0.032447 0.000000 0.000000 0.000000
# 4 0.000000 0.000000 0.000000 0.042346 0.000000 0.000000
# 5 0.000000 0.000000 0.000000 0.000000 0.032859 0.000000
# 6 0.000000 0.000000 0.000000 0.000000 0.000000 0.029121
#
#
# Mechanical properties :
#
#
# Convention : Reuss Voigt Hill
#
# Bulk Modulus (GPa) = 40.89675 47.99401 44.44538
# Shear Modulus (GPa) = 24.59950 28.11940 26.35945
#
# Velocity S-wave (km/s) = 3.57483 3.82204 3.70050
# Velocity P-wave (km/s) = 6.18748 6.66409 6.43020
#
# Compressibility (1/GPa) = 0.02445182
#
# Stress axis : x y z
#
# Youngs Moduli (GPa) = 81.98412 77.09119 30.81981
#
# Poissons Ratio (x) = 0.11284 0.23906
# Poissons Ratio (y) = 0.12000 0.22688
# Poissons Ratio (z) = 0.63593 0.56751
#
# Static dielectric constant tensor:
#      x y z
#    x 3.514120 0.000000 0.000000 
#    y 0.000000 3.668360 0.000000 
#    z 0.000000 0.000000 3.408740 
# 
# 
# High freq. dielectric constant tensor:
#      x y z
#    x 1.757560 0.000000 0.000000 
#    y 0.000000 1.763420 0.000000 
#    z 0.000000 0.000000 1.741510 
# 
# From -- ./inp_files/3770.got.cif
#   From: 2010.06.25/outbox.cif.g09.slc.cpg/sg58_2_cif.got.tgz:3770.got - 2010.06.26 21:38:00.
