data_PCOD8237230
_publ_section_title
;
Structure prediction by ZEFSAII (Michael W. Deem and Ramdas Pophale) SiO2 
 PCOD8237230
Probable space group: P N N M
;
_chemical_formula_sum "Si O2"
_cell_formula_units_Z 48
_cell_length_a 29.761593
_cell_length_b 8.490782
_cell_length_c 9.880908
_cell_angle_alpha 90.000000
_cell_angle_beta 90.000000
_cell_angle_gamma 90.000000
_cell_volume 2496.897528
_symmetry_space_group_name_H-M "P N N M"
_symmetry_group_IT_number 58
_symmetry_cell_setting 'orthorhombic'
loop_
_space_group_symop_operation_xyz
x,y,z
-x,-y,z
1/2+x,1/2-y,1/2-z
1/2-x,1/2+y,1/2-z
-x,-y,-z
x,y,-z
1/2-x,1/2+y,1/2+z
1/2+x,1/2-y,1/2+z
loop_
_atom_site_type_symbol
_atom_site_label
_atom_site_fract_x
_atom_site_fract_y
_atom_site_fract_z
Si Si1 0.774578 0.115263 0.847986
Si Si2 0.655055 0.456787 0.156938
Si Si3 0.192094 0.562017 0.251027
Si Si4 0.950433 0.460865 0.154508
Si Si5 0.106689 0.731448 0.648316
Si Si6 0.370728 0.814094 0.352354
O O1 0.778006 0.302404 0.820448
O O2 0.801735 0.017278 0.737272
O O3 0.723357 0.055317 0.838201
O O4 0.792385 0.081686 0.000000
O O5 0.615093 0.583164 0.168606
O O6 0.637795 0.298651 0.226491
O O7 0.667975 0.424867 0.000000
O O8 0.154595 0.642702 0.345071
O O9 0.165706 0.455446 0.142253
O O10 0.929498 0.319603 0.241264
O O11 0.920432 0.616753 0.169329
O O12 0.000000 0.500000 0.209049
O O13 0.952260 0.401317 0.000000
O O14 0.086477 0.697907 0.500000
O O15 0.367928 0.729669 0.500000
#
# Coordination Sequence:
#
# PCOD8237230 Si02
#       6
#     8   8   8   8   8   8
#     4  11  22  36  55  77 105 143 184 222 264 313
#     4  10  22  37  54  78 109 142 178 224 267 309
#     4  10  21  34  53  80 109 139 180 227 268 308
#     4   9  19  36  58  84 110 136 171 216 263 315
#     4   9  19  36  55  77 106 140 178 218 265 317
#     4  10  20  35  56  79 106 141 179 217 264 321
#
# _framework density 19.223856000000001
#
# number of rings (size 3 to 8) (size 9 to 14) (size 15 to 20)
#    0.000    2.167    0.000    2.500    0.000   11.667 
#    0.000    0.833    0.000    5.000    0.000    0.000 
#    0.000    0.000    0.000    0.000    0.000    0.000 
#
# Total GULP energy -595070.598724 kJ/mol
# GULP energy per Si atom -12397.304140 kJ/mol
# Density = 1.918010 g / cm^3
# Si number density = 19.223856 Si / 1000 Ang^3
#
#
#
# Elastic Constant Matrix: (Units=GPa)
#
#
# Indices 1 2 3 4 5 6 
#
# 1 98.5521 49.6398 44.0900 0.0000 0.0000 0.0000
# 2 49.6398 96.8470 52.6244 0.0000 0.0000 0.0000
# 3 44.0900 52.6244 136.4372 0.0000 0.0000 0.0000
# 4 0.0000 0.0000 0.0000 26.6304 0.0000 0.0000
# 5 0.0000 0.0000 0.0000 0.0000 19.4856 0.0000
# 6 0.0000 0.0000 0.0000 0.0000 0.0000 20.2075
#
#
#
# Elastic Compliance Matrix: (Units=1/GPa)
#
#
# Indices 1 2 3 4 5 6 
#
# 1 0.014206 -0.006056 -0.002255 0.000000 0.000000 0.000000
# 2 -0.006056 0.015645 -0.004077 0.000000 0.000000 0.000000
# 3 -0.002255 -0.004077 0.009631 0.000000 0.000000 0.000000
# 4 0.000000 0.000000 0.000000 0.037551 0.000000 0.000000
# 5 0.000000 0.000000 0.000000 0.000000 0.051320 0.000000
# 6 0.000000 0.000000 0.000000 0.000000 0.000000 0.049487
#
#
# Mechanical properties :
#
#
# Convention : Reuss Voigt Hill
#
# Bulk Modulus (GPa) = 68.00300 69.39386 68.69843
# Shear Modulus (GPa) = 24.09425 25.63018 24.86222
#
# Velocity S-wave (km/s) = 3.54411 3.65533 3.60015
# Velocity P-wave (km/s) = 7.22487 7.34788 7.28663
#
# Compressibility (1/GPa) = 0.01470523
#
# Stress axis : x y z
#
# Youngs Moduli (GPa) = 70.39194 63.91688 103.83480
#
# Poissons Ratio (x) = 0.38710 0.23413
# Poissons Ratio (y) = 0.42631 0.42337
# Poissons Ratio (z) = 0.15872 0.26061
#
# Static dielectric constant tensor:
#      x y z
#    x 3.376400 0.000000 0.000000 
#    y 0.000000 3.517500 0.000000 
#    z 0.000000 0.000000 3.497780 
# 
# 
# High freq. dielectric constant tensor:
#      x y z
#    x 1.729860 0.000000 0.000000 
#    y 0.000000 1.744360 0.000000 
#    z 0.000000 0.000000 1.754480 
# 
# From -- ./inp_files/2970.got.cif
#   From: 2010.06.25/outbox.cif.g09.slc.cpg/sg58_2_cif.got.tgz:2970.got - 2010.06.26 21:38:00.
