data_PCOD8237022
_publ_section_title
;
Structure prediction by ZEFSAII (Michael W. Deem and Ramdas Pophale) SiO2 
 PCOD8237022
Probable space group: P N N M
;
_chemical_formula_sum "Si O2"
_cell_formula_units_Z 56
_cell_length_a 14.589726
_cell_length_b 20.633994
_cell_length_c 9.285255
_cell_angle_alpha 90.000000
_cell_angle_beta 90.000000
_cell_angle_gamma 90.000000
_cell_volume 2795.273266
_symmetry_space_group_name_H-M "P N N M"
_symmetry_group_IT_number 58
_symmetry_cell_setting 'orthorhombic'
loop_
_space_group_symop_operation_xyz
x,y,z
-x,-y,z
1/2+x,1/2-y,1/2-z
1/2-x,1/2+y,1/2-z
-x,-y,-z
x,y,-z
1/2-x,1/2+y,1/2+z
1/2+x,1/2-y,1/2+z
loop_
_atom_site_type_symbol
_atom_site_label
_atom_site_fract_x
_atom_site_fract_y
_atom_site_fract_z
Si Si1 0.315224 0.845331 0.832663
Si Si2 0.977476 0.744925 0.337445
Si Si3 0.569719 0.558069 0.843033
Si Si4 0.443453 0.638345 0.662377
Si Si5 0.747166 0.902960 0.164475
Si Si6 0.724852 0.026755 0.331146
Si Si7 0.310787 0.240502 0.829577
O O1 0.420339 0.821315 0.822269
O O2 0.322071 0.914144 0.752129
O O3 0.242435 0.797085 0.756071
O O4 0.285806 0.853533 0.000000
O O5 0.975077 0.770359 0.500000
O O6 0.920131 0.795194 0.242046
O O7 0.082242 0.739464 0.285762
O O8 0.500000 0.500000 0.847780
O O9 0.536889 0.609844 0.727269
O O10 0.667972 0.532342 0.800221
O O11 0.573712 0.592260 0.000000
O O12 0.465237 0.655827 0.500000
O O13 0.357615 0.589617 0.676813
O O14 0.723776 0.830571 0.217116
O O15 0.696923 0.957010 0.263038
O O16 0.714502 0.913238 0.000000
O O17 0.698996 0.027879 0.500000
O O18 0.295396 0.251990 0.000000
#
# Coordination Sequence:
#
# PCOD8237022 Si02
#       7
#     8   8   8   8   8   8   8
#     4  11  23  39  60  89 121 153 194 245 296 346
#     4  10  22  39  61  85 114 154 197 237 286 353
#     4  10  20  34  51  76 111 150 188 225 277 352
#     4  11  21  33  55  85 115 147 185 238 293 340
#     4  10  21  37  58  84 115 150 191 240 290 342
#     4  11  23  38  58  82 115 158 197 237 292 353
#     4  10  21  41  64  87 117 157 200 240 290 351
#
# _framework density 20.033818
#
# number of rings (size 3 to 8) (size 9 to 14) (size 15 to 20)
#    0.000    1.571    2.857    2.143    0.000    7.143 
#    0.000    0.714    0.000    4.286    0.000    0.000 
#    0.000    0.000    0.000    0.000    0.000    0.000 
#
# Total GULP energy -694221.247064 kJ/mol
# GULP energy per Si atom -12396.807983 kJ/mol
# Density = 1.998822 g / cm^3
# Si number density = 20.033818 Si / 1000 Ang^3
#
#
#
# Elastic Constant Matrix: (Units=GPa)
#
#
# Indices 1 2 3 4 5 6 
#
# 1 52.5947 4.2224 21.1063 0.0000 0.0000 0.0000
# 2 4.2224 111.5278 58.8763 0.0000 0.0000 0.0000
# 3 21.1063 58.8763 111.3471 0.0000 0.0000 0.0000
# 4 0.0000 0.0000 0.0000 43.0207 0.0000 0.0000
# 5 0.0000 0.0000 0.0000 0.0000 4.4980 0.0000
# 6 0.0000 0.0000 0.0000 0.0000 0.0000 26.0766
#
#
#
# Elastic Compliance Matrix: (Units=1/GPa)
#
#
# Indices 1 2 3 4 5 6 
#
# 1 0.020835 0.001798 -0.004900 0.000000 0.000000 0.000000
# 2 0.001798 0.012594 -0.007000 0.000000 0.000000 0.000000
# 3 -0.004900 -0.007000 0.013611 0.000000 0.000000 0.000000
# 4 0.000000 0.000000 0.000000 0.023245 0.000000 0.000000
# 5 0.000000 0.000000 0.000000 0.000000 0.222319 0.000000
# 6 0.000000 0.000000 0.000000 0.000000 0.000000 0.038349
#
#
# Mechanical properties :
#
#
# Convention : Reuss Voigt Hill
#
# Bulk Modulus (GPa) = 37.26334 49.31996 43.29165
# Shear Modulus (GPa) = 13.88496 27.47005 20.67750
#
# Velocity S-wave (km/s) = 2.63549 3.70697 3.21616
# Velocity P-wave (km/s) = 5.28220 6.55698 5.95381
#
# Compressibility (1/GPa) = 0.02683603
#
# Stress axis : x y z
#
# Youngs Moduli (GPa) = 47.99521 79.40561 73.46977
#
# Poissons Ratio (x) = -0.14277 0.36001
# Poissons Ratio (y) = -0.08630 0.51428
# Poissons Ratio (z) = 0.23518 0.55583
#
# Static dielectric constant tensor:
#      x y z
#    x 3.862940 0.000000 0.000000 
#    y 0.000000 3.693250 0.000000 
#    z 0.000000 0.000000 3.729200 
# 
# 
# High freq. dielectric constant tensor:
#      x y z
#    x 1.765390 0.000000 0.000000 
#    y 0.000000 1.784020 0.000000 
#    z 0.000000 0.000000 1.784500 
# 
# From -- ./inp_files/6400.got.cif
#   From: 2010.06.25/outbox.cif.g09.slc.cpg/sg58_4_cif.got.tgz:6400.got - 2010.06.26 21:38:00.
