data_PCOD8237216
_publ_section_title
;
Structure prediction by ZEFSAII (Michael W. Deem and Ramdas Pophale) SiO2 
 PCOD8237216
Probable space group: P N N M
;
_chemical_formula_sum "Si O2"
_cell_formula_units_Z 56
_cell_length_a 23.285191
_cell_length_b 13.762703
_cell_length_c 9.256040
_cell_angle_alpha 90.000000
_cell_angle_beta 90.000000
_cell_angle_gamma 90.000000
_cell_volume 2966.256926
_symmetry_space_group_name_H-M "P N N M"
_symmetry_group_IT_number 58
_symmetry_cell_setting 'orthorhombic'
loop_
_space_group_symop_operation_xyz
x,y,z
-x,-y,z
1/2+x,1/2-y,1/2-z
1/2-x,1/2+y,1/2-z
-x,-y,-z
x,y,-z
1/2-x,1/2+y,1/2+z
1/2+x,1/2-y,1/2+z
loop_
_atom_site_type_symbol
_atom_site_label
_atom_site_fract_x
_atom_site_fract_y
_atom_site_fract_z
Si Si1 0.870691 0.294745 0.835342
Si Si2 0.483273 0.107578 0.332867
Si Si3 0.068655 0.864950 0.338532
Si Si4 0.545811 0.277973 0.833335
Si Si5 0.673085 0.515132 0.835814
Si Si6 0.226887 0.781573 0.333526
Si Si7 0.338933 0.672496 0.668436
O O1 0.906653 0.201462 0.787145
O O2 0.811683 0.300548 0.745715
O O3 0.913928 0.385437 0.812233
O O4 0.852326 0.282946 0.000000
O O5 0.499768 0.129247 0.500000
O O6 0.517008 0.181063 0.229670
O O7 0.500000 0.000000 0.285578
O O8 0.081178 0.821479 0.500000
O O9 0.103639 0.966262 0.326535
O O10 0.999466 0.868752 0.318212
O O11 0.602651 0.301879 0.747055
O O12 0.562075 0.260321 0.000000
O O13 0.709560 0.609507 0.783269
O O14 0.688304 0.426420 0.731379
O O15 0.690122 0.487833 0.000000
O O16 0.211763 0.770366 0.500000
O O17 0.293733 0.759799 0.303459
O O18 0.351138 0.658052 0.500000
#
# Coordination Sequence:
#
# PCOD8237216 Si02
#       7
#     8   8   8   8   8   8   8
#     4   9  16  28  52  80 101 132 178 224 263 308
#     4   9  18  34  54  79 113 147 180 222 276 335
#     4   8  16  32  54  77 106 140 172 210 265 325
#     4  10  20  35  55  80 110 145 183 227 272 322
#     4   9  18  36  59  79 100 137 184 223 266 329
#     4   9  20  39  57  73 104 147 182 221 276 331
#     4  11  23  38  55  79 113 148 180 226 281 329
#
# _framework density 18.879011999999999
#
# number of rings (size 3 to 8) (size 9 to 14) (size 15 to 20)
#    0.000    2.714    0.000    2.143    0.000    5.429 
#    2.571    2.857    0.000    0.000    0.000    0.000 
#    0.000    0.000    0.000    0.000    0.000    0.000 
#
# Total GULP energy -693908.208561 kJ/mol
# GULP energy per Si atom -12391.218010 kJ/mol
# Density = 1.883604 g / cm^3
# Si number density = 18.879012 Si / 1000 Ang^3
#
#
#
# Elastic Constant Matrix: (Units=GPa)
#
#
# Indices 1 2 3 4 5 6 
#
# 1 109.8045 35.5115 47.5174 0.0000 0.0000 0.0000
# 2 35.5115 67.1934 38.8114 0.0000 0.0000 0.0000
# 3 47.5174 38.8114 86.7218 0.0000 0.0000 0.0000
# 4 0.0000 0.0000 0.0000 25.0163 0.0000 0.0000
# 5 0.0000 0.0000 0.0000 0.0000 31.3668 0.0000
# 6 0.0000 0.0000 0.0000 0.0000 0.0000 24.2208
#
#
#
# Elastic Compliance Matrix: (Units=1/GPa)
#
#
# Indices 1 2 3 4 5 6 
#
# 1 0.012548 -0.003588 -0.005270 0.000000 0.000000 0.000000
# 2 -0.003588 0.021096 -0.007476 0.000000 0.000000 0.000000
# 3 -0.005270 -0.007476 0.017764 0.000000 0.000000 0.000000
# 4 0.000000 0.000000 0.000000 0.039974 0.000000 0.000000
# 5 0.000000 0.000000 0.000000 0.000000 0.031881 0.000000
# 6 0.000000 0.000000 0.000000 0.000000 0.000000 0.041287
#
#
# Mechanical properties :
#
#
# Convention : Reuss Voigt Hill
#
# Bulk Modulus (GPa) = 53.35503 56.37782 54.86643
# Shear Modulus (GPa) = 24.57439 25.57940 25.07690
#
# Velocity S-wave (km/s) = 3.61179 3.68491 3.64853
# Velocity P-wave (km/s) = 6.76138 6.93053 6.84648
#
# Compressibility (1/GPa) = 0.01874238
#
# Stress axis : x y z
#
# Youngs Moduli (GPa) = 79.69519 47.40123 56.29297
#
# Poissons Ratio (x) = 0.17006 0.29665
# Poissons Ratio (y) = 0.28592 0.42083
# Poissons Ratio (z) = 0.41997 0.35436
#
# Static dielectric constant tensor:
#      x y z
#    x 3.652210 0.000000 0.000000 
#    y 0.000000 3.293660 0.000000 
#    z 0.000000 0.000000 3.519100 
# 
# 
# High freq. dielectric constant tensor:
#      x y z
#    x 1.736340 0.000000 0.000000 
#    y 0.000000 1.703860 0.000000 
#    z 0.000000 0.000000 1.739000 
# 
# From -- ./inp_files/9014.got.cif
#   From: 2010.06.25/outbox.cif.g09.slc.cpg/sg58_5_cif.got.tgz:9014.got - 2010.06.26 21:38:00.
