data_PCOD8237253
_publ_section_title
;
Structure prediction by ZEFSAII (Michael W. Deem and Ramdas Pophale) SiO2 
 PCOD8237253
Probable space group: P N N M
;
_chemical_formula_sum "Si O2"
_cell_formula_units_Z 40
_cell_length_a 18.514029
_cell_length_b 13.422499
_cell_length_c 8.476089
_cell_angle_alpha 90.000000
_cell_angle_beta 90.000000
_cell_angle_gamma 90.000000
_cell_volume 2106.346562
_symmetry_space_group_name_H-M "P N N M"
_symmetry_group_IT_number 58
_symmetry_cell_setting 'orthorhombic'
loop_
_space_group_symop_operation_xyz
x,y,z
-x,-y,z
1/2+x,1/2-y,1/2-z
1/2-x,1/2+y,1/2-z
-x,-y,-z
x,y,-z
1/2-x,1/2+y,1/2+z
1/2+x,1/2-y,1/2+z
loop_
_atom_site_type_symbol
_atom_site_label
_atom_site_fract_x
_atom_site_fract_y
_atom_site_fract_z
Si Si1 0.494426 0.385447 0.184198
Si Si2 0.714286 0.099286 0.683348
Si Si3 0.146764 0.208903 0.685258
Si Si4 0.351497 0.299325 0.683219
Si Si5 0.215680 0.610930 0.315379
O O1 0.500000 0.500000 0.235140
O O2 0.568281 0.330960 0.229677
O O3 0.432534 0.332762 0.284001
O O4 0.476352 0.375613 0.000000
O O5 0.708119 0.074691 0.500000
O O6 0.658371 0.185783 0.729301
O O7 0.796022 0.131327 0.721583
O O8 0.691935 0.001553 0.780585
O O9 0.156798 0.223859 0.500000
O O10 0.204707 0.128444 0.744728
O O11 0.333252 0.310110 0.500000
O O12 0.342128 0.184885 0.735796
O O13 0.217108 0.632661 0.500000
#
# Coordination Sequence:
#
# PCOD8237253 Si02
#       5
#     8   8   8   8   8
#     4  10  21  37  57  81 112 147 179 220 274 325
#     4  11  21  36  57  80 110 145 184 227 272 320
#     4  10  20  35  56  83 113 144 182 223 270 327
#     4  11  22  36  56  83 113 144 183 225 269 324
#     4  11  21  36  58  82 110 143 183 227 273 323
#
# _framework density 18.990226
#
# number of rings (size 3 to 8) (size 9 to 14) (size 15 to 20)
#    0.000    1.400    0.000    9.600    0.000    3.600 
#    0.000    1.000    0.000    6.000    0.000    0.000 
#    0.000    0.000    0.000    0.000    0.000    0.000 
#
# Total GULP energy -496246.049864 kJ/mol
# GULP energy per Si atom -12406.151247 kJ/mol
# Density = 1.894700 g / cm^3
# Si number density = 18.990226 Si / 1000 Ang^3
#
#
#
# Elastic Constant Matrix: (Units=GPa)
#
#
# Indices 1 2 3 4 5 6 
#
# 1 112.5453 54.7207 37.8953 0.0000 0.0000 0.0000
# 2 54.7207 126.4212 15.3165 0.0000 0.0000 0.0000
# 3 37.8953 15.3165 80.9547 0.0000 0.0000 0.0000
# 4 0.0000 0.0000 0.0000 30.2799 0.0000 0.0000
# 5 0.0000 0.0000 0.0000 0.0000 29.2588 0.0000
# 6 0.0000 0.0000 0.0000 0.0000 0.0000 19.7389
#
#
#
# Elastic Compliance Matrix: (Units=1/GPa)
#
#
# Indices 1 2 3 4 5 6 
#
# 1 0.013072 -0.005032 -0.005167 0.000000 0.000000 0.000000
# 2 -0.005032 0.010033 0.000457 0.000000 0.000000 0.000000
# 3 -0.005167 0.000457 0.014685 0.000000 0.000000 0.000000
# 4 0.000000 0.000000 0.000000 0.033025 0.000000 0.000000
# 5 0.000000 0.000000 0.000000 0.000000 0.034178 0.000000
# 6 0.000000 0.000000 0.000000 0.000000 0.000000 0.050661
#
#
# Mechanical properties :
#
#
# Convention : Reuss Voigt Hill
#
# Bulk Modulus (GPa) = 54.62685 59.53178 57.07932
# Shear Modulus (GPa) = 27.58796 29.98810 28.78803
#
# Velocity S-wave (km/s) = 3.81562 3.97814 3.89773
# Velocity P-wave (km/s) = 6.94552 7.24690 7.09781
#
# Compressibility (1/GPa) = 0.01830602
#
# Stress axis : x y z
#
# Youngs Moduli (GPa) = 76.50131 99.67369 68.09816
#
# Poissons Ratio (x) = 0.50156 0.35185
# Poissons Ratio (y) = 0.38496 -0.03114
# Poissons Ratio (z) = 0.39527 -0.04558
#
# Static dielectric constant tensor:
#      x y z
#    x 3.359940 0.000000 0.000000 
#    y 0.000000 3.568970 0.000000 
#    z 0.000000 0.000000 3.522520 
# 
# 
# High freq. dielectric constant tensor:
#      x y z
#    x 1.722940 0.000000 0.000000 
#    y 0.000000 1.747770 0.000000 
#    z 0.000000 0.000000 1.752840 
# 
# From -- ./inp_files/3820.got.cif
#   From: 2010.06.25/outbox.cif.g09.slc.cpg/sg58_2_cif.got.tgz:3820.got - 2010.06.26 21:38:00.
