data_PCOD8237064
_publ_section_title
;
Structure prediction by ZEFSAII (Michael W. Deem and Ramdas Pophale) SiO2 
 PCOD8237064
Probable space group: P N N M
;
_chemical_formula_sum "Si O2"
_cell_formula_units_Z 64
_cell_length_a 15.102501
_cell_length_b 24.985805
_cell_length_c 8.906866
_cell_angle_alpha 90.000000
_cell_angle_beta 90.000000
_cell_angle_gamma 90.000000
_cell_volume 3360.989363
_symmetry_space_group_name_H-M "P N N M"
_symmetry_group_IT_number 58
_symmetry_cell_setting 'orthorhombic'
loop_
_space_group_symop_operation_xyz
x,y,z
-x,-y,z
1/2+x,1/2-y,1/2-z
1/2-x,1/2+y,1/2-z
-x,-y,-z
x,y,-z
1/2-x,1/2+y,1/2+z
1/2+x,1/2-y,1/2+z
loop_
_atom_site_type_symbol
_atom_site_label
_atom_site_fract_x
_atom_site_fract_y
_atom_site_fract_z
Si Si1 0.855767 0.076518 0.828224
Si Si2 0.447394 0.611491 0.671187
Si Si3 0.492734 0.284301 0.174981
Si Si4 0.700880 0.682917 0.175922
Si Si5 0.315527 0.534174 0.174523
Si Si6 0.443067 0.918329 0.322323
Si Si7 0.381027 0.031653 0.673736
Si Si8 0.120639 0.310748 0.675682
O O1 0.807893 0.121769 0.730652
O O2 0.960952 0.080336 0.813136
O O3 0.830755 0.018484 0.770465
O O4 0.825387 0.083428 0.000000
O O5 0.413723 0.611722 0.500000
O O6 0.456601 0.671841 0.727341
O O7 0.377524 0.582165 0.776049
O O8 0.388021 0.283447 0.217676
O O9 0.538809 0.228284 0.216130
O O10 0.503512 0.298842 0.000000
O O11 0.786742 0.709933 0.252577
O O12 0.717204 0.682015 0.000000
O O13 0.215916 0.554711 0.206334
O O14 0.330848 0.520808 0.000000
O O15 0.434699 0.907414 0.500000
O O16 0.544727 0.927195 0.265596
O O17 0.402128 0.868784 0.236406
O O18 0.389602 0.970845 0.265661
O O19 0.402861 0.025854 0.500000
O O20 0.135971 0.313280 0.500000
#
# Coordination Sequence:
#
# PCOD8237064 Si02
#       8
#     8   8   8   8   8   8   8   8
#     4  10  20  34  53  79 111 142 182 234 279 321
#     4  10  21  36  53  75 107 144 184 231 278 324
#     4   9  21  41  59  77 109 146 183 231 280 328
#     4  10  20  37  60  83 107 144 188 227 275 335
#     4  11  20  31  51  80 113 149 186 220 271 337
#     4   9  17  35  59  79 104 142 184 224 264 317
#     4   8  17  33  53  78 109 142 180 223 263 314
#     4  11  22  37  58  86 114 141 178 231 284 328
#
# _framework density 19.042012
#
# number of rings (size 3 to 8) (size 9 to 14) (size 15 to 20)
#    0.000    2.250    0.000    3.750    0.000    5.500 
#    2.250    3.125    0.000    0.000    0.000    0.000 
#    0.000    0.000    0.000    0.000    0.000    0.000 
#
# Total GULP energy -793538.276469 kJ/mol
# GULP energy per Si atom -12399.035570 kJ/mol
# Density = 1.899867 g / cm^3
# Si number density = 19.042012 Si / 1000 Ang^3
#
#
#
# Elastic Constant Matrix: (Units=GPa)
#
#
# Indices 1 2 3 4 5 6 
#
# 1 119.9351 53.7120 47.3306 0.0000 0.0000 0.0000
# 2 53.7120 60.0169 27.9561 0.0000 0.0000 0.0000
# 3 47.3306 27.9561 70.7430 0.0000 0.0000 0.0000
# 4 0.0000 0.0000 0.0000 27.7175 0.0000 0.0000
# 5 0.0000 0.0000 0.0000 0.0000 25.3696 0.0000
# 6 0.0000 0.0000 0.0000 0.0000 0.0000 25.8382
#
#
#
# Elastic Compliance Matrix: (Units=1/GPa)
#
#
# Indices 1 2 3 4 5 6 
#
# 1 0.015812 -0.011304 -0.006112 0.000000 0.000000 0.000000
# 2 -0.011304 0.028502 -0.003700 0.000000 0.000000 0.000000
# 3 -0.006112 -0.003700 0.019687 0.000000 0.000000 0.000000
# 4 0.000000 0.000000 0.000000 0.036078 0.000000 0.000000
# 5 0.000000 0.000000 0.000000 0.000000 0.039417 0.000000
# 6 0.000000 0.000000 0.000000 0.000000 0.000000 0.038702
#
#
# Mechanical properties :
#
#
# Convention : Reuss Voigt Hill
#
# Bulk Modulus (GPa) = 45.93781 56.52137 51.22959
# Shear Modulus (GPa) = 21.95973 23.89817 22.92895
#
# Velocity S-wave (km/s) = 3.39960 3.54647 3.47381
# Velocity P-wave (km/s) = 6.29178 6.82033 6.56138
#
# Compressibility (1/GPa) = 0.02176856
#
# Stress axis : x y z
#
# Youngs Moduli (GPa) = 63.24150 35.08481 50.79427
#
# Poissons Ratio (x) = 0.39661 0.31046
# Poissons Ratio (y) = 0.71490 0.18796
# Poissons Ratio (z) = 0.38654 0.12983
#
# Static dielectric constant tensor:
#      x y z
#    x 3.828720 0.000000 0.000000 
#    y 0.000000 3.273890 0.000000 
#    z 0.000000 0.000000 3.440890 
# 
# 
# High freq. dielectric constant tensor:
#      x y z
#    x 1.754270 0.000000 0.000000 
#    y 0.000000 1.721660 0.000000 
#    z 0.000000 0.000000 1.736050 
# 
# From -- ./inp_files/6890.got.cif
#   From: 2010.06.25/outbox.cif.g09.slc.cpg/sg58_4_cif.got.tgz:6890.got - 2010.06.26 21:38:00.
