data_PCOD8237865
_publ_section_title
;
Structure prediction by ZEFSAII (Michael W. Deem and Ramdas Pophale) SiO2 
 PCOD8237865
Probable space group: P N N M
;
_chemical_formula_sum "Si O2"
_cell_formula_units_Z 64
_cell_length_a 19.072045
_cell_length_b 18.858148
_cell_length_c 9.036272
_cell_angle_alpha 90.000000
_cell_angle_beta 90.000000
_cell_angle_gamma 90.000000
_cell_volume 3250.016738
_symmetry_space_group_name_H-M "P N N M"
_symmetry_group_IT_number 58
_symmetry_cell_setting 'orthorhombic'
loop_
_space_group_symop_operation_xyz
x,y,z
-x,-y,z
1/2+x,1/2-y,1/2-z
1/2-x,1/2+y,1/2-z
-x,-y,-z
x,y,-z
1/2-x,1/2+y,1/2+z
1/2+x,1/2-y,1/2+z
loop_
_atom_site_type_symbol
_atom_site_label
_atom_site_fract_x
_atom_site_fract_y
_atom_site_fract_z
Si Si1 0.028418 0.806814 0.830672
Si Si2 0.656503 0.626400 0.827400
Si Si3 0.843661 0.449201 0.668880
Si Si4 0.800864 0.970970 0.675277
Si Si5 0.406348 0.896844 0.830790
Si Si6 0.627210 0.344674 0.672749
Si Si7 0.702707 0.201648 0.672054
Si Si8 0.954042 0.357441 0.171063
O O1 0.082469 0.855413 0.743633
O O2 0.048284 0.726006 0.805774
O O3 0.949109 0.818213 0.774383
O O4 0.034220 0.829354 0.000000
O O5 0.680196 0.549556 0.767357
O O6 0.716085 0.685154 0.789701
O O7 0.643380 0.622353 0.000000
O O8 0.823570 0.431596 0.500000
O O9 0.774508 0.450267 0.765242
O O10 0.885336 0.521873 0.681250
O O11 0.891187 0.386785 0.731495
O O12 0.799635 0.967461 0.500000
O O13 0.857130 0.915182 0.735753
O O14 0.343421 0.848596 0.774195
O O15 0.472847 0.887956 0.727092
O O16 0.424194 0.876212 0.000000
O O17 0.628071 0.363221 0.500000
O O18 0.684575 0.283389 0.707616
O O19 0.686246 0.184281 0.500000
O O20 0.945144 0.379029 0.000000
#
# Coordination Sequence:
#
# PCOD8237865 Si02
#       8
#     8   8   8   8   8   8   8   8
#     4  10  23  42  64  90 121 160 206 254 305 364
#     4  10  23  41  64  91 123 162 203 252 307 363
#     4  11  24  40  59  90 128 164 205 252 305 365
#     4  11  24  42  64  92 122 160 207 254 308 365
#     4  11  22  37  61  92 125 163 205 252 303 363
#     4  10  22  42  65  90 123 163 205 251 306 365
#     4  10  20  40  65  88 122 164 204 246 305 368
#     4  11  23  40  61  90 126 165 207 252 303 368
#
# _framework density 19.692207
#
# number of rings (size 3 to 8) (size 9 to 14) (size 15 to 20)
#    0.000    1.500    2.500    1.875    1.750    7.000 
#    0.000    2.500    0.000    0.000    0.000    0.000 
#    0.000    0.000    0.000    0.000    0.000    0.000 
#
# Total GULP energy -793884.448069 kJ/mol
# GULP energy per Si atom -12404.444501 kJ/mol
# Density = 1.964739 g / cm^3
# Si number density = 19.692207 Si / 1000 Ang^3
#
#
#
# Elastic Constant Matrix: (Units=GPa)
#
#
# Indices 1 2 3 4 5 6 
#
# 1 114.5938 45.6832 33.8611 0.0000 0.0000 0.0000
# 2 45.6832 83.2818 41.1662 0.0000 0.0000 0.0000
# 3 33.8611 41.1662 59.5669 0.0000 0.0000 0.0000
# 4 0.0000 0.0000 0.0000 88.6449 0.0000 0.0000
# 5 0.0000 0.0000 0.0000 0.0000 39.9136 0.0000
# 6 0.0000 0.0000 0.0000 0.0000 0.0000 31.7854
#
#
#
# Elastic Compliance Matrix: (Units=1/GPa)
#
#
# Indices 1 2 3 4 5 6 
#
# 1 0.011589 -0.004709 -0.003333 0.000000 0.000000 0.000000
# 2 -0.004709 0.020151 -0.011249 0.000000 0.000000 0.000000
# 3 -0.003333 -0.011249 0.026457 0.000000 0.000000 0.000000
# 4 0.000000 0.000000 0.000000 0.011281 0.000000 0.000000
# 5 0.000000 0.000000 0.000000 0.000000 0.025054 0.000000
# 6 0.000000 0.000000 0.000000 0.000000 0.000000 0.031461
#
#
# Mechanical properties :
#
#
# Convention : Reuss Voigt Hill
#
# Bulk Modulus (GPa) = 50.98563 55.42927 53.20745
# Shear Modulus (GPa) = 29.22029 41.18426 35.20227
#
# Velocity S-wave (km/s) = 3.85626 4.57814 4.23262
# Velocity P-wave (km/s) = 6.76573 7.49365 7.13897
#
# Compressibility (1/GPa) = 0.01961337
#
# Stress axis : x y z
#
# Youngs Moduli (GPa) = 86.29062 49.62489 37.79742
#
# Poissons Ratio (x) = 0.23370 0.12598
# Poissons Ratio (y) = 0.40637 0.42519
# Poissons Ratio (z) = 0.28762 0.55824
#
# Static dielectric constant tensor:
#      x y z
#    x 3.731180 0.000000 0.000000 
#    y 0.000000 3.733880 0.000000 
#    z 0.000000 0.000000 3.567960 
# 
# 
# High freq. dielectric constant tensor:
#      x y z
#    x 1.775330 0.000000 0.000000 
#    y 0.000000 1.773690 0.000000 
#    z 0.000000 0.000000 1.768920 
# 
# From -- ./inp_files/9276.got.cif
#   From: 2010.06.25/outbox.cif.g09.slc.cpg/sg58_5_cif.got.tgz:9276.got - 2010.06.26 21:38:00.
