data_PCOD8237483
_publ_section_title
;
Structure prediction by ZEFSAII (Michael W. Deem and Ramdas Pophale) SiO2 
 PCOD8237483
Probable space group: P N N M
;
_chemical_formula_sum "Si O2"
_cell_formula_units_Z 48
_cell_length_a 15.064073
_cell_length_b 12.073092
_cell_length_c 13.742874
_cell_angle_alpha 90.000000
_cell_angle_beta 90.000000
_cell_angle_gamma 90.000000
_cell_volume 2499.415659
_symmetry_space_group_name_H-M "P N N M"
_symmetry_group_IT_number 58
_symmetry_cell_setting 'orthorhombic'
loop_
_space_group_symop_operation_xyz
x,y,z
-x,-y,z
1/2+x,1/2-y,1/2-z
1/2-x,1/2+y,1/2-z
-x,-y,-z
x,y,-z
1/2-x,1/2+y,1/2+z
1/2+x,1/2-y,1/2+z
loop_
_atom_site_type_symbol
_atom_site_label
_atom_site_fract_x
_atom_site_fract_y
_atom_site_fract_z
Si Si1 0.533454 0.229078 0.109659
Si Si2 0.745049 0.606406 0.794716
Si Si3 0.603467 0.975017 0.386426
Si Si4 0.330126 0.958898 0.890950
Si Si5 0.136526 0.680356 0.712110
Si Si6 0.596560 0.461210 0.888657
O O1 0.580757 0.112003 0.124412
O O2 0.455028 0.242894 0.187889
O O3 0.603574 0.328721 0.127021
O O4 0.494723 0.239945 0.000000
O O5 0.837295 0.581037 0.852464
O O6 0.754309 0.585603 0.679885
O O7 0.717011 0.734070 0.805692
O O8 0.671419 0.519438 0.826595
O O9 0.621212 0.948790 0.500000
O O10 0.633969 0.869345 0.321705
O O11 0.500000 0.000000 0.367506
O O12 0.354124 0.084867 0.867799
O O13 0.293618 0.948419 0.000000
O O14 0.500000 0.500000 0.853351
O O15 0.612442 0.495895 0.000000
#
# Coordination Sequence:
#
# PCOD8237483 Si02
#       6
#     8   8   8   8   8   8
#     4  10  20  36  62  88 119 154 195 251 309 362
#     4  11  23  38  62  88 120 161 203 253 304 364
#     4  10  23  43  63  89 126 169 211 248 300 377
#     4  10  23  38  56  86 121 158 197 243 305 363
#     4  11  21  37  62  90 120 153 202 257 306 356
#     4  10  20  36  59  91 122 153 199 254 307 360
#
# _framework density 19.204488999999999
#
# number of rings (size 3 to 8) (size 9 to 14) (size 15 to 20)
#    0.000    1.667    1.667    3.500    4.667    4.000 
#    0.000    0.000    0.000    0.500    0.000    0.000 
#    0.000    0.000    0.000    0.000    0.000    0.000 
#
# Total GULP energy -595157.383472 kJ/mol
# GULP energy per Si atom -12399.112156 kJ/mol
# Density = 1.916078 g / cm^3
# Si number density = 19.204489 Si / 1000 Ang^3
#
#
#
# Elastic Constant Matrix: (Units=GPa)
#
#
# Indices 1 2 3 4 5 6 
#
# 1 106.8665 53.6652 57.1948 0.0000 0.0000 0.0000
# 2 53.6652 122.6808 45.0930 0.0000 0.0000 0.0000
# 3 57.1948 45.0930 130.6093 0.0000 0.0000 0.0000
# 4 0.0000 0.0000 0.0000 21.9260 0.0000 0.0000
# 5 0.0000 0.0000 0.0000 0.0000 29.8112 0.0000
# 6 0.0000 0.0000 0.0000 0.0000 0.0000 32.8435
#
#
#
# Elastic Compliance Matrix: (Units=1/GPa)
#
#
# Indices 1 2 3 4 5 6 
#
# 1 0.014069 -0.004455 -0.004623 0.000000 0.000000 0.000000
# 2 -0.004455 0.010747 -0.001759 0.000000 0.000000 0.000000
# 3 -0.004623 -0.001759 0.010288 0.000000 0.000000 0.000000
# 4 0.000000 0.000000 0.000000 0.045608 0.000000 0.000000
# 5 0.000000 0.000000 0.000000 0.000000 0.033544 0.000000
# 6 0.000000 0.000000 0.000000 0.000000 0.000000 0.030447
#
#
# Mechanical properties :
#
#
# Convention : Reuss Voigt Hill
#
# Bulk Modulus (GPa) = 74.46398 74.67362 74.56880
# Shear Modulus (GPa) = 29.26472 30.52971 29.89722
#
# Velocity S-wave (km/s) = 3.90788 3.99145 3.94989
# Velocity P-wave (km/s) = 7.69549 7.75952 7.72757
#
# Compressibility (1/GPa) = 0.01342931
#
# Stress axis : x y z
#
# Youngs Moduli (GPa) = 71.07967 93.05141 97.19894
#
# Poissons Ratio (x) = 0.41455 0.44932
# Poissons Ratio (y) = 0.31666 0.17101
# Poissons Ratio (z) = 0.32858 0.16372
#
# Static dielectric constant tensor:
#      x y z
#    x 3.503260 0.000000 0.000000 
#    y 0.000000 3.620410 0.000000 
#    z 0.000000 0.000000 3.595930 
# 
# 
# High freq. dielectric constant tensor:
#      x y z
#    x 1.739130 0.000000 0.000000 
#    y 0.000000 1.753570 0.000000 
#    z 0.000000 0.000000 1.744320 
# 
# From -- ./inp_files/22114.got.cif
#   From: 2010.06.25/outbox.cif.g09.slc.cpg/sg58_12_cif.got.tgz:22114.got - 2010.06.26 21:38:00.
