data_PCOD8237946
_publ_section_title
;
Structure prediction by ZEFSAII (Michael W. Deem and Ramdas Pophale) SiO2 
 PCOD8237946
Probable space group: P N N M
;
_chemical_formula_sum "Si O2"
_cell_formula_units_Z 40
_cell_length_a 21.028622
_cell_length_b 10.173946
_cell_length_c 9.502128
_cell_angle_alpha 90.000000
_cell_angle_beta 90.000000
_cell_angle_gamma 90.000000
_cell_volume 2032.923887
_symmetry_space_group_name_H-M "P N N M"
_symmetry_group_IT_number 58
_symmetry_cell_setting 'orthorhombic'
loop_
_space_group_symop_operation_xyz
x,y,z
-x,-y,z
1/2+x,1/2-y,1/2-z
1/2-x,1/2+y,1/2-z
-x,-y,-z
x,y,-z
1/2-x,1/2+y,1/2+z
1/2+x,1/2-y,1/2+z
loop_
_atom_site_type_symbol
_atom_site_label
_atom_site_fract_x
_atom_site_fract_y
_atom_site_fract_z
Si Si1 0.065464 0.565128 0.662455
Si Si2 0.911990 0.904294 0.166362
Si Si3 0.200651 0.464239 0.338489
Si Si4 0.547817 0.686640 0.333657
Si Si5 0.281474 0.715136 0.665696
O O1 0.059805 0.606826 0.500000
O O2 0.124531 0.466329 0.685631
O O3 0.080163 0.693488 0.753550
O O4 0.000000 0.500000 0.715925
O O5 0.848771 0.837255 0.226252
O O6 0.973889 0.822482 0.213337
O O7 0.916467 0.054973 0.217959
O O8 0.909509 0.908637 0.000000
O O9 0.217968 0.433399 0.500000
O O10 0.228474 0.606900 0.296845
O O11 0.233410 0.351570 0.244641
O O12 0.554291 0.708482 0.500000
O O13 0.284014 0.744231 0.500000
#
# Coordination Sequence:
#
# PCOD8237946 Si02
#       5
#     8   8   8   8   8
#     4  10  21  36  52  74 111 147 177 220 271 320
#     4   8  16  32  53  79 109 136 170 224 275 314
#     4  10  23  39  56  82 113 145 184 227 272 324
#     4   9  17  31  55  82 104 134 179 223 266 318
#     4  10  21  38  58  79 109 145 182 225 273 325
#
# _framework density 19.676093999999999
#
# number of rings (size 3 to 8) (size 9 to 14) (size 15 to 20)
#    0.000    2.600    0.000    2.400    2.800    2.000 
#    0.000    3.000    0.000    0.000    0.000    0.000 
#    0.000    0.000    0.000    0.000    0.000    0.000 
#
# Total GULP energy -495978.439317 kJ/mol
# GULP energy per Si atom -12399.460983 kJ/mol
# Density = 1.963131 g / cm^3
# Si number density = 19.676094 Si / 1000 Ang^3
#
#
#
# Elastic Constant Matrix: (Units=GPa)
#
#
# Indices 1 2 3 4 5 6 
#
# 1 75.2800 33.7033 24.4413 0.0000 0.0000 0.0000
# 2 33.7033 122.7821 56.8237 0.0000 0.0000 0.0000
# 3 24.4413 56.8237 53.7777 0.0000 0.0000 0.0000
# 4 0.0000 0.0000 0.0000 37.0273 0.0000 0.0000
# 5 0.0000 0.0000 0.0000 0.0000 18.6239 0.0000
# 6 0.0000 0.0000 0.0000 0.0000 0.0000 26.7437
#
#
#
# Elastic Compliance Matrix: (Units=1/GPa)
#
#
# Indices 1 2 3 4 5 6 
#
# 1 0.015827 -0.001987 -0.005093 0.000000 0.000000 0.000000
# 2 -0.001987 0.016188 -0.016202 0.000000 0.000000 0.000000
# 3 -0.005093 -0.016202 0.038030 0.000000 0.000000 0.000000
# 4 0.000000 0.000000 0.000000 0.027007 0.000000 0.000000
# 5 0.000000 0.000000 0.000000 0.000000 0.053694 0.000000
# 6 0.000000 0.000000 0.000000 0.000000 0.000000 0.037392
#
#
# Mechanical properties :
#
#
# Convention : Reuss Voigt Hill
#
# Bulk Modulus (GPa) = 42.59000 53.53071 48.06035
# Shear Modulus (GPa) = 20.61596 25.60375 23.10985
#
# Velocity S-wave (km/s) = 3.24043 3.61121 3.43084
# Velocity P-wave (km/s) = 5.97437 6.68228 6.33822
#
# Compressibility (1/GPa) = 0.02347969
#
# Stress axis : x y z
#
# Youngs Moduli (GPa) = 63.18260 61.77296 26.29526
#
# Poissons Ratio (x) = 0.12276 0.13393
# Poissons Ratio (y) = 0.12556 0.42604
# Poissons Ratio (z) = 0.32182 1.00085
#
# Static dielectric constant tensor:
#      x y z
#    x 3.921210 0.000000 0.000000 
#    y 0.000000 3.494960 0.000000 
#    z 0.000000 0.000000 3.201560 
# 
# 
# High freq. dielectric constant tensor:
#      x y z
#    x 1.773350 0.000000 0.000000 
#    y 0.000000 1.767770 0.000000 
#    z 0.000000 0.000000 1.734610 
# 
# From -- ./inp_files/4019.got.cif
#   From: 2010.06.25/outbox.cif.g09.slc.cpg/sg58_3_cif.got.tgz:4019.got - 2010.06.26 21:38:00.
