data_PCOD8237285
_publ_section_title
;
Structure prediction by ZEFSAII (Michael W. Deem and Ramdas Pophale) SiO2 
 PCOD8237285
Probable space group: P N N M
;
_chemical_formula_sum "Si O2"
_cell_formula_units_Z 64
_cell_length_a 16.784188
_cell_length_b 16.881647
_cell_length_c 12.507781
_cell_angle_alpha 90.000000
_cell_angle_beta 90.000000
_cell_angle_gamma 90.000000
_cell_volume 3544.013918
_symmetry_space_group_name_H-M "P N N M"
_symmetry_group_IT_number 58
_symmetry_cell_setting 'orthorhombic'
loop_
_space_group_symop_operation_xyz
x,y,z
-x,-y,z
1/2+x,1/2-y,1/2-z
1/2-x,1/2+y,1/2-z
-x,-y,-z
x,y,-z
1/2-x,1/2+y,1/2+z
1/2+x,1/2-y,1/2+z
loop_
_atom_site_type_symbol
_atom_site_label
_atom_site_fract_x
_atom_site_fract_y
_atom_site_fract_z
Si Si1 0.741845 0.236763 0.625403
Si Si2 0.825912 0.893252 0.231958
Si Si3 0.473205 0.588595 0.878761
Si Si4 0.399252 0.323773 0.235615
Si Si5 0.612829 0.103683 0.623812
Si Si6 0.044080 0.684717 0.876424
Si Si7 0.089465 0.972858 0.121972
Si Si8 0.680218 0.940774 0.376295
O O1 0.759353 0.249593 0.500000
O O2 0.700366 0.313654 0.673811
O O3 0.822208 0.219162 0.689091
O O4 0.684440 0.163253 0.645609
O O5 0.902598 0.878850 0.305399
O O6 0.758070 0.928338 0.307014
O O7 0.849024 0.955420 0.139875
O O8 0.500000 0.500000 0.846330
O O9 0.547286 0.648057 0.864096
O O10 0.443567 0.590966 0.000000
O O11 0.448683 0.264579 0.309984
O O12 0.379337 0.400390 0.306575
O O13 0.595571 0.091090 0.500000
O O14 0.530516 0.136303 0.673500
O O15 0.635416 0.017997 0.671358
O O16 0.123975 0.634577 0.864347
O O17 0.028061 0.707551 0.000000
O O18 0.093129 0.945290 0.000000
O O19 0.000000 0.000000 0.153015
O O20 0.705221 0.954140 0.500000
#
# Coordination Sequence:
#
# PCOD8237285 Si02
#       8
#     8   8   8   8   8   8   8   8
#     4  11  24  37  57  87 117 150 190 241 289 344
#     4  12  20  40  56  85 119 153 191 236 292 348
#     4  11  23  38  60  86 115 154 198 240 288 352
#     4  12  20  40  56  85 119 153 191 236 292 348
#     4   9  19  34  55  81 108 142 181 228 283 335
#     4  10  20  35  57  84 115 147 188 236 286 341
#     4  11  23  38  60  86 115 154 198 240 288 352
#     4  10  20  35  57  84 115 147 188 236 286 341
#
# _framework density 18.058620000000001
#
# number of rings (size 3 to 8) (size 9 to 14) (size 15 to 20)
#    0.000    1.250    3.750    3.375    0.000    1.500 
#    0.000    0.000    0.000    0.000    0.000    3.500 
#    0.000    0.000    0.000    0.000    0.000    0.000 
#
# Total GULP energy -793666.249739 kJ/mol
# GULP energy per Si atom -12401.035152 kJ/mol
# Density = 1.801752 g / cm^3
# Si number density = 18.058620 Si / 1000 Ang^3
#
#
#
# Elastic Constant Matrix: (Units=GPa)
#
#
# Indices 1 2 3 4 5 6 
#
# 1 44.9917 5.7454 23.8241 0.0000 0.0000 0.0000
# 2 5.7454 94.8668 31.5924 0.0000 0.0000 0.0000
# 3 23.8241 31.5924 83.1649 0.0000 0.0000 0.0000
# 4 0.0000 0.0000 0.0000 25.1773 0.0000 0.0000
# 5 0.0000 0.0000 0.0000 0.0000 19.7387 0.0000
# 6 0.0000 0.0000 0.0000 0.0000 0.0000 36.5768
#
#
#
# Elastic Compliance Matrix: (Units=1/GPa)
#
#
# Indices 1 2 3 4 5 6 
#
# 1 0.026292 0.001049 -0.007930 0.000000 0.000000 0.000000
# 2 0.001049 0.012110 -0.004901 0.000000 0.000000 0.000000
# 3 -0.007930 -0.004901 0.016158 0.000000 0.000000 0.000000
# 4 0.000000 0.000000 0.000000 0.039718 0.000000 0.000000
# 5 0.000000 0.000000 0.000000 0.000000 0.050662 0.000000
# 6 0.000000 0.000000 0.000000 0.000000 0.000000 0.027340
#
#
# Mechanical properties :
#
#
# Convention : Reuss Voigt Hill
#
# Bulk Modulus (GPa) = 32.26356 38.37191 35.31773
# Shear Modulus (GPa) = 24.25136 27.08934 25.67035
#
# Velocity S-wave (km/s) = 3.66857 3.87729 3.77437
# Velocity P-wave (km/s) = 5.98743 6.42955 6.21242
#
# Compressibility (1/GPa) = 0.03099472
#
# Stress axis : x y z
#
# Youngs Moduli (GPa) = 38.03509 82.57943 61.89042
#
# Poissons Ratio (x) = -0.08659 0.49079
# Poissons Ratio (y) = -0.03988 0.30329
# Poissons Ratio (z) = 0.30162 0.40468
#
# Static dielectric constant tensor:
#      x y z
#    x 3.384160 0.000000 0.000000 
#    y 0.000000 3.435070 0.000000 
#    z 0.000000 0.000000 3.231250 
# 
# 
# High freq. dielectric constant tensor:
#      x y z
#    x 1.706030 0.000000 0.000000 
#    y 0.000000 1.709140 0.000000 
#    z 0.000000 0.000000 1.687860 
# 
# From -- ./inp_files/15919.got.cif
#   From: 2010.06.25/outbox.cif.g09.slc.cpg/sg58_8_cif.got.tgz:15919.got - 2010.06.26 21:38:00.
