data_PCOD8237432
_publ_section_title
;
Structure prediction by ZEFSAII (Michael W. Deem and Ramdas Pophale) SiO2 
 PCOD8237432
Probable space group: P N N M
;
_chemical_formula_sum "Si O2"
_cell_formula_units_Z 64
_cell_length_a 14.446766
_cell_length_b 24.249727
_cell_length_c 9.414135
_cell_angle_alpha 90.000000
_cell_angle_beta 90.000000
_cell_angle_gamma 90.000000
_cell_volume 3298.055153
_symmetry_space_group_name_H-M "P N N M"
_symmetry_group_IT_number 58
_symmetry_cell_setting 'orthorhombic'
loop_
_space_group_symop_operation_xyz
x,y,z
-x,-y,z
1/2+x,1/2-y,1/2-z
1/2-x,1/2+y,1/2-z
-x,-y,-z
x,y,-z
1/2-x,1/2+y,1/2+z
1/2+x,1/2-y,1/2+z
loop_
_atom_site_type_symbol
_atom_site_label
_atom_site_fract_x
_atom_site_fract_y
_atom_site_fract_z
Si Si1 0.487650 0.829602 0.835240
Si Si2 0.596368 0.526967 0.163368
Si Si3 0.245686 0.561537 0.835128
Si Si4 0.336271 0.768353 0.335689
Si Si5 0.439918 0.371762 0.338454
Si Si6 0.354161 0.644559 0.659605
Si Si7 0.121348 0.769242 0.664852
Si Si8 0.564453 0.947690 0.836208
O O1 0.394799 0.812532 0.752639
O O2 0.574848 0.789899 0.800620
O O3 0.513497 0.891547 0.788178
O O4 0.462010 0.827291 0.000000
O O5 0.500000 0.500000 0.210511
O O6 0.678950 0.485264 0.191564
O O7 0.616791 0.580682 0.258124
O O8 0.591550 0.545828 0.000000
O O9 0.280686 0.618415 0.766620
O O10 0.152784 0.541657 0.761074
O O11 0.227579 0.572418 0.000000
O O12 0.350607 0.782864 0.500000
O O13 0.373295 0.707655 0.298123
O O14 0.228763 0.769117 0.293400
O O15 0.404283 0.367601 0.500000
O O16 0.548494 0.387331 0.332954
O O17 0.428018 0.313856 0.261794
O O18 0.312070 0.641783 0.500000
O O19 0.107076 0.784461 0.500000
O O20 0.500000 0.000000 0.810768
O O21 0.595569 0.943014 0.000000
#
# Coordination Sequence:
#
# PCOD8237432 Si02
#       8
#     8   8   8   8   8   8   8   8
#     4  10  21  39  63  89 118 157 200 242 295 357
#     4  10  21  38  57  82 122 159 190 234 291 355
#     4  11  23  38  62  91 117 156 204 248 293 349
#     4  10  21  38  60  87 120 159 198 244 297 348
#     4  11  22  35  57  86 117 153 195 245 290 342
#     4  10  20  36  58  85 120 155 194 243 296 350
#     4  10  21  37  58  84 121 162 194 235 298 357
#     4  10  23  44  66  87 118 158 198 248 304 352
#
# _framework density 19.405374999999999
#
# number of rings (size 3 to 8) (size 9 to 14) (size 15 to 20)
#    0.000    1.750    2.500    1.500    0.000    6.500 
#    0.000    3.750    0.000    0.000    0.000    0.000 
#    0.000    0.000    0.000    0.000    0.000    0.000 
#
# Total GULP energy -793827.104074 kJ/mol
# GULP energy per Si atom -12403.548501 kJ/mol
# Density = 1.936121 g / cm^3
# Si number density = 19.405375 Si / 1000 Ang^3
#
#
#
# Elastic Constant Matrix: (Units=GPa)
#
#
# Indices 1 2 3 4 5 6 
#
# 1 112.1743 50.2185 59.1588 0.0000 0.0000 0.0000
# 2 50.2185 128.0898 65.8406 0.0000 0.0000 0.0000
# 3 59.1588 65.8406 98.9054 0.0000 0.0000 0.0000
# 4 0.0000 0.0000 0.0000 29.3383 0.0000 0.0000
# 5 0.0000 0.0000 0.0000 0.0000 35.0305 0.0000
# 6 0.0000 0.0000 0.0000 0.0000 0.0000 26.2094
#
#
#
# Elastic Compliance Matrix: (Units=1/GPa)
#
#
# Indices 1 2 3 4 5 6 
#
# 1 0.013263 -0.001706 -0.006798 0.000000 0.000000 0.000000
# 2 -0.001706 0.012087 -0.007026 0.000000 0.000000 0.000000
# 3 -0.006798 -0.007026 0.018854 0.000000 0.000000 0.000000
# 4 0.000000 0.000000 0.000000 0.034085 0.000000 0.000000
# 5 0.000000 0.000000 0.000000 0.000000 0.028547 0.000000
# 6 0.000000 0.000000 0.000000 0.000000 0.000000 0.038154
#
#
# Mechanical properties :
#
#
# Convention : Reuss Voigt Hill
#
# Bulk Modulus (GPa) = 76.07336 76.62280 76.34808
# Shear Modulus (GPa) = 27.71133 29.04577 28.37855
#
# Velocity S-wave (km/s) = 3.78302 3.87303 3.82829
# Velocity P-wave (km/s) = 7.63996 7.71826 7.67921
#
# Compressibility (1/GPa) = 0.01314521
#
# Stress axis : x y z
#
# Youngs Moduli (GPa) = 75.39559 82.73091 53.03948
#
# Poissons Ratio (x) = 0.14113 0.36055
# Poissons Ratio (y) = 0.12861 0.37266
# Poissons Ratio (z) = 0.51252 0.58128
#
# Static dielectric constant tensor:
#      x y z
#    x 3.467830 0.000000 0.000000 
#    y 0.000000 3.507000 0.000000 
#    z 0.000000 0.000000 3.514120 
# 
# 
# High freq. dielectric constant tensor:
#      x y z
#    x 1.753840 0.000000 0.000000 
#    y 0.000000 1.757880 0.000000 
#    z 0.000000 0.000000 1.753710 
# 
# From -- ./inp_files/6801.got.cif
#   From: 2010.06.25/outbox.cif.g09.slc.cpg/sg58_4_cif.got.tgz:6801.got - 2010.06.26 21:38:00.
