data_PCOD8237535
_publ_section_title
;
Structure prediction by ZEFSAII (Michael W. Deem and Ramdas Pophale) SiO2 
 PCOD8237535
Probable space group: P N N M
;
_chemical_formula_sum "Si O2"
_cell_formula_units_Z 64
_cell_length_a 22.182410
_cell_length_b 7.697078
_cell_length_c 17.749146
_cell_angle_alpha 90.000000
_cell_angle_beta 90.000000
_cell_angle_gamma 90.000000
_cell_volume 3030.484573
_symmetry_space_group_name_H-M "P N N M"
_symmetry_group_IT_number 58
_symmetry_cell_setting 'orthorhombic'
loop_
_space_group_symop_operation_xyz
x,y,z
-x,-y,z
1/2+x,1/2-y,1/2-z
1/2-x,1/2+y,1/2-z
-x,-y,-z
x,y,-z
1/2-x,1/2+y,1/2+z
1/2+x,1/2-y,1/2+z
loop_
_atom_site_type_symbol
_atom_site_label
_atom_site_fract_x
_atom_site_fract_y
_atom_site_fract_z
Si Si1 0.260344 0.712192 0.657369
Si Si2 0.365054 0.172862 0.088592
Si Si3 0.387397 0.345855 0.332399
Si Si4 0.144361 0.266906 0.410610
Si Si5 0.570917 0.531297 0.172286
Si Si6 0.620790 0.316082 0.586266
Si Si7 0.495278 0.198718 0.582881
Si Si8 0.258766 0.307772 0.322759
O O1 0.198455 0.758361 0.614491
O O2 0.320047 0.785301 0.616104
O O3 0.265754 0.507461 0.658705
O O4 0.265572 0.794691 0.738891
O O5 0.417205 0.288100 0.127334
O O6 0.371295 0.968332 0.110655
O O7 0.371054 0.195070 0.000000
O O8 0.399723 0.449356 0.254776
O O9 0.374406 0.479379 0.399718
O O10 0.443332 0.228904 0.356003
O O11 0.326626 0.226641 0.326167
O O12 0.141848 0.237646 0.500000
O O13 0.211953 0.220780 0.381196
O O14 0.098501 0.136152 0.370184
O O15 0.500000 0.500000 0.178390
O O16 0.616513 0.268006 0.500000
O O17 0.557207 0.259180 0.623142
O O18 0.484092 0.289263 0.500000
O O19 0.500000 0.000000 0.566316
#
# Coordination Sequence:
#
# PCOD8237535 Si02
#       8
#     8   8   8   8   8   8   8   8
#     4  10  20  37  59  89 124 157 205 263 322 384
#     4  10  22  42  65  92 125 166 214 266 327 386
#     4  11  22  40  62  92 126 168 216 263 319 390
#     4  10  23  43  66  95 130 169 215 274 327 385
#     4  12  25  44  65  96 133 173 221 267 323 387
#     4  10  20  36  62  88 116 162 207 255 317 382
#     4  10  22  40  58  88 130 167 210 263 320 388
#     4  10  21  36  62  90 122 160 205 265 323 380
#
# _framework density 21.118735000000001
#
# number of rings (size 3 to 8) (size 9 to 14) (size 15 to 20)
#    0.000    1.625    1.250    3.750    0.000    7.000 
#    4.500    1.250    0.000    0.000    0.000    0.000 
#    0.000    0.000    0.000    0.000    0.000    0.000 
#
# Total GULP energy -793190.301105 kJ/mol
# GULP energy per Si atom -12393.598455 kJ/mol
# Density = 2.107067 g / cm^3
# Si number density = 21.118735 Si / 1000 Ang^3
#
#
#
# Elastic Constant Matrix: (Units=GPa)
#
#
# Indices 1 2 3 4 5 6 
#
# 1 147.5999 34.1297 34.3287 0.0000 0.0000 0.0000
# 2 34.1297 57.6649 22.7607 0.0000 0.0000 0.0000
# 3 34.3287 22.7607 75.6278 0.0000 0.0000 0.0000
# 4 0.0000 0.0000 0.0000 30.2648 0.0000 0.0000
# 5 0.0000 0.0000 0.0000 0.0000 50.1373 0.0000
# 6 0.0000 0.0000 0.0000 0.0000 0.0000 29.4478
#
#
#
# Elastic Compliance Matrix: (Units=1/GPa)
#
#
# Indices 1 2 3 4 5 6 
#
# 1 0.008273 -0.003875 -0.002589 0.000000 0.000000 0.000000
# 2 -0.003875 0.021494 -0.004710 0.000000 0.000000 0.000000
# 3 -0.002589 -0.004710 0.015815 0.000000 0.000000 0.000000
# 4 0.000000 0.000000 0.000000 0.033042 0.000000 0.000000
# 5 0.000000 0.000000 0.000000 0.000000 0.019945 0.000000
# 6 0.000000 0.000000 0.000000 0.000000 0.000000 0.033958
#
#
# Mechanical properties :
#
#
# Convention : Reuss Voigt Hill
#
# Bulk Modulus (GPa) = 43.03881 51.48120 47.26000
# Shear Modulus (GPa) = 30.74645 34.61490 32.68067
#
# Velocity S-wave (km/s) = 3.81975 4.05292 3.93806
# Velocity P-wave (km/s) = 6.31487 6.80673 6.56541
#
# Compressibility (1/GPa) = 0.02323484
#
# Stress axis : x y z
#
# Youngs Moduli (GPa) = 120.87203 46.52489 63.22934
#
# Poissons Ratio (x) = 0.18027 0.16372
# Poissons Ratio (y) = 0.46833 0.29781
# Poissons Ratio (z) = 0.31297 0.21913
#
# Static dielectric constant tensor:
#      x y z
#    x 4.590320 0.000000 0.000000 
#    y 0.000000 3.641790 0.000000 
#    z 0.000000 0.000000 3.882800 
# 
# 
# High freq. dielectric constant tensor:
#      x y z
#    x 1.842320 0.000000 0.000000 
#    y 0.000000 1.810590 0.000000 
#    z 0.000000 0.000000 1.831360 
# 
# From -- ./inp_files/27538.got.cif
#   From: 2010.06.25/outbox.cif.g09.slc.cpg/sg58_14_cif.got.tgz:27538.got - 2010.06.26 21:38:00.
