data_PCOD8237371
_publ_section_title
;
Structure prediction by ZEFSAII (Michael W. Deem and Ramdas Pophale) SiO2 
 PCOD8237371
Probable space group: P N N M
;
_chemical_formula_sum "Si O2"
_cell_formula_units_Z 48
_cell_length_a 8.719559
_cell_length_b 15.189092
_cell_length_c 18.011779
_cell_angle_alpha 90.000000
_cell_angle_beta 90.000000
_cell_angle_gamma 90.000000
_cell_volume 2385.519346
_symmetry_space_group_name_H-M "P N N M"
_symmetry_group_IT_number 58
_symmetry_cell_setting 'orthorhombic'
loop_
_space_group_symop_operation_xyz
x,y,z
-x,-y,z
1/2+x,1/2-y,1/2-z
1/2-x,1/2+y,1/2-z
-x,-y,-z
x,y,-z
1/2-x,1/2+y,1/2+z
1/2+x,1/2-y,1/2+z
loop_
_atom_site_type_symbol
_atom_site_label
_atom_site_fract_x
_atom_site_fract_y
_atom_site_fract_z
Si Si1 0.887166 0.140398 0.337885
Si Si2 0.069444 0.730114 0.138166
Si Si3 0.109285 0.424921 0.916430
Si Si4 0.127282 0.673547 0.297474
Si Si5 0.589237 0.235832 0.915025
Si Si6 0.441791 0.592290 0.307985
O O1 0.762466 0.071824 0.366797
O O2 0.798734 0.227944 0.306536
O O3 0.990107 0.096453 0.274658
O O4 0.997826 0.171907 0.405167
O O5 0.059990 0.673825 0.214504
O O6 0.238996 0.744431 0.108241
O O7 0.998658 0.827341 0.141981
O O8 0.971674 0.670815 0.081579
O O9 0.000000 0.500000 0.882721
O O10 0.155972 0.449628 0.000000
O O11 0.255958 0.597955 0.306394
O O12 0.990302 0.663370 0.359151
O O13 0.578522 0.202792 0.000000
O O14 0.500000 0.500000 0.343544
#
# Coordination Sequence:
#
# PCOD8237371 Si02
#       6
#     8   8   8   8   8   8
#     4   9  20  36  58  84 118 156 196 248 299 362
#     4  11  19  40  60  89 124 158 206 254 293 366
#     4  11  24  38  58  90 128 166 198 243 312 379
#     4   9  19  38  59  83 121 155 204 249 301 348
#     4  10  20  35  66  91 116 164 199 247 316 366
#     4  11  22  37  61  91 116 159 207 254 304 354
#
# _framework density 20.121403000000001
#
# number of rings (size 3 to 8) (size 9 to 14) (size 15 to 20)
#    1.000    0.833    3.333    1.000    4.667    0.000 
#    0.000    0.833    0.000    9.500    0.000    0.000 
#    0.000    0.000    0.000    0.000    0.000    0.000 
#
# Total GULP energy -594794.901604 kJ/mol
# GULP energy per Si atom -12391.560450 kJ/mol
# Density = 2.007561 g / cm^3
# Si number density = 20.121403 Si / 1000 Ang^3
#
#
#
# Elastic Constant Matrix: (Units=GPa)
#
#
# Indices 1 2 3 4 5 6 
#
# 1 85.5194 5.5153 23.3056 0.0000 0.0000 0.0000
# 2 5.5153 71.7556 1.7908 0.0000 0.0000 0.0000
# 3 23.3056 1.7908 85.9527 0.0000 0.0000 0.0000
# 4 0.0000 0.0000 0.0000 17.8159 0.0000 0.0000
# 5 0.0000 0.0000 0.0000 0.0000 6.2472 0.0000
# 6 0.0000 0.0000 0.0000 0.0000 0.0000 27.5161
#
#
#
# Elastic Compliance Matrix: (Units=1/GPa)
#
#
# Indices 1 2 3 4 5 6 
#
# 1 0.012683 -0.000889 -0.003420 0.000000 0.000000 0.000000
# 2 -0.000889 0.014006 -0.000051 0.000000 0.000000 0.000000
# 3 -0.003420 -0.000051 0.012563 0.000000 0.000000 0.000000
# 4 0.000000 0.000000 0.000000 0.056130 0.000000 0.000000
# 5 0.000000 0.000000 0.000000 0.000000 0.160072 0.000000
# 6 0.000000 0.000000 0.000000 0.000000 0.000000 0.036342
#
#
# Mechanical properties :
#
#
# Convention : Reuss Voigt Hill
#
# Bulk Modulus (GPa) = 32.75416 33.82790 33.29103
# Shear Modulus (GPa) = 16.09306 24.49023 20.29164
#
# Velocity S-wave (km/s) = 2.83114 3.49251 3.17907
# Velocity P-wave (km/s) = 5.19622 5.75430 5.48237
#
# Compressibility (1/GPa) = 0.03053047
#
# Stress axis : x y z
#
# Youngs Moduli (GPa) = 78.84742 71.39888 79.60029
#
# Poissons Ratio (x) = 0.06351 0.27226
# Poissons Ratio (y) = 0.07013 0.00403
# Poissons Ratio (z) = 0.26968 0.00361
#
# Static dielectric constant tensor:
#      x y z
#    x 3.557610 0.000000 0.000000 
#    y 0.000000 3.406140 0.000000 
#    z 0.000000 0.000000 3.471690 
# 
# 
# High freq. dielectric constant tensor:
#      x y z
#    x 1.793400 0.000000 0.000000 
#    y 0.000000 1.752500 0.000000 
#    z 0.000000 0.000000 1.769060 
# 
# From -- ./inp_files/25310.got.cif
#   From: 2010.06.25/outbox.cif.g09.slc.cpg/sg58_13_cif.got.tgz:25310.got - 2010.06.26 21:38:00.
