data_PCOD8237037
_publ_section_title
;
Structure prediction by ZEFSAII (Michael W. Deem and Ramdas Pophale) SiO2 
 PCOD8237037
Probable space group: P N N M
;
_chemical_formula_sum "Si O2"
_cell_formula_units_Z 48
_cell_length_a 18.511977
_cell_length_b 16.553508
_cell_length_c 8.609731
_cell_angle_alpha 90.000000
_cell_angle_beta 90.000000
_cell_angle_gamma 90.000000
_cell_volume 2638.350120
_symmetry_space_group_name_H-M "P N N M"
_symmetry_group_IT_number 58
_symmetry_cell_setting 'orthorhombic'
loop_
_space_group_symop_operation_xyz
x,y,z
-x,-y,z
1/2+x,1/2-y,1/2-z
1/2-x,1/2+y,1/2-z
-x,-y,-z
x,y,-z
1/2-x,1/2+y,1/2+z
1/2+x,1/2-y,1/2+z
loop_
_atom_site_type_symbol
_atom_site_label
_atom_site_fract_x
_atom_site_fract_y
_atom_site_fract_z
Si Si1 0.700446 0.421703 0.678640
Si Si2 0.918773 0.013795 0.681640
Si Si3 0.283746 0.936508 0.678227
Si Si4 0.422336 0.024613 0.320544
Si Si5 0.670795 0.659782 0.681945
Si Si6 0.336818 0.172050 0.817229
O O1 0.678200 0.412719 0.500000
O O2 0.627075 0.432005 0.778905
O O3 0.746719 0.502342 0.702411
O O4 0.753510 0.348891 0.731108
O O5 0.916395 0.031315 0.500000
O O6 0.886372 0.091338 0.768907
O O7 0.000000 0.000000 0.740529
O O8 0.261761 0.955799 0.500000
O O9 0.248982 0.851025 0.730057
O O10 0.370083 0.945771 0.698029
O O11 0.429479 0.049698 0.500000
O O12 0.391538 0.101270 0.230070
O O13 0.500000 0.000000 0.251011
O O14 0.683158 0.656701 0.500000
O O15 0.639524 0.746668 0.730399
O O16 0.342800 0.184489 0.000000
#
# Coordination Sequence:
#
# PCOD8237037 Si02
#       6
#     8   8   8   8   8   8
#     4   9  17  30  50  73  96 126 164 203 241 289
#     4  10  20  34  53  76 103 134 166 203 250 303
#     4   9  16  29  50  72  97 128 162 201 242 289
#     4   9  18  33  53  77 104 135 169 203 246 301
#     4  11  21  33  52  75 100 131 169 211 253 298
#     4  10  20  34  52  75 102 131 168 211 254 297
#
# _framework density 18.193189
#
# number of rings (size 3 to 8) (size 9 to 14) (size 15 to 20)
#    0.000    2.333    0.000    5.500    0.000    4.333 
#    0.000    1.667    0.000    2.000    0.000    0.000 
#    0.000    0.000    0.000    0.000    0.000    0.000 
#
# Total GULP energy -594798.702055 kJ/mol
# GULP energy per Si atom -12391.639626 kJ/mol
# Density = 1.815178 g / cm^3
# Si number density = 18.193189 Si / 1000 Ang^3
#
#
#
# Elastic Constant Matrix: (Units=GPa)
#
#
# Indices 1 2 3 4 5 6 
#
# 1 145.7582 47.4205 42.1412 0.0000 0.0000 0.0000
# 2 47.4205 84.5748 34.8669 0.0000 0.0000 0.0000
# 3 42.1412 34.8669 74.4695 0.0000 0.0000 0.0000
# 4 0.0000 0.0000 0.0000 25.1418 0.0000 0.0000
# 5 0.0000 0.0000 0.0000 0.0000 22.8757 0.0000
# 6 0.0000 0.0000 0.0000 0.0000 0.0000 17.7365
#
#
#
# Elastic Compliance Matrix: (Units=1/GPa)
#
#
# Indices 1 2 3 4 5 6 
#
# 1 0.009035 -0.003666 -0.003397 0.000000 0.000000 0.000000
# 2 -0.003666 0.016139 -0.005482 0.000000 0.000000 0.000000
# 3 -0.003397 -0.005482 0.017917 0.000000 0.000000 0.000000
# 4 0.000000 0.000000 0.000000 0.039774 0.000000 0.000000
# 5 0.000000 0.000000 0.000000 0.000000 0.043715 0.000000
# 6 0.000000 0.000000 0.000000 0.000000 0.000000 0.056381
#
#
# Mechanical properties :
#
#
# Convention : Reuss Voigt Hill
#
# Bulk Modulus (GPa) = 55.54684 61.51774 58.53229
# Shear Modulus (GPa) = 23.35888 25.17572 24.26730
#
# Velocity S-wave (km/s) = 3.58709 3.72398 3.65618
# Velocity P-wave (km/s) = 6.91045 7.23725 7.07573
#
# Compressibility (1/GPa) = 0.01800282
#
# Stress axis : x y z
#
# Youngs Moduli (GPa) = 110.67696 61.96072 55.81243
#
# Poissons Ratio (x) = 0.22713 0.18957
# Poissons Ratio (y) = 0.40571 0.30597
# Poissons Ratio (z) = 0.37593 0.33967
#
# Static dielectric constant tensor:
#      x y z
#    x 3.639940 0.000000 0.000000 
#    y 0.000000 3.350520 0.000000 
#    z 0.000000 0.000000 3.332170 
# 
# 
# High freq. dielectric constant tensor:
#      x y z
#    x 1.698860 0.000000 0.000000 
#    y 0.000000 1.678510 0.000000 
#    z 0.000000 0.000000 1.714570 
# 
# From -- ./inp_files/7863.got.cif
#   From: 2010.06.25/outbox.cif.g09.slc.cpg/sg58_4_cif.got.tgz:7863.got - 2010.06.26 21:38:00.
