data_PCOD8237592
_publ_section_title
;
Structure prediction by ZEFSAII (Michael W. Deem and Ramdas Pophale) SiO2 
 PCOD8237592
Probable space group: P N N M
;
_chemical_formula_sum "Si O2"
_cell_formula_units_Z 48
_cell_length_a 9.475251
_cell_length_b 28.387131
_cell_length_c 8.981374
_cell_angle_alpha 90.000000
_cell_angle_beta 90.000000
_cell_angle_gamma 90.000000
_cell_volume 2415.766791
_symmetry_space_group_name_H-M "P N N M"
_symmetry_group_IT_number 58
_symmetry_cell_setting 'orthorhombic'
loop_
_space_group_symop_operation_xyz
x,y,z
-x,-y,z
1/2+x,1/2-y,1/2-z
1/2-x,1/2+y,1/2-z
-x,-y,-z
x,y,-z
1/2-x,1/2+y,1/2+z
1/2+x,1/2-y,1/2+z
loop_
_atom_site_type_symbol
_atom_site_label
_atom_site_fract_x
_atom_site_fract_y
_atom_site_fract_z
Si Si1 0.495199 0.202976 0.324530
Si Si2 0.802214 0.382292 0.172915
Si Si3 0.013537 0.866073 0.672279
Si Si4 0.854080 0.481002 0.324321
Si Si5 0.102326 0.956376 0.165746
Si Si6 0.200948 0.788922 0.824335
O O1 0.521225 0.205572 0.500000
O O2 0.427661 0.152826 0.277629
O O3 0.643621 0.210781 0.244948
O O4 0.383534 0.242541 0.273404
O O5 0.651840 0.357103 0.206033
O O6 0.812070 0.430796 0.259668
O O7 0.813440 0.394341 0.000000
O O8 0.048861 0.856945 0.500000
O O9 0.049185 0.919631 0.712971
O O10 0.110785 0.833323 0.772351
O O11 0.857414 0.473740 0.500000
O O12 0.749869 0.522859 0.277976
O O13 0.000000 0.500000 0.258927
O O14 0.114160 0.933391 0.000000
O O15 0.000000 0.000000 0.157111
O O16 0.220083 0.790857 0.000000
#
# Coordination Sequence:
#
# PCOD8237592 Si02
#       6
#     8   8   8   8   8   8
#     4  10  23  43  64  90 123 156 197 247 299 357
#     4  10  22  40  61  87 120 159 201 248 300 357
#     4  11  23  39  62  90 124 161 204 251 301 359
#     4  10  22  38  57  84 120 159 201 249 298 355
#     4  10  20  37  59  85 120 159 204 252 297 355
#     4  11  24  42  66  93 123 159 199 245 301 361
#
# _framework density 19.869467
#
# number of rings (size 3 to 8) (size 9 to 14) (size 15 to 20)
#    0.000    1.667    1.667    2.000    2.333    5.333 
#    0.000    0.000    0.000    0.000    0.000    0.000 
#    0.000    0.000    0.000    0.000    0.000    0.000 
#
# Total GULP energy -595239.128063 kJ/mol
# GULP energy per Si atom -12400.815168 kJ/mol
# Density = 1.982424 g / cm^3
# Si number density = 19.869467 Si / 1000 Ang^3
#
#
#
# Elastic Constant Matrix: (Units=GPa)
#
#
# Indices 1 2 3 4 5 6 
#
# 1 134.5401 24.2398 40.4762 0.0000 0.0000 0.0000
# 2 24.2398 65.8872 30.2656 0.0000 0.0000 0.0000
# 3 40.4762 30.2656 43.1921 0.0000 0.0000 0.0000
# 4 0.0000 0.0000 0.0000 30.3550 0.0000 0.0000
# 5 0.0000 0.0000 0.0000 0.0000 27.9013 0.0000
# 6 0.0000 0.0000 0.0000 0.0000 0.0000 32.0088
#
#
#
# Elastic Compliance Matrix: (Units=1/GPa)
#
#
# Indices 1 2 3 4 5 6 
#
# 1 0.010392 0.000959 -0.010410 0.000000 0.000000 0.000000
# 2 0.000959 0.022470 -0.016644 0.000000 0.000000 0.000000
# 3 -0.010410 -0.016644 0.044571 0.000000 0.000000 0.000000
# 4 0.000000 0.000000 0.000000 0.032944 0.000000 0.000000
# 5 0.000000 0.000000 0.000000 0.000000 0.035841 0.000000
# 6 0.000000 0.000000 0.000000 0.000000 0.000000 0.031241
#
#
# Mechanical properties :
#
#
# Convention : Reuss Voigt Hill
#
# Bulk Modulus (GPa) = 39.61627 48.17586 43.89607
# Shear Modulus (GPa) = 21.00284 27.96222 24.48253
#
# Velocity S-wave (km/s) = 3.25474 3.75546 3.51403
# Velocity P-wave (km/s) = 5.84004 6.56533 6.21327
#
# Compressibility (1/GPa) = 0.02524215
#
# Stress axis : x y z
#
# Youngs Moduli (GPa) = 96.22865 44.50354 22.43620
#
# Poissons Ratio (x) = -0.04267 0.23357
# Poissons Ratio (y) = -0.09227 0.37343
# Poissons Ratio (z) = 1.00178 0.74071
#
# Static dielectric constant tensor:
#      x y z
#    x 3.869240 0.000000 0.000000 
#    y 0.000000 3.527050 0.000000 
#    z 0.000000 0.000000 3.539030 
# 
# 
# High freq. dielectric constant tensor:
#      x y z
#    x 1.794330 0.000000 0.000000 
#    y 0.000000 1.779950 0.000000 
#    z 0.000000 0.000000 1.767910 
# 
# From -- ./inp_files/2851.got.cif
#   From: 2010.06.25/outbox.cif.g09.slc.cpg/sg58_2_cif.got.tgz:2851.got - 2010.06.26 21:38:00.
