data_PCOD8237453
_publ_section_title
;
Structure prediction by ZEFSAII (Michael W. Deem and Ramdas Pophale) SiO2 
 PCOD8237453
Probable space group: P N N M
;
_chemical_formula_sum "Si O2"
_cell_formula_units_Z 48
_cell_length_a 30.443024
_cell_length_b 9.369144
_cell_length_c 8.517400
_cell_angle_alpha 90.000000
_cell_angle_beta 90.000000
_cell_angle_gamma 90.000000
_cell_volume 2429.376059
_symmetry_space_group_name_H-M "P N N M"
_symmetry_group_IT_number 58
_symmetry_cell_setting 'orthorhombic'
loop_
_space_group_symop_operation_xyz
x,y,z
-x,-y,z
1/2+x,1/2-y,1/2-z
1/2-x,1/2+y,1/2-z
-x,-y,-z
x,y,-z
1/2-x,1/2+y,1/2+z
1/2+x,1/2-y,1/2+z
loop_
_atom_site_type_symbol
_atom_site_label
_atom_site_fract_x
_atom_site_fract_y
_atom_site_fract_z
Si Si1 0.958777 0.913844 0.179221
Si Si2 0.135061 0.086749 0.317416
Si Si3 0.135555 0.392495 0.815101
Si Si4 0.208023 0.894323 0.817256
Si Si5 0.709283 0.915899 0.817505
Si Si6 0.539266 0.086448 0.321863
O O1 0.916004 0.942559 0.283451
O O2 0.973298 0.750877 0.187908
O O3 0.948455 0.959635 0.000000
O O4 0.000000 0.000000 0.248813
O O5 0.144870 0.069564 0.500000
O O6 0.150411 0.244411 0.264382
O O7 0.162071 0.967463 0.224291
O O8 0.169223 0.518434 0.780568
O O9 0.087635 0.438525 0.746839
O O10 0.131935 0.361730 0.000000
O O11 0.214700 0.749812 0.720667
O O12 0.246484 0.002895 0.768437
O O13 0.209235 0.856400 0.000000
O O14 0.698952 0.935829 0.000000
O O15 0.541853 0.030513 0.500000
O O16 0.500000 0.000000 0.233908
#
# Coordination Sequence:
#
# PCOD8237453 Si02
#       6
#     8   8   8   8   8   8
#     4   9  18  33  54  79 109 147 190 233 279 337
#     4  11  22  37  58  83 115 151 190 240 290 334
#     4  10  20  36  59  84 113 151 192 233 282 341
#     4  11  24  41  61  84 113 150 189 229 280 345
#     4  11  24  40  60  87 116 146 185 235 287 337
#     4   8  15  29  50  77 106 139 182 227 268 317
#
# _framework density 19.758158999999999
#
# number of rings (size 3 to 8) (size 9 to 14) (size 15 to 20)
#    0.000    2.000    0.000    5.000    0.000    7.000 
#    0.000    3.333    0.000   12.500    0.000    0.000 
#    0.000    0.000    0.000    0.000    0.000    0.000 
#
# Total GULP energy -595275.129004 kJ/mol
# GULP energy per Si atom -12401.565188 kJ/mol
# Density = 1.971319 g / cm^3
# Si number density = 19.758159 Si / 1000 Ang^3
#
#
#
# Elastic Constant Matrix: (Units=GPa)
#
#
# Indices 1 2 3 4 5 6 
#
# 1 110.0943 60.7404 19.0484 0.0000 0.0000 0.0000
# 2 60.7404 97.2497 9.2859 0.0000 0.0000 0.0000
# 3 19.0484 9.2859 44.2809 0.0000 0.0000 0.0000
# 4 0.0000 0.0000 0.0000 28.7035 0.0000 0.0000
# 5 0.0000 0.0000 0.0000 0.0000 23.8970 0.0000
# 6 0.0000 0.0000 0.0000 0.0000 0.0000 46.0016
#
#
#
# Elastic Compliance Matrix: (Units=1/GPa)
#
#
# Indices 1 2 3 4 5 6 
#
# 1 0.014682 -0.008742 -0.004482 0.000000 0.000000 0.000000
# 2 -0.008742 0.015698 0.000469 0.000000 0.000000 0.000000
# 3 -0.004482 0.000469 0.024413 0.000000 0.000000 0.000000
# 4 0.000000 0.000000 0.000000 0.034839 0.000000 0.000000
# 5 0.000000 0.000000 0.000000 0.000000 0.041846 0.000000
# 6 0.000000 0.000000 0.000000 0.000000 0.000000 0.021738
#
#
# Mechanical properties :
#
#
# Convention : Reuss Voigt Hill
#
# Bulk Modulus (GPa) = 34.15152 47.75270 40.95211
# Shear Modulus (GPa) = 26.52683 30.55710 28.54197
#
# Velocity S-wave (km/s) = 3.66809 3.93689 3.80487
# Velocity P-wave (km/s) = 5.93820 6.69974 6.33043
#
# Compressibility (1/GPa) = 0.02928127
#
# Stress axis : x y z
#
# Youngs Moduli (GPa) = 68.11211 63.70196 40.96174
#
# Poissons Ratio (x) = 0.55688 0.18361
# Poissons Ratio (y) = 0.59543 -0.01919
# Poissons Ratio (z) = 0.30531 -0.02985
#
# Static dielectric constant tensor:
#      x y z
#    x 3.791340 0.000000 0.000000 
#    y 0.000000 3.549540 0.000000 
#    z 0.000000 0.000000 3.381080 
# 
# 
# High freq. dielectric constant tensor:
#      x y z
#    x 1.784210 0.000000 0.000000 
#    y 0.000000 1.768590 0.000000 
#    z 0.000000 0.000000 1.752540 
# 
# From -- ./inp_files/10753.got.cif
#   From: 2010.06.25/outbox.cif.g09.slc.cpg/sg58_6_cif.got.tgz:10753.got - 2010.06.26 21:38:00.
