data_PCOD8237139
_publ_section_title
;
Structure prediction by ZEFSAII (Michael W. Deem and Ramdas Pophale) SiO2 
 PCOD8237139
Probable space group: P N N M
;
_chemical_formula_sum "Si O2"
_cell_formula_units_Z 48
_cell_length_a 17.715930
_cell_length_b 16.466775
_cell_length_c 8.926119
_cell_angle_alpha 90.000000
_cell_angle_beta 90.000000
_cell_angle_gamma 90.000000
_cell_volume 2603.965221
_symmetry_space_group_name_H-M "P N N M"
_symmetry_group_IT_number 58
_symmetry_cell_setting 'orthorhombic'
loop_
_space_group_symop_operation_xyz
x,y,z
-x,-y,z
1/2+x,1/2-y,1/2-z
1/2-x,1/2+y,1/2-z
-x,-y,-z
x,y,-z
1/2-x,1/2+y,1/2+z
1/2+x,1/2-y,1/2+z
loop_
_atom_site_type_symbol
_atom_site_label
_atom_site_fract_x
_atom_site_fract_y
_atom_site_fract_z
Si Si1 0.329567 0.827270 0.175084
Si Si2 0.098874 0.179631 0.174839
Si Si3 0.986391 0.591802 0.325070
Si Si4 0.441584 0.240202 0.324660
Si Si5 0.325244 0.353723 0.823872
Si Si6 0.086166 0.015089 0.673855
O O1 0.344675 0.736945 0.234268
O O2 0.400279 0.885091 0.212637
O O3 0.258295 0.863835 0.260231
O O4 0.312393 0.823502 0.000000
O O5 0.012696 0.202542 0.214881
O O6 0.116729 0.088598 0.225920
O O7 0.115423 0.190029 0.000000
O O8 0.003623 0.602397 0.500000
O O9 0.000000 0.500000 0.271070
O O10 0.043972 0.649784 0.236760
O O11 0.426859 0.234725 0.500000
O O12 0.367433 0.276813 0.247972
O O13 0.367811 0.435898 0.780016
O O14 0.322829 0.339774 0.000000
O O15 0.095956 0.037683 0.500000
O O16 0.000000 0.000000 0.715450
#
# Coordination Sequence:
#
# PCOD8237139 Si02
#       6
#     8   8   8   8   8   8
#     4  10  21  38  59  81 112 148 186 234 287 338
#     4  10  20  35  57  83 111 146 187 228 276 336
#     4   9  19  38  62  84 108 146 192 235 281 337
#     4  10  20  34  56  84 112 145 185 230 279 333
#     4  11  22  37  57  82 115 151 188 233 284 339
#     4  10  20  35  57  84 114 150 190 230 279 335
#
# _framework density 18.433426000000001
#
# number of rings (size 3 to 8) (size 9 to 14) (size 15 to 20)
#    0.000    2.000    1.667    2.000    0.000    4.000 
#    3.000    0.000    0.000    0.000    0.000    0.000 
#    0.000    0.000    0.000    0.000    0.000    0.000 
#
# Total GULP energy -595455.224406 kJ/mol
# GULP energy per Si atom -12405.317175 kJ/mol
# Density = 1.839147 g / cm^3
# Si number density = 18.433426 Si / 1000 Ang^3
#
#
#
# Elastic Constant Matrix: (Units=GPa)
#
#
# Indices 1 2 3 4 5 6 
#
# 1 93.7518 57.8592 39.3328 0.0000 0.0000 0.0000
# 2 57.8592 143.5945 58.1328 0.0000 0.0000 0.0000
# 3 39.3328 58.1328 74.8996 0.0000 0.0000 0.0000
# 4 0.0000 0.0000 0.0000 30.2147 0.0000 0.0000
# 5 0.0000 0.0000 0.0000 0.0000 33.2103 0.0000
# 6 0.0000 0.0000 0.0000 0.0000 0.0000 22.6044
#
#
#
# Elastic Compliance Matrix: (Units=1/GPa)
#
#
# Indices 1 2 3 4 5 6 
#
# 1 0.015265 -0.004237 -0.004728 0.000000 0.000000 0.000000
# 2 -0.004237 0.011331 -0.006569 0.000000 0.000000 0.000000
# 3 -0.004728 -0.006569 0.020933 0.000000 0.000000 0.000000
# 4 0.000000 0.000000 0.000000 0.033096 0.000000 0.000000
# 5 0.000000 0.000000 0.000000 0.000000 0.030111 0.000000
# 6 0.000000 0.000000 0.000000 0.000000 0.000000 0.044239
#
#
# Mechanical properties :
#
#
# Convention : Reuss Voigt Hill
#
# Bulk Modulus (GPa) = 60.75208 69.21063 64.98135
# Shear Modulus (GPa) = 26.10563 27.66728 26.88646
#
# Velocity S-wave (km/s) = 3.76734 3.87839 3.82327
# Velocity P-wave (km/s) = 7.20784 7.59497 7.40394
#
# Compressibility (1/GPa) = 0.01646034
#
# Stress axis : x y z
#
# Youngs Moduli (GPa) = 65.51084 88.25573 47.77191
#
# Poissons Ratio (x) = 0.37391 0.22586
# Poissons Ratio (y) = 0.27755 0.31383
# Poissons Ratio (z) = 0.30973 0.57979
#
# Static dielectric constant tensor:
#      x y z
#    x 3.324440 0.000000 0.000000 
#    y 0.000000 3.422000 0.000000 
#    z 0.000000 0.000000 3.380900 
# 
# 
# High freq. dielectric constant tensor:
#      x y z
#    x 1.704100 0.000000 0.000000 
#    y 0.000000 1.717240 0.000000 
#    z 0.000000 0.000000 1.723380 
# 
# From -- ./inp_files/5751.got.cif
#   From: 2010.06.25/outbox.cif.g09.slc.cpg/sg58_3_cif.got.tgz:5751.got - 2010.06.26 21:38:00.
