data_PCOD8237480
_publ_section_title
;
Structure prediction by ZEFSAII (Michael W. Deem and Ramdas Pophale) SiO2 
 PCOD8237480
Probable space group: P N N M
;
_chemical_formula_sum "Si O2"
_cell_formula_units_Z 64
_cell_length_a 19.663119
_cell_length_b 18.370664
_cell_length_c 8.856687
_cell_angle_alpha 90.000000
_cell_angle_beta 90.000000
_cell_angle_gamma 90.000000
_cell_volume 3199.252797
_symmetry_space_group_name_H-M "P N N M"
_symmetry_group_IT_number 58
_symmetry_cell_setting 'orthorhombic'
loop_
_space_group_symop_operation_xyz
x,y,z
-x,-y,z
1/2+x,1/2-y,1/2-z
1/2-x,1/2+y,1/2-z
-x,-y,-z
x,y,-z
1/2-x,1/2+y,1/2+z
1/2+x,1/2-y,1/2+z
loop_
_atom_site_type_symbol
_atom_site_label
_atom_site_fract_x
_atom_site_fract_y
_atom_site_fract_z
Si Si1 0.551098 0.565436 0.325258
Si Si2 0.199902 0.979864 0.821786
Si Si3 0.926804 0.477649 0.179550
Si Si4 0.129159 0.676538 0.179155
Si Si5 0.179774 0.404431 0.177749
Si Si6 0.614539 0.247145 0.324101
Si Si7 0.025001 0.784275 0.677667
Si Si8 0.731541 0.358332 0.322747
O O1 0.500000 0.500000 0.298617
O O2 0.552247 0.589808 0.500000
O O3 0.624195 0.538402 0.268300
O O4 0.525922 0.631879 0.224626
O O5 0.247660 0.917709 0.753621
O O6 0.221574 0.059609 0.762078
O O7 0.205018 0.978683 0.000000
O O8 0.906365 0.397703 0.237208
O O9 0.872633 0.535661 0.241351
O O10 0.000000 0.500000 0.246531
O O11 0.928945 0.479665 0.000000
O O12 0.088633 0.744364 0.245831
O O13 0.206622 0.679529 0.235480
O O14 0.128477 0.681832 0.000000
O O15 0.154601 0.325024 0.224623
O O16 0.188668 0.411706 0.000000
O O17 0.594507 0.244804 0.500000
O O18 0.545716 0.249160 0.229487
O O19 0.661959 0.315830 0.286623
O O20 0.032032 0.776442 0.500000
O O21 0.747619 0.355636 0.500000
#
# Coordination Sequence:
#
# PCOD8237480 Si02
#       8
#     8   8   8   8   8   8   8   8
#     4  10  22  43  69  93 122 165 212 255 311 378
#     4  10  21  37  60  89 124 161 199 252 306 366
#     4   9  17  32  56  84 114 151 198 244 289 351
#     4  11  22  38  61  88 124 167 206 250 305 370
#     4  10  20  36  59  89 120 156 203 255 305 363
#     4  10  22  41  65  88 118 162 207 254 316 381
#     4  12  26  42  62  92 128 162 207 264 314 368
#     4  10  21  39  62  91 126 162 203 252 311 372
#
# _framework density 20.004670999999998
#
# number of rings (size 3 to 8) (size 9 to 14) (size 15 to 20)
#    0.000    1.750    1.250    3.000    1.750    5.750 
#    0.000    1.250    0.000    1.875    0.000    0.000 
#    0.000    0.000    0.000    0.000    0.000    0.000 
#
# Total GULP energy -793938.456273 kJ/mol
# GULP energy per Si atom -12405.288379 kJ/mol
# Density = 1.995914 g / cm^3
# Si number density = 20.004671 Si / 1000 Ang^3
#
#
#
# Elastic Constant Matrix: (Units=GPa)
#
#
# Indices 1 2 3 4 5 6 
#
# 1 133.7097 33.3859 34.1102 0.0000 0.0000 0.0000
# 2 33.3859 95.0195 26.1070 0.0000 0.0000 0.0000
# 3 34.1102 26.1070 51.0372 0.0000 0.0000 0.0000
# 4 0.0000 0.0000 0.0000 24.5179 0.0000 0.0000
# 5 0.0000 0.0000 0.0000 0.0000 32.3453 0.0000
# 6 0.0000 0.0000 0.0000 0.0000 0.0000 33.8732
#
#
#
# Elastic Compliance Matrix: (Units=1/GPa)
#
#
# Indices 1 2 3 4 5 6 
#
# 1 0.009276 -0.001810 -0.005274 0.000000 0.000000 0.000000
# 2 -0.001810 0.012598 -0.005235 0.000000 0.000000 0.000000
# 3 -0.005274 -0.005235 0.025796 0.000000 0.000000 0.000000
# 4 0.000000 0.000000 0.000000 0.040787 0.000000 0.000000
# 5 0.000000 0.000000 0.000000 0.000000 0.030916 0.000000
# 6 0.000000 0.000000 0.000000 0.000000 0.000000 0.029522
#
#
# Mechanical properties :
#
#
# Convention : Reuss Voigt Hill
#
# Bulk Modulus (GPa) = 43.41522 51.88584 47.65053
# Shear Modulus (GPa) = 27.59228 30.55817 29.07522
#
# Velocity S-wave (km/s) = 3.71791 3.91263 3.81651
# Velocity P-wave (km/s) = 6.33878 6.81210 6.57970
#
# Compressibility (1/GPa) = 0.02303340
#
# Stress axis : x y z
#
# Youngs Moduli (GPa) = 107.80212 79.37489 38.76608
#
# Poissons Ratio (x) = 0.14370 0.20444
# Poissons Ratio (y) = 0.19516 0.20292
# Poissons Ratio (z) = 0.56851 0.41549
#
# Static dielectric constant tensor:
#      x y z
#    x 3.762350 0.000000 0.000000 
#    y 0.000000 3.785760 0.000000 
#    z 0.000000 0.000000 3.365990 
# 
# 
# High freq. dielectric constant tensor:
#      x y z
#    x 1.796510 0.000000 0.000000 
#    y 0.000000 1.792770 0.000000 
#    z 0.000000 0.000000 1.754810 
# 
# From -- ./inp_files/9216.got.cif
#   From: 2010.06.25/outbox.cif.g09.slc.cpg/sg58_5_cif.got.tgz:9216.got - 2010.06.26 21:38:00.
