data_PCOD8237975
_publ_section_title
;
Structure prediction by ZEFSAII (Michael W. Deem and Ramdas Pophale) SiO2 
 PCOD8237975
Probable space group: P N N M
;
_chemical_formula_sum "Si O2"
_cell_formula_units_Z 64
_cell_length_a 14.709149
_cell_length_b 25.442710
_cell_length_c 9.020508
_cell_angle_alpha 90.000000
_cell_angle_beta 90.000000
_cell_angle_gamma 90.000000
_cell_volume 3375.840438
_symmetry_space_group_name_H-M "P N N M"
_symmetry_group_IT_number 58
_symmetry_cell_setting 'orthorhombic'
loop_
_space_group_symop_operation_xyz
x,y,z
-x,-y,z
1/2+x,1/2-y,1/2-z
1/2-x,1/2+y,1/2-z
-x,-y,-z
x,y,-z
1/2-x,1/2+y,1/2+z
1/2+x,1/2-y,1/2+z
loop_
_atom_site_type_symbol
_atom_site_label
_atom_site_fract_x
_atom_site_fract_y
_atom_site_fract_z
Si Si1 0.647259 0.629659 0.829027
Si Si2 0.997533 0.673160 0.825524
Si Si3 0.002417 0.780680 0.668400
Si Si4 0.665265 0.897860 0.327720
Si Si5 0.103364 0.499668 0.325236
Si Si6 0.866606 0.869889 0.671140
Si Si7 0.333427 0.884970 0.175263
Si Si8 0.006354 0.938383 0.830406
O O1 0.589406 0.682388 0.807799
O O2 0.740097 0.636532 0.740660
O O3 0.591997 0.580507 0.764777
O O4 0.668693 0.618358 0.000000
O O5 0.011863 0.733569 0.783256
O O6 0.912054 0.651230 0.738662
O O7 0.085779 0.640706 0.773572
O O8 0.981061 0.668459 0.000000
O O9 0.999374 0.759326 0.500000
O O10 0.910180 0.812926 0.704986
O O11 0.655952 0.910459 0.500000
O O12 0.759918 0.868704 0.291512
O O13 0.660837 0.953184 0.244135
O O14 0.103624 0.507460 0.500000
O O15 0.150643 0.445348 0.277418
O O16 0.000000 0.500000 0.264485
O O17 0.885561 0.884653 0.500000
O O18 0.912601 0.914018 0.772168
O O19 0.332256 0.878813 0.000000
O O20 0.021235 0.921249 0.000000
O O21 0.000000 0.000000 0.812872
#
# Coordination Sequence:
#
# PCOD8237975 Si02
#       8
#     8   8   8   8   8   8   8   8
#     4  10  22  40  61  86 117 152 194 242 294 352
#     4  11  23  38  59  88 119 152 198 244 289 346
#     4   9  20  40  62  83 114 152 191 239 294 347
#     4  10  22  38  58  86 117 151 191 238 290 345
#     4  10  21  38  58  82 116 155 193 235 287 345
#     4   9  20  39  59  83 114 151 194 238 293 349
#     4  11  23  39  60  86 119 157 196 240 292 347
#     4  10  21  36  55  83 117 152 193 238 287 345
#
# _framework density 18.958241999999998
#
# number of rings (size 3 to 8) (size 9 to 14) (size 15 to 20)
#    0.000    2.000    1.250    2.250    1.750    6.750 
#    0.000    1.250    0.000    0.000    0.000    0.000 
#    0.000    0.000    0.000    0.000    0.000    0.000 
#
# Total GULP energy -793879.527866 kJ/mol
# GULP energy per Si atom -12404.367623 kJ/mol
# Density = 1.891509 g / cm^3
# Si number density = 18.958242 Si / 1000 Ang^3
#
#
#
# Elastic Constant Matrix: (Units=GPa)
#
#
# Indices 1 2 3 4 5 6 
#
# 1 132.1797 45.0047 38.6562 0.0000 0.0000 0.0000
# 2 45.0047 102.4318 48.5933 0.0000 0.0000 0.0000
# 3 38.6562 48.5933 73.0438 0.0000 0.0000 0.0000
# 4 0.0000 0.0000 0.0000 31.1115 0.0000 0.0000
# 5 0.0000 0.0000 0.0000 0.0000 6.7992 0.0000
# 6 0.0000 0.0000 0.0000 0.0000 0.0000 9.8692
#
#
#
# Elastic Compliance Matrix: (Units=1/GPa)
#
#
# Indices 1 2 3 4 5 6 
#
# 1 0.009397 -0.002585 -0.003253 0.000000 0.000000 0.000000
# 2 -0.002585 0.014976 -0.008595 0.000000 0.000000 0.000000
# 3 -0.003253 -0.008595 0.021130 0.000000 0.000000 0.000000
# 4 0.000000 0.000000 0.000000 0.032142 0.000000 0.000000
# 5 0.000000 0.000000 0.000000 0.000000 0.147076 0.000000
# 6 0.000000 0.000000 0.000000 0.000000 0.000000 0.101325
#
#
# Mechanical properties :
#
#
# Convention : Reuss Voigt Hill
#
# Bulk Modulus (GPa) = 60.10955 63.57374 61.84165
# Shear Modulus (GPa) = 13.87125 21.24940 17.56033
#
# Velocity S-wave (km/s) = 2.70788 3.35155 3.04676
# Velocity P-wave (km/s) = 6.44608 6.97019 6.71325
#
# Compressibility (1/GPa) = 0.01663629
#
# Stress axis : x y z
#
# Youngs Moduli (GPa) = 106.41521 66.77452 47.32688
#
# Poissons Ratio (x) = 0.17264 0.15396
# Poissons Ratio (y) = 0.27514 0.40675
# Poissons Ratio (z) = 0.34618 0.57389
#
# Static dielectric constant tensor:
#      x y z
#    x 3.692240 0.000000 0.000000 
#    y 0.000000 3.388160 0.000000 
#    z 0.000000 0.000000 3.515270 
# 
# 
# High freq. dielectric constant tensor:
#      x y z
#    x 1.745110 0.000000 0.000000 
#    y 0.000000 1.735440 0.000000 
#    z 0.000000 0.000000 1.741220 
# 
# From -- ./inp_files/6947.got.cif
#   From: 2010.06.25/outbox.cif.g09.slc.cpg/sg58_4_cif.got.tgz:6947.got - 2010.06.26 21:38:00.
