data_PCOD8237110
_publ_section_title
;
Structure prediction by ZEFSAII (Michael W. Deem and Ramdas Pophale) SiO2 
 PCOD8237110
Probable space group: P N N M
;
_chemical_formula_sum "Si O2"
_cell_formula_units_Z 40
_cell_length_a 18.110013
_cell_length_b 13.130415
_cell_length_c 9.050011
_cell_angle_alpha 90.000000
_cell_angle_beta 90.000000
_cell_angle_gamma 90.000000
_cell_volume 2152.020092
_symmetry_space_group_name_H-M "P N N M"
_symmetry_group_IT_number 58
_symmetry_cell_setting 'orthorhombic'
loop_
_space_group_symop_operation_xyz
x,y,z
-x,-y,z
1/2+x,1/2-y,1/2-z
1/2-x,1/2+y,1/2-z
-x,-y,-z
x,y,-z
1/2-x,1/2+y,1/2+z
1/2+x,1/2-y,1/2+z
loop_
_atom_site_type_symbol
_atom_site_label
_atom_site_fract_x
_atom_site_fract_y
_atom_site_fract_z
Si Si1 0.024746 0.187352 0.670464
Si Si2 0.684984 0.826301 0.327606
Si Si3 0.666527 0.392506 0.327143
Si Si4 0.386306 0.386095 0.669996
Si Si5 0.046399 0.596924 0.329743
O O1 0.037524 0.160532 0.500000
O O2 0.099109 0.169673 0.759507
O O3 0.959817 0.115150 0.731296
O O4 0.004023 0.304615 0.694760
O O5 0.695608 0.846537 0.500000
O O6 0.759248 0.852553 0.244412
O O7 0.666436 0.708716 0.292696
O O8 0.619689 0.898225 0.268732
O O9 0.669074 0.370398 0.500000
O O10 0.658872 0.512334 0.292903
O O11 0.412078 0.383017 0.500000
O O12 0.070767 0.586149 0.500000
O O13 0.000000 0.500000 0.276304
#
# Coordination Sequence:
#
# PCOD8237110 Si02
#       5
#     8   8   8   8   8
#     4  10  20  34  55  82 107 134 175 221 259 304
#     4  10  21  37  55  78 107 136 175 223 262 301
#     4  11  22  36  55  78 107 142 176 211 262 321
#     4   9  20  38  56  74 103 142 175 210 261 317
#     4   9  19  37  58  78 106 144 178 210 258 318
#
# _framework density 18.587185999999999
#
# number of rings (size 3 to 8) (size 9 to 14) (size 15 to 20)
#    0.000    2.200    0.000    2.400    0.000    7.600 
#    0.000    8.000    0.000    0.000    0.000    0.000 
#    0.000    0.000    0.000    0.000    0.000    0.000 
#
# Total GULP energy -496199.856215 kJ/mol
# GULP energy per Si atom -12404.996405 kJ/mol
# Density = 1.854488 g / cm^3
# Si number density = 18.587186 Si / 1000 Ang^3
#
#
#
# Elastic Constant Matrix: (Units=GPa)
#
#
# Indices 1 2 3 4 5 6 
#
# 1 167.7320 69.7092 94.1402 0.0000 0.0000 0.0000
# 2 69.7092 77.1760 53.5228 0.0000 0.0000 0.0000
# 3 94.1402 53.5228 119.1839 0.0000 0.0000 0.0000
# 4 0.0000 0.0000 0.0000 30.0451 0.0000 0.0000
# 5 0.0000 0.0000 0.0000 0.0000 44.3938 0.0000
# 6 0.0000 0.0000 0.0000 0.0000 0.0000 21.6450
#
#
#
# Elastic Compliance Matrix: (Units=1/GPa)
#
#
# Indices 1 2 3 4 5 6 
#
# 1 0.012624 -0.006517 -0.007045 0.000000 0.000000 0.000000
# 2 -0.006517 0.022183 -0.004814 0.000000 0.000000 0.000000
# 3 -0.007045 -0.004814 0.016117 0.000000 0.000000 0.000000
# 4 0.000000 0.000000 0.000000 0.033283 0.000000 0.000000
# 5 0.000000 0.000000 0.000000 0.000000 0.022526 0.000000
# 6 0.000000 0.000000 0.000000 0.000000 0.000000 0.046200
#
#
# Mechanical properties :
#
#
# Convention : Reuss Voigt Hill
#
# Bulk Modulus (GPa) = 70.56334 88.75959 79.66146
# Shear Modulus (GPa) = 25.71897 28.99811 27.35854
#
# Velocity S-wave (km/s) = 3.72384 3.95411 3.84070
# Velocity P-wave (km/s) = 7.51899 8.28875 7.91324
#
# Compressibility (1/GPa) = 0.01417167
#
# Stress axis : x y z
#
# Youngs Moduli (GPa) = 79.21121 45.08035 62.04680
#
# Poissons Ratio (x) = 0.29380 0.43712
# Poissons Ratio (y) = 0.51624 0.29869
# Poissons Ratio (z) = 0.55804 0.21701
#
# Static dielectric constant tensor:
#      x y z
#    x 3.405390 0.000000 0.000000 
#    y 0.000000 3.538080 0.000000 
#    z 0.000000 0.000000 3.554300 
# 
# 
# High freq. dielectric constant tensor:
#      x y z
#    x 1.722300 0.000000 0.000000 
#    y 0.000000 1.725630 0.000000 
#    z 0.000000 0.000000 1.731470 
# 
# From -- ./inp_files/3786.got.cif
#   From: 2010.06.25/outbox.cif.g09.slc.cpg/sg58_2_cif.got.tgz:3786.got - 2010.06.26 21:38:00.
