data_PCOD8237456
_publ_section_title
;
Structure prediction by ZEFSAII (Michael W. Deem and Ramdas Pophale) SiO2 
 PCOD8237456
Probable space group: P N N M
;
_chemical_formula_sum "Si O2"
_cell_formula_units_Z 64
_cell_length_a 16.722660
_cell_length_b 21.447516
_cell_length_c 9.217099
_cell_angle_alpha 90.000000
_cell_angle_beta 90.000000
_cell_angle_gamma 90.000000
_cell_volume 3305.800284
_symmetry_space_group_name_H-M "P N N M"
_symmetry_group_IT_number 58
_symmetry_cell_setting 'orthorhombic'
loop_
_space_group_symop_operation_xyz
x,y,z
-x,-y,z
1/2+x,1/2-y,1/2-z
1/2-x,1/2+y,1/2-z
-x,-y,-z
x,y,-z
1/2-x,1/2+y,1/2+z
1/2+x,1/2-y,1/2+z
loop_
_atom_site_type_symbol
_atom_site_label
_atom_site_fract_x
_atom_site_fract_y
_atom_site_fract_z
Si Si1 0.550175 0.822862 0.167761
Si Si2 0.095703 0.817178 0.334380
Si Si3 0.193760 0.632619 0.170396
Si Si4 0.682512 0.288796 0.329392
Si Si5 0.368417 0.827936 0.836013
Si Si6 0.214501 0.897307 0.164738
Si Si7 0.431621 0.624954 0.163882
Si Si8 0.188008 0.021534 0.335475
O O1 0.561807 0.750343 0.213861
O O2 0.604449 0.868850 0.264981
O O3 0.459799 0.845130 0.199488
O O4 0.572514 0.832264 0.000000
O O5 0.125022 0.814168 0.500000
O O6 0.170374 0.838505 0.238520
O O7 0.026702 0.869952 0.315869
O O8 0.236644 0.690324 0.249590
O O9 0.240624 0.568966 0.206528
O O10 0.191636 0.645360 0.000000
O O11 0.695935 0.293351 0.500000
O O12 0.663645 0.219015 0.283964
O O13 0.608395 0.331030 0.282147
O O14 0.310577 0.888126 0.824344
O O15 0.364089 0.799636 0.000000
O O16 0.190532 0.962354 0.234011
O O17 0.185425 0.899196 0.000000
O O18 0.398375 0.554887 0.185971
O O19 0.407771 0.647215 0.000000
O O20 0.198474 0.998518 0.500000
#
# Coordination Sequence:
#
# PCOD8237456 Si02
#       8
#     8   8   8   8   8   8   8   8
#     4  10  20  36  60  87 113 143 185 234 280 335
#     4  10  20  36  59  84 115 149 186 227 277 342
#     4  10  21  37  58  82 111 148 186 230 284 336
#     4  11  20  31  54  86 114 144 184 229 278 332
#     4  10  21  39  57  78 113 153 187 227 285 344
#     4  11  24  38  56  81 113 150 187 236 286 329
#     4   9  18  36  59  82 111 153 189 226 279 334
#     4   9  20  39  60  78 106 150 198 233 271 335
#
# _framework density 19.359912999999999
#
# number of rings (size 3 to 8) (size 9 to 14) (size 15 to 20)
#    0.000    2.000    1.250    3.375    0.000    7.500 
#    0.000    3.125    0.000    3.750    0.000    0.000 
#    0.000    0.000    0.000    0.000    0.000    0.000 
#
# Total GULP energy -793573.313645 kJ/mol
# GULP energy per Si atom -12399.583026 kJ/mol
# Density = 1.931585 g / cm^3
# Si number density = 19.359913 Si / 1000 Ang^3
#
#
#
# Elastic Constant Matrix: (Units=GPa)
#
#
# Indices 1 2 3 4 5 6 
#
# 1 99.6385 12.0341 32.2066 0.0000 0.0000 0.0000
# 2 12.0341 37.7289 20.8385 0.0000 0.0000 0.0000
# 3 32.2066 20.8385 85.5353 0.0000 0.0000 0.0000
# 4 0.0000 0.0000 0.0000 22.2227 0.0000 0.0000
# 5 0.0000 0.0000 0.0000 0.0000 30.0812 0.0000
# 6 0.0000 0.0000 0.0000 0.0000 0.0000 20.0386
#
#
#
# Elastic Compliance Matrix: (Units=1/GPa)
#
#
# Indices 1 2 3 4 5 6 
#
# 1 0.011498 -0.001475 -0.003970 0.000000 0.000000 0.000000
# 2 -0.001475 0.030815 -0.006952 0.000000 0.000000 0.000000
# 3 -0.003970 -0.006952 0.014880 0.000000 0.000000 0.000000
# 4 0.000000 0.000000 0.000000 0.044999 0.000000 0.000000
# 5 0.000000 0.000000 0.000000 0.000000 0.033243 0.000000
# 6 0.000000 0.000000 0.000000 0.000000 0.000000 0.049904
#
#
# Mechanical properties :
#
#
# Convention : Reuss Voigt Hill
#
# Bulk Modulus (GPa) = 30.86517 39.22899 35.04708
# Shear Modulus (GPa) = 22.63149 24.99007 23.81078
#
# Velocity S-wave (km/s) = 3.42275 3.59669 3.51080
# Velocity P-wave (km/s) = 5.62119 6.12823 5.88018
#
# Compressibility (1/GPa) = 0.03239897
#
# Stress axis : x y z
#
# Youngs Moduli (GPa) = 86.97462 32.45174 67.20629
#
# Poissons Ratio (x) = 0.04785 0.26680
# Poissons Ratio (y) = 0.12825 0.46722
# Poissons Ratio (z) = 0.34528 0.22561
#
# Static dielectric constant tensor:
#      x y z
#    x 3.723070 0.000000 0.000000 
#    y 0.000000 3.245860 0.000000 
#    z 0.000000 0.000000 3.502080 
# 
# 
# High freq. dielectric constant tensor:
#      x y z
#    x 1.760950 0.000000 0.000000 
#    y 0.000000 1.727340 0.000000 
#    z 0.000000 0.000000 1.751820 
# 
# From -- ./inp_files/8365.got.cif
#   From: 2010.06.25/outbox.cif.g09.slc.cpg/sg58_5_cif.got.tgz:8365.got - 2010.06.26 21:38:00.
