data_PCOD8237745
_publ_section_title
;
Structure prediction by ZEFSAII (Michael W. Deem and Ramdas Pophale) SiO2 
 PCOD8237745
Probable space group: P N N M
;
_chemical_formula_sum "Si O2"
_cell_formula_units_Z 48
_cell_length_a 8.958282
_cell_length_b 15.363991
_cell_length_c 17.249555
_cell_angle_alpha 90.000000
_cell_angle_beta 90.000000
_cell_angle_gamma 90.000000
_cell_volume 2374.141882
_symmetry_space_group_name_H-M "P N N M"
_symmetry_group_IT_number 58
_symmetry_cell_setting 'orthorhombic'
loop_
_space_group_symop_operation_xyz
x,y,z
-x,-y,z
1/2+x,1/2-y,1/2-z
1/2-x,1/2+y,1/2-z
-x,-y,-z
x,y,-z
1/2-x,1/2+y,1/2+z
1/2+x,1/2-y,1/2+z
loop_
_atom_site_type_symbol
_atom_site_label
_atom_site_fract_x
_atom_site_fract_y
_atom_site_fract_z
Si Si1 0.677433 0.000129 0.914527
Si Si2 0.650193 0.190106 0.908809
Si Si3 0.834257 0.329324 0.664457
Si Si4 0.661750 0.179971 0.410540
Si Si5 0.826971 0.002072 0.589671
Si Si6 0.842920 0.343469 0.156924
O O1 0.723427 0.096727 0.885212
O O2 0.500000 0.000000 0.919159
O O3 0.733818 0.924161 0.857759
O O4 0.744686 0.982706 0.000000
O O5 0.476842 0.195008 0.886893
O O6 0.737898 0.264068 0.864917
O O7 0.662025 0.205723 0.000000
O O8 0.708052 0.258133 0.646443
O O9 0.882847 0.332564 0.753320
O O10 0.677812 0.208722 0.500000
O O11 0.765343 0.097575 0.392365
O O12 0.491441 0.155574 0.394016
O O13 0.802482 0.976196 0.500000
O O14 0.741240 0.933919 0.643375
O O15 0.000000 0.000000 0.612107
#
# Coordination Sequence:
#
# PCOD8237745 Si02
#       6
#     8   8   8   8   8   8
#     4   8  16  33  58  82 103 140 195 242 279 335
#     4  10  20  38  62  83 112 158 207 244 284 356
#     4  11  22  37  59  88 119 154 193 243 301 358
#     4  11  23  39  60  86 120 159 200 246 295 350
#     4  10  22  41  64  86 112 156 207 244 285 355
#     4  12  24  37  57  90 126 154 190 251 310 345
#
# _framework density 20.217831
#
# number of rings (size 3 to 8) (size 9 to 14) (size 15 to 20)
#    0.000    1.667    0.000    6.500    0.000    8.000 
#    0.000    0.833    0.000    3.000    0.000    0.000 
#    0.000    0.000    0.000    0.000    0.000    0.000 
#
# Total GULP energy -595321.850204 kJ/mol
# GULP energy per Si atom -12402.538546 kJ/mol
# Density = 2.017181 g / cm^3
# Si number density = 20.217831 Si / 1000 Ang^3
#
#
#
# Elastic Constant Matrix: (Units=GPa)
#
#
# Indices 1 2 3 4 5 6 
#
# 1 55.2214 15.8503 -2.1685 0.0000 0.0000 0.0000
# 2 15.8503 101.6406 36.3242 0.0000 0.0000 0.0000
# 3 -2.1685 36.3242 68.5221 0.0000 0.0000 0.0000
# 4 0.0000 0.0000 0.0000 13.8094 0.0000 0.0000
# 5 0.0000 0.0000 0.0000 0.0000 22.5132 0.0000
# 6 0.0000 0.0000 0.0000 0.0000 0.0000 19.0945
#
#
#
# Elastic Compliance Matrix: (Units=1/GPa)
#
#
# Indices 1 2 3 4 5 6 
#
# 1 0.019363 -0.003995 0.002731 0.000000 0.000000 0.000000
# 2 -0.003995 0.012963 -0.006998 0.000000 0.000000 0.000000
# 3 0.002731 -0.006998 0.018390 0.000000 0.000000 0.000000
# 4 0.000000 0.000000 0.000000 0.072415 0.000000 0.000000
# 5 0.000000 0.000000 0.000000 0.000000 0.044418 0.000000
# 6 0.000000 0.000000 0.000000 0.000000 0.000000 0.052371
#
#
# Mechanical properties :
#
#
# Convention : Reuss Voigt Hill
#
# Bulk Modulus (GPa) = 29.24818 36.15512 32.70165
# Shear Modulus (GPa) = 20.17414 22.77528 21.47471
#
# Velocity S-wave (km/s) = 3.16229 3.35997 3.26263
# Velocity P-wave (km/s) = 5.27554 5.74231 5.51387
#
# Compressibility (1/GPa) = 0.03419016
#
# Stress axis : x y z
#
# Youngs Moduli (GPa) = 51.64495 77.14488 54.37740
#
# Poissons Ratio (x) = 0.30823 -0.14850
# Poissons Ratio (y) = 0.20635 0.38054
# Poissons Ratio (z) = -0.14103 0.53986
#
# Static dielectric constant tensor:
#      x y z
#    x 3.454940 0.000000 0.000000 
#    y 0.000000 4.102330 0.000000 
#    z 0.000000 0.000000 3.589010 
# 
# 
# High freq. dielectric constant tensor:
#      x y z
#    x 1.769380 0.000000 0.000000 
#    y 0.000000 1.809450 0.000000 
#    z 0.000000 0.000000 1.787110 
# 
# From -- ./inp_files/25274.got.cif
#   From: 2010.06.25/outbox.cif.g09.slc.cpg/sg58_13_cif.got.tgz:25274.got - 2010.06.26 21:38:00.
