data_PCOD8237537
_publ_section_title
;
Structure prediction by ZEFSAII (Michael W. Deem and Ramdas Pophale) SiO2 
 PCOD8237537
Probable space group: P N N M
;
_chemical_formula_sum "Si O2"
_cell_formula_units_Z 48
_cell_length_a 9.873919
_cell_length_b 16.396561
_cell_length_c 15.004387
_cell_angle_alpha 90.000000
_cell_angle_beta 90.000000
_cell_angle_gamma 90.000000
_cell_volume 2429.184976
_symmetry_space_group_name_H-M "P N N M"
_symmetry_group_IT_number 58
_symmetry_cell_setting 'orthorhombic'
loop_
_space_group_symop_operation_xyz
x,y,z
-x,-y,z
1/2+x,1/2-y,1/2-z
1/2-x,1/2+y,1/2-z
-x,-y,-z
x,y,-z
1/2-x,1/2+y,1/2+z
1/2+x,1/2-y,1/2+z
loop_
_atom_site_type_symbol
_atom_site_label
_atom_site_fract_x
_atom_site_fract_y
_atom_site_fract_z
Si Si1 0.744634 0.929150 0.302419
Si Si2 0.504633 0.674096 0.768380
Si Si3 0.583938 0.579535 0.402241
Si Si4 0.276602 0.398394 0.896101
Si Si5 0.970717 0.647725 0.201802
Si Si6 0.361289 0.974027 0.849247
O O1 0.614143 0.880545 0.339554
O O2 0.870243 0.868736 0.303345
O O3 0.778301 0.008171 0.362004
O O4 0.713111 0.950174 0.199225
O O5 0.555477 0.646592 0.671344
O O6 0.616152 0.656035 0.842544
O O7 0.479593 0.769523 0.757778
O O8 0.500000 0.500000 0.373198
O O9 0.535183 0.609270 0.500000
O O10 0.746423 0.564788 0.411443
O O11 0.132934 0.352645 0.881363
O O12 0.313539 0.397741 0.000000
O O13 0.908945 0.583267 0.269780
O O14 0.500000 0.000000 0.902279
#
# Coordination Sequence:
#
# PCOD8237537 Si02
#       6
#     8   8   8   8   8   8
#     4  10  20  36  62  89 117 160 202 244 299 367
#     4  12  21  39  61  92 125 160 195 260 313 361
#     4  11  21  36  59  86 114 154 203 249 298 363
#     4  11  23  41  65  91 123 164 210 252 302 371
#     4  10  22  37  63  87 120 160 198 245 312 358
#     4   9  18  37  58  84 109 151 200 244 293 359
#
# _framework density 19.759713999999999
#
# number of rings (size 3 to 8) (size 9 to 14) (size 15 to 20)
#    0.000    1.500    5.000    3.000    0.000    3.667 
#    0.000    0.833    0.000    0.000    0.000    0.000 
#    0.000    0.000    0.000    0.000    0.000    0.000 
#
# Total GULP energy -594926.315628 kJ/mol
# GULP energy per Si atom -12394.298242 kJ/mol
# Density = 1.971474 g / cm^3
# Si number density = 19.759714 Si / 1000 Ang^3
#
#
#
# Elastic Constant Matrix: (Units=GPa)
#
#
# Indices 1 2 3 4 5 6 
#
# 1 114.7220 20.8783 10.8320 0.0000 0.0000 0.0000
# 2 20.8783 73.2369 8.6737 0.0000 0.0000 0.0000
# 3 10.8320 8.6737 68.9534 0.0000 0.0000 0.0000
# 4 0.0000 0.0000 0.0000 15.3505 0.0000 0.0000
# 5 0.0000 0.0000 0.0000 0.0000 29.0142 0.0000
# 6 0.0000 0.0000 0.0000 0.0000 0.0000 25.5436
#
#
#
# Elastic Compliance Matrix: (Units=1/GPa)
#
#
# Indices 1 2 3 4 5 6 
#
# 1 0.009281 -0.002511 -0.001142 0.000000 0.000000 0.000000
# 2 -0.002511 0.014540 -0.001435 0.000000 0.000000 0.000000
# 3 -0.001142 -0.001435 0.014862 0.000000 0.000000 0.000000
# 4 0.000000 0.000000 0.000000 0.065144 0.000000 0.000000
# 5 0.000000 0.000000 0.000000 0.000000 0.034466 0.000000
# 6 0.000000 0.000000 0.000000 0.000000 0.000000 0.039149
#
#
# Mechanical properties :
#
#
# Convention : Reuss Voigt Hill
#
# Bulk Modulus (GPa) = 35.07677 37.52005 36.29841
# Shear Modulus (GPa) = 25.36516 28.41689 26.89103
#
# Velocity S-wave (km/s) = 3.58674 3.79637 3.69304
# Velocity P-wave (km/s) = 5.91127 6.18433 6.04934
#
# Compressibility (1/GPa) = 0.02850890
#
# Stress axis : x y z
#
# Youngs Moduli (GPa) = 107.74134 68.77597 67.28372
#
# Poissons Ratio (x) = 0.17267 0.07685
# Poissons Ratio (y) = 0.27050 0.09653
# Poissons Ratio (z) = 0.12306 0.09867
#
# Static dielectric constant tensor:
#      x y z
#    x 4.119430 0.000000 0.000000 
#    y 0.000000 3.545050 0.000000 
#    z 0.000000 0.000000 3.277980 
# 
# 
# High freq. dielectric constant tensor:
#      x y z
#    x 1.797680 0.000000 0.000000 
#    y 0.000000 1.755400 0.000000 
#    z 0.000000 0.000000 1.742920 
# 
# From -- ./inp_files/19856.got.cif
#   From: 2010.06.25/outbox.cif.g09.slc.cpg/sg58_10_cif.got.tgz:19856.got - 2010.06.26 21:38:00.
