data_PCOD8237739
_publ_section_title
;
Structure prediction by ZEFSAII (Michael W. Deem and Ramdas Pophale) SiO2 
 PCOD8237739
Probable space group: P N N M
;
_chemical_formula_sum "Si O2"
_cell_formula_units_Z 52
_cell_length_a 9.220419
_cell_length_b 16.684854
_cell_length_c 17.510593
_cell_angle_alpha 90.000000
_cell_angle_beta 90.000000
_cell_angle_gamma 90.000000
_cell_volume 2693.853176
_symmetry_space_group_name_H-M "P N N M"
_symmetry_group_IT_number 58
_symmetry_cell_setting 'orthorhombic'
loop_
_space_group_symop_operation_xyz
x,y,z
-x,-y,z
1/2+x,1/2-y,1/2-z
1/2-x,1/2+y,1/2-z
-x,-y,-z
x,y,-z
1/2-x,1/2+y,1/2+z
1/2+x,1/2-y,1/2+z
loop_
_atom_site_type_symbol
_atom_site_label
_atom_site_fract_x
_atom_site_fract_y
_atom_site_fract_z
Si Si1 0.735131 0.927490 0.088242
Si Si2 0.500000 0.500000 0.190406
Si Si3 0.335223 0.419650 0.677775
Si Si4 0.509494 0.125412 0.370033
Si Si5 0.010661 0.411206 0.291217
Si Si6 0.230832 0.507935 0.087169
Si Si7 0.478115 0.695394 0.584203
O O1 0.586863 0.908278 0.132936
O O2 0.822718 0.845697 0.095819
O O3 0.829664 0.998929 0.126719
O O4 0.700452 0.949603 0.000000
O O5 0.574419 0.566614 0.244489
O O6 0.371904 0.533671 0.136393
O O7 0.173576 0.388326 0.689312
O O8 0.405338 0.343087 0.639233
O O9 0.462729 0.141864 0.281361
O O10 0.377678 0.083327 0.414086
O O11 0.543436 0.210501 0.406196
O O12 0.654262 0.070741 0.376749
O O13 0.000000 0.500000 0.256210
O O14 0.276838 0.489477 0.000000
O O15 0.536502 0.677403 0.500000
#
# Coordination Sequence:
#
# PCOD8237739 Si02
#       7
#     8   4   8   8   8   8   8
#     4  10  21  38  61  88 122 158 196 242 293 348
#     4  12  21  40  61  92 118 152 204 250 289 360
#     4  11  21  38  60  85 121 157 194 240 293 348
#     4  11  21  40  63  85 116 156 202 240 297 361
#     4  10  20  38  61  89 115 156 199 241 288 353
#     4  11  22  40  64  86 116 155 196 249 304 349
#     4  11  23  37  58  88 119 154 200 244 289 351
#
# _framework density 19.303204999999998
#
# number of rings (size 3 to 8) (size 9 to 14) (size 15 to 20)
#    0.000    1.231    4.615    3.462    0.000    5.846 
#    0.000    0.000    0.000    1.846    0.000    0.000 
#    0.000    0.000    0.000    0.000    0.000    0.000 
#
# Total GULP energy -644572.707338 kJ/mol
# GULP energy per Si atom -12395.628987 kJ/mol
# Density = 1.925927 g / cm^3
# Si number density = 19.303205 Si / 1000 Ang^3
#
#
#
# Elastic Constant Matrix: (Units=GPa)
#
#
# Indices 1 2 3 4 5 6 
#
# 1 114.4400 35.2839 55.6908 0.0000 0.0000 0.0000
# 2 35.2839 90.6720 24.6085 0.0000 0.0000 0.0000
# 3 55.6908 24.6085 136.0004 0.0000 0.0000 0.0000
# 4 0.0000 0.0000 0.0000 23.0733 0.0000 0.0000
# 5 0.0000 0.0000 0.0000 0.0000 13.7939 0.0000
# 6 0.0000 0.0000 0.0000 0.0000 0.0000 15.1680
#
#
#
# Elastic Compliance Matrix: (Units=1/GPa)
#
#
# Indices 1 2 3 4 5 6 
#
# 1 0.011867 -0.003469 -0.004232 0.000000 0.000000 0.000000
# 2 -0.003469 0.012613 -0.000861 0.000000 0.000000 0.000000
# 3 -0.004232 -0.000861 0.009242 0.000000 0.000000 0.000000
# 4 0.000000 0.000000 0.000000 0.043340 0.000000 0.000000
# 5 0.000000 0.000000 0.000000 0.000000 0.072496 0.000000
# 6 0.000000 0.000000 0.000000 0.000000 0.000000 0.065928
#
#
# Mechanical properties :
#
#
# Convention : Reuss Voigt Hill
#
# Bulk Modulus (GPa) = 60.25485 63.58654 61.92069
# Shear Modulus (GPa) = 20.99578 25.44232 23.21905
#
# Velocity S-wave (km/s) = 3.30158 3.63442 3.47199
# Velocity P-wave (km/s) = 6.76880 7.11508 6.94410
#
# Compressibility (1/GPa) = 0.01659617
#
# Stress axis : x y z
#
# Youngs Moduli (GPa) = 84.26563 79.28532 108.20583
#
# Poissons Ratio (x) = 0.27508 0.45790
# Poissons Ratio (y) = 0.29236 0.09322
# Poissons Ratio (z) = 0.35659 0.06830
#
# Static dielectric constant tensor:
#      x y z
#    x 3.601990 0.000000 0.000000 
#    y 0.000000 3.324750 0.000000 
#    z 0.000000 0.000000 3.826570 
# 
# 
# High freq. dielectric constant tensor:
#      x y z
#    x 1.752720 0.000000 0.000000 
#    y 0.000000 1.718630 0.000000 
#    z 0.000000 0.000000 1.774190 
# 
# From -- ./inp_files/25477.got.cif
#   From: 2010.06.25/outbox.cif.g09.slc.cpg/sg58_13_cif.got.tgz:25477.got - 2010.06.26 21:38:00.
