data_PCOD8237437
_publ_section_title
;
Structure prediction by ZEFSAII (Michael W. Deem and Ramdas Pophale) SiO2 
 PCOD8237437
Probable space group: P N N M
;
_chemical_formula_sum "Si O2"
_cell_formula_units_Z 64
_cell_length_a 10.598547
_cell_length_b 14.791681
_cell_length_c 19.424754
_cell_angle_alpha 90.000000
_cell_angle_beta 90.000000
_cell_angle_gamma 90.000000
_cell_volume 3045.225023
_symmetry_space_group_name_H-M "P N N M"
_symmetry_group_IT_number 58
_symmetry_cell_setting 'orthorhombic'
loop_
_space_group_symop_operation_xyz
x,y,z
-x,-y,z
1/2+x,1/2-y,1/2-z
1/2-x,1/2+y,1/2-z
-x,-y,-z
x,y,-z
1/2-x,1/2+y,1/2+z
1/2+x,1/2-y,1/2+z
loop_
_atom_site_type_symbol
_atom_site_label
_atom_site_fract_x
_atom_site_fract_y
_atom_site_fract_z
Si Si1 0.213705 0.152166 0.864705
Si Si2 0.258832 0.823804 0.169268
Si Si3 0.839968 0.178178 0.685250
Si Si4 0.885571 0.849075 0.285921
Si Si5 0.092764 0.573145 0.922900
Si Si6 0.637163 0.499962 0.109720
Si Si7 0.960276 0.227838 0.919869
Si Si8 0.145423 0.477752 0.577490
O O1 0.317034 0.230380 0.857056
O O2 0.169851 0.129667 0.788122
O O3 0.271201 0.063444 0.899305
O O4 0.102021 0.192584 0.911390
O O5 0.254164 0.843626 0.251352
O O6 0.309322 0.720729 0.165169
O O7 0.128188 0.834678 0.127493
O O8 0.348055 0.896035 0.132039
O O9 0.826704 0.101911 0.627561
O O10 0.974584 0.189729 0.721438
O O11 0.889750 0.946403 0.320552
O O12 0.241294 0.545332 0.926376
O O13 0.063221 0.670749 0.889685
O O14 0.000000 0.500000 0.885334
O O15 0.042861 0.582402 0.000000
O O16 0.500000 0.500000 0.068598
O O17 0.920750 0.220551 0.000000
O O18 0.189630 0.450033 0.500000
O O19 0.000000 0.500000 0.575577
#
# Coordination Sequence:
#
# PCOD8237437 Si02
#       8
#     8   8   8   8   8   8   8   8
#     4  11  22  39  61  90 124 163 209 259 311 374
#     4  11  21  39  62  89 121 162 208 259 311 370
#     4  10  21  37  61  90 124 160 203 257 313 372
#     4  10  20  37  61  89 126 160 200 259 312 368
#     4  10  21  38  59  86 123 159 201 254 308 372
#     4  10  20  36  58  88 120 158 198 252 314 378
#     4  11  22  38  62  90 123 164 205 253 311 375
#     4  11  25  44  63  87 123 169 219 265 311 376
#
# _framework density 21.016508999999999
#
# number of rings (size 3 to 8) (size 9 to 14) (size 15 to 20)
#    0.000    1.500    2.500    3.000    0.000    0.750 
#    0.000    3.125    0.000    0.750    0.000    0.000 
#    0.000    0.000    0.000    0.000    0.000    0.000 
#
# Total GULP energy -793101.189173 kJ/mol
# GULP energy per Si atom -12392.206081 kJ/mol
# Density = 2.096867 g / cm^3
# Si number density = 21.016509 Si / 1000 Ang^3
#
#
#
# Elastic Constant Matrix: (Units=GPa)
#
#
# Indices 1 2 3 4 5 6 
#
# 1 88.6283 13.6297 5.5369 0.0000 0.0000 0.0000
# 2 13.6297 55.2706 22.8487 0.0000 0.0000 0.0000
# 3 5.5369 22.8487 72.5336 0.0000 0.0000 0.0000
# 4 0.0000 0.0000 0.0000 26.9887 0.0000 0.0000
# 5 0.0000 0.0000 0.0000 0.0000 26.4012 0.0000
# 6 0.0000 0.0000 0.0000 0.0000 0.0000 38.0948
#
#
#
# Elastic Compliance Matrix: (Units=1/GPa)
#
#
# Indices 1 2 3 4 5 6 
#
# 1 0.011728 -0.002900 0.000018 0.000000 0.000000 0.000000
# 2 -0.002900 0.021519 -0.006557 0.000000 0.000000 0.000000
# 3 0.000018 -0.006557 0.015851 0.000000 0.000000 0.000000
# 4 0.000000 0.000000 0.000000 0.037053 0.000000 0.000000
# 5 0.000000 0.000000 0.000000 0.000000 0.037877 0.000000
# 6 0.000000 0.000000 0.000000 0.000000 0.000000 0.026250
#
#
# Mechanical properties :
#
#
# Convention : Reuss Voigt Hill
#
# Bulk Modulus (GPa) = 33.09061 33.38479 33.23770
# Shear Modulus (GPa) = 27.89746 29.92476 28.91111
#
# Velocity S-wave (km/s) = 3.64731 3.77751 3.71298
# Velocity P-wave (km/s) = 5.78934 5.91149 5.85073
#
# Compressibility (1/GPa) = 0.03022005
#
# Stress axis : x y z
#
# Youngs Moduli (GPa) = 85.26709 46.47155 63.08793
#
# Poissons Ratio (x) = 0.13475 -0.00114
# Poissons Ratio (y) = 0.24724 0.41368
# Poissons Ratio (z) = -0.00155 0.30472
#
# Static dielectric constant tensor:
#      x y z
#    x 3.939020 0.000000 0.000000 
#    y 0.000000 3.860770 0.000000 
#    z 0.000000 0.000000 3.597560 
# 
# 
# High freq. dielectric constant tensor:
#      x y z
#    x 1.830600 0.000000 0.000000 
#    y 0.000000 1.828550 0.000000 
#    z 0.000000 0.000000 1.809650 
# 
# From -- ./inp_files/26398.got.cif
#   From: 2010.06.25/outbox.cif.g09.slc.cpg/sg58_14_cif.got.tgz:26398.got - 2010.06.26 21:38:00.
