data_PCOD8237792
_publ_section_title
;
Structure prediction by ZEFSAII (Michael W. Deem and Ramdas Pophale) SiO2 
 PCOD8237792
Probable space group: P N N M
;
_chemical_formula_sum "Si O2"
_cell_formula_units_Z 56
_cell_length_a 20.145604
_cell_length_b 9.184733
_cell_length_c 14.291768
_cell_angle_alpha 90.000000
_cell_angle_beta 90.000000
_cell_angle_gamma 90.000000
_cell_volume 2644.434329
_symmetry_space_group_name_H-M "P N N M"
_symmetry_group_IT_number 58
_symmetry_cell_setting 'orthorhombic'
loop_
_space_group_symop_operation_xyz
x,y,z
-x,-y,z
1/2+x,1/2-y,1/2-z
1/2-x,1/2+y,1/2-z
-x,-y,-z
x,y,-z
1/2-x,1/2+y,1/2+z
1/2+x,1/2-y,1/2+z
loop_
_atom_site_type_symbol
_atom_site_label
_atom_site_fract_x
_atom_site_fract_y
_atom_site_fract_z
Si Si1 0.431433 0.691969 0.394158
Si Si2 0.623096 0.796634 0.780335
Si Si3 0.288648 0.405822 0.107580
Si Si4 0.499040 0.827792 0.106198
Si Si5 0.083683 0.856996 0.894388
Si Si6 0.353017 0.710313 0.894149
Si Si7 0.662025 0.108885 0.728295
O O1 0.410434 0.729752 0.500000
O O2 0.411865 0.526905 0.370343
O O3 0.510168 0.708539 0.382921
O O4 0.394105 0.801152 0.326001
O O5 0.680924 0.739213 0.847814
O O6 0.552487 0.753345 0.825648
O O7 0.631203 0.725618 0.677859
O O8 0.627663 0.969029 0.772921
O O9 0.340226 0.538873 0.118671
O O10 0.220396 0.441537 0.160165
O O11 0.271940 0.374370 0.000000
O O12 0.429239 0.750540 0.128004
O O13 0.500000 0.000000 0.123410
O O14 0.520391 0.793961 0.000000
O O15 0.109035 0.828295 0.000000
O O16 0.309942 0.796757 0.816378
O O17 0.333799 0.759122 0.000000
#
# Coordination Sequence:
#
# PCOD8237792 Si02
#       7
#     8   8   8   8   8   8   8
#     4   9  19  38  62  88 122 164 206 256 311 370
#     4  12  24  37  63  95 125 160 210 262 322 384
#     4  11  26  45  61  87 125 171 219 261 308 379
#     4  10  20  38  64  95 126 157 200 263 328 383
#     4   9  20  37  59  90 125 159 203 256 316 378
#     4  10  22  41  65  91 127 166 208 261 319 379
#     4  12  23  40  64  90 125 167 210 259 313 371
#
# _framework density 21.176552000000001
#
# number of rings (size 3 to 8) (size 9 to 14) (size 15 to 20)
#    0.000    1.571    1.429    4.286    0.000    3.429 
#    0.000    4.286    0.000    0.000    0.000    0.000 
#    0.000    0.000    0.000    0.000    0.000    0.000 
#
# Total GULP energy -694486.465454 kJ/mol
# GULP energy per Si atom -12401.544026 kJ/mol
# Density = 2.112835 g / cm^3
# Si number density = 21.176552 Si / 1000 Ang^3
#
#
#
# Elastic Constant Matrix: (Units=GPa)
#
#
# Indices 1 2 3 4 5 6 
#
# 1 75.8824 33.8537 41.9761 0.0000 0.0000 0.0000
# 2 33.8537 102.7055 57.0484 0.0000 0.0000 0.0000
# 3 41.9761 57.0484 139.4639 0.0000 0.0000 0.0000
# 4 0.0000 0.0000 0.0000 35.1282 0.0000 0.0000
# 5 0.0000 0.0000 0.0000 0.0000 38.3624 0.0000
# 6 0.0000 0.0000 0.0000 0.0000 0.0000 26.9643
#
#
#
# Elastic Compliance Matrix: (Units=1/GPa)
#
#
# Indices 1 2 3 4 5 6 
#
# 1 0.016739 -0.003518 -0.003599 0.000000 0.000000 0.000000
# 2 -0.003518 0.013339 -0.004397 0.000000 0.000000 0.000000
# 3 -0.003599 -0.004397 0.010052 0.000000 0.000000 0.000000
# 4 0.000000 0.000000 0.000000 0.028467 0.000000 0.000000
# 5 0.000000 0.000000 0.000000 0.000000 0.026067 0.000000
# 6 0.000000 0.000000 0.000000 0.000000 0.000000 0.037086
#
#
# Mechanical properties :
#
#
# Convention : Reuss Voigt Hill
#
# Bulk Modulus (GPa) = 58.47729 64.86760 61.67244
# Shear Modulus (GPa) = 31.15658 32.43587 31.79623
#
# Velocity S-wave (km/s) = 3.83988 3.91792 3.87910
# Velocity P-wave (km/s) = 6.87995 7.15298 7.01779
#
# Compressibility (1/GPa) = 0.01710066
#
# Stress axis : x y z
#
# Youngs Moduli (GPa) = 59.74157 74.96900 99.48013
#
# Poissons Ratio (x) = 0.26377 0.35801
# Poissons Ratio (y) = 0.21020 0.43745
# Poissons Ratio (z) = 0.21500 0.32966
#
# Static dielectric constant tensor:
#      x y z
#    x 3.544250 0.000000 0.000000 
#    y 0.000000 3.632530 0.000000 
#    z 0.000000 0.000000 4.145410 
# 
# 
# High freq. dielectric constant tensor:
#      x y z
#    x 1.810540 0.000000 0.000000 
#    y 0.000000 1.823810 0.000000 
#    z 0.000000 0.000000 1.855930 
# 
# From -- ./inp_files/23233.got.cif
#   From: 2010.06.25/outbox.cif.g09.slc.cpg/sg58_12_cif.got.tgz:23233.got - 2010.06.26 21:38:00.
