data_PCOD8237498
_publ_section_title
;
Structure prediction by ZEFSAII (Michael W. Deem and Ramdas Pophale) SiO2 
 PCOD8237498
Probable space group: P N N M
;
_chemical_formula_sum "Si O2"
_cell_formula_units_Z 40
_cell_length_a 12.518423
_cell_length_b 8.746018
_cell_length_c 18.640088
_cell_angle_alpha 90.000000
_cell_angle_beta 90.000000
_cell_angle_gamma 90.000000
_cell_volume 2040.835253
_symmetry_space_group_name_H-M "P N N M"
_symmetry_group_IT_number 58
_symmetry_cell_setting 'orthorhombic'
loop_
_space_group_symop_operation_xyz
x,y,z
-x,-y,z
1/2+x,1/2-y,1/2-z
1/2-x,1/2+y,1/2-z
-x,-y,-z
x,y,-z
1/2-x,1/2+y,1/2+z
1/2+x,1/2-y,1/2+z
loop_
_atom_site_type_symbol
_atom_site_label
_atom_site_fract_x
_atom_site_fract_y
_atom_site_fract_z
Si Si1 0.619709 0.017708 0.782256
Si Si2 0.882444 0.962170 0.082095
Si Si3 0.311896 0.829163 0.919071
Si Si4 0.123245 0.990330 0.582687
Si Si5 0.246538 0.261236 0.178852
O O1 0.680220 0.856574 0.777050
O O2 0.500000 0.000000 0.752554
O O3 0.613711 0.076323 0.864616
O O4 0.682710 0.140443 0.735887
O O5 0.837736 0.823872 0.128628
O O6 0.810163 0.114236 0.090067
O O7 0.887408 0.906177 0.000000
O O8 0.000000 0.000000 0.111345
O O9 0.316761 0.649605 0.902430
O O10 0.353638 0.861640 0.000000
O O11 0.133108 0.940900 0.500000
O O12 0.176859 0.862217 0.630315
O O13 0.000000 0.000000 0.605761
#
# Coordination Sequence:
#
# PCOD8237498 Si02
#       5
#     8   8   8   8   8
#     4  11  24  39  57  82 113 151 189 230 282 336
#     4   9  19  37  60  84 111 147 188 231 280 331
#     4   9  19  37  59  83 111 143 187 237 280 330
#     4  10  20  36  60  87 114 145 183 231 283 332
#     4  11  23  37  56  82 115 149 189 231 277 338
#
# _framework density 19.599819
#
# number of rings (size 3 to 8) (size 9 to 14) (size 15 to 20)
#    0.000    2.000    0.000    3.000    0.000    6.000 
#    0.000    2.000    0.000    6.000    0.000    0.000 
#    0.000    0.000    0.000    0.000    0.000    0.000 
#
# Total GULP energy -496133.996393 kJ/mol
# GULP energy per Si atom -12403.349910 kJ/mol
# Density = 1.955521 g / cm^3
# Si number density = 19.599819 Si / 1000 Ang^3
#
#
#
# Elastic Constant Matrix: (Units=GPa)
#
#
# Indices 1 2 3 4 5 6 
#
# 1 150.0224 83.7100 65.4202 0.0000 0.0000 0.0000
# 2 83.7100 148.8880 68.2458 0.0000 0.0000 0.0000
# 3 65.4202 68.2458 85.6884 0.0000 0.0000 0.0000
# 4 0.0000 0.0000 0.0000 42.1968 0.0000 0.0000
# 5 0.0000 0.0000 0.0000 0.0000 28.0381 0.0000
# 6 0.0000 0.0000 0.0000 0.0000 0.0000 24.3251
#
#
#
# Elastic Compliance Matrix: (Units=1/GPa)
#
#
# Indices 1 2 3 4 5 6 
#
# 1 0.011172 -0.003735 -0.005555 0.000000 0.000000 0.000000
# 2 -0.003735 0.011827 -0.006568 0.000000 0.000000 0.000000
# 3 -0.005555 -0.006568 0.021142 0.000000 0.000000 0.000000
# 4 0.000000 0.000000 0.000000 0.023698 0.000000 0.000000
# 5 0.000000 0.000000 0.000000 0.000000 0.035666 0.000000
# 6 0.000000 0.000000 0.000000 0.000000 0.000000 0.041110
#
#
# Mechanical properties :
#
#
# Convention : Reuss Voigt Hill
#
# Bulk Modulus (GPa) = 80.47892 91.03899 85.75895
# Shear Modulus (GPa) = 27.70513 30.06019 28.88266
#
# Velocity S-wave (km/s) = 3.76379 3.92049 3.84294
# Velocity P-wave (km/s) = 7.74844 8.18800 7.97125
#
# Compressibility (1/GPa) = 0.01242561
#
# Stress axis : x y z
#
# Youngs Moduli (GPa) = 89.50889 84.55202 47.29973
#
# Poissons Ratio (x) = 0.31583 0.26273
# Poissons Ratio (y) = 0.33434 0.31065
# Poissons Ratio (z) = 0.49718 0.55532
#
# Static dielectric constant tensor:
#      x y z
#    x 3.570680 0.000000 0.000000 
#    y 0.000000 3.622070 0.000000 
#    z 0.000000 0.000000 3.657360 
# 
# 
# High freq. dielectric constant tensor:
#      x y z
#    x 1.763850 0.000000 0.000000 
#    y 0.000000 1.768820 0.000000 
#    z 0.000000 0.000000 1.768450 
# 
# From -- ./inp_files/24927.got.cif
#   From: 2010.06.25/outbox.cif.g09.slc.cpg/sg58_13_cif.got.tgz:24927.got - 2010.06.26 21:38:00.
