data_PCOD8237281
_publ_section_title
;
Structure prediction by ZEFSAII (Michael W. Deem and Ramdas Pophale) SiO2 
 PCOD8237281
Probable space group: P N N M
;
_chemical_formula_sum "Si O2"
_cell_formula_units_Z 64
_cell_length_a 28.310462
_cell_length_b 12.776054
_cell_length_c 9.060503
_cell_angle_alpha 90.000000
_cell_angle_beta 90.000000
_cell_angle_gamma 90.000000
_cell_volume 3277.147614
_symmetry_space_group_name_H-M "P N N M"
_symmetry_group_IT_number 58
_symmetry_cell_setting 'orthorhombic'
loop_
_space_group_symop_operation_xyz
x,y,z
-x,-y,z
1/2+x,1/2-y,1/2-z
1/2-x,1/2+y,1/2-z
-x,-y,-z
x,y,-z
1/2-x,1/2+y,1/2+z
1/2+x,1/2-y,1/2+z
loop_
_atom_site_type_symbol
_atom_site_label
_atom_site_fract_x
_atom_site_fract_y
_atom_site_fract_z
Si Si1 0.295208 0.128243 0.327838
Si Si2 0.097516 0.129423 0.826540
Si Si3 0.605708 0.959318 0.673693
Si Si4 0.567817 0.596064 0.325858
Si Si5 0.040580 0.708433 0.669934
Si Si6 0.168856 0.840537 0.168979
Si Si7 0.565231 0.161509 0.830339
Si Si8 0.202577 0.061827 0.833059
O O1 0.287255 0.139846 0.500000
O O2 0.338042 0.048186 0.293760
O O3 0.308600 0.239597 0.253524
O O4 0.244838 0.099266 0.266135
O O5 0.080911 0.227215 0.732763
O O6 0.151696 0.105225 0.781851
O O7 0.063678 0.028486 0.790718
O O8 0.094179 0.154566 0.000000
O O9 0.595102 0.958558 0.500000
O O10 0.579430 0.859149 0.743052
O O11 0.589043 0.068091 0.741257
O O12 0.560986 0.612943 0.500000
O O13 0.532799 0.674599 0.239270
O O14 0.618566 0.631063 0.261857
O O15 0.056009 0.718263 0.500000
O O16 0.990938 0.648639 0.683748
O O17 0.204419 0.936837 0.182435
O O18 0.158122 0.812513 0.000000
O O19 0.581364 0.154462 0.000000
O O20 0.211956 0.097227 0.000000
#
# Coordination Sequence:
#
# PCOD8237281 Si02
#       8
#     8   8   8   8   8   8   8   8
#     4  10  20  35  57  84 111 142 186 237 287 342
#     4   9  20  39  61  85 116 154 197 243 287 341
#     4  11  23  40  62  85 113 150 198 249 291 345
#     4   9  17  35  62  85 109 147 195 241 283 335
#     4  11  23  38  58  87 119 152 192 242 298 353
#     4   8  15  33  55  75 105 143 180 226 281 328
#     4  11  25  41  57  82 122 161 192 236 297 358
#     4   9  19  35  57  83 112 146 186 233 285 340
#
# _framework density 19.529178000000002
#
# number of rings (size 3 to 8) (size 9 to 14) (size 15 to 20)
#    0.000    2.250    1.250    3.000    0.000    7.000 
#    0.000    7.500    0.000    0.000    0.000    0.000 
#    0.000    0.000    0.000    0.000    0.000    0.000 
#
# Total GULP energy -793237.182662 kJ/mol
# GULP energy per Si atom -12394.330979 kJ/mol
# Density = 1.948473 g / cm^3
# Si number density = 19.529178 Si / 1000 Ang^3
#
#
#
# Elastic Constant Matrix: (Units=GPa)
#
#
# Indices 1 2 3 4 5 6 
#
# 1 38.2150 11.2345 24.5723 0.0000 0.0000 0.0000
# 2 11.2345 104.7680 45.1804 0.0000 0.0000 0.0000
# 3 24.5723 45.1804 82.8389 0.0000 0.0000 0.0000
# 4 0.0000 0.0000 0.0000 202.8156 0.0000 0.0000
# 5 0.0000 0.0000 0.0000 0.0000 33.5186 0.0000
# 6 0.0000 0.0000 0.0000 0.0000 0.0000 21.2565
#
#
#
# Elastic Compliance Matrix: (Units=1/GPa)
#
#
# Indices 1 2 3 4 5 6 
#
# 1 0.032396 0.000876 -0.010088 0.000000 0.000000 0.000000
# 2 0.000876 0.012504 -0.007080 0.000000 0.000000 0.000000
# 3 -0.010088 -0.007080 0.018925 0.000000 0.000000 0.000000
# 4 0.000000 0.000000 0.000000 0.004931 0.000000 0.000000
# 5 0.000000 0.000000 0.000000 0.000000 0.029834 0.000000
# 6 0.000000 0.000000 0.000000 0.000000 0.000000 0.047044
#
#
# Mechanical properties :
#
#
# Convention : Reuss Voigt Hill
#
# Bulk Modulus (GPa) = 32.00651 43.08848 37.54750
# Shear Modulus (GPa) = 26.50676 61.17378 43.84027
#
# Velocity S-wave (km/s) = 3.68814 5.60288 4.74314
# Velocity P-wave (km/s) = 5.87887 7.99800 7.01887
#
# Compressibility (1/GPa) = 0.03124364
#
# Stress axis : x y z
#
# Youngs Moduli (GPa) = 30.86761 79.97466 52.83987
#
# Poissons Ratio (x) = -0.07008 0.53303
# Poissons Ratio (y) = -0.02705 0.37408
# Poissons Ratio (z) = 0.31138 0.56619
#
# Static dielectric constant tensor:
#      x y z
#    x 3.579450 0.000000 0.000000 
#    y 0.000000 3.799930 0.000000 
#    z 0.000000 0.000000 3.393110 
# 
# 
# High freq. dielectric constant tensor:
#      x y z
#    x 1.758260 0.000000 0.000000 
#    y 0.000000 1.772580 0.000000 
#    z 0.000000 0.000000 1.743560 
# 
# From -- ./inp_files/11041.got.cif
#   From: 2010.06.25/outbox.cif.g09.slc.cpg/sg58_6_cif.got.tgz:11041.got - 2010.06.26 21:38:00.
