data_PCOD8237563
_publ_section_title
;
Structure prediction by ZEFSAII (Michael W. Deem and Ramdas Pophale) SiO2 
 PCOD8237563
Probable space group: P N N M
;
_chemical_formula_sum "Si O2"
_cell_formula_units_Z 40
_cell_length_a 13.473725
_cell_length_b 18.056991
_cell_length_c 8.571153
_cell_angle_alpha 90.000000
_cell_angle_beta 90.000000
_cell_angle_gamma 90.000000
_cell_volume 2085.318078
_symmetry_space_group_name_H-M "P N N M"
_symmetry_group_IT_number 58
_symmetry_cell_setting 'orthorhombic'
loop_
_space_group_symop_operation_xyz
x,y,z
-x,-y,z
1/2+x,1/2-y,1/2-z
1/2-x,1/2+y,1/2-z
-x,-y,-z
x,y,-z
1/2-x,1/2+y,1/2+z
1/2+x,1/2-y,1/2+z
loop_
_atom_site_type_symbol
_atom_site_label
_atom_site_fract_x
_atom_site_fract_y
_atom_site_fract_z
Si Si1 0.622377 0.881550 0.181689
Si Si2 0.706500 0.024483 0.318785
Si Si3 0.898972 0.962248 0.817086
Si Si4 0.097352 0.338625 0.318041
Si Si5 0.314277 0.681857 0.817490
O O1 0.518581 0.843449 0.224146
O O2 0.709608 0.825205 0.228777
O O3 0.630800 0.958860 0.273716
O O4 0.630667 0.900246 0.000000
O O5 0.732108 0.018894 0.500000
O O6 0.658180 0.102843 0.282161
O O7 0.808109 0.016669 0.222206
O O8 0.887701 0.884647 0.727867
O O9 0.901333 0.945971 0.000000
O O10 0.000000 0.000000 0.759062
O O11 0.115738 0.354376 0.500000
O O12 0.134048 0.257888 0.267281
O O13 0.292467 0.679037 0.000000
#
# Coordination Sequence:
#
# PCOD8237563 Si02
#       5
#     8   8   8   8   8
#     4  10  20  37  58  78 108 147 182 220 271 325
#     4  11  22  35  56  84 110 140 182 228 271 320
#     4  10  21  38  59  81 109 147 185 221 268 324
#     4  10  22  38  56  80 111 146 181 222 273 325
#     4  10  21  37  56  81 112 142 179 227 273 319
#
# _framework density 19.181726000000001
#
# number of rings (size 3 to 8) (size 9 to 14) (size 15 to 20)
#    0.000    1.800    0.000    6.600    0.000    8.800 
#    0.000    4.000    0.000    0.000    0.000    0.000 
#    0.000    0.000    0.000    0.000    0.000    0.000 
#
# Total GULP energy -496187.686525 kJ/mol
# GULP energy per Si atom -12404.692163 kJ/mol
# Density = 1.913807 g / cm^3
# Si number density = 19.181726 Si / 1000 Ang^3
#
#
#
# Elastic Constant Matrix: (Units=GPa)
#
#
# Indices 1 2 3 4 5 6 
#
# 1 115.8308 78.4286 15.3793 0.0000 0.0000 0.0000
# 2 78.4286 128.7244 21.5878 0.0000 0.0000 0.0000
# 3 15.3793 21.5878 41.0409 0.0000 0.0000 0.0000
# 4 0.0000 0.0000 0.0000 28.6433 0.0000 0.0000
# 5 0.0000 0.0000 0.0000 0.0000 21.8433 0.0000
# 6 0.0000 0.0000 0.0000 0.0000 0.0000 30.2392
#
#
#
# Elastic Compliance Matrix: (Units=1/GPa)
#
#
# Indices 1 2 3 4 5 6 
#
# 1 0.014725 -0.008824 -0.000876 0.000000 0.000000 0.000000
# 2 -0.008824 0.013809 -0.003957 0.000000 0.000000 0.000000
# 3 -0.000876 -0.003957 0.026775 0.000000 0.000000 0.000000
# 4 0.000000 0.000000 0.000000 0.034912 0.000000 0.000000
# 5 0.000000 0.000000 0.000000 0.000000 0.045781 0.000000
# 6 0.000000 0.000000 0.000000 0.000000 0.000000 0.033070
#
#
# Mechanical properties :
#
#
# Convention : Reuss Voigt Hill
#
# Bulk Modulus (GPa) = 35.72141 57.37640 46.54890
# Shear Modulus (GPa) = 24.30526 27.49184 25.89855
#
# Velocity S-wave (km/s) = 3.56350 3.78991 3.67845
# Velocity P-wave (km/s) = 5.96611 7.00915 6.50856
#
# Compressibility (1/GPa) = 0.02799442
#
# Stress axis : x y z
#
# Youngs Moduli (GPa) = 67.91370 72.41874 37.34762
#
# Poissons Ratio (x) = 0.63905 0.03272
# Poissons Ratio (y) = 0.59930 0.14777
# Poissons Ratio (z) = 0.05950 0.28653
#
# Static dielectric constant tensor:
#      x y z
#    x 3.629590 0.000000 0.000000 
#    y 0.000000 3.486680 0.000000 
#    z 0.000000 0.000000 3.561270 
# 
# 
# High freq. dielectric constant tensor:
#      x y z
#    x 1.752220 0.000000 0.000000 
#    y 0.000000 1.744050 0.000000 
#    z 0.000000 0.000000 1.754860 
# 
# From -- ./inp_files/3817.got.cif
#   From: 2010.06.25/outbox.cif.g09.slc.cpg/sg58_2_cif.got.tgz:3817.got - 2010.06.26 21:38:00.
