data_PCOD8237650
_publ_section_title
;
Structure prediction by ZEFSAII (Michael W. Deem and Ramdas Pophale) SiO2 
 PCOD8237650
Probable space group: P N N M
;
_chemical_formula_sum "Si O2"
_cell_formula_units_Z 48
_cell_length_a 16.651893
_cell_length_b 10.796635
_cell_length_c 14.030780
_cell_angle_alpha 90.000000
_cell_angle_beta 90.000000
_cell_angle_gamma 90.000000
_cell_volume 2522.515515
_symmetry_space_group_name_H-M "P N N M"
_symmetry_group_IT_number 58
_symmetry_cell_setting 'orthorhombic'
loop_
_space_group_symop_operation_xyz
x,y,z
-x,-y,z
1/2+x,1/2-y,1/2-z
1/2-x,1/2+y,1/2-z
-x,-y,-z
x,y,-z
1/2-x,1/2+y,1/2+z
1/2+x,1/2-y,1/2+z
loop_
_atom_site_type_symbol
_atom_site_label
_atom_site_fract_x
_atom_site_fract_y
_atom_site_fract_z
Si Si1 0.427333 0.067580 0.785033
Si Si2 0.276383 0.373914 0.106566
Si Si3 0.590505 0.098109 0.608922
Si Si4 0.004660 0.803215 0.787306
Si Si5 0.873670 0.993249 0.770336
Si Si6 0.226079 0.589945 0.391734
O O1 0.448636 0.213590 0.786763
O O2 0.345107 0.023338 0.833900
O O3 0.500000 0.000000 0.840970
O O4 0.428851 0.019740 0.675109
O O5 0.182588 0.371408 0.129230
O O6 0.326655 0.459385 0.177752
O O7 0.301082 0.231706 0.115579
O O8 0.293357 0.424279 0.000000
O O9 0.575495 0.058690 0.500000
O O10 0.536286 0.219988 0.630457
O O11 0.933453 0.882700 0.737211
O O12 0.074009 0.898727 0.822420
O O13 0.811796 0.941007 0.847373
O O14 0.228205 0.542994 0.500000
#
# Coordination Sequence:
#
# PCOD8237650 Si02
#       6
#     8   8   8   8   8   8
#     4  10  21  38  60  85 116 157 198 245 294 345
#     4  10  20  37  62  86 113 155 202 240 285 351
#     4  10  20  37  62  89 117 154 200 245 292 350
#     4  10  22  35  56  88 123 155 190 242 302 345
#     4  11  21  38  60  87 122 156 192 246 300 352
#     4  11  22  38  60  85 117 159 198 236 291 360
#
# _framework density 19.028624000000001
#
# number of rings (size 3 to 8) (size 9 to 14) (size 15 to 20)
#    0.000    1.667    5.000    0.000    0.000    4.000 
#    0.000    4.167    0.000   10.000    0.000    0.000 
#    0.000    0.000    0.000    0.000    0.000    0.000 
#
# Total GULP energy -594685.465186 kJ/mol
# GULP energy per Si atom -12389.280525 kJ/mol
# Density = 1.898531 g / cm^3
# Si number density = 19.028624 Si / 1000 Ang^3
#
#
#
# Elastic Constant Matrix: (Units=GPa)
#
#
# Indices 1 2 3 4 5 6 
#
# 1 126.9461 37.0901 55.0495 0.0000 0.0000 0.0000
# 2 37.0901 85.1818 37.7206 0.0000 0.0000 0.0000
# 3 55.0495 37.7206 108.4301 0.0000 0.0000 0.0000
# 4 0.0000 0.0000 0.0000 21.4643 0.0000 0.0000
# 5 0.0000 0.0000 0.0000 0.0000 17.5418 0.0000
# 6 0.0000 0.0000 0.0000 0.0000 0.0000 37.7541
#
#
#
# Elastic Compliance Matrix: (Units=1/GPa)
#
#
# Indices 1 2 3 4 5 6 
#
# 1 0.010578 -0.002634 -0.004454 0.000000 0.000000 0.000000
# 2 -0.002634 0.014533 -0.003719 0.000000 0.000000 0.000000
# 3 -0.004454 -0.003719 0.012778 0.000000 0.000000 0.000000
# 4 0.000000 0.000000 0.000000 0.046589 0.000000 0.000000
# 5 0.000000 0.000000 0.000000 0.000000 0.057007 0.000000
# 6 0.000000 0.000000 0.000000 0.000000 0.000000 0.026487
#
#
# Mechanical properties :
#
#
# Convention : Reuss Voigt Hill
#
# Bulk Modulus (GPa) = 61.44112 64.47538 62.95825
# Shear Modulus (GPa) = 25.63963 28.06524 26.85243
#
# Velocity S-wave (km/s) = 3.67471 3.84460 3.76062
# Velocity P-wave (km/s) = 7.09673 7.32563 7.21209
#
# Compressibility (1/GPa) = 0.01627575
#
# Stress axis : x y z
#
# Youngs Moduli (GPa) = 94.53160 68.80880 78.26127
#
# Poissons Ratio (x) = 0.18121 0.34861
# Poissons Ratio (y) = 0.24895 0.29103
# Poissons Ratio (z) = 0.42109 0.25588
#
# Static dielectric constant tensor:
#      x y z
#    x 3.883010 0.000000 0.000000 
#    y 0.000000 3.529640 0.000000 
#    z 0.000000 0.000000 3.179550 
# 
# 
# High freq. dielectric constant tensor:
#      x y z
#    x 1.772690 0.000000 0.000000 
#    y 0.000000 1.738980 0.000000 
#    z 0.000000 0.000000 1.704730 
# 
# From -- ./inp_files/22121.got.cif
#   From: 2010.06.25/outbox.cif.g09.slc.cpg/sg58_12_cif.got.tgz:22121.got - 2010.06.26 21:38:00.
