data_PCOD8237722
_publ_section_title
;
Structure prediction by ZEFSAII (Michael W. Deem and Ramdas Pophale) SiO2 
 PCOD8237722
Probable space group: P N N M
;
_chemical_formula_sum "Si O2"
_cell_formula_units_Z 48
_cell_length_a 14.970836
_cell_length_b 18.714141
_cell_length_c 9.080138
_cell_angle_alpha 90.000000
_cell_angle_beta 90.000000
_cell_angle_gamma 90.000000
_cell_volume 2543.948992
_symmetry_space_group_name_H-M "P N N M"
_symmetry_group_IT_number 58
_symmetry_cell_setting 'orthorhombic'
loop_
_space_group_symop_operation_xyz
x,y,z
-x,-y,z
1/2+x,1/2-y,1/2-z
1/2-x,1/2+y,1/2-z
-x,-y,-z
x,y,-z
1/2-x,1/2+y,1/2+z
1/2+x,1/2-y,1/2+z
loop_
_atom_site_type_symbol
_atom_site_label
_atom_site_fract_x
_atom_site_fract_y
_atom_site_fract_z
Si Si1 0.704660 0.236570 0.825854
Si Si2 0.617826 0.813086 0.328773
Si Si3 0.739495 0.077985 0.826536
Si Si4 0.097811 0.520842 0.170936
Si Si5 0.444288 0.430241 0.672009
Si Si6 0.984880 0.789723 0.325148
O O1 0.786527 0.285291 0.773223
O O2 0.716557 0.156517 0.762548
O O3 0.614897 0.273586 0.767247
O O4 0.702556 0.231562 0.000000
O O5 0.601669 0.794286 0.500000
O O6 0.543546 0.775645 0.231161
O O7 0.613802 0.896502 0.298486
O O8 0.674200 0.021301 0.754733
O O9 0.841120 0.057908 0.784654
O O10 0.724951 0.075061 0.000000
O O11 0.000000 0.500000 0.231709
O O12 0.105166 0.501125 0.000000
O O13 0.500000 0.500000 0.716852
O O14 0.453510 0.412480 0.500000
O O15 0.483489 0.364416 0.761080
O O16 0.990069 0.793422 0.500000
#
# Coordination Sequence:
#
# PCOD8237722 Si02
#       6
#     8   8   8   8   8   8
#     4   9  19  36  57  80 109 151 190 227 289 347
#     4  10  20  39  60  78 115 159 187 226 288 351
#     4  10  20  38  61  82 113 155 194 233 281 343
#     4  10  22  37  57  87 118 149 189 237 290 340
#     4  10  22  40  60  83 116 159 198 232 286 354
#     4  11  22  36  59  89 114 143 193 247 288 336
#
# _framework density 18.868302
#
# number of rings (size 3 to 8) (size 9 to 14) (size 15 to 20)
#    0.000    2.000    1.667    1.500    2.333    2.000 
#    0.000    2.500    0.000    0.000    0.000    0.000 
#    0.000    0.000    0.000    0.000    0.000    0.000 
#
# Total GULP energy -595329.099197 kJ/mol
# GULP energy per Si atom -12402.689567 kJ/mol
# Density = 1.882536 g / cm^3
# Si number density = 18.868302 Si / 1000 Ang^3
#
#
#
# Elastic Constant Matrix: (Units=GPa)
#
#
# Indices 1 2 3 4 5 6 
#
# 1 145.4493 61.8126 40.2152 0.0000 0.0000 0.0000
# 2 61.8126 115.0732 39.2993 0.0000 0.0000 0.0000
# 3 40.2152 39.2993 42.2522 0.0000 0.0000 0.0000
# 4 0.0000 0.0000 0.0000 42.0914 0.0000 0.0000
# 5 0.0000 0.0000 0.0000 0.0000 21.4991 0.0000
# 6 0.0000 0.0000 0.0000 0.0000 0.0000 42.1355
#
#
#
# Elastic Compliance Matrix: (Units=1/GPa)
#
#
# Indices 1 2 3 4 5 6 
#
# 1 0.010042 -0.003121 -0.006654 0.000000 0.000000 0.000000
# 2 -0.003121 0.013706 -0.009777 0.000000 0.000000 0.000000
# 3 -0.006654 -0.009777 0.039095 0.000000 0.000000 0.000000
# 4 0.000000 0.000000 0.000000 0.023758 0.000000 0.000000
# 5 0.000000 0.000000 0.000000 0.000000 0.046514 0.000000
# 6 0.000000 0.000000 0.000000 0.000000 0.000000 0.023733
#
#
# Mechanical properties :
#
#
# Convention : Reuss Voigt Hill
#
# Bulk Modulus (GPa) = 42.12898 65.04769 53.58833
# Shear Modulus (GPa) = 24.52618 31.90838 28.21728
#
# Velocity S-wave (km/s) = 3.60927 4.11677 3.87135
# Velocity P-wave (km/s) = 6.30440 7.55953 6.96032
#
# Compressibility (1/GPa) = 0.02373663
#
# Stress axis : x y z
#
# Youngs Moduli (GPa) = 99.58569 72.96171 25.57902
#
# Poissons Ratio (x) = 0.22774 0.17021
# Poissons Ratio (y) = 0.31085 0.25009
# Poissons Ratio (z) = 0.66267 0.71335
#
# Static dielectric constant tensor:
#      x y z
#    x 3.821440 0.000000 0.000000 
#    y 0.000000 3.597570 0.000000 
#    z 0.000000 0.000000 3.243350 
# 
# 
# High freq. dielectric constant tensor:
#      x y z
#    x 1.752270 0.000000 0.000000 
#    y 0.000000 1.746750 0.000000 
#    z 0.000000 0.000000 1.710210 
# 
# From -- ./inp_files/5756.got.cif
#   From: 2010.06.25/outbox.cif.g09.slc.cpg/sg58_3_cif.got.tgz:5756.got - 2010.06.26 21:38:00.
