data_PCOD8237156
_publ_section_title
;
Structure prediction by ZEFSAII (Michael W. Deem and Ramdas Pophale) SiO2 
 PCOD8237156
Probable space group: P N N M
;
_chemical_formula_sum "Si O2"
_cell_formula_units_Z 64
_cell_length_a 24.688712
_cell_length_b 14.915410
_cell_length_c 8.904859
_cell_angle_alpha 90.000000
_cell_angle_beta 90.000000
_cell_angle_gamma 90.000000
_cell_volume 3279.145420
_symmetry_space_group_name_H-M "P N N M"
_symmetry_group_IT_number 58
_symmetry_cell_setting 'orthorhombic'
loop_
_space_group_symop_operation_xyz
x,y,z
-x,-y,z
1/2+x,1/2-y,1/2-z
1/2-x,1/2+y,1/2-z
-x,-y,-z
x,y,-z
1/2-x,1/2+y,1/2+z
1/2+x,1/2-y,1/2+z
loop_
_atom_site_type_symbol
_atom_site_label
_atom_site_fract_x
_atom_site_fract_y
_atom_site_fract_z
Si Si1 0.054071 0.807967 0.324361
Si Si2 0.219907 0.964411 0.174323
Si Si3 0.655958 0.214881 0.674156
Si Si4 0.331127 0.987852 0.675943
Si Si5 0.734851 0.742813 0.673580
Si Si6 0.390266 0.494859 0.823911
Si Si7 0.056587 0.158939 0.175395
Si Si8 0.361341 0.157874 0.176528
O O1 0.039498 0.805429 0.500000
O O2 0.090687 0.724139 0.274567
O O3 0.000215 0.800283 0.226591
O O4 0.085953 0.898153 0.282963
O O5 0.271016 0.004881 0.260736
O O6 0.216430 0.858641 0.203364
O O7 0.166044 0.010614 0.238027
O O8 0.225678 0.988253 0.000000
O O9 0.671980 0.222969 0.500000
O O10 0.647503 0.110895 0.718927
O O11 0.703945 0.258161 0.771044
O O12 0.601315 0.266645 0.713519
O O13 0.329893 0.003528 0.500000
O O14 0.371619 0.060288 0.750262
O O15 0.731045 0.769073 0.500000
O O16 0.696170 0.806264 0.767728
O O17 0.432855 0.568610 0.768300
O O18 0.380132 0.504871 0.000000
O O19 0.055372 0.135529 0.000000
O O20 0.358988 0.147745 0.000000
#
# Coordination Sequence:
#
# PCOD8237156 Si02
#       8
#     8   8   8   8   8   8   8   8
#     4  10  23  42  61  84 117 158 199 241 297 356
#     4  10  20  35  56  86 121 154 192 238 288 346
#     4   9  21  41  60  82 118 157 194 242 301 353
#     4  10  21  38  60  85 117 156 197 242 295 354
#     4  10  20  34  57  87 117 152 194 239 289 349
#     4  11  22  38  59  85 119 159 197 237 291 355
#     4  11  24  40  61  87 115 154 200 250 300 350
#     4  11  22  38  60  86 119 157 196 243 297 350
#
# _framework density 19.517278999999998
#
# number of rings (size 3 to 8) (size 9 to 14) (size 15 to 20)
#    0.000    1.750    1.250    2.625    1.750    6.000 
#    0.000    0.625    0.000    3.750    0.000    0.000 
#    0.000    0.000    0.000    0.000    0.000    0.000 
#
# Total GULP energy -793987.015592 kJ/mol
# GULP energy per Si atom -12406.047119 kJ/mol
# Density = 1.947286 g / cm^3
# Si number density = 19.517279 Si / 1000 Ang^3
#
#
#
# Elastic Constant Matrix: (Units=GPa)
#
#
# Indices 1 2 3 4 5 6 
#
# 1 94.6551 34.2272 43.9562 0.0000 0.0000 0.0000
# 2 34.2272 61.2810 35.2680 0.0000 0.0000 0.0000
# 3 43.9562 35.2680 77.2352 0.0000 0.0000 0.0000
# 4 0.0000 0.0000 0.0000 32.0017 0.0000 0.0000
# 5 0.0000 0.0000 0.0000 0.0000 34.9139 0.0000
# 6 0.0000 0.0000 0.0000 0.0000 0.0000 27.1461
#
#
#
# Elastic Compliance Matrix: (Units=1/GPa)
#
#
# Indices 1 2 3 4 5 6 
#
# 1 0.015337 -0.004806 -0.006534 0.000000 0.000000 0.000000
# 2 -0.004806 0.023641 -0.008060 0.000000 0.000000 0.000000
# 3 -0.006534 -0.008060 0.020347 0.000000 0.000000 0.000000
# 4 0.000000 0.000000 0.000000 0.031248 0.000000 0.000000
# 5 0.000000 0.000000 0.000000 0.000000 0.028642 0.000000
# 6 0.000000 0.000000 0.000000 0.000000 0.000000 0.036838
#
#
# Mechanical properties :
#
#
# Convention : Reuss Voigt Hill
#
# Bulk Modulus (GPa) = 48.72189 51.11933 49.92061
# Shear Modulus (GPa) = 24.79005 26.79367 25.79186
#
# Velocity S-wave (km/s) = 3.56780 3.70918 3.63917
# Velocity P-wave (km/s) = 6.47996 6.67777 6.57961
#
# Compressibility (1/GPa) = 0.02052465
#
# Stress axis : x y z
#
# Youngs Moduli (GPa) = 65.20333 42.29922 49.14792
#
# Poissons Ratio (x) = 0.20327 0.32114
# Poissons Ratio (y) = 0.31333 0.39615
# Poissons Ratio (z) = 0.42604 0.34095
#
# Static dielectric constant tensor:
#      x y z
#    x 3.443070 0.000000 0.000000 
#    y 0.000000 3.728190 0.000000 
#    z 0.000000 0.000000 3.566230 
# 
# 
# High freq. dielectric constant tensor:
#      x y z
#    x 1.748980 0.000000 0.000000 
#    y 0.000000 1.766910 0.000000 
#    z 0.000000 0.000000 1.768630 
# 
# From -- ./inp_files/6731.got.cif
#   From: 2010.06.25/outbox.cif.g09.slc.cpg/sg58_4_cif.got.tgz:6731.got - 2010.06.26 21:38:00.
