data_PCOD8237007
_publ_section_title
;
Structure prediction by ZEFSAII (Michael W. Deem and Ramdas Pophale) SiO2 
 PCOD8237007
Probable space group: P N N M
;
_chemical_formula_sum "Si O2"
_cell_formula_units_Z 64
_cell_length_a 12.838968
_cell_length_b 29.020660
_cell_length_c 8.146809
_cell_angle_alpha 90.000000
_cell_angle_beta 90.000000
_cell_angle_gamma 90.000000
_cell_volume 3035.462948
_symmetry_space_group_name_H-M "P N N M"
_symmetry_group_IT_number 58
_symmetry_cell_setting 'orthorhombic'
loop_
_space_group_symop_operation_xyz
x,y,z
-x,-y,z
1/2+x,1/2-y,1/2-z
1/2-x,1/2+y,1/2-z
-x,-y,-z
x,y,-z
1/2-x,1/2+y,1/2+z
1/2+x,1/2-y,1/2+z
loop_
_atom_site_type_symbol
_atom_site_label
_atom_site_fract_x
_atom_site_fract_y
_atom_site_fract_z
Si Si1 0.494773 0.301387 0.305242
Si Si2 0.979074 0.449973 0.695297
Si Si3 0.285066 0.665237 0.695183
Si Si4 0.250112 0.564600 0.694823
Si Si5 0.838715 0.119810 0.195294
Si Si6 0.933114 0.297013 0.308304
Si Si7 0.888863 0.017729 0.804216
Si Si8 0.891340 0.635108 0.304710
O O1 0.489197 0.296584 0.500000
O O2 0.613971 0.306564 0.242792
O O3 0.428029 0.345278 0.244545
O O4 0.445334 0.256678 0.224071
O O5 0.980566 0.452603 0.500000
O O6 0.867558 0.433222 0.759131
O O7 0.000000 0.500000 0.772132
O O8 0.065767 0.414185 0.756611
O O9 0.280325 0.667165 0.500000
O O10 0.302230 0.612413 0.753309
O O11 0.177573 0.686269 0.768738
O O12 0.254344 0.561087 0.500000
O O13 0.306772 0.519467 0.766988
O O14 0.862801 0.068657 0.265716
O O15 0.727080 0.138817 0.261518
O O16 0.836262 0.117244 0.000000
O O17 0.929246 0.307586 0.500000
O O18 0.032366 0.324899 0.233120
O O19 0.886177 0.019379 0.000000
O O20 0.000000 0.000000 0.740889
O O21 0.891386 0.637884 0.500000
#
# Coordination Sequence:
#
# PCOD8237007 Si02
#       8
#     8   8   8   8   8   8   8   8
#     4  10  21  34  50  70  95 126 161 200 242 285
#     4   9  14  20  33  56  85 119 152 181 222 278
#     4   9  17  31  47  66  93 125 160 196 237 286
#     4   9  14  22  37  57  85 121 155 185 224 280
#     4   9  17  28  41  63  94 125 155 191 236 283
#     4  10  20  34  51  69  92 126 163 200 242 284
#     4   9  15  22  35  57  87 124 157 182 222 284
#     4   9  16  27  41  60  88 120 153 190 233 279
#
# _framework density 21.084098999999998
#
# number of rings (size 3 to 8) (size 9 to 14) (size 15 to 20)
#    0.000    2.750    1.250    1.500    1.750    6.000 
#    0.000    0.000    0.000    0.000    0.000    0.000 
#    0.000    6.000    0.000    0.500    0.000    0.000 
#
# Total GULP energy -793208.375530 kJ/mol
# GULP energy per Si atom -12393.880868 kJ/mol
# Density = 2.103611 g / cm^3
# Si number density = 21.084099 Si / 1000 Ang^3
#
#
#
# Elastic Constant Matrix: (Units=GPa)
#
#
# Indices 1 2 3 4 5 6 
#
# 1 176.6690 77.0129 4.1436 0.0000 0.0000 0.0000
# 2 77.0129 161.4122 -0.9440 0.0000 0.0000 0.0000
# 3 4.1436 -0.9440 3.6997 0.0000 0.0000 0.0000
# 4 0.0000 0.0000 0.0000 13.8241 0.0000 0.0000
# 5 0.0000 0.0000 0.0000 0.0000 4.1128 0.0000
# 6 0.0000 0.0000 0.0000 0.0000 0.0000 44.7998
#
#
#
# Elastic Compliance Matrix: (Units=1/GPa)
#
#
# Indices 1 2 3 4 5 6 
#
# 1 0.007451 -0.003609 -0.009266 0.000000 0.000000 0.000000
# 2 -0.003609 0.007953 0.006072 0.000000 0.000000 0.000000
# 3 -0.009266 0.006072 0.282222 0.000000 0.000000 0.000000
# 4 0.000000 0.000000 0.000000 0.072338 0.000000 0.000000
# 5 0.000000 0.000000 0.000000 0.000000 0.243140 0.000000
# 6 0.000000 0.000000 0.000000 0.000000 0.000000 0.022322
#
#
# Mechanical properties :
#
#
# Convention : Reuss Voigt Hill
#
# Bulk Modulus (GPa) = 3.52089 55.80068 29.66078
# Shear Modulus (GPa) = 6.72309 29.98523 18.35416
#
# Velocity S-wave (km/s) = 1.78763 3.77526 2.95366
# Velocity P-wave (km/s) = 2.43606 6.74735 5.07253
#
# Compressibility (1/GPa) = 0.28401892
#
# Stress axis : x y z
#
# Youngs Moduli (GPa) = 134.21144 125.74136 3.54330
#
# Poissons Ratio (x) = 0.45382 0.03283
# Poissons Ratio (y) = 0.48439 -0.02151
# Poissons Ratio (z) = 1.24360 -0.76344
#
# Static dielectric constant tensor:
#      x y z
#    x 4.184880 0.000000 0.000000 
#    y 0.000000 3.955380 0.000000 
#    z 0.000000 0.000000 2.904650 
# 
# 
# High freq. dielectric constant tensor:
#      x y z
#    x 1.842940 0.000000 0.000000 
#    y 0.000000 1.838630 0.000000 
#    z 0.000000 0.000000 1.736570 
# 
# From -- ./inp_files/14905.got.cif
#   From: 2010.06.25/outbox.cif.g09.slc.cpg/sg58_8_cif.got.tgz:14905.got - 2010.06.26 21:38:00.
