data_PCOD8237265
_publ_section_title
;
Structure prediction by ZEFSAII (Michael W. Deem and Ramdas Pophale) SiO2 
 PCOD8237265
Probable space group: P N N M
;
_chemical_formula_sum "Si O2"
_cell_formula_units_Z 64
_cell_length_a 12.786496
_cell_length_b 8.849258
_cell_length_c 26.663534
_cell_angle_alpha 90.000000
_cell_angle_beta 90.000000
_cell_angle_gamma 90.000000
_cell_volume 3017.005589
_symmetry_space_group_name_H-M "P N N M"
_symmetry_group_IT_number 58
_symmetry_cell_setting 'orthorhombic'
loop_
_space_group_symop_operation_xyz
x,y,z
-x,-y,z
1/2+x,1/2-y,1/2-z
1/2-x,1/2+y,1/2-z
-x,-y,-z
x,y,-z
1/2-x,1/2+y,1/2+z
1/2+x,1/2-y,1/2+z
loop_
_atom_site_type_symbol
_atom_site_label
_atom_site_fract_x
_atom_site_fract_y
_atom_site_fract_z
Si Si1 0.019797 0.824119 0.602940
Si Si2 0.684110 0.182686 0.941060
Si Si3 0.132774 0.275749 0.223116
Si Si4 0.404734 0.794292 0.387386
Si Si5 0.283486 0.161674 0.941392
Si Si6 0.361968 0.146127 0.380881
Si Si7 0.535795 0.843086 0.201127
Si Si8 0.708613 0.903112 0.272583
O O1 0.134909 0.774450 0.585074
O O2 0.014570 0.791594 0.662382
O O3 0.932907 0.732039 0.572529
O O4 0.000000 0.000000 0.593378
O O5 0.768304 0.287352 0.913549
O O6 0.696686 0.009580 0.923721
O O7 0.702533 0.200793 0.000000
O O8 0.116112 0.218119 0.166750
O O9 0.173228 0.149285 0.261977
O O10 0.211788 0.417572 0.221601
O O11 0.023826 0.330034 0.245892
O O12 0.335940 0.704197 0.427765
O O13 0.528714 0.777441 0.398234
O O14 0.369668 0.967717 0.389276
O O15 0.299708 0.179765 0.000000
O O16 0.338596 0.176804 0.322174
O O17 0.654501 0.850731 0.220190
O O18 0.500000 0.000000 0.174619
#
# Coordination Sequence:
#
# PCOD8237265 Si02
#       8
#     8   8   8   8   8   8   8   8
#     4  12  25  41  64  95 126 157 205 262 315 377
#     4  11  25  44  65  90 122 162 208 260 319 378
#     4  10  20  35  56  84 119 159 199 242 291 350
#     4  10  21  40  64  91 127 166 208 258 308 363
#     4  11  25  44  65  90 122 162 208 260 319 378
#     4  10  21  40  64  91 127 166 208 258 308 363
#     4  10  20  37  59  84 121 162 196 233 293 358
#     4  10  20  35  56  84 119 159 199 242 291 350
#
# _framework density 21.213085
#
# number of rings (size 3 to 8) (size 9 to 14) (size 15 to 20)
#    0.000    1.500    1.250    3.750    0.000   10.500 
#    0.000    2.500    0.000    0.000    0.000    0.000 
#    0.000    0.000    0.000    0.000    0.000    0.000 
#
# Total GULP energy -793582.723113 kJ/mol
# GULP energy per Si atom -12399.730049 kJ/mol
# Density = 2.116480 g / cm^3
# Si number density = 21.213085 Si / 1000 Ang^3
#
#
#
# Elastic Constant Matrix: (Units=GPa)
#
#
# Indices 1 2 3 4 5 6 
#
# 1 67.9609 -0.0175 13.7955 0.0000 0.0000 0.0000
# 2 -0.0175 42.0258 21.2654 0.0000 0.0000 0.0000
# 3 13.7955 21.2654 74.8803 0.0000 0.0000 0.0000
# 4 0.0000 0.0000 0.0000 25.9173 0.0000 0.0000
# 5 0.0000 0.0000 0.0000 0.0000 21.3018 0.0000
# 6 0.0000 0.0000 0.0000 0.0000 0.0000 35.3071
#
#
#
# Elastic Compliance Matrix: (Units=1/GPa)
#
#
# Indices 1 2 3 4 5 6 
#
# 1 0.015387 0.001683 -0.003313 0.000000 0.000000 0.000000
# 2 0.001683 0.027972 -0.008254 0.000000 0.000000 0.000000
# 3 -0.003313 -0.008254 0.016309 0.000000 0.000000 0.000000
# 4 0.000000 0.000000 0.000000 0.038584 0.000000 0.000000
# 5 0.000000 0.000000 0.000000 0.000000 0.046944 0.000000
# 6 0.000000 0.000000 0.000000 0.000000 0.000000 0.028323
#
#
# Mechanical properties :
#
#
# Convention : Reuss Voigt Hill
#
# Bulk Modulus (GPa) = 25.06234 28.32820 26.69527
# Shear Modulus (GPa) = 24.20277 26.49347 25.34812
#
# Velocity S-wave (km/s) = 3.38144 3.53784 3.46052
# Velocity P-wave (km/s) = 5.20439 5.48375 5.34590
#
# Compressibility (1/GPa) = 0.03990051
#
# Stress axis : x y z
#
# Youngs Moduli (GPa) = 64.98894 35.74988 61.31585
#
# Poissons Ratio (x) = -0.06015 0.20312
# Poissons Ratio (y) = -0.10935 0.50609
# Poissons Ratio (z) = 0.21529 0.29507
#
# Static dielectric constant tensor:
#      x y z
#    x 3.839250 0.000000 0.000000 
#    y 0.000000 3.792170 0.000000 
#    z 0.000000 0.000000 3.694270 
# 
# 
# High freq. dielectric constant tensor:
#      x y z
#    x 1.841250 0.000000 0.000000 
#    y 0.000000 1.822030 0.000000 
#    z 0.000000 0.000000 1.831410 
# 
# From -- ./inp_files/34953.got.cif
#   From: 2010.06.25/outbox.cif.g09.slc.cpg/sg58_18_cif.got.tgz:34953.got - 2010.06.26 21:38:00.
