data_PCOD8237664
_publ_section_title
;
Structure prediction by ZEFSAII (Michael W. Deem and Ramdas Pophale) SiO2 
 PCOD8237664
Probable space group: P N N M
;
_chemical_formula_sum "Si O2"
_cell_formula_units_Z 36
_cell_length_a 11.214424
_cell_length_b 22.039684
_cell_length_c 7.514927
_cell_angle_alpha 90.000000
_cell_angle_beta 90.000000
_cell_angle_gamma 90.000000
_cell_volume 1857.407102
_symmetry_space_group_name_H-M "P N N M"
_symmetry_group_IT_number 58
_symmetry_cell_setting 'orthorhombic'
loop_
_space_group_symop_operation_xyz
x,y,z
-x,-y,z
1/2+x,1/2-y,1/2-z
1/2-x,1/2+y,1/2-z
-x,-y,-z
x,y,-z
1/2-x,1/2+y,1/2+z
1/2+x,1/2-y,1/2+z
loop_
_atom_site_type_symbol
_atom_site_label
_atom_site_fract_x
_atom_site_fract_y
_atom_site_fract_z
Si Si1 0.343458 0.624447 0.202915
Si Si2 0.116097 0.854106 0.295383
Si Si3 0.721431 0.946606 0.000000
Si Si4 0.985371 0.352463 0.500000
Si Si5 0.360277 0.217665 0.296823
Si Si6 0.764401 0.586365 0.500000
O O1 0.477272 0.641936 0.253993
O O2 0.297928 0.569788 0.325519
O O3 0.265171 0.684366 0.237774
O O4 0.332928 0.601981 0.000000
O O5 0.139617 0.870851 0.500000
O O6 0.162161 0.786981 0.253460
O O7 0.187238 0.901897 0.176230
O O8 0.595388 0.912447 0.000000
O O9 0.692921 0.017333 0.000000
O O10 0.962004 0.311845 0.325621
O O11 0.122522 0.369836 0.500000
O O12 0.402565 0.210759 0.500000
#
# Coordination Sequence:
#
# PCOD8237664 Si02
#       6
#     8   8   4   4   8   4
#     4   9  21  39  61  86 119 159 202 252 311 361
#     4  11  23  37  58  94 125 159 195 255 314 359
#     4  10  22  44  65  83 116 172 212 246 301 363
#     4  10  23  42  62  88 122 170 199 257 305 349
#     4  10  20  37  62  90 121 157 200 248 310 371
#     4  12  26  40  59  93 126 159 216 248 290 366
#
# _framework density 19.381858999999999
#
# number of rings (size 3 to 8) (size 9 to 14) (size 15 to 20)
#    0.000    1.778    2.222    1.000    3.111    3.556 
#    0.000    2.222    0.000    6.667    0.000    0.000 
#    0.000    0.000    0.000    0.000    0.000    0.000 
#
# Total GULP energy -446586.926316 kJ/mol
# GULP energy per Si atom -12405.192398 kJ/mol
# Density = 1.933774 g / cm^3
# Si number density = 19.381859 Si / 1000 Ang^3
#
#
#
# Elastic Constant Matrix: (Units=GPa)
#
#
# Indices 1 2 3 4 5 6 
#
# 1 78.8549 -2.4176 37.2303 0.0000 0.0000 0.0000
# 2 -2.4176 63.4879 16.1064 0.0000 0.0000 0.0000
# 3 37.2303 16.1064 117.4771 0.0000 0.0000 0.0000
# 4 0.0000 0.0000 0.0000 26.9838 0.0000 0.0000
# 5 0.0000 0.0000 0.0000 0.0000 22.4316 0.0000
# 6 0.0000 0.0000 0.0000 0.0000 0.0000 20.1216
#
#
#
# Elastic Compliance Matrix: (Units=1/GPa)
#
#
# Indices 1 2 3 4 5 6 
#
# 1 0.015121 0.001856 -0.005047 0.000000 0.000000 0.000000
# 2 0.001856 0.016546 -0.002857 0.000000 0.000000 0.000000
# 3 -0.005047 -0.002857 0.010503 0.000000 0.000000 0.000000
# 4 0.000000 0.000000 0.000000 0.037059 0.000000 0.000000
# 5 0.000000 0.000000 0.000000 0.000000 0.044580 0.000000
# 6 0.000000 0.000000 0.000000 0.000000 0.000000 0.049698
#
#
# Mechanical properties :
#
#
# Convention : Reuss Voigt Hill
#
# Bulk Modulus (GPa) = 33.24877 40.18424 36.71650
# Shear Modulus (GPa) = 25.55872 27.83412 26.69642
#
# Velocity S-wave (km/s) = 3.63532 3.79369 3.71535
# Velocity P-wave (km/s) = 5.90022 6.32198 6.11473
#
# Compressibility (1/GPa) = 0.03007630
#
# Stress axis : x y z
#
# Youngs Moduli (GPa) = 66.13272 60.43591 95.20809
#
# Poissons Ratio (x) = -0.11217 0.48048
# Poissons Ratio (y) = -0.12275 0.27199
# Poissons Ratio (z) = 0.33374 0.17265
#
# Static dielectric constant tensor:
#      x y z
#    x 3.471960 0.000000 0.000000 
#    y 0.000000 3.319770 0.000000 
#    z 0.000000 0.000000 3.854130 
# 
# 
# High freq. dielectric constant tensor:
#      x y z
#    x 1.753750 0.000000 0.000000 
#    y 0.000000 1.743520 0.000000 
#    z 0.000000 0.000000 1.772360 
# 
# From -- ./inp_files/2322.got.cif
#   From: 2010.06.25/outbox.cif.g09.slc.cpg/sg58_2_cif.got.tgz:2322.got - 2010.06.26 21:38:00.
