data_PCOD8237988
_publ_section_title
;
Structure prediction by ZEFSAII (Michael W. Deem and Ramdas Pophale) SiO2 
 PCOD8237988
Probable space group: P N N M
;
_chemical_formula_sum "Si O2"
_cell_formula_units_Z 64
_cell_length_a 24.047152
_cell_length_b 10.096557
_cell_length_c 13.568404
_cell_angle_alpha 90.000000
_cell_angle_beta 90.000000
_cell_angle_gamma 90.000000
_cell_volume 3294.319494
_symmetry_space_group_name_H-M "P N N M"
_symmetry_group_IT_number 58
_symmetry_cell_setting 'orthorhombic'
loop_
_space_group_symop_operation_xyz
x,y,z
-x,-y,z
1/2+x,1/2-y,1/2-z
1/2-x,1/2+y,1/2-z
-x,-y,-z
x,y,-z
1/2-x,1/2+y,1/2+z
1/2+x,1/2-y,1/2+z
loop_
_atom_site_type_symbol
_atom_site_label
_atom_site_fract_x
_atom_site_fract_y
_atom_site_fract_z
Si Si1 0.478098 0.142914 0.798709
Si Si2 0.791349 0.577993 0.386579
Si Si3 0.143769 0.690448 0.383153
Si Si4 0.187569 0.930420 0.748640
Si Si5 0.963072 0.882777 0.613172
Si Si6 0.589088 0.487233 0.610047
Si Si7 0.499173 0.281643 0.390462
Si Si8 0.336116 0.643444 0.889150
O O1 0.418744 0.170100 0.846823
O O2 0.523129 0.244133 0.839008
O O3 0.479403 0.162454 0.680420
O O4 0.500000 0.000000 0.828854
O O5 0.771291 0.575629 0.500000
O O6 0.822565 0.443010 0.359933
O O7 0.739153 0.605120 0.316900
O O8 0.833188 0.700117 0.366141
O O9 0.144209 0.724465 0.500000
O O10 0.171923 0.807122 0.320828
O O11 0.137912 0.980381 0.816314
O O12 0.203889 0.055470 0.679758
O O13 0.979973 0.872441 0.500000
O O14 0.898233 0.912603 0.627296
O O15 0.000000 0.000000 0.663140
O O16 0.612882 0.461918 0.500000
O O17 0.548753 0.610891 0.606808
O O18 0.556024 0.354978 0.645788
O O19 0.507898 0.222245 0.500000
O O20 0.316190 0.617892 0.000000
#
# Coordination Sequence:
#
# PCOD8237988 Si02
#       8
#     8   8   8   8   8   8   8   8
#     4  12  23  35  57  87 119 159 192 223 280 353
#     4  10  23  41  58  79 113 152 189 231 286 342
#     4  11  24  40  57  84 120 152 184 233 287 338
#     4  12  20  36  62  87 107 142 198 242 280 332
#     4  10  21  36  57  85 116 151 192 234 279 338
#     4   9  18  33  58  85 110 142 188 245 288 326
#     4   9  19  36  54  81 117 149 185 235 290 330
#     4  10  21  37  56  82 116 150 184 234 287 332
#
# _framework density 19.427381
#
# number of rings (size 3 to 8) (size 9 to 14) (size 15 to 20)
#    0.000    1.625    1.250    4.875    1.750    3.250 
#    0.000    0.000    0.000    0.750    0.000    0.000 
#    0.000    0.000    0.000    0.000    0.000    0.000 
#
# Total GULP energy -793480.199537 kJ/mol
# GULP energy per Si atom -12398.128118 kJ/mol
# Density = 1.938316 g / cm^3
# Si number density = 19.427381 Si / 1000 Ang^3
#
#
#
# Elastic Constant Matrix: (Units=GPa)
#
#
# Indices 1 2 3 4 5 6 
#
# 1 58.0687 15.7264 44.7679 0.0000 0.0000 0.0000
# 2 15.7264 102.6170 50.6415 0.0000 0.0000 0.0000
# 3 44.7679 50.6415 95.0101 0.0000 0.0000 0.0000
# 4 0.0000 0.0000 0.0000 16.9603 0.0000 0.0000
# 5 0.0000 0.0000 0.0000 0.0000 26.4651 0.0000
# 6 0.0000 0.0000 0.0000 0.0000 0.0000 27.0238
#
#
#
# Elastic Compliance Matrix: (Units=1/GPa)
#
#
# Indices 1 2 3 4 5 6 
#
# 1 0.027701 0.002980 -0.014641 0.000000 0.000000 0.000000
# 2 0.002980 0.013544 -0.008623 0.000000 0.000000 0.000000
# 3 -0.014641 -0.008623 0.022020 0.000000 0.000000 0.000000
# 4 0.000000 0.000000 0.000000 0.058961 0.000000 0.000000
# 5 0.000000 0.000000 0.000000 0.000000 0.037786 0.000000
# 6 0.000000 0.000000 0.000000 0.000000 0.000000 0.037004
#
#
# Mechanical properties :
#
#
# Convention : Reuss Voigt Hill
#
# Bulk Modulus (GPa) = 44.05864 53.10749 48.58307
# Shear Modulus (GPa) = 20.39558 23.72714 22.06136
#
# Velocity S-wave (km/s) = 3.24363 3.49854 3.37349
# Velocity P-wave (km/s) = 6.06268 6.61177 6.34317
#
# Compressibility (1/GPa) = 0.02269702
#
# Stress axis : x y z
#
# Youngs Moduli (GPa) = 36.09921 73.83436 45.41280
#
# Poissons Ratio (x) = -0.22003 0.66489
# Poissons Ratio (y) = -0.10758 0.39160
# Poissons Ratio (z) = 0.52853 0.63669
#
# Static dielectric constant tensor:
#      x y z
#    x 3.442140 0.000000 0.000000 
#    y 0.000000 3.596590 0.000000 
#    z 0.000000 0.000000 4.345190 
# 
# 
# High freq. dielectric constant tensor:
#      x y z
#    x 1.739640 0.000000 0.000000 
#    y 0.000000 1.753750 0.000000 
#    z 0.000000 0.000000 1.777020 
# 
# From -- ./inp_files/23539.got.cif
#   From: 2010.06.25/outbox.cif.g09.slc.cpg/sg58_12_cif.got.tgz:23539.got - 2010.06.26 21:38:00.
