data_PCOD8237190
_publ_section_title
;
Structure prediction by ZEFSAII (Michael W. Deem and Ramdas Pophale) SiO2 
 PCOD8237190
Probable space group: P N N M
;
_chemical_formula_sum "Si O2"
_cell_formula_units_Z 52
_cell_length_a 10.590329
_cell_length_b 21.711932
_cell_length_c 12.611535
_cell_angle_alpha 90.000000
_cell_angle_beta 90.000000
_cell_angle_gamma 90.000000
_cell_volume 2899.852257
_symmetry_space_group_name_H-M "P N N M"
_symmetry_group_IT_number 58
_symmetry_cell_setting 'orthorhombic'
loop_
_space_group_symop_operation_xyz
x,y,z
-x,-y,z
1/2+x,1/2-y,1/2-z
1/2-x,1/2+y,1/2-z
-x,-y,-z
x,y,-z
1/2-x,1/2+y,1/2+z
1/2+x,1/2-y,1/2+z
loop_
_atom_site_type_symbol
_atom_site_label
_atom_site_fract_x
_atom_site_fract_y
_atom_site_fract_z
Si Si1 0.689576 0.380735 0.000000
Si Si2 0.659628 0.836699 0.313028
Si Si3 0.953208 0.561263 0.799383
Si Si4 0.738286 0.654078 0.206592
Si Si5 0.811009 0.508771 0.000000
Si Si6 0.574586 0.706910 0.617464
Si Si7 0.208681 0.215327 0.120200
Si Si8 0.893133 0.103277 0.500000
O O1 0.720839 0.342115 0.893242
O O2 0.788086 0.436643 0.000000
O O3 0.543977 0.400235 0.000000
O O4 0.573605 0.896738 0.323228
O O5 0.579472 0.777333 0.344887
O O6 0.705069 0.829657 0.191272
O O7 0.842031 0.604299 0.752859
O O8 0.000000 0.500000 0.731776
O O9 0.894147 0.530960 0.903017
O O10 0.648321 0.660603 0.307066
O O11 0.803752 0.718351 0.176611
O O12 0.654953 0.636825 0.105344
O O13 0.668873 0.536033 0.000000
O O14 0.632878 0.701035 0.500000
O O15 0.429655 0.686014 0.616579
O O16 0.264135 0.220033 0.000000
#
# Coordination Sequence:
#
# PCOD8237190 Si02
#       8
#     4   8   8   8   4   8   8   4
#     4  12  20  34  50  85 118 141 184 226 278 333
#     4  11  21  32  54  86 110 142 183 229 278 332
#     4  11  20  35  57  82 115 146 184 231 282 341
#     4  10  20  35  53  84 111 148 184 228 285 328
#     4  10  21  32  55  82 110 151 180 217 285 339
#     4  10  20  35  55  79 109 147 186 227 273 329
#     4  10  20  36  56  76 112 152 187 223 273 337
#     4  10  21  33  52  76 119 146 177 224 276 330
#
# _framework density 17.931947999999998
#
# number of rings (size 3 to 8) (size 9 to 14) (size 15 to 20)
#    0.000    1.538    4.615    1.846    0.000    0.000 
#    0.000    0.769    0.000    1.846    0.000    2.154 
#    0.000    0.000    0.000    0.000    0.000    0.000 
#
# Total GULP energy -644376.125805 kJ/mol
# GULP energy per Si atom -12391.848573 kJ/mol
# Density = 1.789113 g / cm^3
# Si number density = 17.931948 Si / 1000 Ang^3
#
#
#
# Elastic Constant Matrix: (Units=GPa)
#
#
# Indices 1 2 3 4 5 6 
#
# 1 97.4521 31.8359 37.0343 0.0000 0.0000 0.0000
# 2 31.8359 75.4338 22.4155 0.0000 0.0000 0.0000
# 3 37.0343 22.4155 106.6607 0.0000 0.0000 0.0000
# 4 0.0000 0.0000 0.0000 21.4533 0.0000 0.0000
# 5 0.0000 0.0000 0.0000 0.0000 0.3511 0.0000
# 6 0.0000 0.0000 0.0000 0.0000 0.0000 30.9878
#
#
#
# Elastic Compliance Matrix: (Units=1/GPa)
#
#
# Indices 1 2 3 4 5 6 
#
# 1 0.013087 -0.004451 -0.003609 0.000000 0.000000 0.000000
# 2 -0.004451 0.015653 -0.001744 0.000000 0.000000 0.000000
# 3 -0.003609 -0.001744 0.010995 0.000000 0.000000 0.000000
# 4 0.000000 0.000000 0.000000 0.046613 0.000000 0.000000
# 5 0.000000 0.000000 0.000000 0.000000 2.847854 0.000000
# 6 0.000000 0.000000 0.000000 0.000000 0.000000 0.032271
#
#
# Mechanical properties :
#
#
# Convention : Reuss Voigt Hill
#
# Bulk Modulus (GPa) = 49.68225 51.34643 50.51434
# Shear Modulus (GPa) = 1.67068 23.10916 12.38992
#
# Velocity S-wave (km/s) = 0.96628 3.59376 2.63143
# Velocity P-wave (km/s) = 5.38619 6.77616 6.12076
#
# Compressibility (1/GPa) = 0.02012791
#
# Stress axis : x y z
#
# Youngs Moduli (GPa) = 76.41289 63.88391 90.95002
#
# Poissons Ratio (x) = 0.28434 0.32820
# Poissons Ratio (y) = 0.34010 0.15864
# Poissons Ratio (z) = 0.27574 0.11143
#
# Static dielectric constant tensor:
#      x y z
#    x 3.322380 0.000000 0.000000 
#    y 0.000000 3.475560 0.000000 
#    z 0.000000 0.000000 3.309270 
# 
# 
# High freq. dielectric constant tensor:
#      x y z
#    x 1.702380 0.000000 0.000000 
#    y 0.000000 1.686520 0.000000 
#    z 0.000000 0.000000 1.674510 
# 
# From -- ./inp_files/20084.got.cif
#   From: 2010.06.25/outbox.cif.g09.slc.cpg/sg58_11_cif.got.tgz:20084.got - 2010.06.26 21:38:00.
