data_PCOD8237701
_publ_section_title
;
Structure prediction by ZEFSAII (Michael W. Deem and Ramdas Pophale) SiO2 
 PCOD8237701
Probable space group: P N N M
;
_chemical_formula_sum "Si O2"
_cell_formula_units_Z 36
_cell_length_a 23.931275
_cell_length_b 5.036495
_cell_length_c 15.003751
_cell_angle_alpha 90.000000
_cell_angle_beta 90.000000
_cell_angle_gamma 90.000000
_cell_volume 1808.398310
_symmetry_space_group_name_H-M "P N N M"
_symmetry_group_IT_number 58
_symmetry_cell_setting 'orthorhombic'
loop_
_space_group_symop_operation_xyz
x,y,z
-x,-y,z
1/2+x,1/2-y,1/2-z
1/2-x,1/2+y,1/2-z
-x,-y,-z
x,y,-z
1/2-x,1/2+y,1/2+z
1/2+x,1/2-y,1/2+z
loop_
_atom_site_type_symbol
_atom_site_label
_atom_site_fract_x
_atom_site_fract_y
_atom_site_fract_z
Si Si1 0.718014 0.908721 0.398990
Si Si2 0.937603 0.889599 0.189963
Si Si3 0.791515 0.418350 0.600701
Si Si4 0.374857 0.089680 0.743254
Si Si5 0.039519 0.244330 0.000000
O O1 0.694418 0.882363 0.500000
O O2 0.745978 0.633662 0.366292
O O3 0.765492 0.128894 0.393647
O O4 0.668544 0.992018 0.333526
O O5 0.925278 0.625711 0.247947
O O6 0.923925 0.785085 0.089396
O O7 0.895883 0.117895 0.219935
O O8 0.000000 0.000000 0.202330
O O9 0.810006 0.488898 0.500000
O O10 0.846635 0.418023 0.660462
O O11 0.000000 0.500000 0.000000
O O12 0.000000 0.000000 0.000000
#
# Coordination Sequence:
#
# PCOD8237701 Si02
#       5
#     8   8   8   8   4
#     4  10  21  35  57  86 120 147 186 235 285 349
#     4  11  24  38  57  83 117 151 192 240 283 336
#     4  10  21  39  58  84 117 152 188 238 291 340
#     4  12  22  36  62  84 114 154 197 232 283 349
#     4  10  20  38  56  76 114 154 184 224 286 338
#
# _framework density 19.907117
#
# number of rings (size 3 to 8) (size 9 to 14) (size 15 to 20)
#    0.000    1.333    0.000    7.333    3.111    0.000 
#    0.000    0.000    0.000    4.000    0.000    0.000 
#    0.000    0.000    0.000    0.000    0.000    0.000 
#
# Total GULP energy -446368.674342 kJ/mol
# GULP energy per Si atom -12399.129843 kJ/mol
# Density = 1.986181 g / cm^3
# Si number density = 19.907117 Si / 1000 Ang^3
#
#
#
# Elastic Constant Matrix: (Units=GPa)
#
#
# Indices 1 2 3 4 5 6 
#
# 1 64.7618 17.3847 47.4791 0.0000 0.0000 0.0000
# 2 17.3847 115.5100 26.6971 0.0000 0.0000 0.0000
# 3 47.4791 26.6971 85.2814 0.0000 0.0000 0.0000
# 4 0.0000 0.0000 0.0000 26.2632 0.0000 0.0000
# 5 0.0000 0.0000 0.0000 0.0000 36.8217 0.0000
# 6 0.0000 0.0000 0.0000 0.0000 0.0000 40.3719
#
#
#
# Elastic Compliance Matrix: (Units=1/GPa)
#
#
# Indices 1 2 3 4 5 6 
#
# 1 0.026131 -0.000615 -0.014355 0.000000 0.000000 0.000000
# 2 -0.000615 0.009347 -0.002584 0.000000 0.000000 0.000000
# 3 -0.014355 -0.002584 0.020527 0.000000 0.000000 0.000000
# 4 0.000000 0.000000 0.000000 0.038076 0.000000 0.000000
# 5 0.000000 0.000000 0.000000 0.000000 0.027158 0.000000
# 6 0.000000 0.000000 0.000000 0.000000 0.000000 0.024770
#
#
# Mechanical properties :
#
#
# Convention : Reuss Voigt Hill
#
# Bulk Modulus (GPa) = 47.85481 49.85278 48.85379
# Shear Modulus (GPa) = 26.58420 32.29083 29.43752
#
# Velocity S-wave (km/s) = 3.65829 4.03187 3.84961
# Velocity P-wave (km/s) = 6.47575 6.83898 6.65984
#
# Compressibility (1/GPa) = 0.02089654
#
# Stress axis : x y z
#
# Youngs Moduli (GPa) = 38.26919 106.98666 48.71676
#
# Poissons Ratio (x) = 0.06579 0.69935
# Poissons Ratio (y) = 0.02353 0.12587
# Poissons Ratio (z) = 0.54937 0.27642
#
# Static dielectric constant tensor:
#      x y z
#    x 3.404170 0.000000 0.000000 
#    y 0.000000 3.843550 0.000000 
#    z 0.000000 0.000000 3.480390 
# 
# 
# High freq. dielectric constant tensor:
#      x y z
#    x 1.757020 0.000000 0.000000 
#    y 0.000000 1.804560 0.000000 
#    z 0.000000 0.000000 1.765240 
# 
# From -- ./inp_files/23083.got.cif
#   From: 2010.06.25/outbox.cif.g09.slc.cpg/sg58_12_cif.got.tgz:23083.got - 2010.06.26 21:38:00.
