data_PCOD8237522
_publ_section_title
;
Structure prediction by ZEFSAII (Michael W. Deem and Ramdas Pophale) SiO2 
 PCOD8237522
Probable space group: P N N M
;
_chemical_formula_sum "Si O2"
_cell_formula_units_Z 64
_cell_length_a 16.292965
_cell_length_b 16.689070
_cell_length_c 12.198599
_cell_angle_alpha 90.000000
_cell_angle_beta 90.000000
_cell_angle_gamma 90.000000
_cell_volume 3316.975135
_symmetry_space_group_name_H-M "P N N M"
_symmetry_group_IT_number 58
_symmetry_cell_setting 'orthorhombic'
loop_
_space_group_symop_operation_xyz
x,y,z
-x,-y,z
1/2+x,1/2-y,1/2-z
1/2-x,1/2+y,1/2-z
-x,-y,-z
x,y,-z
1/2-x,1/2+y,1/2+z
1/2+x,1/2-y,1/2+z
loop_
_atom_site_type_symbol
_atom_site_label
_atom_site_fract_x
_atom_site_fract_y
_atom_site_fract_z
Si Si1 0.661507 0.109655 0.807964
Si Si2 0.688801 0.400350 0.770028
Si Si3 0.658121 0.933736 0.877651
Si Si4 0.735393 0.753890 0.377196
Si Si5 0.404119 0.308463 0.237830
Si Si6 0.527697 0.409335 0.373206
Si Si7 0.005654 0.670505 0.628517
Si Si8 0.284925 0.431744 0.872323
O O1 0.723209 0.166651 0.873922
O O2 0.573570 0.152207 0.796641
O O3 0.699619 0.089450 0.688846
O O4 0.650233 0.029216 0.877254
O O5 0.767824 0.403098 0.694252
O O6 0.698005 0.321080 0.843730
O O7 0.608574 0.392116 0.696465
O O8 0.684367 0.478698 0.846041
O O9 0.572972 0.895409 0.837710
O O10 0.676337 0.903671 0.000000
O O11 0.705098 0.771568 0.500000
O O12 0.657279 0.753830 0.296828
O O13 0.454401 0.353378 0.332182
O O14 0.463313 0.259256 0.157522
O O15 0.356605 0.371688 0.162607
O O16 0.500000 0.500000 0.357401
O O17 0.545967 0.389959 0.500000
O O18 0.982625 0.666822 0.500000
O O19 0.266731 0.422962 0.000000
#
# Coordination Sequence:
#
# PCOD8237522 Si02
#       8
#     8   8   8   8   8   8   8   8
#     4  10  22  37  60  87 116 150 198 247 300 359
#     4  11  21  40  61  90 121 158 205 249 295 369
#     4  10  20  36  61  88 118 153 196 248 301 355
#     4  11  22  38  60  86 120 161 201 247 302 360
#     4  11  22  41  59  90 125 160 200 251 298 366
#     4  11  23  40  63  92 124 158 202 255 307 358
#     4  11  21  37  61  89 123 155 195 251 305 356
#     4  10  22  41  63  86 119 164 202 246 300 359
#
# _framework density 19.294689000000002
#
# number of rings (size 3 to 8) (size 9 to 14) (size 15 to 20)
#    0.000    1.375    2.500    3.750    0.000    1.000 
#    0.000    6.875    0.000    1.500    0.000    0.000 
#    0.000    0.000    0.000    0.000    0.000    0.000 
#
# Total GULP energy -793817.691672 kJ/mol
# GULP energy per Si atom -12403.401432 kJ/mol
# Density = 1.925077 g / cm^3
# Si number density = 19.294689 Si / 1000 Ang^3
#
#
#
# Elastic Constant Matrix: (Units=GPa)
#
#
# Indices 1 2 3 4 5 6 
#
# 1 94.1350 26.8021 39.3674 0.0000 0.0000 0.0000
# 2 26.8021 101.4476 33.4931 0.0000 0.0000 0.0000
# 3 39.3674 33.4931 106.2102 0.0000 0.0000 0.0000
# 4 0.0000 0.0000 0.0000 21.8145 0.0000 0.0000
# 5 0.0000 0.0000 0.0000 0.0000 22.8710 0.0000
# 6 0.0000 0.0000 0.0000 0.0000 0.0000 33.1381
#
#
#
# Elastic Compliance Matrix: (Units=1/GPa)
#
#
# Indices 1 2 3 4 5 6 
#
# 1 0.012942 -0.002049 -0.004151 0.000000 0.000000 0.000000
# 2 -0.002049 0.011327 -0.002813 0.000000 0.000000 0.000000
# 3 -0.004151 -0.002813 0.011841 0.000000 0.000000 0.000000
# 4 0.000000 0.000000 0.000000 0.045841 0.000000 0.000000
# 5 0.000000 0.000000 0.000000 0.000000 0.043723 0.000000
# 6 0.000000 0.000000 0.000000 0.000000 0.000000 0.030177
#
#
# Mechanical properties :
#
#
# Convention : Reuss Voigt Hill
#
# Bulk Modulus (GPa) = 55.29316 55.67977 55.48646
# Shear Modulus (GPa) = 27.79244 29.04008 28.41626
#
# Velocity S-wave (km/s) = 3.79940 3.88375 3.84181
# Velocity P-wave (km/s) = 6.92580 7.00225 6.96413
#
# Compressibility (1/GPa) = 0.01808542
#
# Stress axis : x y z
#
# Youngs Moduli (GPa) = 77.26558 88.28323 84.45343
#
# Poissons Ratio (x) = 0.18088 0.35057
# Poissons Ratio (y) = 0.15830 0.23753
# Poissons Ratio (z) = 0.32073 0.24830
#
# Static dielectric constant tensor:
#      x y z
#    x 3.570390 0.000000 0.000000 
#    y 0.000000 3.670040 0.000000 
#    z 0.000000 0.000000 3.395600 
# 
# 
# High freq. dielectric constant tensor:
#      x y z
#    x 1.756000 0.000000 0.000000 
#    y 0.000000 1.763560 0.000000 
#    z 0.000000 0.000000 1.743580 
# 
# From -- ./inp_files/15909.got.cif
#   From: 2010.06.25/outbox.cif.g09.slc.cpg/sg58_8_cif.got.tgz:15909.got - 2010.06.26 21:38:00.
