data_PCOD8237921
_publ_section_title
;
Structure prediction by ZEFSAII (Michael W. Deem and Ramdas Pophale) SiO2 
 PCOD8237921
Probable space group: P N N M
;
_chemical_formula_sum "Si O2"
_cell_formula_units_Z 48
_cell_length_a 22.963877
_cell_length_b 11.854751
_cell_length_c 9.568732
_cell_angle_alpha 90.000000
_cell_angle_beta 90.000000
_cell_angle_gamma 90.000000
_cell_volume 2604.905900
_symmetry_space_group_name_H-M "P N N M"
_symmetry_group_IT_number 58
_symmetry_cell_setting 'orthorhombic'
loop_
_space_group_symop_operation_xyz
x,y,z
-x,-y,z
1/2+x,1/2-y,1/2-z
1/2-x,1/2+y,1/2-z
-x,-y,-z
x,y,-z
1/2-x,1/2+y,1/2+z
1/2+x,1/2-y,1/2+z
loop_
_atom_site_type_symbol
_atom_site_label
_atom_site_fract_x
_atom_site_fract_y
_atom_site_fract_z
Si Si1 0.891378 0.237450 0.835755
Si Si2 0.356973 0.596027 0.343740
Si Si3 0.063935 0.955258 0.655332
Si Si4 0.834612 0.648222 0.836793
Si Si5 0.775608 0.109709 0.844345
Si Si6 0.934678 0.482984 0.165246
O O1 0.934386 0.157699 0.748133
O O2 0.824788 0.201956 0.800015
O O3 0.905622 0.364609 0.788756
O O4 0.903499 0.217712 0.000000
O O5 0.384724 0.594381 0.500000
O O6 0.402162 0.555872 0.229401
O O7 0.339587 0.721143 0.300707
O O8 0.300932 0.516183 0.340833
O O9 0.089740 0.931516 0.500000
O O10 0.000000 0.000000 0.640376
O O11 0.777201 0.604816 0.761716
O O12 0.891964 0.582275 0.781107
O O13 0.826198 0.624391 0.000000
O O14 0.753244 0.139297 0.000000
O O15 0.000000 0.500000 0.228887
O O16 0.939743 0.487829 0.000000
#
# Coordination Sequence:
#
# PCOD8237921 Si02
#       6
#     8   8   8   8   8   8
#     4   9  19  36  58  81 109 146 185 227 273 327
#     4   9  20  37  55  80 109 140 185 227 265 326
#     4  10  21  35  54  81 110 140 178 226 277 327
#     4  10  21  35  57  85 109 141 184 227 273 327
#     4   9  19  35  53  79 112 144 180 225 277 327
#     4   9  19  35  56  84 112 142 187 233 272 323
#
# _framework density 18.426769
#
# number of rings (size 3 to 8) (size 9 to 14) (size 15 to 20)
#    0.000    2.667    0.000    1.500    4.667    4.667 
#    0.000    0.833    0.000    1.000    0.000    0.000 
#    0.000    0.000    0.000    0.000    0.000    0.000 
#
# Total GULP energy -595042.524417 kJ/mol
# GULP energy per Si atom -12396.719259 kJ/mol
# Density = 1.838483 g / cm^3
# Si number density = 18.426769 Si / 1000 Ang^3
#
#
#
# Elastic Constant Matrix: (Units=GPa)
#
#
# Indices 1 2 3 4 5 6 
#
# 1 116.4910 63.4031 41.0852 0.0000 0.0000 0.0000
# 2 63.4031 129.3245 32.7039 0.0000 0.0000 0.0000
# 3 41.0852 32.7039 70.2308 0.0000 0.0000 0.0000
# 4 0.0000 0.0000 0.0000 42.6379 0.0000 0.0000
# 5 0.0000 0.0000 0.0000 0.0000 29.5853 0.0000
# 6 0.0000 0.0000 0.0000 0.0000 0.0000 18.9504
#
#
#
# Elastic Compliance Matrix: (Units=1/GPa)
#
#
# Indices 1 2 3 4 5 6 
#
# 1 0.013284 -0.005154 -0.005371 0.000000 0.000000 0.000000
# 2 -0.005154 0.010765 -0.001997 0.000000 0.000000 0.000000
# 3 -0.005371 -0.001997 0.018311 0.000000 0.000000 0.000000
# 4 0.000000 0.000000 0.000000 0.023453 0.000000 0.000000
# 5 0.000000 0.000000 0.000000 0.000000 0.033801 0.000000
# 6 0.000000 0.000000 0.000000 0.000000 0.000000 0.052769
#
#
# Mechanical properties :
#
#
# Convention : Reuss Voigt Hill
#
# Bulk Modulus (GPa) = 57.75652 65.60342 61.67997
# Shear Modulus (GPa) = 27.29260 30.15832 28.72546
#
# Velocity S-wave (km/s) = 3.85273 4.04995 3.95257
# Velocity P-wave (km/s) = 7.15564 7.58611 7.37402
#
# Compressibility (1/GPa) = 0.01731406
#
# Stress axis : x y z
#
# Youngs Moduli (GPa) = 75.27793 92.89681 54.61236
#
# Poissons Ratio (x) = 0.47884 0.29332
# Poissons Ratio (y) = 0.38802 0.10908
# Poissons Ratio (z) = 0.40432 0.18554
#
# Static dielectric constant tensor:
#      x y z
#    x 3.334280 0.000000 0.000000 
#    y 0.000000 3.533730 0.000000 
#    z 0.000000 0.000000 3.423530 
# 
# 
# High freq. dielectric constant tensor:
#      x y z
#    x 1.707830 0.000000 0.000000 
#    y 0.000000 1.722830 0.000000 
#    z 0.000000 0.000000 1.697420 
# 
# From -- ./inp_files/4173.got.cif
#   From: 2010.06.25/outbox.cif.g09.slc.cpg/sg58_3_cif.got.tgz:4173.got - 2010.06.26 21:38:00.
