data_PCOD8237447
_publ_section_title
;
Structure prediction by ZEFSAII (Michael W. Deem and Ramdas Pophale) SiO2 
 PCOD8237447
Probable space group: P N N M
;
_chemical_formula_sum "Si O2"
_cell_formula_units_Z 56
_cell_length_a 11.503022
_cell_length_b 15.352885
_cell_length_c 16.745132
_cell_angle_alpha 90.000000
_cell_angle_beta 90.000000
_cell_angle_gamma 90.000000
_cell_volume 2957.266902
_symmetry_space_group_name_H-M "P N N M"
_symmetry_group_IT_number 58
_symmetry_cell_setting 'orthorhombic'
loop_
_space_group_symop_operation_xyz
x,y,z
-x,-y,z
1/2+x,1/2-y,1/2-z
1/2-x,1/2+y,1/2-z
-x,-y,-z
x,y,-z
1/2-x,1/2+y,1/2+z
1/2+x,1/2-y,1/2+z
loop_
_atom_site_type_symbol
_atom_site_label
_atom_site_fract_x
_atom_site_fract_y
_atom_site_fract_z
Si Si1 0.766480 0.322890 0.907224
Si Si2 0.724569 0.155575 0.351413
Si Si3 0.494873 0.094908 0.589834
Si Si4 0.141351 0.330370 0.325336
Si Si5 0.866029 0.998525 0.407407
Si Si6 0.137852 0.500899 0.587224
Si Si7 0.607191 0.809330 0.094810
O O1 0.731096 0.237531 0.860595
O O2 0.678778 0.401912 0.890044
O O3 0.893149 0.347312 0.871064
O O4 0.768840 0.298618 0.000000
O O5 0.617962 0.143909 0.412696
O O6 0.656679 0.172179 0.269185
O O7 0.805805 0.234692 0.377327
O O8 0.800373 0.067575 0.351183
O O9 0.450931 0.077414 0.500000
O O10 0.500000 0.000000 0.633494
O O11 0.180554 0.427371 0.351885
O O12 0.011900 0.304701 0.354416
O O13 0.846991 0.025126 0.500000
O O14 0.000000 0.000000 0.383680
O O15 0.190680 0.479336 0.500000
O O16 0.172969 0.599161 0.613004
O O17 0.000000 0.500000 0.581805
O O18 0.577648 0.800355 0.000000
#
# Coordination Sequence:
#
# PCOD8237447 Si02
#       7
#     8   8   8   8   8   8   8
#     4  10  20  36  59  82 112 153 198 242 286 357
#     4  12  24  35  58  89 127 157 191 249 309 362
#     4  10  20  37  59  82 113 155 199 238 292 364
#     4  11  23  35  58  88 122 151 192 249 309 353
#     4  10  20  37  61  87 114 152 199 245 298 360
#     4   8  16  35  60  81 103 141 194 243 286 341
#     4  10  21  40  63  86 116 159 211 252 290 356
#
# _framework density 18.936402999999999
#
# number of rings (size 3 to 8) (size 9 to 14) (size 15 to 20)
#    0.000    1.857    1.429    4.286    2.000    4.000 
#    0.000    0.000    0.000    0.000    0.000    4.000 
#    0.000    0.000    0.000    0.000    0.000    0.000 
#
# Total GULP energy -694160.468440 kJ/mol
# GULP energy per Si atom -12395.722651 kJ/mol
# Density = 1.889330 g / cm^3
# Si number density = 18.936403 Si / 1000 Ang^3
#
#
#
# Elastic Constant Matrix: (Units=GPa)
#
#
# Indices 1 2 3 4 5 6 
#
# 1 114.1674 42.8086 30.0858 0.0000 0.0000 0.0000
# 2 42.8086 114.0121 36.9846 0.0000 0.0000 0.0000
# 3 30.0858 36.9846 69.7656 0.0000 0.0000 0.0000
# 4 0.0000 0.0000 0.0000 -231.9723 0.0000 0.0000
# 5 0.0000 0.0000 0.0000 0.0000 28.6637 0.0000
# 6 0.0000 0.0000 0.0000 0.0000 0.0000 31.6800
#
#
#
# Elastic Compliance Matrix: (Units=1/GPa)
#
#
# Indices 1 2 3 4 5 6 
#
# 1 0.010689 -0.003041 -0.002997 0.000000 0.000000 0.000000
# 2 -0.003041 0.011458 -0.004763 0.000000 0.000000 0.000000
# 3 -0.002997 -0.004763 0.018151 0.000000 0.000000 0.000000
# 4 0.000000 0.000000 0.000000 -0.004311 0.000000 0.000000
# 5 0.000000 0.000000 0.000000 0.000000 0.034887 0.000000
# 6 0.000000 0.000000 0.000000 0.000000 0.000000 0.031566
#
#
# Mechanical properties :
#
#
# Convention : Reuss Voigt Hill
#
# Bulk Modulus (GPa) = 53.48811 57.52256 55.50533
# Shear Modulus (GPa) = 38.38038 -21.78799 8.29619
#
# Velocity S-wave (km/s) = 4.50689 -3.39571 2.09537
# Velocity P-wave (km/s) = 7.44246 3.88178 5.93542
#
# Compressibility (1/GPa) = 0.01869574
#
# Stress axis : x y z
#
# Youngs Moduli (GPa) = 93.55139 87.27642 55.09302
#
# Poissons Ratio (x) = 0.26543 0.16514
# Poissons Ratio (y) = 0.28451 0.26239
# Poissons Ratio (z) = 0.28042 0.41566
#
# Static dielectric constant tensor:
#      x y z
#    x 3.386250 0.000000 0.000000 
#    y 0.000000 3.787020 0.000000 
#    z 0.000000 0.000000 3.370150 
# 
# 
# High freq. dielectric constant tensor:
#      x y z
#    x 1.723770 0.000000 0.000000 
#    y 0.000000 1.748220 0.000000 
#    z 0.000000 0.000000 1.717750 
# 
# From -- ./inp_files/21296.got.cif
#   From: 2010.06.25/outbox.cif.g09.slc.cpg/sg58_11_cif.got.tgz:21296.got - 2010.06.26 21:38:00.
