data_PCOD8237777
_publ_section_title
;
Structure prediction by ZEFSAII (Michael W. Deem and Ramdas Pophale) SiO2 
 PCOD8237777
Probable space group: P N N M
;
_chemical_formula_sum "Si O2"
_cell_formula_units_Z 64
_cell_length_a 22.228522
_cell_length_b 9.254912
_cell_length_c 14.099904
_cell_angle_alpha 90.000000
_cell_angle_beta 90.000000
_cell_angle_gamma 90.000000
_cell_volume 2900.674762
_symmetry_space_group_name_H-M "P N N M"
_symmetry_group_IT_number 58
_symmetry_cell_setting 'orthorhombic'
loop_
_space_group_symop_operation_xyz
x,y,z
-x,-y,z
1/2+x,1/2-y,1/2-z
1/2-x,1/2+y,1/2-z
-x,-y,-z
x,y,-z
1/2-x,1/2+y,1/2+z
1/2+x,1/2-y,1/2+z
loop_
_atom_site_type_symbol
_atom_site_label
_atom_site_fract_x
_atom_site_fract_y
_atom_site_fract_z
Si Si1 0.088566 0.724722 0.390216
Si Si2 0.862528 0.565217 0.696410
Si Si3 0.482419 0.843395 0.602905
Si Si4 0.152486 0.796089 0.894071
Si Si5 0.868489 0.015560 0.711813
Si Si6 0.361784 0.986118 0.398537
Si Si7 0.531251 0.290524 0.786265
Si Si8 0.712555 0.293231 0.107304
O O1 0.090428 0.689470 0.500000
O O2 0.114976 0.589989 0.334863
O O3 0.020678 0.768940 0.363106
O O4 0.132825 0.856439 0.364500
O O5 0.828542 0.552461 0.799544
O O6 0.921805 0.661962 0.701177
O O7 0.815101 0.633629 0.623788
O O8 0.511370 0.804126 0.500000
O O9 0.497679 0.720118 0.680180
O O10 0.500000 0.000000 0.642714
O O11 0.410914 0.861271 0.589448
O O12 0.109664 0.652005 0.887237
O O13 0.216739 0.718006 0.875365
O O14 0.139762 0.921665 0.818318
O O15 0.150021 0.865776 0.000000
O O16 0.934775 0.943328 0.704415
O O17 0.815900 0.903972 0.683971
O O18 0.324028 0.984954 0.500000
O O19 0.696725 0.341266 0.000000
#
# Coordination Sequence:
#
# PCOD8237777 Si02
#       8
#     8   8   8   8   8   8   8   8
#     4  12  24  39  61  87 121 165 211 252 295 362
#     4  10  20  38  63  91 121 163 212 254 296 360
#     4   9  17  31  56  84 113 149 195 244 288 348
#     4  10  22  40  64  88 118 160 201 250 316 372
#     4  11  24  40  61  89 122 159 199 252 309 369
#     4   9  17  33  57  86 116 152 198 249 302 355
#     4  10  22  37  55  87 124 157 196 243 304 361
#     4  10  23  42  63  89 124 162 204 257 313 360
#
# _framework density 22.063831
#
# number of rings (size 3 to 8) (size 9 to 14) (size 15 to 20)
#    0.000    1.875    1.250    3.000    1.750    4.500 
#    0.000    1.875    0.000    2.250    0.000    0.000 
#    0.000    0.000    0.000    0.000    0.000    0.000 
#
# Total GULP energy -792881.789446 kJ/mol
# GULP energy per Si atom -12388.777960 kJ/mol
# Density = 2.201361 g / cm^3
# Si number density = 22.063831 Si / 1000 Ang^3
#
#
#
# Elastic Constant Matrix: (Units=GPa)
#
#
# Indices 1 2 3 4 5 6 
#
# 1 29.7845 7.5245 20.6025 0.0000 0.0000 0.0000
# 2 7.5245 82.5768 27.2180 0.0000 0.0000 0.0000
# 3 20.6025 27.2180 138.1996 0.0000 0.0000 0.0000
# 4 0.0000 0.0000 0.0000 28.5252 0.0000 0.0000
# 5 0.0000 0.0000 0.0000 0.0000 24.9868 0.0000
# 6 0.0000 0.0000 0.0000 0.0000 0.0000 20.3468
#
#
#
# Elastic Compliance Matrix: (Units=1/GPa)
#
#
# Indices 1 2 3 4 5 6 
#
# 1 0.037654 -0.001691 -0.005280 0.000000 0.000000 0.000000
# 2 -0.001691 0.013027 -0.002314 0.000000 0.000000 0.000000
# 3 -0.005280 -0.002314 0.008479 0.000000 0.000000 0.000000
# 4 0.000000 0.000000 0.000000 0.035057 0.000000 0.000000
# 5 0.000000 0.000000 0.000000 0.000000 0.040021 0.000000
# 6 0.000000 0.000000 0.000000 0.000000 0.000000 0.049148
#
#
# Mechanical properties :
#
#
# Convention : Reuss Voigt Hill
#
# Bulk Modulus (GPa) = 24.63642 40.13900 32.38771
# Shear Modulus (GPa) = 23.20355 27.78616 25.49486
#
# Velocity S-wave (km/s) = 3.24644 3.55259 3.40296
# Velocity P-wave (km/s) = 5.02421 5.92111 5.49101
#
# Compressibility (1/GPa) = 0.04059031
#
# Stress axis : x y z
#
# Youngs Moduli (GPa) = 26.55750 76.76637 117.94199
#
# Poissons Ratio (x) = 0.12978 0.62279
# Poissons Ratio (y) = 0.04490 0.27286
# Poissons Ratio (z) = 0.14024 0.17760
#
# Static dielectric constant tensor:
#      x y z
#    x 3.879380 0.000000 0.000000 
#    y 0.000000 4.047560 0.000000 
#    z 0.000000 0.000000 4.411960 
# 
# 
# High freq. dielectric constant tensor:
#      x y z
#    x 1.850270 0.000000 0.000000 
#    y 0.000000 1.858430 0.000000 
#    z 0.000000 0.000000 1.881620 
# 
# From -- ./inp_files/23547.got.cif
#   From: 2010.06.25/outbox.cif.g09.slc.cpg/sg58_12_cif.got.tgz:23547.got - 2010.06.26 21:38:00.
