data_PCOD8237860
_publ_section_title
;
Structure prediction by ZEFSAII (Michael W. Deem and Ramdas Pophale) SiO2 
 PCOD8237860
Probable space group: P N N M
;
_chemical_formula_sum "Si O2"
_cell_formula_units_Z 48
_cell_length_a 27.365373
_cell_length_b 10.417525
_cell_length_c 8.039105
_cell_angle_alpha 90.000000
_cell_angle_beta 90.000000
_cell_angle_gamma 90.000000
_cell_volume 2291.783691
_symmetry_space_group_name_H-M "P N N M"
_symmetry_group_IT_number 58
_symmetry_cell_setting 'orthorhombic'
loop_
_space_group_symop_operation_xyz
x,y,z
-x,-y,z
1/2+x,1/2-y,1/2-z
1/2-x,1/2+y,1/2-z
-x,-y,-z
x,y,-z
1/2-x,1/2+y,1/2+z
1/2+x,1/2-y,1/2+z
loop_
_atom_site_type_symbol
_atom_site_label
_atom_site_fract_x
_atom_site_fract_y
_atom_site_fract_z
Si Si1 0.723379 0.752999 0.812012
Si Si2 0.397182 0.969623 0.689080
Si Si3 0.707768 0.037436 0.190552
Si Si4 0.459825 0.612571 0.000000
Si Si5 0.619128 0.742471 0.311066
Si Si6 0.959034 0.606420 0.500000
Si Si7 0.942001 0.997321 0.180228
O O1 0.731125 0.900697 0.749996
O O2 0.754233 0.653785 0.702259
O O3 0.666195 0.716553 0.802767
O O4 0.741547 0.736625 0.000000
O O5 0.414933 0.935721 0.500000
O O6 0.340170 0.931840 0.701550
O O7 0.404722 0.120125 0.727490
O O8 0.427745 0.897321 0.830347
O O9 0.691242 0.020406 0.000000
O O10 0.500000 0.500000 0.000000
O O11 0.426641 0.596177 0.832555
O O12 0.483951 0.752966 0.000000
O O13 0.638025 0.737988 0.500000
O O14 0.577333 0.638705 0.275985
O O15 0.000000 0.500000 0.500000
O O16 0.920782 0.950675 0.000000
O O17 0.000000 0.000000 0.167437
#
# Coordination Sequence:
#
# PCOD8237860 Si02
#       7
#     8   8   8   4   8   4   8
#     4  10  21  35  59  90 121 163 209 260 310 378
#     4  10  22  42  68  92 128 171 210 264 325 386
#     4  10  20  40  63  91 128 167 211 262 320 375
#     4  10  24  42  62  92 122 166 208 256 326 367
#     4   9  19  36  62  93 118 161 214 256 320 382
#     4  12  28  44  66 100 128 166 226 268 321 387
#     4   9  19  36  60  87 121 159 204 259 314 374
#
# _framework density 20.944386000000002
#
# number of rings (size 3 to 8) (size 9 to 14) (size 15 to 20)
#    0.000    2.167    0.833    1.000    7.000    3.000 
#    3.000    0.000    0.000    0.000    0.000    0.000 
#    0.000    0.000    0.000    0.000    0.000    0.000 
#
# Total GULP energy -594908.456703 kJ/mol
# GULP energy per Si atom -12393.926181 kJ/mol
# Density = 2.089672 g / cm^3
# Si number density = 20.944386 Si / 1000 Ang^3
#
#
#
# Elastic Constant Matrix: (Units=GPa)
#
#
# Indices 1 2 3 4 5 6 
#
# 1 61.4847 49.0446 23.3013 0.0000 0.0000 0.0000
# 2 49.0446 130.6540 45.5997 0.0000 0.0000 0.0000
# 3 23.3013 45.5997 131.3636 0.0000 0.0000 0.0000
# 4 0.0000 0.0000 0.0000 15.5260 0.0000 0.0000
# 5 0.0000 0.0000 0.0000 0.0000 19.6547 0.0000
# 6 0.0000 0.0000 0.0000 0.0000 0.0000 36.3207
#
#
#
# Elastic Compliance Matrix: (Units=1/GPa)
#
#
# Indices 1 2 3 4 5 6 
#
# 1 0.023396 -0.008345 -0.001253 0.000000 0.000000 0.000000
# 2 -0.008345 0.011685 -0.002576 0.000000 0.000000 0.000000
# 3 -0.001253 -0.002576 0.008729 0.000000 0.000000 0.000000
# 4 0.000000 0.000000 0.000000 0.064408 0.000000 0.000000
# 5 0.000000 0.000000 0.000000 0.000000 0.050879 0.000000
# 6 0.000000 0.000000 0.000000 0.000000 0.000000 0.027533
#
#
# Mechanical properties :
#
#
# Convention : Reuss Voigt Hill
#
# Bulk Modulus (GPa) = 51.38299 62.15482 56.76890
# Shear Modulus (GPa) = 22.99227 28.00404 25.49815
#
# Velocity S-wave (km/s) = 3.31687 3.66056 3.49294
# Velocity P-wave (km/s) = 6.26539 6.89977 6.59022
#
# Compressibility (1/GPa) = 0.01946169
#
# Stress axis : x y z
#
# Youngs Moduli (GPa) = 42.74323 85.57742 114.56093
#
# Poissons Ratio (x) = 0.71412 0.14357
# Poissons Ratio (y) = 0.35668 0.29512
# Poissons Ratio (z) = 0.05357 0.22045
#
# Static dielectric constant tensor:
#      x y z
#    x 3.322850 0.000000 0.000000 
#    y 0.000000 3.729810 0.000000 
#    z 0.000000 0.000000 5.139610 
# 
# 
# High freq. dielectric constant tensor:
#      x y z
#    x 1.785850 0.000000 0.000000 
#    y 0.000000 1.815020 0.000000 
#    z 0.000000 0.000000 1.842740 
# 
# From -- ./inp_files/10793.got.cif
#   From: 2010.06.25/outbox.cif.g09.slc.cpg/sg58_6_cif.got.tgz:10793.got - 2010.06.26 21:38:00.
