data_PCOD8237613
_publ_section_title
;
Structure prediction by ZEFSAII (Michael W. Deem and Ramdas Pophale) SiO2 
 PCOD8237613
Probable space group: P N N M
;
_chemical_formula_sum "Si O2"
_cell_formula_units_Z 48
_cell_length_a 28.862408
_cell_length_b 10.136726
_cell_length_c 8.793618
_cell_angle_alpha 90.000000
_cell_angle_beta 90.000000
_cell_angle_gamma 90.000000
_cell_volume 2572.751646
_symmetry_space_group_name_H-M "P N N M"
_symmetry_group_IT_number 58
_symmetry_cell_setting 'orthorhombic'
loop_
_space_group_symop_operation_xyz
x,y,z
-x,-y,z
1/2+x,1/2-y,1/2-z
1/2-x,1/2+y,1/2-z
-x,-y,-z
x,y,-z
1/2-x,1/2+y,1/2+z
1/2+x,1/2-y,1/2+z
loop_
_atom_site_type_symbol
_atom_site_label
_atom_site_fract_x
_atom_site_fract_y
_atom_site_fract_z
Si Si1 0.882231 0.985408 0.820445
Si Si2 0.969729 0.872988 0.321468
Si Si3 0.611751 0.766203 0.824312
Si Si4 0.785569 0.990263 0.322060
Si Si5 0.282584 0.208804 0.174012
Si Si6 0.474947 0.136010 0.322971
O O1 0.918715 0.883391 0.750123
O O2 0.831123 0.943505 0.766698
O O3 0.895046 0.131020 0.765609
O O4 0.884817 0.978074 0.000000
O O5 0.964952 0.852647 0.500000
O O6 0.994074 0.748281 0.249413
O O7 0.000000 0.000000 0.279484
O O8 0.663224 0.823127 0.803960
O O9 0.575434 0.870691 0.756962
O O10 0.600835 0.736373 0.000000
O O11 0.796863 0.986051 0.500000
O O12 0.744252 0.891349 0.282648
O O13 0.772043 0.140269 0.276341
O O14 0.267362 0.185148 0.000000
O O15 0.468054 0.163583 0.500000
O O16 0.500000 0.000000 0.289810
#
# Coordination Sequence:
#
# PCOD8237613 Si02
#       6
#     8   8   8   8   8   8
#     4  11  21  35  60  88 116 149 190 241 289 338
#     4  11  22  37  61  88 115 150 192 238 283 339
#     4  10  20  37  60  85 115 153 195 236 284 346
#     4  10  21  38  60  86 117 151 190 236 286 344
#     4   9  20  38  59  85 115 148 189 237 286 341
#     4  11  24  40  58  85 119 155 194 238 288 344
#
# _framework density 18.657067000000001
#
# number of rings (size 3 to 8) (size 9 to 14) (size 15 to 20)
#    0.000    1.667    1.667    4.500    0.000    6.000 
#    3.000    0.000    0.000    0.000    0.000    0.000 
#    0.000    0.000    0.000    0.000    0.000    0.000 
#
# Total GULP energy -595406.141849 kJ/mol
# GULP energy per Si atom -12404.294622 kJ/mol
# Density = 1.861460 g / cm^3
# Si number density = 18.657067 Si / 1000 Ang^3
#
#
#
# Elastic Constant Matrix: (Units=GPa)
#
#
# Indices 1 2 3 4 5 6 
#
# 1 122.9845 63.9718 58.5772 0.0000 0.0000 0.0000
# 2 63.9718 94.0277 54.7239 0.0000 0.0000 0.0000
# 3 58.5772 54.7239 111.2755 0.0000 0.0000 0.0000
# 4 0.0000 0.0000 0.0000 30.6863 0.0000 0.0000
# 5 0.0000 0.0000 0.0000 0.0000 38.6289 0.0000
# 6 0.0000 0.0000 0.0000 0.0000 0.0000 27.8098
#
#
#
# Elastic Compliance Matrix: (Units=1/GPa)
#
#
# Indices 1 2 3 4 5 6 
#
# 1 0.013564 -0.007107 -0.003645 0.000000 0.000000 0.000000
# 2 -0.007107 0.018623 -0.005418 0.000000 0.000000 0.000000
# 3 -0.003645 -0.005418 0.013570 0.000000 0.000000 0.000000
# 4 0.000000 0.000000 0.000000 0.032588 0.000000 0.000000
# 5 0.000000 0.000000 0.000000 0.000000 0.025887 0.000000
# 6 0.000000 0.000000 0.000000 0.000000 0.000000 0.035959
#
#
# Mechanical properties :
#
#
# Convention : Reuss Voigt Hill
#
# Bulk Modulus (GPa) = 74.52692 75.87039 75.19865
# Shear Modulus (GPa) = 28.24814 29.49265 28.87039
#
# Velocity S-wave (km/s) = 3.89533 3.98021 3.93800
# Velocity P-wave (km/s) = 7.76298 7.86618 7.81475
#
# Compressibility (1/GPa) = 0.01341797
#
# Stress axis : x y z
#
# Youngs Moduli (GPa) = 73.72454 53.69633 73.69219
#
# Poissons Ratio (x) = 0.38160 0.26863
# Poissons Ratio (y) = 0.52394 0.39923
# Poissons Ratio (z) = 0.26875 0.29090
#
# Static dielectric constant tensor:
#      x y z
#    x 3.658100 0.000000 0.000000 
#    y 0.000000 3.014910 0.000000 
#    z 0.000000 0.000000 3.517080 
# 
# 
# High freq. dielectric constant tensor:
#      x y z
#    x 1.736110 0.000000 0.000000 
#    y 0.000000 1.705780 0.000000 
#    z 0.000000 0.000000 1.739330 
# 
# From -- ./inp_files/10733.got.cif
#   From: 2010.06.25/outbox.cif.g09.slc.cpg/sg58_6_cif.got.tgz:10733.got - 2010.06.26 21:38:00.
