data_PCOD8237125
_publ_section_title
;
Structure prediction by ZEFSAII (Michael W. Deem and Ramdas Pophale) SiO2 
 PCOD8237125
Probable space group: P N N M
;
_chemical_formula_sum "Si O2"
_cell_formula_units_Z 64
_cell_length_a 23.200204
_cell_length_b 9.701693
_cell_length_c 14.379824
_cell_angle_alpha 90.000000
_cell_angle_beta 90.000000
_cell_angle_gamma 90.000000
_cell_volume 3236.628858
_symmetry_space_group_name_H-M "P N N M"
_symmetry_group_IT_number 58
_symmetry_cell_setting 'orthorhombic'
loop_
_space_group_symop_operation_xyz
x,y,z
-x,-y,z
1/2+x,1/2-y,1/2-z
1/2-x,1/2+y,1/2-z
-x,-y,-z
x,y,-z
1/2-x,1/2+y,1/2+z
1/2+x,1/2-y,1/2+z
loop_
_atom_site_type_symbol
_atom_site_label
_atom_site_fract_x
_atom_site_fract_y
_atom_site_fract_z
Si Si1 0.066442 0.965377 0.896395
Si Si2 0.842079 0.615090 0.394300
Si Si3 0.879392 0.269262 0.213254
Si Si4 0.220733 0.383168 0.109377
Si Si5 0.562396 0.045381 0.749353
Si Si6 0.762919 0.307051 0.110564
Si Si7 0.323714 0.196760 0.895547
Si Si8 0.101019 0.265490 0.108134
O O1 0.103437 0.102151 0.874406
O O2 0.078187 0.849169 0.820725
O O3 0.081816 0.911120 0.000000
O O4 0.000000 0.000000 0.890364
O O5 0.860219 0.651780 0.500000
O O6 0.900090 0.611320 0.333124
O O7 0.794821 0.725706 0.357356
O O8 0.811611 0.465994 0.390498
O O9 0.905952 0.419821 0.195420
O O10 0.818949 0.245546 0.160632
O O11 0.874020 0.256703 0.325431
O O12 0.241365 0.533605 0.143218
O O13 0.266331 0.269775 0.141420
O O14 0.159196 0.335870 0.149289
O O15 0.214382 0.381790 0.000000
O O16 0.500000 0.000000 0.789074
O O17 0.551594 0.162654 0.670620
O O18 0.771097 0.292128 0.000000
O O19 0.340965 0.243349 0.000000
O O20 0.089031 0.296852 0.000000
#
# Coordination Sequence:
#
# PCOD8237125 Si02
#       8
#     8   8   8   8   8   8   8   8
#     4  10  22  39  57  82 116 154 196 237 286 350
#     4   9  21  39  58  85 117 151 195 245 296 346
#     4  11  22  35  59  84 113 150 195 241 294 341
#     4   9  18  34  53  78 114 149 182 224 285 352
#     4  11  23  39  59  84 116 157 206 248 289 347
#     4  10  20  34  55  86 119 145 183 236 291 357
#     4   9  20  36  54  79 113 150 187 230 286 346
#     4  10  21  36  55  82 117 154 191 236 289 348
#
# _framework density 19.773661000000001
#
# number of rings (size 3 to 8) (size 9 to 14) (size 15 to 20)
#    0.000    2.125    1.250    1.125    3.500    2.000 
#    0.000    0.000    0.000    0.375    0.000    0.000 
#    0.000    0.000    0.000    0.000    0.000    0.000 
#
# Total GULP energy -793430.350792 kJ/mol
# GULP energy per Si atom -12397.349231 kJ/mol
# Density = 1.972866 g / cm^3
# Si number density = 19.773661 Si / 1000 Ang^3
#
#
#
# Elastic Constant Matrix: (Units=GPa)
#
#
# Indices 1 2 3 4 5 6 
#
# 1 78.9919 37.7541 31.1168 0.0000 0.0000 0.0000
# 2 37.7541 94.6579 41.1986 0.0000 0.0000 0.0000
# 3 31.1168 41.1986 72.9419 0.0000 0.0000 0.0000
# 4 0.0000 0.0000 0.0000 26.6329 0.0000 0.0000
# 5 0.0000 0.0000 0.0000 0.0000 26.6330 0.0000
# 6 0.0000 0.0000 0.0000 0.0000 0.0000 32.2768
#
#
#
# Elastic Compliance Matrix: (Units=1/GPa)
#
#
# Indices 1 2 3 4 5 6 
#
# 1 0.016663 -0.004710 -0.004448 0.000000 0.000000 0.000000
# 2 -0.004710 0.015339 -0.006655 0.000000 0.000000 0.000000
# 3 -0.004448 -0.006655 0.019366 0.000000 0.000000 0.000000
# 4 0.000000 0.000000 0.000000 0.037548 0.000000 0.000000
# 5 0.000000 0.000000 0.000000 0.000000 0.037547 0.000000
# 6 0.000000 0.000000 0.000000 0.000000 0.000000 0.030982
#
#
# Mechanical properties :
#
#
# Convention : Reuss Voigt Hill
#
# Bulk Modulus (GPa) = 50.65203 51.85899 51.25551
# Shear Modulus (GPa) = 25.55576 26.21003 25.88290
#
# Velocity S-wave (km/s) = 3.59892 3.64469 3.62188
# Velocity P-wave (km/s) = 6.55295 6.63287 6.59303
#
# Compressibility (1/GPa) = 0.01974255
#
# Stress axis : x y z
#
# Youngs Moduli (GPa) = 60.01372 65.19235 51.63787
#
# Poissons Ratio (x) = 0.30706 0.22969
# Poissons Ratio (y) = 0.28266 0.34363
# Poissons Ratio (z) = 0.26694 0.43382
#
# Static dielectric constant tensor:
#      x y z
#    x 3.488090 0.000000 0.000000 
#    y 0.000000 3.756510 0.000000 
#    z 0.000000 0.000000 3.609960 
# 
# 
# High freq. dielectric constant tensor:
#      x y z
#    x 1.753110 0.000000 0.000000 
#    y 0.000000 1.773130 0.000000 
#    z 0.000000 0.000000 1.770780 
# 
# From -- ./inp_files/23567.got.cif
#   From: 2010.06.25/outbox.cif.g09.slc.cpg/sg58_12_cif.got.tgz:23567.got - 2010.06.26 21:38:00.
