data_PCOD8237876
_publ_section_title
;
Structure prediction by ZEFSAII (Michael W. Deem and Ramdas Pophale) SiO2 
 PCOD8237876
Probable space group: P N N M
;
_chemical_formula_sum "Si O2"
_cell_formula_units_Z 48
_cell_length_a 6.605428
_cell_length_b 13.436104
_cell_length_c 26.960120
_cell_angle_alpha 90.000000
_cell_angle_beta 90.000000
_cell_angle_gamma 90.000000
_cell_volume 2392.743476
_symmetry_space_group_name_H-M "P N N M"
_symmetry_group_IT_number 58
_symmetry_cell_setting 'orthorhombic'
loop_
_space_group_symop_operation_xyz
x,y,z
-x,-y,z
1/2+x,1/2-y,1/2-z
1/2-x,1/2+y,1/2-z
-x,-y,-z
x,y,-z
1/2-x,1/2+y,1/2+z
1/2+x,1/2-y,1/2+z
loop_
_atom_site_type_symbol
_atom_site_label
_atom_site_fract_x
_atom_site_fract_y
_atom_site_fract_z
Si Si1 0.039666 0.110491 0.394232
Si Si2 0.004416 0.614817 0.630953
Si Si3 0.689068 0.261347 0.302303
Si Si4 0.375143 0.256429 0.388106
Si Si5 0.232587 0.726959 0.442419
Si Si6 0.992440 0.110011 0.720258
O O1 0.251959 0.161369 0.410421
O O2 0.850725 0.177295 0.411834
O O3 0.073330 0.107071 0.335537
O O4 0.000000 0.000000 0.416040
O O5 0.775366 0.653552 0.625557
O O6 0.000000 0.500000 0.646638
O O7 0.127384 0.679936 0.670975
O O8 0.116690 0.628919 0.577788
O O9 0.502254 0.237072 0.338163
O O10 0.766282 0.155085 0.281707
O O11 0.633171 0.322815 0.254054
O O12 0.528621 0.285850 0.432229
O O13 0.187858 0.740847 0.500000
O O14 0.000000 0.000000 0.743629
#
# Coordination Sequence:
#
# PCOD8237876 Si02
#       6
#     8   8   8   8   8   8
#     4  10  21  42  60  89 127 165 206 259 314 373
#     4  10  23  41  65  92 125 167 207 262 317 377
#     4  11  23  40  61  91 130 168 216 257 309 378
#     4  10  20  41  62  86 124 164 202 265 308 376
#     4  10  22  41  64  93 124 163 209 262 323 381
#     4  11  23  39  62  93 128 169 214 260 310 370
#
# _framework density 20.060654
#
# number of rings (size 3 to 8) (size 9 to 14) (size 15 to 20)
#    0.000    1.667    5.000    1.000    2.333    6.000 
#    0.000    3.333    0.000    0.000    0.000    0.000 
#    0.000    0.000    0.000    0.000    0.000    0.000 
#
# Total GULP energy -594897.425048 kJ/mol
# GULP energy per Si atom -12393.696355 kJ/mol
# Density = 2.001499 g / cm^3
# Si number density = 20.060654 Si / 1000 Ang^3
#
#
#
# Elastic Constant Matrix: (Units=GPa)
#
#
# Indices 1 2 3 4 5 6 
#
# 1 138.8335 58.3200 27.9950 0.0000 0.0000 0.0000
# 2 58.3200 133.8731 13.5197 0.0000 0.0000 0.0000
# 3 27.9950 13.5197 77.5391 0.0000 0.0000 0.0000
# 4 0.0000 0.0000 0.0000 18.4096 0.0000 0.0000
# 5 0.0000 0.0000 0.0000 0.0000 18.9353 0.0000
# 6 0.0000 0.0000 0.0000 0.0000 0.0000 19.9168
#
#
#
# Elastic Compliance Matrix: (Units=1/GPa)
#
#
# Indices 1 2 3 4 5 6 
#
# 1 0.009345 -0.003797 -0.002712 0.000000 0.000000 0.000000
# 2 -0.003797 0.009146 -0.000224 0.000000 0.000000 0.000000
# 3 -0.002712 -0.000224 0.013915 0.000000 0.000000 0.000000
# 4 0.000000 0.000000 0.000000 0.054320 0.000000 0.000000
# 5 0.000000 0.000000 0.000000 0.000000 0.052811 0.000000
# 6 0.000000 0.000000 0.000000 0.000000 0.000000 0.050209
#
#
# Mechanical properties :
#
#
# Convention : Reuss Voigt Hill
#
# Bulk Modulus (GPa) = 52.79665 61.10169 56.94917
# Shear Modulus (GPa) = 23.86351 28.14640 26.00496
#
# Velocity S-wave (km/s) = 3.45275 3.74981 3.60435
# Velocity P-wave (km/s) = 6.50161 7.01945 6.76549
#
# Compressibility (1/GPa) = 0.01894060
#
# Stress axis : x y z
#
# Youngs Moduli (GPa) = 107.01234 109.33145 71.86582
#
# Poissons Ratio (x) = 0.41514 0.19489
# Poissons Ratio (y) = 0.40633 0.01609
# Poissons Ratio (z) = 0.29020 0.02448
#
# Static dielectric constant tensor:
#      x y z
#    x 3.724700 0.000000 0.000000 
#    y 0.000000 3.812980 0.000000 
#    z 0.000000 0.000000 3.558260 
# 
# 
# High freq. dielectric constant tensor:
#      x y z
#    x 1.791230 0.000000 0.000000 
#    y 0.000000 1.774420 0.000000 
#    z 0.000000 0.000000 1.771720 
# 
# From -- ./inp_files/32795.got.cif
#   From: 2010.06.25/outbox.cif.g09.slc.cpg/sg58_17_cif.got.tgz:32795.got - 2010.06.26 21:38:00.
