data_PCOD8237721
_publ_section_title
;
Structure prediction by ZEFSAII (Michael W. Deem and Ramdas Pophale) SiO2 
 PCOD8237721
Probable space group: P N N M
;
_chemical_formula_sum "Si O2"
_cell_formula_units_Z 56
_cell_length_a 17.206343
_cell_length_b 18.791835
_cell_length_c 8.765279
_cell_angle_alpha 90.000000
_cell_angle_beta 90.000000
_cell_angle_gamma 90.000000
_cell_volume 2834.154431
_symmetry_space_group_name_H-M "P N N M"
_symmetry_group_IT_number 58
_symmetry_cell_setting 'orthorhombic'
loop_
_space_group_symop_operation_xyz
x,y,z
-x,-y,z
1/2+x,1/2-y,1/2-z
1/2-x,1/2+y,1/2-z
-x,-y,-z
x,y,-z
1/2-x,1/2+y,1/2+z
1/2+x,1/2-y,1/2+z
loop_
_atom_site_type_symbol
_atom_site_label
_atom_site_fract_x
_atom_site_fract_y
_atom_site_fract_z
Si Si1 0.235334 0.276454 0.320072
Si Si2 0.822707 0.452031 0.823402
Si Si3 0.592152 0.701350 0.680608
Si Si4 0.468160 0.146898 0.322940
Si Si5 0.685806 0.371730 0.679817
Si Si6 0.622589 0.096033 0.821833
Si Si7 0.018182 0.078414 0.181933
O O1 0.239797 0.265368 0.500000
O O2 0.320382 0.296069 0.253173
O O3 0.205550 0.203855 0.249885
O O4 0.176506 0.338381 0.272969
O O5 0.889090 0.394651 0.789902
O O6 0.747279 0.431656 0.726866
O O7 0.851235 0.529144 0.775564
O O8 0.800055 0.452276 0.000000
O O9 0.597279 0.696459 0.500000
O O10 0.544572 0.771721 0.727300
O O11 0.546933 0.632816 0.746473
O O12 0.492679 0.140343 0.500000
O O13 0.534043 0.113776 0.217115
O O14 0.685154 0.363861 0.500000
O O15 0.602073 0.396657 0.741419
O O16 0.630168 0.078494 0.000000
O O17 0.016438 0.077883 0.000000
O O18 0.000000 0.000000 0.246883
#
# Coordination Sequence:
#
# PCOD8237721 Si02
#       7
#     8   8   8   8   8   8   8
#     4  10  21  39  61  85 118 161 198 236 293 359
#     4  11  23  40  61  85 118 161 200 237 293 365
#     4   9  17  34  58  81 111 155 202 235 273 349
#     4  10  20  38  61  82 111 158 203 235 287 361
#     4  11  22  37  61  91 120 151 198 254 299 344
#     4  11  24  37  58  91 122 150 191 249 303 348
#     4   9  19  33  56  88 118 152 195 244 293 348
#
# _framework density 19.758980000000001
#
# number of rings (size 3 to 8) (size 9 to 14) (size 15 to 20)
#    0.000    1.857    1.429    2.571    2.000    5.143 
#    0.000    0.000    0.000    2.571    0.000    0.000 
#    0.000    0.000    0.000    0.000    0.000    0.000 
#
# Total GULP energy -694599.104763 kJ/mol
# GULP energy per Si atom -12403.555442 kJ/mol
# Density = 1.971401 g / cm^3
# Si number density = 19.758980 Si / 1000 Ang^3
#
#
#
# Elastic Constant Matrix: (Units=GPa)
#
#
# Indices 1 2 3 4 5 6 
#
# 1 127.3574 68.3199 19.3664 0.0000 0.0000 0.0000
# 2 68.3199 133.7762 23.1547 0.0000 0.0000 0.0000
# 3 19.3664 23.1547 13.6804 0.0000 0.0000 0.0000
# 4 0.0000 0.0000 0.0000 26.5422 0.0000 0.0000
# 5 0.0000 0.0000 0.0000 0.0000 24.6615 0.0000
# 6 0.0000 0.0000 0.0000 0.0000 0.0000 24.2979
#
#
#
# Elastic Compliance Matrix: (Units=1/GPa)
#
#
# Indices 1 2 3 4 5 6 
#
# 1 0.011549 -0.004340 -0.009004 0.000000 0.000000 0.000000
# 2 -0.004340 0.012203 -0.014511 0.000000 0.000000 0.000000
# 3 -0.009004 -0.014511 0.110404 0.000000 0.000000 0.000000
# 4 0.000000 0.000000 0.000000 0.037676 0.000000 0.000000
# 5 0.000000 0.000000 0.000000 0.000000 0.040549 0.000000
# 6 0.000000 0.000000 0.000000 0.000000 0.000000 0.041156
#
#
# Mechanical properties :
#
#
# Convention : Reuss Voigt Hill
#
# Bulk Modulus (GPa) = 12.74745 55.16621 33.95683
# Shear Modulus (GPa) = 14.90775 26.03185 20.46980
#
# Velocity S-wave (km/s) = 2.74976 3.63363 3.22215
# Velocity P-wave (km/s) = 4.06781 6.75163 5.57367
#
# Compressibility (1/GPa) = 0.07844705
#
# Stress axis : x y z
#
# Youngs Moduli (GPa) = 86.58678 81.94643 9.05761
#
# Poissons Ratio (x) = 0.35562 0.08156
# Poissons Ratio (y) = 0.37576 0.13143
# Poissons Ratio (z) = 0.77964 1.18912
#
# Static dielectric constant tensor:
#      x y z
#    x 3.946090 0.000000 0.000000 
#    y 0.000000 3.808490 0.000000 
#    z 0.000000 0.000000 3.356990 
# 
# 
# High freq. dielectric constant tensor:
#      x y z
#    x 1.786080 0.000000 0.000000 
#    y 0.000000 1.786440 0.000000 
#    z 0.000000 0.000000 1.738990 
# 
# From -- ./inp_files/6429.got.cif
#   From: 2010.06.25/outbox.cif.g09.slc.cpg/sg58_4_cif.got.tgz:6429.got - 2010.06.26 21:38:00.
