data_PCOD8237372
_publ_section_title
;
Structure prediction by ZEFSAII (Michael W. Deem and Ramdas Pophale) SiO2 
 PCOD8237372
Probable space group: P N N M
;
_chemical_formula_sum "Si O2"
_cell_formula_units_Z 64
_cell_length_a 29.530489
_cell_length_b 12.885773
_cell_length_c 8.858292
_cell_angle_alpha 90.000000
_cell_angle_beta 90.000000
_cell_angle_gamma 90.000000
_cell_volume 3370.785422
_symmetry_space_group_name_H-M "P N N M"
_symmetry_group_IT_number 58
_symmetry_cell_setting 'orthorhombic'
loop_
_space_group_symop_operation_xyz
x,y,z
-x,-y,z
1/2+x,1/2-y,1/2-z
1/2-x,1/2+y,1/2-z
-x,-y,-z
x,y,-z
1/2-x,1/2+y,1/2+z
1/2+x,1/2-y,1/2+z
loop_
_atom_site_type_symbol
_atom_site_label
_atom_site_fract_x
_atom_site_fract_y
_atom_site_fract_z
Si Si1 0.642553 0.517156 0.678739
Si Si2 0.885060 0.793487 0.819874
Si Si3 0.545065 0.125655 0.678715
Si Si4 0.206851 0.289938 0.165708
Si Si5 0.057005 0.606145 0.821163
Si Si6 0.874891 0.231123 0.676811
Si Si7 0.239878 0.977901 0.323142
Si Si8 0.712645 0.854442 0.165285
O O1 0.644138 0.529287 0.500000
O O2 0.612913 0.415158 0.727113
O O3 0.618228 0.618832 0.746845
O O4 0.693243 0.500310 0.738274
O O5 0.926870 0.724546 0.756685
O O6 0.839593 0.740982 0.749861
O O7 0.882413 0.788021 0.000000
O O8 0.545315 0.128530 0.500000
O O9 0.493479 0.135961 0.734153
O O10 0.566320 0.013990 0.727761
O O11 0.237746 0.374817 0.249335
O O12 0.237103 0.189024 0.148567
O O13 0.194502 0.335275 0.000000
O O14 0.090874 0.683086 0.738358
O O15 0.062485 0.619876 0.000000
O O16 0.882673 0.217007 0.500000
O O17 0.824116 0.269189 0.715818
O O18 0.228555 0.968055 0.500000
O O19 0.280460 0.059887 0.294100
O O20 0.698132 0.899553 0.000000
#
# Coordination Sequence:
#
# PCOD8237372 Si02
#       8
#     8   8   8   8   8   8   8   8
#     4  11  21  35  56  78 106 148 191 226 265 324
#     4   9  17  31  54  80 105 138 177 219 270 321
#     4   8  16  33  58  86 113 135 167 226 283 330
#     4   9  17  31  49  72 104 141 176 214 264 316
#     4   9  18  35  60  88 110 133 175 227 278 336
#     4  11  23  38  55  77 112 151 185 229 279 323
#     4  11  21  33  51  77 109 145 181 224 275 320
#     4  10  20  36  51  70 105 145 184 221 261 315
#
# _framework density 18.986674000000001
#
# number of rings (size 3 to 8) (size 9 to 14) (size 15 to 20)
#    0.000    2.250    2.500    1.875    1.750    1.000 
#    0.000    1.875    0.000    6.750    0.000    0.000 
#    0.000    0.000    0.000    0.000    0.000    0.000 
#
# Total GULP energy -792879.837256 kJ/mol
# GULP energy per Si atom -12388.747457 kJ/mol
# Density = 1.894346 g / cm^3
# Si number density = 18.986674 Si / 1000 Ang^3
#
#
#
# Elastic Constant Matrix: (Units=GPa)
#
#
# Indices 1 2 3 4 5 6 
#
# 1 79.0588 45.6242 23.0928 0.0000 0.0000 0.0000
# 2 45.6242 128.5486 39.0672 0.0000 0.0000 0.0000
# 3 23.0928 39.0672 52.5274 0.0000 0.0000 0.0000
# 4 0.0000 0.0000 0.0000 21.1070 0.0000 0.0000
# 5 0.0000 0.0000 0.0000 0.0000 20.7795 0.0000
# 6 0.0000 0.0000 0.0000 0.0000 0.0000 38.3781
#
#
#
# Elastic Compliance Matrix: (Units=1/GPa)
#
#
# Indices 1 2 3 4 5 6 
#
# 1 0.016455 -0.004705 -0.003735 0.000000 0.000000 0.000000
# 2 -0.004705 0.011396 -0.006408 0.000000 0.000000 0.000000
# 3 -0.003735 -0.006408 0.025445 0.000000 0.000000 0.000000
# 4 0.000000 0.000000 0.000000 0.047378 0.000000 0.000000
# 5 0.000000 0.000000 0.000000 0.000000 0.048124 0.000000
# 6 0.000000 0.000000 0.000000 0.000000 0.000000 0.026057
#
#
# Mechanical properties :
#
#
# Convention : Reuss Voigt Hill
#
# Bulk Modulus (GPa) = 42.36962 52.85592 47.61277
# Shear Modulus (GPa) = 23.53860 26.20964 24.87412
#
# Velocity S-wave (km/s) = 3.52482 3.71943 3.62343
# Velocity P-wave (km/s) = 6.23937 6.80768 6.52971
#
# Compressibility (1/GPa) = 0.02360181
#
# Stress axis : x y z
#
# Youngs Moduli (GPa) = 60.77174 87.74685 39.30017
#
# Poissons Ratio (x) = 0.41286 0.14677
# Poissons Ratio (y) = 0.28594 0.25182
# Poissons Ratio (z) = 0.22696 0.56224
#
# Static dielectric constant tensor:
#      x y z
#    x 3.539100 0.000000 0.000000 
#    y 0.000000 3.749850 0.000000 
#    z 0.000000 0.000000 3.163700 
# 
# 
# High freq. dielectric constant tensor:
#      x y z
#    x 1.726180 0.000000 0.000000 
#    y 0.000000 1.750180 0.000000 
#    z 0.000000 0.000000 1.698930 
# 
# From -- ./inp_files/11086.got.cif
#   From: 2010.06.25/outbox.cif.g09.slc.cpg/sg58_6_cif.got.tgz:11086.got - 2010.06.26 21:38:00.
