data_PCOD8237816
_publ_section_title
;
Structure prediction by ZEFSAII (Michael W. Deem and Ramdas Pophale) SiO2 
 PCOD8237816
Probable space group: P N N M
;
_chemical_formula_sum "Si O2"
_cell_formula_units_Z 64
_cell_length_a 25.723958
_cell_length_b 14.605695
_cell_length_c 8.815393
_cell_angle_alpha 90.000000
_cell_angle_beta 90.000000
_cell_angle_gamma 90.000000
_cell_volume 3312.086706
_symmetry_space_group_name_H-M "P N N M"
_symmetry_group_IT_number 58
_symmetry_cell_setting 'orthorhombic'
loop_
_space_group_symop_operation_xyz
x,y,z
-x,-y,z
1/2+x,1/2-y,1/2-z
1/2-x,1/2+y,1/2-z
-x,-y,-z
x,y,-z
1/2-x,1/2+y,1/2+z
1/2+x,1/2-y,1/2+z
loop_
_atom_site_type_symbol
_atom_site_label
_atom_site_fract_x
_atom_site_fract_y
_atom_site_fract_z
Si Si1 0.889259 0.178359 0.326800
Si Si2 0.393802 0.656638 0.678454
Si Si3 0.359357 0.138866 0.325377
Si Si4 0.443593 0.995561 0.324262
Si Si5 0.675486 0.496191 0.825934
Si Si6 0.140647 0.358026 0.178689
Si Si7 0.214602 0.495204 0.321962
Si Si8 0.998636 0.893780 0.678712
O O1 0.890764 0.211770 0.500000
O O2 0.864187 0.257001 0.225313
O O3 0.852065 0.092665 0.306080
O O4 0.947213 0.152719 0.272551
O O5 0.390282 0.636820 0.500000
O O6 0.364808 0.580054 0.773376
O O7 0.366031 0.752267 0.720089
O O8 0.453841 0.658805 0.729116
O O9 0.342622 0.134689 0.500000
O O10 0.415305 0.092172 0.298787
O O11 0.315555 0.085459 0.232460
O O12 0.451746 0.972783 0.500000
O O13 0.500000 0.000000 0.243095
O O14 0.408797 0.913879 0.254372
O O15 0.725778 0.493030 0.721833
O O16 0.690910 0.478215 0.000000
O O17 0.192620 0.400739 0.251222
O O18 0.145274 0.374316 0.000000
O O19 0.209439 0.487940 0.500000
O O20 0.988030 0.884677 0.500000
O O21 0.000000 0.000000 0.726450
#
# Coordination Sequence:
#
# PCOD8237816 Si02
#       8
#     8   8   8   8   8   8   8   8
#     4  10  22  39  60  86 119 159 200 245 294 352
#     4  11  23  37  59  92 124 156 200 248 294 349
#     4  10  21  37  60  87 119 156 194 240 298 356
#     4   8  15  30  53  79 110 148 189 230 278 340
#     4  11  23  42  64  84 115 158 201 244 301 357
#     4   9  20  38  58  84 120 157 193 237 296 351
#     4  11  23  41  64  88 117 150 195 250 298 348
#     4  10  20  39  60  82 120 167 202 238 299 355
#
# _framework density 19.323166000000001
#
# number of rings (size 3 to 8) (size 9 to 14) (size 15 to 20)
#    0.000    2.000    1.250    3.000    1.750    3.750 
#    0.000    1.250    0.000    1.875    0.000    0.000 
#    0.000    0.000    0.000    0.000    0.000    0.000 
#
# Total GULP energy -793730.318807 kJ/mol
# GULP energy per Si atom -12402.036231 kJ/mol
# Density = 1.927919 g / cm^3
# Si number density = 19.323166 Si / 1000 Ang^3
#
#
#
# Elastic Constant Matrix: (Units=GPa)
#
#
# Indices 1 2 3 4 5 6 
#
# 1 97.0249 11.2864 27.7646 0.0000 0.0000 0.0000
# 2 11.2864 81.2770 42.3636 0.0000 0.0000 0.0000
# 3 27.7646 42.3636 72.4175 0.0000 0.0000 0.0000
# 4 0.0000 0.0000 0.0000 24.4046 0.0000 0.0000
# 5 0.0000 0.0000 0.0000 0.0000 31.8100 0.0000
# 6 0.0000 0.0000 0.0000 0.0000 0.0000 71.4782
#
#
#
# Elastic Compliance Matrix: (Units=1/GPa)
#
#
# Indices 1 2 3 4 5 6 
#
# 1 0.011635 0.001021 -0.005058 0.000000 0.000000 0.000000
# 2 0.001021 0.017790 -0.010798 0.000000 0.000000 0.000000
# 3 -0.005058 -0.010798 0.022065 0.000000 0.000000 0.000000
# 4 0.000000 0.000000 0.000000 0.040976 0.000000 0.000000
# 5 0.000000 0.000000 0.000000 0.000000 0.031437 0.000000
# 6 0.000000 0.000000 0.000000 0.000000 0.000000 0.013990
#
#
# Mechanical properties :
#
#
# Convention : Reuss Voigt Hill
#
# Bulk Modulus (GPa) = 45.83165 45.94984 45.89074
# Shear Modulus (GPa) = 28.59788 36.82554 32.71171
#
# Velocity S-wave (km/s) = 3.85122 4.37025 4.11892
# Velocity P-wave (km/s) = 6.59893 7.02116 6.81332
#
# Compressibility (1/GPa) = 0.02181898
#
# Stress axis : x y z
#
# Youngs Moduli (GPa) = 85.94536 56.21039 45.32062
#
# Poissons Ratio (x) = -0.05737 0.22923
# Poissons Ratio (y) = -0.08772 0.48939
# Poissons Ratio (z) = 0.43471 0.60699
#
# Static dielectric constant tensor:
#      x y z
#    x 3.683090 0.000000 0.000000 
#    y 0.000000 3.562420 0.000000 
#    z 0.000000 0.000000 3.394690 
# 
# 
# High freq. dielectric constant tensor:
#      x y z
#    x 1.760220 0.000000 0.000000 
#    y 0.000000 1.755240 0.000000 
#    z 0.000000 0.000000 1.740900 
# 
# From -- ./inp_files/10058.got.cif
#   From: 2010.06.25/outbox.cif.g09.slc.cpg/sg58_6_cif.got.tgz:10058.got - 2010.06.26 21:38:00.
