data_PCOD8237653
_publ_section_title
;
Structure prediction by ZEFSAII (Michael W. Deem and Ramdas Pophale) SiO2 
 PCOD8237653
Probable space group: P N N M
;
_chemical_formula_sum "Si O2"
_cell_formula_units_Z 56
_cell_length_a 21.761158
_cell_length_b 14.650154
_cell_length_c 8.924984
_cell_angle_alpha 90.000000
_cell_angle_beta 90.000000
_cell_angle_gamma 90.000000
_cell_volume 2845.323419
_symmetry_space_group_name_H-M "P N N M"
_symmetry_group_IT_number 58
_symmetry_cell_setting 'orthorhombic'
loop_
_space_group_symop_operation_xyz
x,y,z
-x,-y,z
1/2+x,1/2-y,1/2-z
1/2-x,1/2+y,1/2-z
-x,-y,-z
x,y,-z
1/2-x,1/2+y,1/2+z
1/2+x,1/2-y,1/2+z
loop_
_atom_site_type_symbol
_atom_site_label
_atom_site_fract_x
_atom_site_fract_y
_atom_site_fract_z
Si Si1 0.992475 0.775563 0.324238
Si Si2 0.774048 0.189071 0.823152
Si Si3 0.460110 0.912003 0.324915
Si Si4 0.096865 0.892093 0.822478
Si Si5 0.890115 0.920278 0.324020
Si Si6 0.747267 0.388810 0.177599
Si Si7 0.179779 0.437998 0.176654
O O1 0.005766 0.776658 0.500000
O O2 0.984516 0.672593 0.269858
O O3 0.931504 0.832973 0.284411
O O4 0.050164 0.817974 0.239872
O O5 0.835086 0.137260 0.768949
O O6 0.776717 0.293822 0.768290
O O7 0.713782 0.147063 0.749567
O O8 0.766321 0.182940 0.000000
O O9 0.465103 0.887668 0.500000
O O10 0.390921 0.934928 0.276340
O O11 0.500000 0.000000 0.283833
O O12 0.081468 0.991538 0.757421
O O13 0.091393 0.894159 0.000000
O O14 0.889999 0.940864 0.500000
O O15 0.821994 0.900602 0.260538
O O16 0.790522 0.468869 0.240955
O O17 0.744801 0.391932 0.000000
O O18 0.188299 0.432412 0.000000
#
# Coordination Sequence:
#
# PCOD8237653 Si02
#       7
#     8   8   8   8   8   8   8
#     4  11  24  40  61  86 116 160 203 244 298 356
#     4  10  21  37  59  87 119 156 196 242 295 350
#     4  10  23  41  63  89 120 158 200 246 298 355
#     4  11  23  37  59  89 121 154 195 250 302 352
#     4  10  20  38  61  85 116 155 196 240 296 360
#     4   9  18  34  59  84 111 149 191 233 285 350
#     4  10  20  37  62  87 114 152 194 240 290 348
#
# _framework density 19.681417
#
# number of rings (size 3 to 8) (size 9 to 14) (size 15 to 20)
#    0.000    1.857    1.429    2.143    2.000    5.429 
#    0.000    1.429    0.000    0.000    0.000    0.000 
#    0.000    0.000    0.000    0.000    0.000    0.000 
#
# Total GULP energy -694640.788288 kJ/mol
# GULP energy per Si atom -12404.299791 kJ/mol
# Density = 1.963662 g / cm^3
# Si number density = 19.681417 Si / 1000 Ang^3
#
#
#
# Elastic Constant Matrix: (Units=GPa)
#
#
# Indices 1 2 3 4 5 6 
#
# 1 112.4675 45.9938 36.8514 0.0000 0.0000 0.0000
# 2 45.9938 130.9974 33.7461 0.0000 0.0000 0.0000
# 3 36.8514 33.7461 43.1624 0.0000 0.0000 0.0000
# 4 0.0000 0.0000 0.0000 32.6754 0.0000 0.0000
# 5 0.0000 0.0000 0.0000 0.0000 19.8340 0.0000
# 6 0.0000 0.0000 0.0000 0.0000 0.0000 34.7221
#
#
#
# Elastic Compliance Matrix: (Units=1/GPa)
#
#
# Indices 1 2 3 4 5 6 
#
# 1 0.012791 -0.002101 -0.009278 0.000000 0.000000 0.000000
# 2 -0.002101 0.009904 -0.005950 0.000000 0.000000 0.000000
# 3 -0.009278 -0.005950 0.035742 0.000000 0.000000 0.000000
# 4 0.000000 0.000000 0.000000 0.030604 0.000000 0.000000
# 5 0.000000 0.000000 0.000000 0.000000 0.050418 0.000000
# 6 0.000000 0.000000 0.000000 0.000000 0.000000 0.028800
#
#
# Mechanical properties :
#
#
# Convention : Reuss Voigt Hill
#
# Bulk Modulus (GPa) = 42.05371 57.75665 49.90518
# Shear Modulus (GPa) = 23.71443 28.78204 26.24823
#
# Velocity S-wave (km/s) = 3.47495 3.82828 3.65589
# Velocity P-wave (km/s) = 6.12487 6.99646 6.57512
#
# Compressibility (1/GPa) = 0.02377911
#
# Stress axis : x y z
#
# Youngs Moduli (GPa) = 78.18228 100.96887 27.97867
#
# Poissons Ratio (x) = 0.21211 0.25959
# Poissons Ratio (y) = 0.16424 0.16647
# Poissons Ratio (z) = 0.72537 0.60074
#
# Static dielectric constant tensor:
#      x y z
#    x 3.801500 0.000000 0.000000 
#    y 0.000000 3.765530 0.000000 
#    z 0.000000 0.000000 3.336320 
# 
# 
# High freq. dielectric constant tensor:
#      x y z
#    x 1.778930 0.000000 0.000000 
#    y 0.000000 1.781290 0.000000 
#    z 0.000000 0.000000 1.745590 
# 
# From -- ./inp_files/9000.got.cif
#   From: 2010.06.25/outbox.cif.g09.slc.cpg/sg58_5_cif.got.tgz:9000.got - 2010.06.26 21:38:00.
