data_PCOD8237881
_publ_section_title
;
Structure prediction by ZEFSAII (Michael W. Deem and Ramdas Pophale) SiO2 
 PCOD8237881
Probable space group: P N N M
;
_chemical_formula_sum "Si O2"
_cell_formula_units_Z 40
_cell_length_a 12.094529
_cell_length_b 18.450598
_cell_length_c 8.583720
_cell_angle_alpha 90.000000
_cell_angle_beta 90.000000
_cell_angle_gamma 90.000000
_cell_volume 1915.468213
_symmetry_space_group_name_H-M "P N N M"
_symmetry_group_IT_number 58
_symmetry_cell_setting 'orthorhombic'
loop_
_space_group_symop_operation_xyz
x,y,z
-x,-y,z
1/2+x,1/2-y,1/2-z
1/2-x,1/2+y,1/2-z
-x,-y,-z
x,y,-z
1/2-x,1/2+y,1/2+z
1/2+x,1/2-y,1/2+z
loop_
_atom_site_type_symbol
_atom_site_label
_atom_site_fract_x
_atom_site_fract_y
_atom_site_fract_z
Si Si1 0.099222 0.810433 0.319693
Si Si2 0.189340 0.382438 0.319519
Si Si3 0.055194 0.074452 0.818935
Si Si4 0.189994 0.549471 0.320521
Si Si5 0.967358 0.336003 0.820226
O O1 0.095807 0.790088 0.500000
O O2 0.210906 0.852953 0.282907
O O3 0.098410 0.736622 0.221893
O O4 0.993400 0.859109 0.278136
O O5 0.220953 0.373568 0.500000
O O6 0.171143 0.466140 0.276472
O O7 0.078484 0.338658 0.281738
O O8 0.184842 0.072353 0.786766
O O9 0.027026 0.086466 0.000000
O O10 0.000000 0.000000 0.760450
O O11 0.158696 0.563878 0.500000
O O12 0.110226 0.595520 0.211874
O O13 0.001019 0.335733 0.000000
#
# Coordination Sequence:
#
# PCOD8237881 Si02
#       5
#     8   8   8   8   8
#     4  12  26  43  65  96 133 173 218 269 326 385
#     4  11  23  45  71  96 129 170 217 267 326 390
#     4  10  20  41  68  96 129 170 216 263 320 384
#     4  10  22  42  70  98 130 171 216 266 325 390
#     4  12  27  44  65  95 134 175 218 270 326 386
#
# _framework density 20.882624
#
# number of rings (size 3 to 8) (size 9 to 14) (size 15 to 20)
#    0.000    1.000    2.000    4.800    2.800    5.200 
#    0.000    0.000    0.000    0.000    0.000    0.000 
#    0.000    0.000    0.000    0.000    0.000    0.000 
#
# Total GULP energy -496367.097942 kJ/mol
# GULP energy per Si atom -12409.177449 kJ/mol
# Density = 2.083509 g / cm^3
# Si number density = 20.882624 Si / 1000 Ang^3
#
#
#
# Elastic Constant Matrix: (Units=GPa)
#
#
# Indices 1 2 3 4 5 6 
#
# 1 70.4164 14.5684 39.3050 0.0000 0.0000 0.0000
# 2 14.5684 91.0343 46.8890 0.0000 0.0000 0.0000
# 3 39.3050 46.8890 63.2245 0.0000 0.0000 0.0000
# 4 0.0000 0.0000 0.0000 36.5657 0.0000 0.0000
# 5 0.0000 0.0000 0.0000 0.0000 14.4233 0.0000
# 6 0.0000 0.0000 0.0000 0.0000 0.0000 24.9674
#
#
#
# Elastic Compliance Matrix: (Units=1/GPa)
#
#
# Indices 1 2 3 4 5 6 
#
# 1 0.023695 0.006141 -0.019285 0.000000 0.000000 0.000000
# 2 0.006141 0.019366 -0.018180 0.000000 0.000000 0.000000
# 3 -0.019285 -0.018180 0.041289 0.000000 0.000000 0.000000
# 4 0.000000 0.000000 0.000000 0.027348 0.000000 0.000000
# 5 0.000000 0.000000 0.000000 0.000000 0.069332 0.000000
# 6 0.000000 0.000000 0.000000 0.000000 0.000000 0.040052
#
#
# Mechanical properties :
#
#
# Convention : Reuss Voigt Hill
#
# Bulk Modulus (GPa) = 46.07951 47.35555 46.71753
# Shear Modulus (GPa) = 17.18419 23.45216 20.31817
#
# Velocity S-wave (km/s) = 2.87173 3.35482 3.12263
# Velocity P-wave (km/s) = 5.75409 6.14270 5.95157
#
# Compressibility (1/GPa) = 0.02170162
#
# Stress axis : x y z
#
# Youngs Moduli (GPa) = 42.20243 51.63636 24.21965
#
# Poissons Ratio (x) = -0.31711 0.46708
# Poissons Ratio (y) = -0.25918 0.44032
# Poissons Ratio (z) = 0.81388 0.93877
#
# Static dielectric constant tensor:
#      x y z
#    x 3.832990 0.000000 0.000000 
#    y 0.000000 4.576930 0.000000 
#    z 0.000000 0.000000 3.662140 
# 
# 
# High freq. dielectric constant tensor:
#      x y z
#    x 1.829790 0.000000 0.000000 
#    y 0.000000 1.827890 0.000000 
#    z 0.000000 0.000000 1.812910 
# 
# From -- ./inp_files/3768.got.cif
#   From: 2010.06.25/outbox.cif.g09.slc.cpg/sg58_2_cif.got.tgz:3768.got - 2010.06.26 21:38:00.
