data_PCOD8237307
_publ_section_title
;
Structure prediction by ZEFSAII (Michael W. Deem and Ramdas Pophale) SiO2 
 PCOD8237307
Probable space group: P N N M
;
_chemical_formula_sum "Si O2"
_cell_formula_units_Z 56
_cell_length_a 14.864581
_cell_length_b 9.173035
_cell_length_c 20.359788
_cell_angle_alpha 90.000000
_cell_angle_beta 90.000000
_cell_angle_gamma 90.000000
_cell_volume 2776.124724
_symmetry_space_group_name_H-M "P N N M"
_symmetry_group_IT_number 58
_symmetry_cell_setting 'orthorhombic'
loop_
_space_group_symop_operation_xyz
x,y,z
-x,-y,z
1/2+x,1/2-y,1/2-z
1/2-x,1/2+y,1/2-z
-x,-y,-z
x,y,-z
1/2-x,1/2+y,1/2+z
1/2+x,1/2-y,1/2+z
loop_
_atom_site_type_symbol
_atom_site_label
_atom_site_fract_x
_atom_site_fract_y
_atom_site_fract_z
Si Si1 0.988314 0.338736 0.573605
Si Si2 0.270633 0.049652 0.183873
Si Si3 0.407488 0.418267 0.728112
Si Si4 0.814967 0.664820 0.426698
Si Si5 0.593903 0.923082 0.298673
Si Si6 0.296043 0.055039 0.424080
Si Si7 0.165278 0.842050 0.640465
O O1 0.950430 0.355830 0.500000
O O2 0.920987 0.239791 0.613105
O O3 0.000000 0.500000 0.605008
O O4 0.086064 0.261428 0.574931
O O5 0.328105 0.016393 0.249992
O O6 0.267115 0.222751 0.171605
O O7 0.169160 0.992132 0.184312
O O8 0.316123 0.972105 0.121686
O O9 0.500000 0.500000 0.713879
O O10 0.419218 0.249013 0.710487
O O11 0.374318 0.444743 0.802566
O O12 0.794024 0.606197 0.500000
O O13 0.743417 0.786735 0.406595
O O14 0.621679 0.965783 0.373398
O O15 0.500000 0.000000 0.281800
O O16 0.328662 0.044834 0.500000
O O17 0.218392 0.934684 0.413602
#
# Coordination Sequence:
#
# PCOD8237307 Si02
#       7
#     8   8   8   8   8   8   8
#     4  10  20  35  57  92 128 163 207 250 307 384
#     4  11  23  43  66  93 127 168 219 256 314 383
#     4  11  26  42  66  94 127 165 213 271 317 382
#     4  10  22  39  64  89 129 174 209 260 316 383
#     4  11  26  42  68  98 126 170 217 265 320 374
#     4  11  24  43  64  92 130 171 213 266 327 379
#     4  11  24  37  63  96 125 168 205 267 321 383
#
# _framework density 20.172004999999999
#
# number of rings (size 3 to 8) (size 9 to 14) (size 15 to 20)
#    0.000    1.286    4.286    0.429    8.000    0.857 
#    0.000    2.143    0.000    0.857    0.000    0.000 
#    0.000    0.000    0.000    0.000    0.000    0.000 
#
# Total GULP energy -694368.597232 kJ/mol
# GULP energy per Si atom -12399.439236 kJ/mol
# Density = 2.012609 g / cm^3
# Si number density = 20.172005 Si / 1000 Ang^3
#
#
#
# Elastic Constant Matrix: (Units=GPa)
#
#
# Indices 1 2 3 4 5 6 
#
# 1 108.8679 37.4754 27.7234 0.0000 0.0000 0.0000
# 2 37.4754 62.7175 33.7240 0.0000 0.0000 0.0000
# 3 27.7234 33.7240 100.3861 0.0000 0.0000 0.0000
# 4 0.0000 0.0000 0.0000 27.8460 0.0000 0.0000
# 5 0.0000 0.0000 0.0000 0.0000 26.6110 0.0000
# 6 0.0000 0.0000 0.0000 0.0000 0.0000 34.6324
#
#
#
# Elastic Compliance Matrix: (Units=1/GPa)
#
#
# Indices 1 2 3 4 5 6 
#
# 1 0.011658 -0.006389 -0.001073 0.000000 0.000000 0.000000
# 2 -0.006389 0.022961 -0.005949 0.000000 0.000000 0.000000
# 3 -0.001073 -0.005949 0.012257 0.000000 0.000000 0.000000
# 4 0.000000 0.000000 0.000000 0.035912 0.000000 0.000000
# 5 0.000000 0.000000 0.000000 0.000000 0.037578 0.000000
# 6 0.000000 0.000000 0.000000 0.000000 0.000000 0.028875
#
#
# Mechanical properties :
#
#
# Convention : Reuss Voigt Hill
#
# Bulk Modulus (GPa) = 49.86814 52.20190 51.03502
# Shear Modulus (GPa) = 27.36019 29.35447 28.35733
#
# Velocity S-wave (km/s) = 3.68685 3.81886 3.75344
# Velocity P-wave (km/s) = 6.54973 6.73643 6.64374
#
# Compressibility (1/GPa) = 0.02005288
#
# Stress axis : x y z
#
# Youngs Moduli (GPa) = 85.77819 43.55213 81.58923
#
# Poissons Ratio (x) = 0.27825 0.08757
# Poissons Ratio (y) = 0.54802 0.48539
# Poissons Ratio (z) = 0.09206 0.25910
#
# Static dielectric constant tensor:
#      x y z
#    x 3.560650 0.000000 0.000000 
#    y 0.000000 3.651860 0.000000 
#    z 0.000000 0.000000 3.682240 
# 
# 
# High freq. dielectric constant tensor:
#      x y z
#    x 1.782870 0.000000 0.000000 
#    y 0.000000 1.784690 0.000000 
#    z 0.000000 0.000000 1.789680 
# 
# From -- ./inp_files/28959.got.cif
#   From: 2010.06.25/outbox.cif.g09.slc.cpg/sg58_15_cif.got.tgz:28959.got - 2010.06.26 21:38:00.
