data_PCOD8237255
_publ_section_title
;
Structure prediction by ZEFSAII (Michael W. Deem and Ramdas Pophale) SiO2 
 PCOD8237255
Probable space group: P N N M
;
_chemical_formula_sum "Si O2"
_cell_formula_units_Z 40
_cell_length_a 7.706904
_cell_length_b 28.278816
_cell_length_c 9.365369
_cell_angle_alpha 90.000000
_cell_angle_beta 90.000000
_cell_angle_gamma 90.000000
_cell_volume 2041.108376
_symmetry_space_group_name_H-M "P N N M"
_symmetry_group_IT_number 58
_symmetry_cell_setting 'orthorhombic'
loop_
_space_group_symop_operation_xyz
x,y,z
-x,-y,z
1/2+x,1/2-y,1/2-z
1/2-x,1/2+y,1/2-z
-x,-y,-z
x,y,-z
1/2-x,1/2+y,1/2+z
1/2+x,1/2-y,1/2+z
loop_
_atom_site_type_symbol
_atom_site_label
_atom_site_fract_x
_atom_site_fract_y
_atom_site_fract_z
Si Si1 0.663031 0.299586 0.163831
Si Si2 0.985934 0.944316 0.163556
Si Si3 0.339363 0.894808 0.836446
Si Si4 0.675919 0.702764 0.663730
Si Si5 0.176599 0.601588 0.835120
O O1 0.492579 0.312889 0.250453
O O2 0.747353 0.251604 0.225882
O O3 0.798372 0.342147 0.181774
O O4 0.608814 0.292038 0.000000
O O5 0.832530 0.926477 0.263070
O O6 0.165658 0.921112 0.215460
O O7 0.947627 0.929259 0.000000
O O8 0.000000 0.000000 0.179587
O O9 0.317942 0.838362 0.819336
O O10 0.496835 0.912807 0.739354
O O11 0.381194 0.908247 0.000000
O O12 0.619845 0.709435 0.500000
O O13 0.168040 0.586598 0.000000
#
# Coordination Sequence:
#
# PCOD8237255 Si02
#       5
#     8   8   8   8   8
#     4  10  21  35  53  83 119 154 193 239 291 346
#     4  10  22  42  66  89 115 153 203 254 298 345
#     4  10  21  38  61  87 116 154 199 246 293 347
#     4  10  20  35  56  83 115 155 201 241 286 346
#     4  11  23  38  59  88 123 158 192 240 302 360
#
# _framework density 19.597194999999999
#
# number of rings (size 3 to 8) (size 9 to 14) (size 15 to 20)
#    0.000    1.800    2.000    1.800    0.000    4.400 
#    0.000    4.000    0.000    0.000    0.000    0.000 
#    0.000    0.000    0.000    0.000    0.000    0.000 
#
# Total GULP energy -496198.621823 kJ/mol
# GULP energy per Si atom -12404.965546 kJ/mol
# Density = 1.955259 g / cm^3
# Si number density = 19.597195 Si / 1000 Ang^3
#
#
#
# Elastic Constant Matrix: (Units=GPa)
#
#
# Indices 1 2 3 4 5 6 
#
# 1 147.5561 35.6234 78.1631 0.0000 0.0000 0.0000
# 2 35.6234 80.7357 29.6725 0.0000 0.0000 0.0000
# 3 78.1631 29.6725 93.0043 0.0000 0.0000 0.0000
# 4 0.0000 0.0000 0.0000 35.7847 0.0000 0.0000
# 5 0.0000 0.0000 0.0000 0.0000 33.6412 0.0000
# 6 0.0000 0.0000 0.0000 0.0000 0.0000 25.2929
#
#
#
# Elastic Compliance Matrix: (Units=1/GPa)
#
#
# Indices 1 2 3 4 5 6 
#
# 1 0.012459 -0.001868 -0.009875 0.000000 0.000000 0.000000
# 2 -0.001868 0.014311 -0.002996 0.000000 0.000000 0.000000
# 3 -0.009875 -0.002996 0.020007 0.000000 0.000000 0.000000
# 4 0.000000 0.000000 0.000000 0.027945 0.000000 0.000000
# 5 0.000000 0.000000 0.000000 0.000000 0.029725 0.000000
# 6 0.000000 0.000000 0.000000 0.000000 0.000000 0.039537
#
#
# Mechanical properties :
#
#
# Convention : Reuss Voigt Hill
#
# Bulk Modulus (GPa) = 57.80445 67.57934 62.69189
# Shear Modulus (GPa) = 27.89727 30.79957 29.34842
#
# Velocity S-wave (km/s) = 3.77707 3.96868 3.87406
# Velocity P-wave (km/s) = 6.97008 7.45383 7.21601
#
# Compressibility (1/GPa) = 0.01729971
#
# Stress axis : x y z
#
# Youngs Moduli (GPa) = 80.26367 69.87402 49.98230
#
# Poissons Ratio (x) = 0.13053 0.49357
# Poissons Ratio (y) = 0.14994 0.14975
# Poissons Ratio (z) = 0.79259 0.20934
#
# Static dielectric constant tensor:
#      x y z
#    x 3.434020 0.000000 0.000000 
#    y 0.000000 3.616390 0.000000 
#    z 0.000000 0.000000 3.548080 
# 
# 
# High freq. dielectric constant tensor:
#      x y z
#    x 1.762340 0.000000 0.000000 
#    y 0.000000 1.767670 0.000000 
#    z 0.000000 0.000000 1.757790 
# 
# From -- ./inp_files/2610.got.cif
#   From: 2010.06.25/outbox.cif.g09.slc.cpg/sg58_2_cif.got.tgz:2610.got - 2010.06.26 21:38:00.
