data_PCOD8237663
_publ_section_title
;
Structure prediction by ZEFSAII (Michael W. Deem and Ramdas Pophale) SiO2 
 PCOD8237663
Probable space group: P N N M
;
_chemical_formula_sum "Si O2"
_cell_formula_units_Z 48
_cell_length_a 9.543513
_cell_length_b 27.609970
_cell_length_c 9.161768
_cell_angle_alpha 90.000000
_cell_angle_beta 90.000000
_cell_angle_gamma 90.000000
_cell_volume 2414.090207
_symmetry_space_group_name_H-M "P N N M"
_symmetry_group_IT_number 58
_symmetry_cell_setting 'orthorhombic'
loop_
_space_group_symop_operation_xyz
x,y,z
-x,-y,z
1/2+x,1/2-y,1/2-z
1/2-x,1/2+y,1/2-z
-x,-y,-z
x,y,-z
1/2-x,1/2+y,1/2+z
1/2+x,1/2-y,1/2+z
loop_
_atom_site_type_symbol
_atom_site_label
_atom_site_fract_x
_atom_site_fract_y
_atom_site_fract_z
Si Si1 0.300441 0.888721 0.329921
Si Si2 0.702536 0.391716 0.663750
Si Si3 0.835346 0.707863 0.327474
Si Si4 0.476514 0.054006 0.834256
Si Si5 0.026142 0.946269 0.669631
Si Si6 0.662495 0.790194 0.171172
O O1 0.311862 0.876557 0.500000
O O2 0.266226 0.839420 0.245052
O O3 0.446639 0.909163 0.272569
O O4 0.183908 0.929516 0.298211
O O5 0.645333 0.385672 0.500000
O O6 0.812102 0.435658 0.673297
O O7 0.572675 0.404954 0.764472
O O8 0.778939 0.342786 0.714360
O O9 0.815439 0.704255 0.500000
O O10 0.750552 0.753179 0.267028
O O11 0.999009 0.712677 0.285751
O O12 0.500000 0.000000 0.777272
O O13 0.532920 0.061027 0.000000
O O14 0.991302 0.947954 0.500000
O O15 0.000000 0.000000 0.737559
O O16 0.682439 0.779137 0.000000
#
# Coordination Sequence:
#
# PCOD8237663 Si02
#       6
#     8   8   8   8   8   8
#     4  11  23  39  61  89 123 159 202 251 299 359
#     4  10  21  39  61  88 121 155 196 249 299 356
#     4  11  24  43  66  90 122 159 198 248 307 363
#     4  10  20  37  62  90 120 156 200 249 302 360
#     4  10  23  41  59  86 125 164 203 248 297 352
#     4  10  23  43  63  90 124 153 198 252 300 361
#
# _framework density 19.883267
#
# number of rings (size 3 to 8) (size 9 to 14) (size 15 to 20)
#    0.000    1.667    1.667    2.000    2.333    4.667 
#    0.000    0.000    0.000    0.000    0.000    0.000 
#    0.000    0.000    0.000    0.000    0.000    0.000 
#
# Total GULP energy -595369.668166 kJ/mol
# GULP energy per Si atom -12403.534753 kJ/mol
# Density = 1.983801 g / cm^3
# Si number density = 19.883267 Si / 1000 Ang^3
#
#
#
# Elastic Constant Matrix: (Units=GPa)
#
#
# Indices 1 2 3 4 5 6 
#
# 1 72.2878 26.8840 43.8089 0.0000 0.0000 0.0000
# 2 26.8840 104.7327 44.0371 0.0000 0.0000 0.0000
# 3 43.8089 44.0371 72.0127 0.0000 0.0000 0.0000
# 4 0.0000 0.0000 0.0000 36.7502 0.0000 0.0000
# 5 0.0000 0.0000 0.0000 0.0000 30.8060 0.0000
# 6 0.0000 0.0000 0.0000 0.0000 0.0000 36.7812
#
#
#
# Elastic Compliance Matrix: (Units=1/GPa)
#
#
# Indices 1 2 3 4 5 6 
#
# 1 0.021912 -0.000026 -0.013314 0.000000 0.000000 0.000000
# 2 -0.000026 0.012853 -0.007844 0.000000 0.000000 0.000000
# 3 -0.013314 -0.007844 0.026783 0.000000 0.000000 0.000000
# 4 0.000000 0.000000 0.000000 0.027211 0.000000 0.000000
# 5 0.000000 0.000000 0.000000 0.000000 0.032461 0.000000
# 6 0.000000 0.000000 0.000000 0.000000 0.000000 0.027188
#
#
# Mechanical properties :
#
#
# Convention : Reuss Voigt Hill
#
# Bulk Modulus (GPa) = 52.13970 53.16591 52.65281
# Shear Modulus (GPa) = 25.35891 29.82103 27.58997
#
# Velocity S-wave (km/s) = 3.57513 3.87693 3.72909
# Velocity P-wave (km/s) = 6.58194 6.84382 6.71416
#
# Compressibility (1/GPa) = 0.01917924
#
# Stress axis : x y z
#
# Youngs Moduli (GPa) = 45.63661 77.80296 37.33757
#
# Poissons Ratio (x) = 0.00206 0.49712
# Poissons Ratio (y) = 0.00121 0.29287
# Poissons Ratio (z) = 0.60761 0.61027
#
# Static dielectric constant tensor:
#      x y z
#    x 3.551110 0.000000 0.000000 
#    y 0.000000 3.804380 0.000000 
#    z 0.000000 0.000000 3.550460 
# 
# 
# High freq. dielectric constant tensor:
#      x y z
#    x 1.776160 0.000000 0.000000 
#    y 0.000000 1.788570 0.000000 
#    z 0.000000 0.000000 1.770720 
# 
# From -- ./inp_files/2935.got.cif
#   From: 2010.06.25/outbox.cif.g09.slc.cpg/sg58_2_cif.got.tgz:2935.got - 2010.06.26 21:38:00.
