data_PCOD8237118
_publ_section_title
;
Structure prediction by ZEFSAII (Michael W. Deem and Ramdas Pophale) SiO2 
 PCOD8237118
Probable space group: P N N M
;
_chemical_formula_sum "Si O2"
_cell_formula_units_Z 60
_cell_length_a 11.966983
_cell_length_b 21.168985
_cell_length_c 13.283823
_cell_angle_alpha 90.000000
_cell_angle_beta 90.000000
_cell_angle_gamma 90.000000
_cell_volume 3365.176051
_symmetry_space_group_name_H-M "P N N M"
_symmetry_group_IT_number 58
_symmetry_cell_setting 'orthorhombic'
loop_
_space_group_symop_operation_xyz
x,y,z
-x,-y,z
1/2+x,1/2-y,1/2-z
1/2-x,1/2+y,1/2-z
-x,-y,-z
x,y,-z
1/2-x,1/2+y,1/2+z
1/2+x,1/2-y,1/2+z
loop_
_atom_site_type_symbol
_atom_site_label
_atom_site_fract_x
_atom_site_fract_y
_atom_site_fract_z
Si Si1 0.058133 0.672479 0.283962
Si Si2 0.370278 0.297011 0.884232
Si Si3 0.798409 0.674853 0.287543
Si Si4 0.500000 0.500000 0.254353
Si Si5 0.071120 0.109809 0.616812
Si Si6 0.302067 0.449437 0.383537
Si Si7 0.601440 0.957281 0.116148
Si Si8 0.226628 0.699523 0.884354
O O1 0.084428 0.726664 0.365090
O O2 0.109185 0.607347 0.323160
O O3 0.114191 0.689852 0.178195
O O4 0.927715 0.665854 0.263502
O O5 0.262253 0.312833 0.818192
O O6 0.466534 0.346301 0.855835
O O7 0.334444 0.302830 0.000000
O O8 0.754715 0.613140 0.342456
O O9 0.781211 0.732751 0.363189
O O10 0.430894 0.547272 0.183754
O O11 0.415762 0.461503 0.324223
O O12 0.068951 0.090363 0.500000
O O13 0.184159 0.146123 0.644539
O O14 0.332238 0.439678 0.500000
O O15 0.218615 0.507801 0.368768
O O16 0.500000 0.000000 0.158277
O O17 0.577524 0.941163 0.000000
O O18 0.192053 0.695576 0.000000
#
# Coordination Sequence:
#
# PCOD8237118 Si02
#       8
#     8   8   8   4   8   8   8   8
#     4  11  21  36  62  83 111 148 187 228 280 332
#     4  10  21  37  58  86 111 139 185 235 278 324
#     4  11  21  37  59  84 111 150 187 230 278 335
#     4  12  22  38  58  82 118 152 190 230 284 334
#     4  10  20  37  60  83 110 147 191 235 277 330
#     4  11  23  37  55  83 118 151 186 228 280 338
#     4  10  20  34  55  84 112 143 185 231 275 326
#     4  10  22  38  57  84 116 147 186 234 284 332
#
# _framework density 17.829675999999999
#
# number of rings (size 3 to 8) (size 9 to 14) (size 15 to 20)
#    0.000    1.467    4.000    2.000    0.000    1.600 
#    0.000    0.000    0.000    1.200    0.000    0.000 
#    0.000    0.000    0.000    0.000    0.000    0.000 
#
# Total GULP energy -744311.494387 kJ/mol
# GULP energy per Si atom -12405.191573 kJ/mol
# Density = 1.778909 g / cm^3
# Si number density = 17.829676 Si / 1000 Ang^3
#
#
#
# Elastic Constant Matrix: (Units=GPa)
#
#
# Indices 1 2 3 4 5 6 
#
# 1 95.5432 38.8876 45.0989 0.0000 0.0000 0.0000
# 2 38.8876 106.8521 53.7576 0.0000 0.0000 0.0000
# 3 45.0989 53.7576 85.4695 0.0000 0.0000 0.0000
# 4 0.0000 0.0000 0.0000 25.4348 0.0000 0.0000
# 5 0.0000 0.0000 0.0000 0.0000 16.8382 0.0000
# 6 0.0000 0.0000 0.0000 0.0000 0.0000 29.5525
#
#
#
# Elastic Compliance Matrix: (Units=1/GPa)
#
#
# Indices 1 2 3 4 5 6 
#
# 1 0.014239 -0.002051 -0.006223 0.000000 0.000000 0.000000
# 2 -0.002051 0.013987 -0.007715 0.000000 0.000000 0.000000
# 3 -0.006223 -0.007715 0.019836 0.000000 0.000000 0.000000
# 4 0.000000 0.000000 0.000000 0.039316 0.000000 0.000000
# 5 0.000000 0.000000 0.000000 0.000000 0.059389 0.000000
# 6 0.000000 0.000000 0.000000 0.000000 0.000000 0.033838
#
#
# Mechanical properties :
#
#
# Convention : Reuss Voigt Hill
#
# Bulk Modulus (GPa) = 62.17619 62.59477 62.38548
# Shear Modulus (GPa) = 22.94170 24.37315 23.65743
#
# Velocity S-wave (km/s) = 3.59097 3.70131 3.64656
# Velocity P-wave (km/s) = 7.22090 7.31092 7.26605
#
# Compressibility (1/GPa) = 0.01608333
#
# Stress axis : x y z
#
# Youngs Moduli (GPa) = 70.23050 71.49728 50.41305
#
# Poissons Ratio (x) = 0.14665 0.31373
# Poissons Ratio (y) = 0.14405 0.38892
# Poissons Ratio (z) = 0.43706 0.55158
#
# Static dielectric constant tensor:
#      x y z
#    x 3.301320 0.000000 0.000000 
#    y 0.000000 3.378150 0.000000 
#    z 0.000000 0.000000 3.218440 
# 
# 
# High freq. dielectric constant tensor:
#      x y z
#    x 1.692870 0.000000 0.000000 
#    y 0.000000 1.702670 0.000000 
#    z 0.000000 0.000000 1.689770 
# 
# From -- ./inp_files/14655.got.cif
#   From: 2010.06.25/outbox.cif.g09.slc.cpg/sg58_8_cif.got.tgz:14655.got - 2010.06.26 21:38:00.
