data_PCOD8237743
_publ_section_title
;
Structure prediction by ZEFSAII (Michael W. Deem and Ramdas Pophale) SiO2 
 PCOD8237743
Probable space group: P N N M
;
_chemical_formula_sum "Si O2"
_cell_formula_units_Z 64
_cell_length_a 10.989356
_cell_length_b 8.920288
_cell_length_c 29.386730
_cell_angle_alpha 90.000000
_cell_angle_beta 90.000000
_cell_angle_gamma 90.000000
_cell_volume 2880.728847
_symmetry_space_group_name_H-M "P N N M"
_symmetry_group_IT_number 58
_symmetry_cell_setting 'orthorhombic'
loop_
_space_group_symop_operation_xyz
x,y,z
-x,-y,z
1/2+x,1/2-y,1/2-z
1/2-x,1/2+y,1/2-z
-x,-y,-z
x,y,-z
1/2-x,1/2+y,1/2+z
1/2+x,1/2-y,1/2+z
loop_
_atom_site_type_symbol
_atom_site_label
_atom_site_fract_x
_atom_site_fract_y
_atom_site_fract_z
Si Si1 0.824957 0.601814 0.123731
Si Si2 0.275281 0.898223 0.108818
Si Si3 0.864462 0.555457 0.706594
Si Si4 0.983563 0.818305 0.594665
Si Si5 0.403957 0.373449 0.816560
Si Si6 0.203617 0.695724 0.763898
Si Si7 0.423387 0.201304 0.358259
Si Si8 0.797339 0.309079 0.552007
O O1 0.722974 0.567504 0.162121
O O2 0.882907 0.441745 0.111327
O O3 0.772463 0.678302 0.078717
O O4 0.930077 0.714203 0.142411
O O5 0.335849 0.971260 0.153631
O O6 0.347069 0.747566 0.091821
O O7 0.137053 0.849427 0.119981
O O8 0.271686 0.024469 0.070406
O O9 0.769220 0.461864 0.738675
O O10 0.831964 0.726920 0.721238
O O11 0.000000 0.500000 0.718630
O O12 0.034374 0.768293 0.644464
O O13 0.059654 0.731730 0.555958
O O14 0.000000 0.000000 0.589938
O O15 0.500000 0.500000 0.804031
O O16 0.380973 0.281997 0.771704
O O17 0.118888 0.673192 0.807171
O O18 0.755310 0.305062 0.500000
#
# Coordination Sequence:
#
# PCOD8237743 Si02
#       8
#     8   8   8   8   8   8   8   8
#     4  10  22  45  67  88 130 176 220 274 338 392
#     4  11  22  42  64  96 132 172 210 269 350 397
#     4  11  24  40  60  89 133 172 220 272 325 390
#     4  10  21  40  68  95 134 180 215 263 336 398
#     4  10  20  38  61  92 130 173 217 270 320 376
#     4  11  24  37  59  94 126 173 230 274 314 379
#     4  10  23  42  65  91 125 178 225 271 326 401
#     4  11  24  42  68  98 128 165 217 281 345 412
#
# _framework density 22.2166
#
# number of rings (size 3 to 8) (size 9 to 14) (size 15 to 20)
#    0.000    1.500    0.000    6.375    3.500    5.750 
#    4.500    4.375    0.000    0.000    0.000    0.000 
#    0.000    0.000    0.000    0.000    0.000    0.000 
#
# Total GULP energy -793227.762840 kJ/mol
# GULP energy per Si atom -12394.183794 kJ/mol
# Density = 2.216603 g / cm^3
# Si number density = 22.216600 Si / 1000 Ang^3
#
#
#
# Elastic Constant Matrix: (Units=GPa)
#
#
# Indices 1 2 3 4 5 6 
#
# 1 98.0919 16.9144 16.3545 0.0000 0.0000 0.0000
# 2 16.9144 75.7056 42.8481 0.0000 0.0000 0.0000
# 3 16.3545 42.8481 112.2333 0.0000 0.0000 0.0000
# 4 0.0000 0.0000 0.0000 15.6889 0.0000 0.0000
# 5 0.0000 0.0000 0.0000 0.0000 -34.7080 0.0000
# 6 0.0000 0.0000 0.0000 0.0000 0.0000 33.7435
#
#
#
# Elastic Compliance Matrix: (Units=1/GPa)
#
#
# Indices 1 2 3 4 5 6 
#
# 1 0.010662 -0.001917 -0.000822 0.000000 0.000000 0.000000
# 2 -0.001917 0.017195 -0.006285 0.000000 0.000000 0.000000
# 3 -0.000822 -0.006285 0.011429 0.000000 0.000000 0.000000
# 4 0.000000 0.000000 0.000000 0.063739 0.000000 0.000000
# 5 0.000000 0.000000 0.000000 0.000000 -0.028812 0.000000
# 6 0.000000 0.000000 0.000000 0.000000 0.000000 0.029635
#
#
# Mechanical properties :
#
#
# Convention : Reuss Voigt Hill
#
# Bulk Modulus (GPa) = 47.08532 48.69610 47.89071
# Shear Modulus (GPa) = 38.76682 16.93914 27.85298
#
# Velocity S-wave (km/s) = 4.18179 2.76425 3.54461
# Velocity P-wave (km/s) = 6.67505 5.67049 6.19317
#
# Compressibility (1/GPa) = 0.02123804
#
# Stress axis : x y z
#
# Youngs Moduli (GPa) = 93.79019 58.15751 87.49437
#
# Poissons Ratio (x) = 0.11149 0.07190
# Poissons Ratio (y) = 0.17980 0.54992
# Poissons Ratio (z) = 0.07708 0.36553
#
# Static dielectric constant tensor:
#      x y z
#    x 4.142410 0.000000 0.000000 
#    y 0.000000 3.851610 0.000000 
#    z 0.000000 0.000000 3.715920 
# 
# 
# High freq. dielectric constant tensor:
#      x y z
#    x 1.876380 0.000000 0.000000 
#    y 0.000000 1.885090 0.000000 
#    z 0.000000 0.000000 1.842220 
# 
# From -- ./inp_files/34936.got.cif
#   From: 2010.06.25/outbox.cif.g09.slc.cpg/sg58_18_cif.got.tgz:34936.got - 2010.06.26 21:38:00.
