data_PCOD8237910
_publ_section_title
;
Structure prediction by ZEFSAII (Michael W. Deem and Ramdas Pophale) SiO2 
 PCOD8237910
Probable space group: P N N M
;
_chemical_formula_sum "Si O2"
_cell_formula_units_Z 64
_cell_length_a 28.691186
_cell_length_b 12.731996
_cell_length_c 9.319657
_cell_angle_alpha 90.000000
_cell_angle_beta 90.000000
_cell_angle_gamma 90.000000
_cell_volume 3404.434033
_symmetry_space_group_name_H-M "P N N M"
_symmetry_group_IT_number 58
_symmetry_cell_setting 'orthorhombic'
loop_
_space_group_symop_operation_xyz
x,y,z
-x,-y,z
1/2+x,1/2-y,1/2-z
1/2-x,1/2+y,1/2-z
-x,-y,-z
x,y,-z
1/2-x,1/2+y,1/2+z
1/2+x,1/2-y,1/2+z
loop_
_atom_site_type_symbol
_atom_site_label
_atom_site_fract_x
_atom_site_fract_y
_atom_site_fract_z
Si Si1 0.578370 0.821471 0.669489
Si Si2 0.824620 0.003983 0.336009
Si Si3 0.840081 0.698952 0.165172
Si Si4 0.329664 0.287423 0.665609
Si Si5 0.522394 0.248990 0.669101
Si Si6 0.905275 0.856645 0.666087
Si Si7 0.732394 0.300808 0.835161
Si Si8 0.919073 0.552155 0.836029
O O1 0.585556 0.833889 0.500000
O O2 0.623312 0.761650 0.733958
O O3 0.532281 0.754934 0.705711
O O4 0.574425 0.938489 0.738759
O O5 0.813899 0.033015 0.500000
O O6 0.878963 0.968427 0.318852
O O7 0.788470 0.912995 0.285181
O O8 0.815517 0.105334 0.241627
O O9 0.872633 0.775189 0.254376
O O10 0.789358 0.705989 0.238842
O O11 0.864283 0.584408 0.176310
O O12 0.836785 0.734975 0.000000
O O13 0.337548 0.314975 0.500000
O O14 0.288063 0.202807 0.685243
O O15 0.531811 0.263756 0.500000
O O16 0.544492 0.349220 0.753764
O O17 0.546723 0.141711 0.728330
O O18 0.911622 0.826388 0.500000
O O19 0.717987 0.280747 0.000000
O O20 0.934696 0.541055 0.000000
#
# Coordination Sequence:
#
# PCOD8237910 Si02
#       8
#     8   8   8   8   8   8   8   8
#     4   9  17  30  47  70 102 134 164 204 251 294
#     4   9  19  36  55  72  96 131 165 200 246 297
#     4   9  16  27  49  79 101 124 165 209 243 286
#     4  10  21  35  52  74 100 131 166 204 246 291
#     4   9  16  28  50  77 100 127 167 208 243 290
#     4   9  17  31  51  73  99 130 161 201 252 297
#     4   9  19  35  52  72 100 133 165 200 248 300
#     4   8  14  25  46  75 101 126 159 201 248 295
#
# _framework density 18.799012999999999
#
# number of rings (size 3 to 8) (size 9 to 14) (size 15 to 20)
#    0.000    3.000    0.000    2.625    0.000    5.500 
#    0.000    3.750    0.000   14.250    0.000    0.000 
#    0.000    0.000    0.000    0.000    0.000    0.000 
#
# Total GULP energy -793020.070408 kJ/mol
# GULP energy per Si atom -12390.938600 kJ/mol
# Density = 1.875623 g / cm^3
# Si number density = 18.799013 Si / 1000 Ang^3
#
#
#
# Elastic Constant Matrix: (Units=GPa)
#
#
# Indices 1 2 3 4 5 6 
#
# 1 126.9466 41.2289 34.1852 0.0000 0.0000 0.0000
# 2 41.2289 65.6762 24.4327 0.0000 0.0000 0.0000
# 3 34.1852 24.4327 57.5427 0.0000 0.0000 0.0000
# 4 0.0000 0.0000 0.0000 18.4902 0.0000 0.0000
# 5 0.0000 0.0000 0.0000 0.0000 18.9258 0.0000
# 6 0.0000 0.0000 0.0000 0.0000 0.0000 23.9691
#
#
#
# Elastic Compliance Matrix: (Units=1/GPa)
#
#
# Indices 1 2 3 4 5 6 
#
# 1 0.010669 -0.005153 -0.004150 0.000000 0.000000 0.000000
# 2 -0.005153 0.020572 -0.005673 0.000000 0.000000 0.000000
# 3 -0.004150 -0.005673 0.022253 0.000000 0.000000 0.000000
# 4 0.000000 0.000000 0.000000 0.054083 0.000000 0.000000
# 5 0.000000 0.000000 0.000000 0.000000 0.052838 0.000000
# 6 0.000000 0.000000 0.000000 0.000000 0.000000 0.041720
#
#
# Mechanical properties :
#
#
# Convention : Reuss Voigt Hill
#
# Bulk Modulus (GPa) = 42.48099 49.98432 46.23266
# Shear Modulus (GPa) = 20.83908 22.29827 21.56867
#
# Velocity S-wave (km/s) = 3.33306 3.44778 3.39090
# Velocity P-wave (km/s) = 6.12036 6.51890 6.32277
#
# Compressibility (1/GPa) = 0.02353994
#
# Stress axis : x y z
#
# Youngs Moduli (GPa) = 93.73361 48.61005 44.93853
#
# Poissons Ratio (x) = 0.25051 0.18649
# Poissons Ratio (y) = 0.48305 0.25495
# Poissons Ratio (z) = 0.38898 0.27578
#
# Static dielectric constant tensor:
#      x y z
#    x 3.941270 0.000000 0.000000 
#    y 0.000000 3.376870 0.000000 
#    z 0.000000 0.000000 3.358450 
# 
# 
# High freq. dielectric constant tensor:
#      x y z
#    x 1.735040 0.000000 0.000000 
#    y 0.000000 1.705040 0.000000 
#    z 0.000000 0.000000 1.699390 
# 
# From -- ./inp_files/11141.got.cif
#   From: 2010.06.25/outbox.cif.g09.slc.cpg/sg58_6_cif.got.tgz:11141.got - 2010.06.26 21:38:00.
