data_PCOD8237489
_publ_section_title
;
Structure prediction by ZEFSAII (Michael W. Deem and Ramdas Pophale) SiO2 
 PCOD8237489
Probable space group: P N N M
;
_chemical_formula_sum "Si O2"
_cell_formula_units_Z 64
_cell_length_a 29.040748
_cell_length_b 12.061765
_cell_length_c 9.355166
_cell_angle_alpha 90.000000
_cell_angle_beta 90.000000
_cell_angle_gamma 90.000000
_cell_volume 3276.952598
_symmetry_space_group_name_H-M "P N N M"
_symmetry_group_IT_number 58
_symmetry_cell_setting 'orthorhombic'
loop_
_space_group_symop_operation_xyz
x,y,z
-x,-y,z
1/2+x,1/2-y,1/2-z
1/2-x,1/2+y,1/2-z
-x,-y,-z
x,y,-z
1/2-x,1/2+y,1/2+z
1/2+x,1/2-y,1/2+z
loop_
_atom_site_type_symbol
_atom_site_label
_atom_site_fract_x
_atom_site_fract_y
_atom_site_fract_z
Si Si1 0.723803 0.547713 0.832666
Si Si2 0.020457 0.259253 0.339272
Si Si3 0.335314 0.272605 0.666690
Si Si4 0.065364 0.022803 0.662383
Si Si5 0.844383 0.866255 0.332517
Si Si6 0.675895 0.979422 0.666222
Si Si7 0.559549 0.688973 0.331429
Si Si8 0.883214 0.641018 0.331106
O O1 0.698072 0.643972 0.748737
O O2 0.703698 0.425003 0.793517
O O3 0.777312 0.543595 0.790737
O O4 0.716492 0.570206 0.000000
O O5 0.006523 0.293193 0.500000
O O6 0.033659 0.130361 0.333979
O O7 0.063836 0.333717 0.288864
O O8 0.976304 0.278323 0.236432
O O9 0.330130 0.299423 0.500000
O O10 0.318524 0.149384 0.704511
O O11 0.388390 0.282530 0.714954
O O12 0.067345 0.975622 0.500000
O O13 0.115714 0.052597 0.724545
O O14 0.045543 0.930129 0.767713
O O15 0.853207 0.853965 0.500000
O O16 0.850380 0.741620 0.272091
O O17 0.664670 0.993552 0.500000
O O18 0.633302 0.029840 0.753594
O O19 0.553028 0.689871 0.500000
O O20 0.878284 0.624676 0.500000
#
# Coordination Sequence:
#
# PCOD8237489 Si02
#       8
#     8   8   8   8   8   8   8   8
#     4  10  20  36  60  85 107 140 187 229 274 333
#     4   9  19  34  54  80 109 146 189 229 278 334
#     4  10  23  41  57  80 117 153 185 227 283 339
#     4   9  16  30  51  75 108 146 179 219 272 328
#     4   8  15  30  54  81 107 139 177 221 272 324
#     4  10  23  40  58  81 112 148 185 229 281 333
#     4  11  21  32  50  79 112 148 187 228 279 333
#     4   9  19  37  60  83 109 145 191 233 275 329
#
# _framework density 19.530341
#
# number of rings (size 3 to 8) (size 9 to 14) (size 15 to 20)
#    0.000    2.500    1.250    2.250    1.750    4.000 
#    0.000    3.125    0.000    3.750    0.000    0.000 
#    0.000    0.000    0.000    0.000    0.000    0.000 
#
# Total GULP energy -793317.753205 kJ/mol
# GULP energy per Si atom -12395.589894 kJ/mol
# Density = 1.948589 g / cm^3
# Si number density = 19.530341 Si / 1000 Ang^3
#
#
#
# Elastic Constant Matrix: (Units=GPa)
#
#
# Indices 1 2 3 4 5 6 
#
# 1 95.1258 30.9327 41.6203 0.0000 0.0000 0.0000
# 2 30.9327 59.9057 29.9185 0.0000 0.0000 0.0000
# 3 41.6203 29.9185 58.2646 0.0000 0.0000 0.0000
# 4 0.0000 0.0000 0.0000 25.2312 0.0000 0.0000
# 5 0.0000 0.0000 0.0000 0.0000 18.4628 0.0000
# 6 0.0000 0.0000 0.0000 0.0000 0.0000 19.8181
#
#
#
# Elastic Compliance Matrix: (Units=1/GPa)
#
#
# Indices 1 2 3 4 5 6 
#
# 1 0.015787 -0.003389 -0.009537 0.000000 0.000000 0.000000
# 2 -0.003389 0.023178 -0.009481 0.000000 0.000000 0.000000
# 3 -0.009537 -0.009481 0.028844 0.000000 0.000000 0.000000
# 4 0.000000 0.000000 0.000000 0.039633 0.000000 0.000000
# 5 0.000000 0.000000 0.000000 0.000000 0.054163 0.000000
# 6 0.000000 0.000000 0.000000 0.000000 0.000000 0.050459
#
#
# Mechanical properties :
#
#
# Convention : Reuss Voigt Hill
#
# Bulk Modulus (GPa) = 43.48698 46.47102 44.97900
# Shear Modulus (GPa) = 18.90049 20.09071 19.49560
#
# Velocity S-wave (km/s) = 3.11424 3.21080 3.16289
# Velocity P-wave (km/s) = 5.93684 6.13120 6.03480
#
# Compressibility (1/GPa) = 0.02299539
#
# Stress axis : x y z
#
# Youngs Moduli (GPa) = 63.34283 43.14487 34.66901
#
# Poissons Ratio (x) = 0.14620 0.33064
# Poissons Ratio (y) = 0.21465 0.32870
# Poissons Ratio (z) = 0.60411 0.40906
#
# Static dielectric constant tensor:
#      x y z
#    x 3.754440 0.000000 0.000000 
#    y 0.000000 3.396710 0.000000 
#    z 0.000000 0.000000 3.324190 
# 
# 
# High freq. dielectric constant tensor:
#      x y z
#    x 1.771750 0.000000 0.000000 
#    y 0.000000 1.744050 0.000000 
#    z 0.000000 0.000000 1.735370 
# 
# From -- ./inp_files/10963.got.cif
#   From: 2010.06.25/outbox.cif.g09.slc.cpg/sg58_6_cif.got.tgz:10963.got - 2010.06.26 21:38:00.
