data_PCOD8237612
_publ_section_title
;
Structure prediction by ZEFSAII (Michael W. Deem and Ramdas Pophale) SiO2 
 PCOD8237612
Probable space group: P N N M
;
_chemical_formula_sum "Si O2"
_cell_formula_units_Z 64
_cell_length_a 13.904498
_cell_length_b 24.085374
_cell_length_c 9.093624
_cell_angle_alpha 90.000000
_cell_angle_beta 90.000000
_cell_angle_gamma 90.000000
_cell_volume 3045.409524
_symmetry_space_group_name_H-M "P N N M"
_symmetry_group_IT_number 58
_symmetry_cell_setting 'orthorhombic'
loop_
_space_group_symop_operation_xyz
x,y,z
-x,-y,z
1/2+x,1/2-y,1/2-z
1/2-x,1/2+y,1/2-z
-x,-y,-z
x,y,-z
1/2-x,1/2+y,1/2+z
1/2+x,1/2-y,1/2+z
loop_
_atom_site_type_symbol
_atom_site_label
_atom_site_fract_x
_atom_site_fract_y
_atom_site_fract_z
Si Si1 0.601983 0.874119 0.830702
Si Si2 0.108743 0.262388 0.837751
Si Si3 0.392340 0.657651 0.163430
Si Si4 0.291421 0.562681 0.665755
Si Si5 0.904244 0.614254 0.174601
Si Si6 0.379256 0.342639 0.167312
Si Si7 0.120431 0.734997 0.833541
Si Si8 0.269718 0.437392 0.674100
O O1 0.678771 0.923365 0.818759
O O2 0.507627 0.894941 0.747171
O O3 0.649893 0.820871 0.751838
O O4 0.577039 0.859427 0.000000
O O5 0.151501 0.214043 0.734538
O O6 0.139042 0.324448 0.788082
O O7 0.993974 0.260924 0.836633
O O8 0.148030 0.249494 0.000000
O O9 0.358831 0.601309 0.237885
O O10 0.506543 0.659602 0.168636
O O11 0.351820 0.656922 0.000000
O O12 0.326166 0.572220 0.500000
O O13 0.306423 0.499002 0.712169
O O14 0.832487 0.570265 0.246088
O O15 0.914316 0.605827 0.000000
O O16 0.336194 0.287296 0.243981
O O17 0.348133 0.395870 0.260145
O O18 0.339616 0.346303 0.000000
O O19 0.161144 0.734325 0.000000
O O20 0.257905 0.428327 0.500000
#
# Coordination Sequence:
#
# PCOD8237612 Si02
#       8
#     8   8   8   8   8   8   8   8
#     4  10  20  37  60  85 115 151 188 233 284 338
#     4   8  16  32  55  82 114 146 178 218 273 338
#     4  10  21  36  59  87 114 145 184 231 282 333
#     4  10  24  42  58  79 111 151 195 236 280 335
#     4  10  21  38  60  87 117 150 185 231 287 340
#     4  10  21  38  59  86 117 149 185 232 289 343
#     4   9  17  32  56  87 117 147 185 229 279 341
#     4  11  24  41  59  81 109 149 198 240 278 334
#
# _framework density 21.015236999999999
#
# number of rings (size 3 to 8) (size 9 to 14) (size 15 to 20)
#    0.000    2.250    0.000    3.000    0.000    9.000 
#    0.000    6.250    0.000    0.000    0.000    0.000 
#    0.000    0.000    0.000    0.000    0.000    0.000 
#
# Total GULP energy -793727.877265 kJ/mol
# GULP energy per Si atom -12401.998082 kJ/mol
# Density = 2.096741 g / cm^3
# Si number density = 21.015237 Si / 1000 Ang^3
#
#
#
# Elastic Constant Matrix: (Units=GPa)
#
#
# Indices 1 2 3 4 5 6 
#
# 1 8.2775 -1.7319 11.6501 0.0000 0.0000 0.0000
# 2 -1.7319 95.1188 51.6610 0.0000 0.0000 0.0000
# 3 11.6501 51.6610 136.6146 0.0000 0.0000 0.0000
# 4 0.0000 0.0000 0.0000 35.4328 0.0000 0.0000
# 5 0.0000 0.0000 0.0000 0.0000 25.9760 0.0000
# 6 0.0000 0.0000 0.0000 0.0000 0.0000 31.5914
#
#
#
# Elastic Compliance Matrix: (Units=1/GPa)
#
#
# Indices 1 2 3 4 5 6 
#
# 1 0.147370 0.011967 -0.017092 0.000000 0.000000 0.000000
# 2 0.011967 0.014202 -0.006391 0.000000 0.000000 0.000000
# 3 -0.017092 -0.006391 0.011194 0.000000 0.000000 0.000000
# 4 0.000000 0.000000 0.000000 0.028222 0.000000 0.000000
# 5 0.000000 0.000000 0.000000 0.000000 0.038497 0.000000
# 6 0.000000 0.000000 0.000000 0.000000 0.000000 0.031654
#
#
# Mechanical properties :
#
#
# Convention : Reuss Voigt Hill
#
# Bulk Modulus (GPa) = 6.67856 40.35212 23.51534
# Shear Modulus (GPa) = 14.53128 30.49548 22.51338
#
# Velocity S-wave (km/s) = 2.63242 3.81348 3.27660
# Velocity P-wave (km/s) = 3.52482 6.21556 5.05260
#
# Compressibility (1/GPa) = 0.14973291
#
# Stress axis : x y z
#
# Youngs Moduli (GPa) = 6.78562 70.41186 89.33174
#
# Poissons Ratio (x) = -0.84258 1.52690
# Poissons Ratio (y) = -0.08120 0.57092
# Poissons Ratio (z) = 0.11598 0.45000
#
# Static dielectric constant tensor:
#      x y z
#    x 3.538850 0.000000 0.000000 
#    y 0.000000 3.824600 0.000000 
#    z 0.000000 0.000000 4.020710 
# 
# 
# High freq. dielectric constant tensor:
#      x y z
#    x 1.820760 0.000000 0.000000 
#    y 0.000000 1.820090 0.000000 
#    z 0.000000 0.000000 1.834110 
# 
# From -- ./inp_files/6830.got.cif
#   From: 2010.06.25/outbox.cif.g09.slc.cpg/sg58_4_cif.got.tgz:6830.got - 2010.06.26 21:38:00.
