data_PCOD8237694
_publ_section_title
;
Structure prediction by ZEFSAII (Michael W. Deem and Ramdas Pophale) SiO2 
 PCOD8237694
Probable space group: P N N M
;
_chemical_formula_sum "Si O2"
_cell_formula_units_Z 56
_cell_length_a 15.158930
_cell_length_b 11.626250
_cell_length_c 13.864520
_cell_angle_alpha 90.000000
_cell_angle_beta 90.000000
_cell_angle_gamma 90.000000
_cell_volume 2443.503939
_symmetry_space_group_name_H-M "P N N M"
_symmetry_group_IT_number 58
_symmetry_cell_setting 'orthorhombic'
loop_
_space_group_symop_operation_xyz
x,y,z
-x,-y,z
1/2+x,1/2-y,1/2-z
1/2-x,1/2+y,1/2-z
-x,-y,-z
x,y,-z
1/2-x,1/2+y,1/2+z
1/2+x,1/2-y,1/2+z
loop_
_atom_site_type_symbol
_atom_site_label
_atom_site_fract_x
_atom_site_fract_y
_atom_site_fract_z
Si Si1 0.456997 0.725735 0.106673
Si Si2 0.792667 0.367997 0.296547
Si Si3 0.414177 0.932558 0.239566
Si Si4 0.544833 0.622060 0.604883
Si Si5 0.632768 0.250175 0.387605
Si Si6 0.285520 0.579287 0.893150
Si Si7 0.881494 0.134628 0.302987
O O1 0.454322 0.843734 0.164162
O O2 0.361015 0.673117 0.101790
O O3 0.518576 0.629711 0.157911
O O4 0.493877 0.750977 0.000000
O O5 0.845718 0.485467 0.319989
O O6 0.695826 0.352994 0.345796
O O7 0.787120 0.369512 0.179395
O O8 0.846673 0.259270 0.334017
O O9 0.359239 0.868313 0.325681
O O10 0.500000 0.000000 0.281683
O O11 0.500000 0.500000 0.600764
O O12 0.588304 0.648923 0.500000
O O13 0.468357 0.713806 0.627848
O O14 0.619785 0.623281 0.686770
O O15 0.655363 0.228483 0.500000
O O16 0.320690 0.459404 0.851599
O O17 0.245165 0.559517 0.000000
#
# Coordination Sequence:
#
# PCOD8237694 Si02
#       7
#     8   8   8   8   8   8   8
#     4  11  23  43  69  98 131 172 225 281 335 405
#     4  12  25  41  66  94 138 178 217 278 336 399
#     4  12  24  46  67  99 140 180 223 279 341 406
#     4  10  20  37  64  94 124 164 217 274 331 399
#     4  11  24  44  67  97 133 177 230 276 339 413
#     4  11  25  44  69 101 134 174 226 282 341 399
#     4  12  22  41  68  94 130 174 224 279 335 399
#
# _framework density 22.917909000000002
#
# number of rings (size 3 to 8) (size 9 to 14) (size 15 to 20)
#    0.000    0.714    4.286    3.429    0.000    5.714 
#    0.000    0.000    0.000    0.000    0.000    0.000 
#    0.000    0.000    0.000    0.000    0.000    0.000 
#
# Total GULP energy -694294.395590 kJ/mol
# GULP energy per Si atom -12398.114207 kJ/mol
# Density = 2.286575 g / cm^3
# Si number density = 22.917909 Si / 1000 Ang^3
#
#
#
# Elastic Constant Matrix: (Units=GPa)
#
#
# Indices 1 2 3 4 5 6 
#
# 1 38.8780 10.3887 11.2835 0.0000 0.0000 0.0000
# 2 10.3887 101.4732 23.1813 0.0000 0.0000 0.0000
# 3 11.2835 23.1813 130.8354 0.0000 0.0000 0.0000
# 4 0.0000 0.0000 0.0000 16.9084 0.0000 0.0000
# 5 0.0000 0.0000 0.0000 0.0000 28.1064 0.0000
# 6 0.0000 0.0000 0.0000 0.0000 0.0000 33.0140
#
#
#
# Elastic Compliance Matrix: (Units=1/GPa)
#
#
# Indices 1 2 3 4 5 6 
#
# 1 0.026895 -0.002317 -0.001909 0.000000 0.000000 0.000000
# 2 -0.002317 0.010470 -0.001655 0.000000 0.000000 0.000000
# 3 -0.001909 -0.001655 0.008101 0.000000 0.000000 0.000000
# 4 0.000000 0.000000 0.000000 0.059142 0.000000 0.000000
# 5 0.000000 0.000000 0.000000 0.000000 0.035579 0.000000
# 6 0.000000 0.000000 0.000000 0.000000 0.000000 0.030290
#
#
# Mechanical properties :
#
#
# Convention : Reuss Voigt Hill
#
# Bulk Modulus (GPa) = 29.67090 40.09930 34.88510
# Shear Modulus (GPa) = 25.84314 30.69462 28.26888
#
# Velocity S-wave (km/s) = 3.36168 3.66365 3.51591
# Velocity P-wave (km/s) = 5.29552 5.95243 5.63356
#
# Compressibility (1/GPa) = 0.03370306
#
# Stress axis : x y z
#
# Youngs Moduli (GPa) = 37.18198 95.50914 123.44013
#
# Poissons Ratio (x) = 0.22133 0.23563
# Poissons Ratio (y) = 0.08616 0.20432
# Poissons Ratio (z) = 0.07098 0.15809
#
# Static dielectric constant tensor:
#      x y z
#    x 4.173050 0.000000 0.000000 
#    y 0.000000 4.154050 0.000000 
#    z 0.000000 0.000000 4.601650 
# 
# 
# High freq. dielectric constant tensor:
#      x y z
#    x 1.895600 0.000000 0.000000 
#    y 0.000000 1.909930 0.000000 
#    z 0.000000 0.000000 1.905470 
# 
# From -- ./inp_files/21259.got.cif
#   From: 2010.06.25/outbox.cif.g09.slc.cpg/sg58_11_cif.got.tgz:21259.got - 2010.06.26 21:38:00.
