data_PCOD8237814
_publ_section_title
;
Structure prediction by ZEFSAII (Michael W. Deem and Ramdas Pophale) SiO2 
 PCOD8237814
Probable space group: P N N M
;
_chemical_formula_sum "Si O2"
_cell_formula_units_Z 48
_cell_length_a 14.098633
_cell_length_b 9.211414
_cell_length_c 18.523918
_cell_angle_alpha 90.000000
_cell_angle_beta 90.000000
_cell_angle_gamma 90.000000
_cell_volume 2405.670581
_symmetry_space_group_name_H-M "P N N M"
_symmetry_group_IT_number 58
_symmetry_cell_setting 'orthorhombic'
loop_
_space_group_symop_operation_xyz
x,y,z
-x,-y,z
1/2+x,1/2-y,1/2-z
1/2-x,1/2+y,1/2-z
-x,-y,-z
x,y,-z
1/2-x,1/2+y,1/2+z
1/2+x,1/2-y,1/2+z
loop_
_atom_site_type_symbol
_atom_site_label
_atom_site_fract_x
_atom_site_fract_y
_atom_site_fract_z
Si Si1 0.455370 0.850132 0.868737
Si Si2 0.228155 0.762044 0.671264
Si Si3 0.920660 0.808921 0.778676
Si Si4 0.232259 0.470016 0.582661
Si Si5 0.125729 0.867587 0.806731
Si Si6 0.921560 0.108801 0.419092
O O1 0.433154 0.751612 0.800584
O O2 0.361071 0.870452 0.916079
O O3 0.533097 0.769625 0.918137
O O4 0.500000 0.000000 0.841612
O O5 0.341591 0.786993 0.678554
O O6 0.210148 0.610626 0.630838
O O7 0.181403 0.761891 0.751217
O O8 0.176917 0.890394 0.625805
O O9 0.020630 0.803051 0.821515
O O10 0.882517 0.973009 0.771236
O O11 0.257749 0.511015 0.500000
O O12 0.319321 0.378953 0.617186
O O13 0.896370 0.060520 0.500000
O O14 0.000000 0.000000 0.385039
#
# Coordination Sequence:
#
# PCOD8237814 Si02
#       6
#     8   8   8   8   8   8
#     4  12  21  35  59  88 122 154 193 256 310 360
#     4  11  20  36  59  83 117 160 200 249 299 366
#     4  10  21  36  58  89 116 155 211 251 300 366
#     4  11  23  37  58  91 123 156 201 256 315 366
#     4  10  20  39  59  83 122 163 201 252 301 374
#     4  11  23  37  55  84 119 158 196 242 307 370
#
# _framework density 19.952857000000002
#
# number of rings (size 3 to 8) (size 9 to 14) (size 15 to 20)
#    0.000    1.167    5.000    2.000    0.000    0.667 
#    0.000    7.500    0.000    0.000    0.000    0.000 
#    0.000   24.000    0.000    0.000    0.000    0.000 
#
# Total GULP energy -595007.429836 kJ/mol
# GULP energy per Si atom -12395.988122 kJ/mol
# Density = 1.990744 g / cm^3
# Si number density = 19.952857 Si / 1000 Ang^3
#
#
#
# Elastic Constant Matrix: (Units=GPa)
#
#
# Indices 1 2 3 4 5 6 
#
# 1 165.3760 34.3865 56.5768 0.0000 0.0000 0.0000
# 2 34.3865 51.4947 30.1267 0.0000 0.0000 0.0000
# 3 56.5768 30.1267 102.5183 0.0000 0.0000 0.0000
# 4 0.0000 0.0000 0.0000 19.8252 0.0000 0.0000
# 5 0.0000 0.0000 0.0000 0.0000 24.7474 0.0000
# 6 0.0000 0.0000 0.0000 0.0000 0.0000 34.3608
#
#
#
# Elastic Compliance Matrix: (Units=1/GPa)
#
#
# Indices 1 2 3 4 5 6 
#
# 1 0.007889 -0.003286 -0.003388 0.000000 0.000000 0.000000
# 2 -0.003286 0.024820 -0.005480 0.000000 0.000000 0.000000
# 3 -0.003388 -0.005480 0.013235 0.000000 0.000000 0.000000
# 4 0.000000 0.000000 0.000000 0.050441 0.000000 0.000000
# 5 0.000000 0.000000 0.000000 0.000000 0.040408 0.000000
# 6 0.000000 0.000000 0.000000 0.000000 0.000000 0.029103
#
#
# Mechanical properties :
#
#
# Convention : Reuss Voigt Hill
#
# Bulk Modulus (GPa) = 46.22156 62.39656 54.30906
# Shear Modulus (GPa) = 25.32714 29.00660 27.16687
#
# Velocity S-wave (km/s) = 3.56666 3.81695 3.69393
# Velocity P-wave (km/s) = 6.33854 7.12498 6.74324
#
# Compressibility (1/GPa) = 0.02163493
#
# Stress axis : x y z
#
# Youngs Moduli (GPa) = 126.75561 40.29011 75.55888
#
# Poissons Ratio (x) = 0.13239 0.25601
# Poissons Ratio (y) = 0.41651 0.41409
# Poissons Ratio (z) = 0.42947 0.22081
#
# Static dielectric constant tensor:
#      x y z
#    x 4.114600 0.000000 0.000000 
#    y 0.000000 3.633180 0.000000 
#    z 0.000000 0.000000 3.427860 
# 
# 
# High freq. dielectric constant tensor:
#      x y z
#    x 1.791480 0.000000 0.000000 
#    y 0.000000 1.761320 0.000000 
#    z 0.000000 0.000000 1.757770 
# 
# From -- ./inp_files/26803.got.cif
#   From: 2010.06.25/outbox.cif.g09.slc.cpg/sg58_14_cif.got.tgz:26803.got - 2010.06.26 21:38:00.
