data_PCOD8237222
_publ_section_title
;
Structure prediction by ZEFSAII (Michael W. Deem and Ramdas Pophale) SiO2 
 PCOD8237222
Probable space group: P N N M
;
_chemical_formula_sum "Si O2"
_cell_formula_units_Z 64
_cell_length_a 15.397863
_cell_length_b 23.664563
_cell_length_c 9.008868
_cell_angle_alpha 90.000000
_cell_angle_beta 90.000000
_cell_angle_gamma 90.000000
_cell_volume 3282.684646
_symmetry_space_group_name_H-M "P N N M"
_symmetry_group_IT_number 58
_symmetry_cell_setting 'orthorhombic'
loop_
_space_group_symop_operation_xyz
x,y,z
-x,-y,z
1/2+x,1/2-y,1/2-z
1/2-x,1/2+y,1/2-z
-x,-y,-z
x,y,-z
1/2-x,1/2+y,1/2+z
1/2+x,1/2-y,1/2+z
loop_
_atom_site_type_symbol
_atom_site_label
_atom_site_fract_x
_atom_site_fract_y
_atom_site_fract_z
Si Si1 0.756753 0.431510 0.823085
Si Si2 0.634298 0.135014 0.166755
Si Si3 0.484689 0.331298 0.174939
Si Si4 0.486041 0.781796 0.325665
Si Si5 0.824526 0.313888 0.172643
Si Si6 0.901015 0.507962 0.673765
Si Si7 0.187693 0.809607 0.167174
Si Si8 0.062130 0.050200 0.676414
O O1 0.772509 0.367437 0.759648
O O2 0.835599 0.468494 0.762621
O O3 0.662549 0.454626 0.767708
O O4 0.758935 0.433299 0.000000
O O5 0.588587 0.175037 0.283817
O O6 0.622509 0.071313 0.216409
O O7 0.736125 0.145835 0.174647
O O8 0.598245 0.145644 0.000000
O O9 0.533434 0.278481 0.249792
O O10 0.383798 0.331112 0.218340
O O11 0.526137 0.389668 0.232743
O O12 0.495249 0.325512 0.000000
O O13 0.487401 0.772259 0.500000
O O14 0.576896 0.808017 0.266383
O O15 0.777874 0.253822 0.208276
O O16 0.828800 0.326311 0.000000
O O17 0.890656 0.494835 0.500000
O O18 0.000000 0.500000 0.726520
O O19 0.147657 0.806736 0.000000
O O20 0.059515 0.047657 0.500000
O O21 0.000000 0.000000 0.740709
#
# Coordination Sequence:
#
# PCOD8237222 Si02
#       8
#     8   8   8   8   8   8   8   8
#     4  10  20  35  60  84 107 146 195 238 279 332
#     4  10  21  35  56  81 109 149 190 226 279 344
#     4  10  20  35  58  82 111 147 187 228 285 347
#     4  10  20  35  55  82 116 144 180 233 281 335
#     4   8  16  32  53  77 103 137 178 224 276 327
#     4  10  22  39  56  81 119 154 184 230 290 344
#     4   9  19  35  55  78 109 142 181 233 282 338
#     4   9  20  36  55  82 113 147 191 244 287 332
#
# _framework density 19.496237000000001
#
# number of rings (size 3 to 8) (size 9 to 14) (size 15 to 20)
#    0.000    2.500    0.000    2.250    3.500    1.250 
#    0.000    3.750    0.000    1.875    0.000    0.000 
#    0.000    0.000    0.000    0.000    0.000    0.000 
#
# Total GULP energy -793324.331688 kJ/mol
# GULP energy per Si atom -12395.692683 kJ/mol
# Density = 1.945186 g / cm^3
# Si number density = 19.496237 Si / 1000 Ang^3
#
#
#
# Elastic Constant Matrix: (Units=GPa)
#
#
# Indices 1 2 3 4 5 6 
#
# 1 109.5724 75.5077 24.3331 0.0000 0.0000 0.0000
# 2 75.5077 146.2950 32.3233 0.0000 0.0000 0.0000
# 3 24.3331 32.3233 41.5578 0.0000 0.0000 0.0000
# 4 0.0000 0.0000 0.0000 23.5205 0.0000 0.0000
# 5 0.0000 0.0000 0.0000 0.0000 22.9398 0.0000
# 6 0.0000 0.0000 0.0000 0.0000 0.0000 38.5488
#
#
#
# Elastic Compliance Matrix: (Units=1/GPa)
#
#
# Indices 1 2 3 4 5 6 
#
# 1 0.014514 -0.006778 -0.003226 0.000000 0.000000 0.000000
# 2 -0.006778 0.011420 -0.004913 0.000000 0.000000 0.000000
# 3 -0.003226 -0.004913 0.029773 0.000000 0.000000 0.000000
# 4 0.000000 0.000000 0.000000 0.042516 0.000000 0.000000
# 5 0.000000 0.000000 0.000000 0.000000 0.043592 0.000000
# 6 0.000000 0.000000 0.000000 0.000000 0.000000 0.025941
#
#
# Mechanical properties :
#
#
# Convention : Reuss Voigt Hill
#
# Bulk Modulus (GPa) = 38.65256 62.41706 50.53481
# Shear Modulus (GPa) = 24.24651 28.01922 26.13286
#
# Velocity S-wave (km/s) = 3.53037 3.79510 3.66513
# Velocity P-wave (km/s) = 6.04042 7.16158 6.62476
#
# Compressibility (1/GPa) = 0.02587151
#
# Stress axis : x y z
#
# Youngs Moduli (GPa) = 68.89994 87.56922 33.58715
#
# Poissons Ratio (x) = 0.59357 0.10836
# Poissons Ratio (y) = 0.46702 0.16502
# Poissons Ratio (z) = 0.22228 0.43024
#
# Static dielectric constant tensor:
#      x y z
#    x 3.601830 0.000000 0.000000 
#    y 0.000000 3.812350 0.000000 
#    z 0.000000 0.000000 3.259090 
# 
# 
# High freq. dielectric constant tensor:
#      x y z
#    x 1.760700 0.000000 0.000000 
#    y 0.000000 1.773050 0.000000 
#    z 0.000000 0.000000 1.726450 
# 
# From -- ./inp_files/6892.got.cif
#   From: 2010.06.25/outbox.cif.g09.slc.cpg/sg58_4_cif.got.tgz:6892.got - 2010.06.26 21:38:00.
