data_PCOD8237226
_publ_section_title
;
Structure prediction by ZEFSAII (Michael W. Deem and Ramdas Pophale) SiO2 
 PCOD8237226
Probable space group: P N N M
;
_chemical_formula_sum "Si O2"
_cell_formula_units_Z 40
_cell_length_a 13.436511
_cell_length_b 6.106813
_cell_length_c 22.750515
_cell_angle_alpha 90.000000
_cell_angle_beta 90.000000
_cell_angle_gamma 90.000000
_cell_volume 1866.776674
_symmetry_space_group_name_H-M "P N N M"
_symmetry_group_IT_number 58
_symmetry_cell_setting 'orthorhombic'
loop_
_space_group_symop_operation_xyz
x,y,z
-x,-y,z
1/2+x,1/2-y,1/2-z
1/2-x,1/2+y,1/2-z
-x,-y,-z
x,y,-z
1/2-x,1/2+y,1/2+z
1/2+x,1/2-y,1/2+z
loop_
_atom_site_type_symbol
_atom_site_label
_atom_site_fract_x
_atom_site_fract_y
_atom_site_fract_z
Si Si1 0.433712 0.687460 0.564097
Si Si2 0.894846 0.119892 0.222197
Si Si3 0.837305 0.443970 0.874155
Si Si4 0.265696 0.933259 0.935553
Si Si5 0.716254 0.825552 0.822783
O O1 0.500000 0.500000 0.597222
O O2 0.482567 0.727601 0.500000
O O3 0.322160 0.606078 0.558849
O O4 0.427063 0.915421 0.598064
O O5 0.898219 0.279085 0.166726
O O6 0.874707 0.272630 0.279260
O O7 0.805292 0.948385 0.211649
O O8 0.000000 0.000000 0.230925
O O9 0.776425 0.309197 0.923690
O O10 0.756626 0.588631 0.840962
O O11 0.325876 0.028401 0.878368
O O12 0.321880 0.930815 0.000000
#
# Coordination Sequence:
#
# PCOD8237226 Si02
#       5
#     8   8   8   8   8
#     4   9  18  31  49  78 117 157 202 241 286 358
#     4  11  23  39  61  89 121 162 205 253 313 367
#     4  10  20  35  56  77 120 157 200 251 299 363
#     4   9  19  33  55  83 110 155 202 248 311 362
#     4  10  21  39  59  87 125 153 205 259 302 375
#
# _framework density 21.427308
#
# number of rings (size 3 to 8) (size 9 to 14) (size 15 to 20)
#    0.000    2.200    2.000    0.600    0.000   11.200 
#    0.000    3.000    0.000    6.000    0.000    1.400 
#    0.000    0.000    0.000    0.000    0.000    0.000 
#
# Total GULP energy -495524.802605 kJ/mol
# GULP energy per Si atom -12388.120065 kJ/mol
# Density = 2.137854 g / cm^3
# Si number density = 21.427308 Si / 1000 Ang^3
#
#
#
# Elastic Constant Matrix: (Units=GPa)
#
#
# Indices 1 2 3 4 5 6 
#
# 1 42.7878 36.6866 32.9486 0.0000 0.0000 0.0000
# 2 36.6866 128.1137 63.0724 0.0000 0.0000 0.0000
# 3 32.9486 63.0724 140.7644 0.0000 0.0000 0.0000
# 4 0.0000 0.0000 0.0000 -5.1923 0.0000 0.0000
# 5 0.0000 0.0000 0.0000 0.0000 15.7107 0.0000
# 6 0.0000 0.0000 0.0000 0.0000 0.0000 31.2916
#
#
#
# Elastic Compliance Matrix: (Units=1/GPa)
#
#
# Indices 1 2 3 4 5 6 
#
# 1 0.033045 -0.007255 -0.004484 0.000000 0.000000 0.000000
# 2 -0.007255 0.011608 -0.003503 0.000000 0.000000 0.000000
# 3 -0.004484 -0.003503 0.009723 0.000000 0.000000 0.000000
# 4 0.000000 0.000000 0.000000 -0.192592 0.000000 0.000000
# 5 0.000000 0.000000 0.000000 0.000000 0.063651 0.000000
# 6 0.000000 0.000000 0.000000 0.000000 0.000000 0.031957
#
#
# Mechanical properties :
#
#
# Convention : Reuss Voigt Hill
#
# Bulk Modulus (GPa) = 41.85570 64.12012 52.98791
# Shear Modulus (GPa) = -1201.61329 20.29255 -590.66037
#
# Velocity S-wave (km/s) = -23.70661 3.08074 -16.62096
# Velocity P-wave (km/s) = 27.01410 6.53024 18.53534
#
# Compressibility (1/GPa) = 0.02389161
#
# Stress axis : x y z
#
# Youngs Moduli (GPa) = 30.26211 86.15008 102.84740
#
# Poissons Ratio (x) = 0.62503 0.46116
# Poissons Ratio (y) = 0.21956 0.36026
# Poissons Ratio (z) = 0.13569 0.30177
#
# Static dielectric constant tensor:
#      x y z
#    x 3.191560 0.000000 0.000000 
#    y 0.000000 4.161760 0.000000 
#    z 0.000000 0.000000 4.822110 
# 
# 
# High freq. dielectric constant tensor:
#      x y z
#    x 1.766120 0.000000 0.000000 
#    y 0.000000 1.865870 0.000000 
#    z 0.000000 0.000000 1.858180 
# 
# From -- ./inp_files/32132.got.cif
#   From: 2010.06.25/outbox.cif.g09.slc.cpg/sg58_17_cif.got.tgz:32132.got - 2010.06.26 21:38:00.
