data_PCOD8237609
_publ_section_title
;
Structure prediction by ZEFSAII (Michael W. Deem and Ramdas Pophale) SiO2 
 PCOD8237609
Probable space group: P N N M
;
_chemical_formula_sum "Si O2"
_cell_formula_units_Z 64
_cell_length_a 24.131381
_cell_length_b 14.351326
_cell_length_c 9.012335
_cell_angle_alpha 90.000000
_cell_angle_beta 90.000000
_cell_angle_gamma 90.000000
_cell_volume 3121.127664
_symmetry_space_group_name_H-M "P N N M"
_symmetry_group_IT_number 58
_symmetry_cell_setting 'orthorhombic'
loop_
_space_group_symop_operation_xyz
x,y,z
-x,-y,z
1/2+x,1/2-y,1/2-z
1/2-x,1/2+y,1/2-z
-x,-y,-z
x,y,-z
1/2-x,1/2+y,1/2+z
1/2+x,1/2-y,1/2+z
loop_
_atom_site_type_symbol
_atom_site_label
_atom_site_fract_x
_atom_site_fract_y
_atom_site_fract_z
Si Si1 0.056653 0.240514 0.324533
Si Si2 0.735518 0.109081 0.169224
Si Si3 0.263932 0.112705 0.165767
Si Si4 0.942648 0.222160 0.827680
Si Si5 0.628661 0.895029 0.668975
Si Si6 0.653595 0.609026 0.174182
Si Si7 0.876424 0.606670 0.824231
Si Si8 0.156198 0.108381 0.329466
O O1 0.052791 0.256145 0.500000
O O2 0.072374 0.336972 0.244450
O O3 0.101125 0.162075 0.280043
O O4 0.998476 0.204726 0.262639
O O5 0.788683 0.147792 0.258312
O O6 0.680114 0.144968 0.250341
O O7 0.736448 0.998244 0.174631
O O8 0.736410 0.145866 0.000000
O O9 0.320235 0.149205 0.240572
O O10 0.209067 0.151719 0.244953
O O11 0.263466 0.151000 0.000000
O O12 0.924665 0.329933 0.808462
O O13 0.896605 0.155626 0.759811
O O14 0.951354 0.197165 0.000000
O O15 0.648848 0.897652 0.500000
O O16 0.613051 0.999140 0.720462
O O17 0.647496 0.499679 0.206511
O O18 0.651533 0.632045 0.000000
O O19 0.873694 0.621269 0.000000
O O20 0.169380 0.124603 0.500000
#
# Coordination Sequence:
#
# PCOD8237609 Si02
#       8
#     8   8   8   8   8   8   8   8
#     4  11  24  41  58  80 110 147 190 235 278 329
#     4   9  17  32  55  86 118 146 178 222 275 331
#     4   9  17  30  55  88 116 140 178 228 273 321
#     4  11  24  41  58  80 110 147 190 235 278 329
#     4   9  20  38  59  81 112 150 183 219 275 337
#     4  10  20  37  60  85 112 146 185 227 274 329
#     4  10  20  37  60  85 112 146 185 227 274 329
#     4   9  20  38  59  81 112 150 183 219 275 337
#
# _framework density 20.505407000000002
#
# number of rings (size 3 to 8) (size 9 to 14) (size 15 to 20)
#    0.000    2.250    0.000    2.250    0.000    8.000 
#    0.000    6.250    0.000    0.000    0.000    0.000 
#    0.000    0.000    0.000    0.000    0.000    0.000 
#
# Total GULP energy -793819.349716 kJ/mol
# GULP energy per Si atom -12403.427339 kJ/mol
# Density = 2.045874 g / cm^3
# Si number density = 20.505407 Si / 1000 Ang^3
#
#
#
# Elastic Constant Matrix: (Units=GPa)
#
#
# Indices 1 2 3 4 5 6 
#
# 1 94.3849 2.6585 32.7833 0.0000 0.0000 0.0000
# 2 2.6585 26.0812 14.2808 0.0000 0.0000 0.0000
# 3 32.7833 14.2808 101.4103 0.0000 0.0000 0.0000
# 4 0.0000 0.0000 0.0000 25.5129 0.0000 0.0000
# 5 0.0000 0.0000 0.0000 0.0000 44.2802 0.0000
# 6 0.0000 0.0000 0.0000 0.0000 0.0000 29.7531
#
#
#
# Elastic Compliance Matrix: (Units=1/GPa)
#
#
# Indices 1 2 3 4 5 6 
#
# 1 0.011958 0.000973 -0.004003 0.000000 0.000000 0.000000
# 2 0.000973 0.041624 -0.006176 0.000000 0.000000 0.000000
# 3 -0.004003 -0.006176 0.012025 0.000000 0.000000 0.000000
# 4 0.000000 0.000000 0.000000 0.039196 0.000000 0.000000
# 5 0.000000 0.000000 0.000000 0.000000 0.022583 0.000000
# 6 0.000000 0.000000 0.000000 0.000000 0.000000 0.033610
#
#
# Mechanical properties :
#
#
# Convention : Reuss Voigt Hill
#
# Bulk Modulus (GPa) = 21.18875 35.70240 28.44557
# Shear Modulus (GPa) = 25.62270 31.38617 28.50443
#
# Velocity S-wave (km/s) = 3.53874 3.91657 3.73244
# Velocity P-wave (km/s) = 5.20121 6.15644 5.69887
#
# Compressibility (1/GPa) = 0.04719486
#
# Stress axis : x y z
#
# Youngs Moduli (GPa) = 83.62763 24.02438 83.16281
#
# Poissons Ratio (x) = -0.02337 0.33287
# Poissons Ratio (y) = -0.08135 0.51362
# Poissons Ratio (z) = 0.33473 0.14838
#
# Static dielectric constant tensor:
#      x y z
#    x 3.710010 0.000000 0.000000 
#    y 0.000000 3.676930 0.000000 
#    z 0.000000 0.000000 3.794910 
# 
# 
# High freq. dielectric constant tensor:
#      x y z
#    x 1.799780 0.000000 0.000000 
#    y 0.000000 1.798850 0.000000 
#    z 0.000000 0.000000 1.809760 
# 
# From -- ./inp_files/9972.got.cif
#   From: 2010.06.25/outbox.cif.g09.slc.cpg/sg58_5_cif.got.tgz:9972.got - 2010.06.26 21:38:00.
