data_PCOD8237325
_publ_section_title
;
Structure prediction by ZEFSAII (Michael W. Deem and Ramdas Pophale) SiO2 
 PCOD8237325
Probable space group: P N N M
;
_chemical_formula_sum "Si O2"
_cell_formula_units_Z 32
_cell_length_a 4.954124
_cell_length_b 8.355051
_cell_length_c 36.073154
_cell_angle_alpha 90.000000
_cell_angle_beta 90.000000
_cell_angle_gamma 90.000000
_cell_volume 1493.138500
_symmetry_space_group_name_H-M "P N N M"
_symmetry_group_IT_number 58
_symmetry_cell_setting 'orthorhombic'
loop_
_space_group_symop_operation_xyz
x,y,z
-x,-y,z
1/2+x,1/2-y,1/2-z
1/2-x,1/2+y,1/2-z
-x,-y,-z
x,y,-z
1/2-x,1/2+y,1/2+z
1/2+x,1/2-y,1/2+z
loop_
_atom_site_type_symbol
_atom_site_label
_atom_site_fract_x
_atom_site_fract_y
_atom_site_fract_z
Si Si1 0.983412 0.188988 0.086518
Si Si2 0.104384 0.176394 0.267680
Si Si3 0.249504 0.606044 0.152849
Si Si4 0.011731 0.689698 0.540945
O O1 0.879423 0.273079 0.123423
O O2 0.783032 0.243069 0.053802
O O3 0.273253 0.249842 0.071761
O O4 0.000000 0.000000 0.094200
O O5 0.385338 0.196435 0.246229
O O6 0.142521 0.203957 0.311743
O O7 0.000000 0.000000 0.258754
O O8 0.500000 0.500000 0.136669
O O9 0.000000 0.500000 0.167105
O O10 0.075581 0.760178 0.500000
O O11 0.000000 0.500000 0.538861
#
# Coordination Sequence:
#
# PCOD8237325 Si02
#       4
#     8   8   8   8
#     4  10  20  35  58  86 113 148 199 245 285 343
#     4  11  23  42  65  91 120 156 200 245 297 356
#     4  11  23  41  61  84 120 161 193 233 300 363
#     4   9  17  31  54  84 115 147 189 245 298 339
#
# _framework density 21.431369
#
# number of rings (size 3 to 8) (size 9 to 14) (size 15 to 20)
#    0.000    1.750    0.000    6.000    0.000    4.000 
#    0.000   10.000    0.000   15.000    0.000    0.000 
#    0.000    0.000    0.000    0.000    0.000    0.000 
#
# Total GULP energy -396650.296419 kJ/mol
# GULP energy per Si atom -12395.321763 kJ/mol
# Density = 2.138259 g / cm^3
# Si number density = 21.431369 Si / 1000 Ang^3
#
#
#
# Elastic Constant Matrix: (Units=GPa)
#
#
# Indices 1 2 3 4 5 6 
#
# 1 136.2360 31.4953 53.3357 0.0000 0.0000 0.0000
# 2 31.4953 50.6337 55.3879 0.0000 0.0000 0.0000
# 3 53.3357 55.3879 156.0822 0.0000 0.0000 0.0000
# 4 0.0000 0.0000 0.0000 7.2985 0.0000 0.0000
# 5 0.0000 0.0000 0.0000 0.0000 62.4344 0.0000
# 6 0.0000 0.0000 0.0000 0.0000 0.0000 37.3295
#
#
#
# Elastic Compliance Matrix: (Units=1/GPa)
#
#
# Indices 1 2 3 4 5 6 
#
# 1 0.008857 -0.003593 -0.001751 0.000000 0.000000 0.000000
# 2 -0.003593 0.033738 -0.010745 0.000000 0.000000 0.000000
# 3 -0.001751 -0.010745 0.010818 0.000000 0.000000 0.000000
# 4 0.000000 0.000000 0.000000 0.137015 0.000000 0.000000
# 5 0.000000 0.000000 0.000000 0.000000 0.016017 0.000000
# 6 0.000000 0.000000 0.000000 0.000000 0.000000 0.026788
#
#
# Mechanical properties :
#
#
# Convention : Reuss Voigt Hill
#
# Bulk Modulus (GPa) = 47.09279 69.26553 58.17916
# Shear Modulus (GPa) = 18.34931 34.92802 26.63866
#
# Velocity S-wave (km/s) = 2.92925 4.04141 3.52941
# Velocity P-wave (km/s) = 5.78464 7.35984 6.61926
#
# Compressibility (1/GPa) = 0.02123467
#
# Stress axis : x y z
#
# Youngs Moduli (GPa) = 112.91121 29.63998 92.43677
#
# Poissons Ratio (x) = 0.10650 0.16189
# Poissons Ratio (y) = 0.40571 0.99320
# Poissons Ratio (z) = 0.19774 0.31847
#
# Static dielectric constant tensor:
#      x y z
#    x 4.392360 0.000000 0.000000 
#    y 0.000000 3.571490 0.000000 
#    z 0.000000 0.000000 3.843040 
# 
# 
# High freq. dielectric constant tensor:
#      x y z
#    x 1.869230 0.000000 0.000000 
#    y 0.000000 1.804360 0.000000 
#    z 0.000000 0.000000 1.844490 
# 
# From -- ./inp_files/33947.got.cif
#   From: 2010.06.25/outbox.cif.g09.slc.cpg/sg58_17_cif.got.tgz:33947.got - 2010.06.26 21:38:00.
