data_PCOD8237995
_publ_section_title
;
Structure prediction by ZEFSAII (Michael W. Deem and Ramdas Pophale) SiO2 
 PCOD8237995
Probable space group: P N N M
;
_chemical_formula_sum "Si O2"
_cell_formula_units_Z 56
_cell_length_a 8.468597
_cell_length_b 22.393053
_cell_length_c 13.907500
_cell_angle_alpha 90.000000
_cell_angle_beta 90.000000
_cell_angle_gamma 90.000000
_cell_volume 2637.386889
_symmetry_space_group_name_H-M "P N N M"
_symmetry_group_IT_number 58
_symmetry_cell_setting 'orthorhombic'
loop_
_space_group_symop_operation_xyz
x,y,z
-x,-y,z
1/2+x,1/2-y,1/2-z
1/2-x,1/2+y,1/2-z
-x,-y,-z
x,y,-z
1/2-x,1/2+y,1/2+z
1/2+x,1/2-y,1/2+z
loop_
_atom_site_type_symbol
_atom_site_label
_atom_site_fract_x
_atom_site_fract_y
_atom_site_fract_z
Si Si1 0.395757 0.553456 0.738614
Si Si2 0.324881 0.762527 0.891398
Si Si3 0.685532 0.789546 0.107863
Si Si4 0.151080 0.334246 0.889987
Si Si5 0.190129 0.648414 0.196179
Si Si6 0.812449 0.128522 0.784706
Si Si7 0.174089 0.478403 0.611727
O O1 0.500000 0.500000 0.787275
O O2 0.272865 0.583036 0.814953
O O3 0.510006 0.605804 0.697535
O O4 0.301977 0.525548 0.649220
O O5 0.510548 0.764990 0.872815
O O6 0.281254 0.694618 0.870515
O O7 0.218778 0.804818 0.823777
O O8 0.280081 0.779064 0.000000
O O9 0.813851 0.736472 0.116031
O O10 0.715244 0.838253 0.189886
O O11 0.696194 0.817875 0.000000
O O12 0.283594 0.370518 0.830630
O O13 0.989629 0.351327 0.836667
O O14 0.149857 0.356356 0.000000
O O15 0.688426 0.085450 0.837175
O O16 0.203579 0.469229 0.500000
O O17 0.000000 0.500000 0.636011
#
# Coordination Sequence:
#
# PCOD8237995 Si02
#       7
#     8   8   8   8   8   8   8
#     4  10  25  42  66  91 126 177 225 271 329 393
#     4  11  23  37  61  97 131 170 212 260 330 403
#     4  10  21  36  57  90 131 171 207 254 326 401
#     4  11  23  39  63  96 132 170 215 268 334 404
#     4  12  21  40  62  90 129 169 216 275 331 392
#     4  11  21  40  64  91 131 172 209 265 328 392
#     4  10  22  41  65  95 129 169 218 272 328 390
#
# _framework density 21.233136999999999
#
# number of rings (size 3 to 8) (size 9 to 14) (size 15 to 20)
#    0.000    1.286    2.857    2.571    2.000    3.714 
#    0.000    0.714    0.000   19.714    0.000    0.000 
#    0.000    0.000    0.000    0.000    0.000    0.000 
#
# Total GULP energy -694303.710852 kJ/mol
# GULP energy per Si atom -12398.280551 kJ/mol
# Density = 2.118481 g / cm^3
# Si number density = 21.233137 Si / 1000 Ang^3
#
#
#
# Elastic Constant Matrix: (Units=GPa)
#
#
# Indices 1 2 3 4 5 6 
#
# 1 91.6972 33.1404 48.0327 0.0000 0.0000 0.0000
# 2 33.1404 74.8369 30.0968 0.0000 0.0000 0.0000
# 3 48.0327 30.0968 107.4820 0.0000 0.0000 0.0000
# 4 0.0000 0.0000 0.0000 27.9355 0.0000 0.0000
# 5 0.0000 0.0000 0.0000 0.0000 28.6449 0.0000
# 6 0.0000 0.0000 0.0000 0.0000 0.0000 41.1527
#
#
#
# Elastic Compliance Matrix: (Units=1/GPa)
#
#
# Indices 1 2 3 4 5 6 
#
# 1 0.015530 -0.004605 -0.005651 0.000000 0.000000 0.000000
# 2 -0.004605 0.016423 -0.002541 0.000000 0.000000 0.000000
# 3 -0.005651 -0.002541 0.012541 0.000000 0.000000 0.000000
# 4 0.000000 0.000000 0.000000 0.035797 0.000000 0.000000
# 5 0.000000 0.000000 0.000000 0.000000 0.034910 0.000000
# 6 0.000000 0.000000 0.000000 0.000000 0.000000 0.024300
#
#
# Mechanical properties :
#
#
# Convention : Reuss Voigt Hill
#
# Bulk Modulus (GPa) = 52.90729 55.17289 54.04009
# Shear Modulus (GPa) = 29.17269 30.39635 29.78452
#
# Velocity S-wave (km/s) = 3.71067 3.78769 3.74938
# Velocity P-wave (km/s) = 6.58256 6.72083 6.65206
#
# Compressibility (1/GPa) = 0.01890099
#
# Stress axis : x y z
#
# Youngs Moduli (GPa) = 64.39356 60.88883 79.74059
#
# Poissons Ratio (x) = 0.28036 0.45059
# Poissons Ratio (y) = 0.29650 0.20263
# Poissons Ratio (z) = 0.36387 0.15473
#
# Static dielectric constant tensor:
#      x y z
#    x 4.008980 0.000000 0.000000 
#    y 0.000000 3.807390 0.000000 
#    z 0.000000 0.000000 3.874100 
# 
# 
# High freq. dielectric constant tensor:
#      x y z
#    x 1.849220 0.000000 0.000000 
#    y 0.000000 1.820000 0.000000 
#    z 0.000000 0.000000 1.821300 
# 
# From -- ./inp_files/20103.got.cif
#   From: 2010.06.25/outbox.cif.g09.slc.cpg/sg58_11_cif.got.tgz:20103.got - 2010.06.26 21:38:00.
