data_PCOD8237599
_publ_section_title
;
Structure prediction by ZEFSAII (Michael W. Deem and Ramdas Pophale) SiO2 
 PCOD8237599
Probable space group: P N N M
;
_chemical_formula_sum "Si O2"
_cell_formula_units_Z 48
_cell_length_a 23.968800
_cell_length_b 11.804077
_cell_length_c 8.878760
_cell_angle_alpha 90.000000
_cell_angle_beta 90.000000
_cell_angle_gamma 90.000000
_cell_volume 2512.063667
_symmetry_space_group_name_H-M "P N N M"
_symmetry_group_IT_number 58
_symmetry_cell_setting 'orthorhombic'
loop_
_space_group_symop_operation_xyz
x,y,z
-x,-y,z
1/2+x,1/2-y,1/2-z
1/2-x,1/2+y,1/2-z
-x,-y,-z
x,y,-z
1/2-x,1/2+y,1/2+z
1/2+x,1/2-y,1/2+z
loop_
_atom_site_type_symbol
_atom_site_label
_atom_site_fract_x
_atom_site_fract_y
_atom_site_fract_z
Si Si1 0.206511 0.327118 0.824674
Si Si2 0.537489 0.240858 0.323993
Si Si3 0.920985 0.286648 0.677072
Si Si4 0.362921 0.635520 0.178509
Si Si5 0.896012 0.517839 0.171766
Si Si6 0.171564 0.889337 0.678423
O O1 0.185477 0.219464 0.732325
O O2 0.165805 0.433944 0.800530
O O3 0.266883 0.360522 0.759670
O O4 0.207797 0.292951 0.000000
O O5 0.538707 0.266606 0.500000
O O6 0.475894 0.255889 0.260969
O O7 0.577145 0.331722 0.244567
O O8 0.558546 0.113860 0.290489
O O9 0.930847 0.275786 0.500000
O O10 0.905946 0.415232 0.715661
O O11 0.870937 0.206887 0.734175
O O12 0.348029 0.510847 0.239998
O O13 0.366625 0.639367 0.000000
O O14 0.903366 0.475693 0.000000
O O15 0.174239 0.893233 0.500000
#
# Coordination Sequence:
#
# PCOD8237599 Si02
#       6
#     8   8   8   8   8   8
#     4   9  19  38  59  79 112 151 184 224 280 334
#     4  10  21  39  59  80 112 150 184 228 284 334
#     4  11  22  35  55  84 115 146 186 233 275 325
#     4  10  20  37  60  83 108 144 190 229 271 330
#     4   9  19  35  57  81 109 147 185 226 281 333
#     4   9  21  38  55  80 116 153 181 222 284 333
#
# _framework density 19.107797000000001
#
# number of rings (size 3 to 8) (size 9 to 14) (size 15 to 20)
#    0.000    2.333    0.000    3.000    2.333    6.000 
#    0.000    9.167    0.000    0.000    0.000    0.000 
#    0.000    0.000    0.000    0.000    0.000    0.000 
#
# Total GULP energy -595358.339126 kJ/mol
# GULP energy per Si atom -12403.298732 kJ/mol
# Density = 1.906431 g / cm^3
# Si number density = 19.107797 Si / 1000 Ang^3
#
#
#
# Elastic Constant Matrix: (Units=GPa)
#
#
# Indices 1 2 3 4 5 6 
#
# 1 148.9524 39.0461 31.8745 0.0000 0.0000 0.0000
# 2 39.0461 62.1996 26.7412 0.0000 0.0000 0.0000
# 3 31.8745 26.7412 61.5201 0.0000 0.0000 0.0000
# 4 0.0000 0.0000 0.0000 24.2831 0.0000 0.0000
# 5 0.0000 0.0000 0.0000 0.0000 30.2241 0.0000
# 6 0.0000 0.0000 0.0000 0.0000 0.0000 20.5434
#
#
#
# Elastic Compliance Matrix: (Units=1/GPa)
#
#
# Indices 1 2 3 4 5 6 
#
# 1 0.008341 -0.004155 -0.002516 0.000000 0.000000 0.000000
# 2 -0.004155 0.021842 -0.007341 0.000000 0.000000 0.000000
# 3 -0.002516 -0.007341 0.020749 0.000000 0.000000 0.000000
# 4 0.000000 0.000000 0.000000 0.041181 0.000000 0.000000
# 5 0.000000 0.000000 0.000000 0.000000 0.033086 0.000000
# 6 0.000000 0.000000 0.000000 0.000000 0.000000 0.048677
#
#
# Mechanical properties :
#
#
# Convention : Reuss Voigt Hill
#
# Bulk Modulus (GPa) = 43.65176 51.99952 47.82564
# Shear Modulus (GPa) = 23.86226 26.67748 25.26987
#
# Velocity S-wave (km/s) = 3.53770 3.74057 3.64055
# Velocity P-wave (km/s) = 6.29140 6.77707 6.53875
#
# Compressibility (1/GPa) = 0.02290859
#
# Stress axis : x y z
#
# Youngs Moduli (GPa) = 119.89038 45.78429 48.19416
#
# Poissons Ratio (x) = 0.19021 0.12124
# Poissons Ratio (y) = 0.49809 0.35381
# Poissons Ratio (z) = 0.30161 0.33612
#
# Static dielectric constant tensor:
#      x y z
#    x 3.738880 0.000000 0.000000 
#    y 0.000000 3.488130 0.000000 
#    z 0.000000 0.000000 3.322280 
# 
# 
# High freq. dielectric constant tensor:
#      x y z
#    x 1.757020 0.000000 0.000000 
#    y 0.000000 1.741500 0.000000 
#    z 0.000000 0.000000 1.731300 
# 
# From -- ./inp_files/4211.got.cif
#   From: 2010.06.25/outbox.cif.g09.slc.cpg/sg58_3_cif.got.tgz:4211.got - 2010.06.26 21:38:00.
