data_PCOD8237472
_publ_section_title
;
Structure prediction by ZEFSAII (Michael W. Deem and Ramdas Pophale) SiO2 
 PCOD8237472
Probable space group: P N N M
;
_chemical_formula_sum "Si O2"
_cell_formula_units_Z 64
_cell_length_a 28.301587
_cell_length_b 12.675597
_cell_length_c 8.688635
_cell_angle_alpha 90.000000
_cell_angle_beta 90.000000
_cell_angle_gamma 90.000000
_cell_volume 3116.956674
_symmetry_space_group_name_H-M "P N N M"
_symmetry_group_IT_number 58
_symmetry_cell_setting 'orthorhombic'
loop_
_space_group_symop_operation_xyz
x,y,z
-x,-y,z
1/2+x,1/2-y,1/2-z
1/2-x,1/2+y,1/2-z
-x,-y,-z
x,y,-z
1/2-x,1/2+y,1/2+z
1/2+x,1/2-y,1/2+z
loop_
_atom_site_type_symbol
_atom_site_label
_atom_site_fract_x
_atom_site_fract_y
_atom_site_fract_z
Si Si1 0.100021 0.117656 0.320749
Si Si2 0.320982 0.334365 0.672748
Si Si3 0.207437 0.627665 0.675927
Si Si4 0.927447 0.092820 0.825157
Si Si5 0.796683 0.960524 0.677061
Si Si6 0.963813 0.297530 0.680800
Si Si7 0.890341 0.474305 0.679838
Si Si8 0.938426 0.670940 0.180118
O O1 0.090981 0.139235 0.500000
O O2 0.155309 0.101571 0.282954
O O3 0.084030 0.217537 0.223609
O O4 0.069364 0.015569 0.270901
O O5 0.307480 0.298836 0.500000
O O6 0.310544 0.245260 0.796482
O O7 0.375457 0.361238 0.687102
O O8 0.290689 0.436753 0.717041
O O9 0.223679 0.616069 0.500000
O O10 0.251619 0.611304 0.788128
O O11 0.164620 0.548237 0.713828
O O12 0.961891 0.182006 0.757867
O O13 0.942210 0.068383 0.000000
O O14 0.797430 0.995110 0.500000
O O15 0.961437 0.280747 0.500000
O O16 0.921754 0.374778 0.736420
O O17 0.013031 0.350401 0.729230
O O18 0.899625 0.495083 0.500000
O O19 0.902507 0.578194 0.775482
O O20 0.948763 0.668138 0.000000
#
# Coordination Sequence:
#
# PCOD8237472 Si02
#       8
#     8   8   8   8   8   8   8   8
#     4  10  22  42  64  86 120 164 206 249 306 372
#     4  10  20  36  59  86 119 156 194 245 304 359
#     4  11  22  38  62  91 121 157 204 251 300 363
#     4  10  20  36  62  93 123 153 197 254 303 353
#     4  10  22  39  61  89 120 157 202 251 306 365
#     4  11  22  40  65  91 122 162 207 249 303 368
#     4  10  23  42  63  88 121 162 206 250 300 366
#     4  12  26  41  61  90 125 162 204 255 312 364
#
# _framework density 20.53285
#
# number of rings (size 3 to 8) (size 9 to 14) (size 15 to 20)
#    0.000    1.500    1.250    3.750    0.000    7.500 
#    0.000    3.750    0.000    0.000    0.000    0.000 
#    0.000    0.000    0.000    0.000    0.000    0.000 
#
# Total GULP energy -793937.875202 kJ/mol
# GULP energy per Si atom -12405.279300 kJ/mol
# Density = 2.048612 g / cm^3
# Si number density = 20.532850 Si / 1000 Ang^3
#
#
#
# Elastic Constant Matrix: (Units=GPa)
#
#
# Indices 1 2 3 4 5 6 
#
# 1 46.8213 11.9411 24.0262 0.0000 0.0000 0.0000
# 2 11.9411 91.3470 21.2481 0.0000 0.0000 0.0000
# 3 24.0262 21.2481 54.4304 0.0000 0.0000 0.0000
# 4 0.0000 0.0000 0.0000 36.6716 0.0000 0.0000
# 5 0.0000 0.0000 0.0000 0.0000 30.1006 0.0000
# 6 0.0000 0.0000 0.0000 0.0000 0.0000 19.3351
#
#
#
# Elastic Compliance Matrix: (Units=1/GPa)
#
#
# Indices 1 2 3 4 5 6 
#
# 1 0.027673 -0.000854 -0.011882 0.000000 0.000000 0.000000
# 2 -0.000854 0.012067 -0.004334 0.000000 0.000000 0.000000
# 3 -0.011882 -0.004334 0.025309 0.000000 0.000000 0.000000
# 4 0.000000 0.000000 0.000000 0.027269 0.000000 0.000000
# 5 0.000000 0.000000 0.000000 0.000000 0.033222 0.000000
# 6 0.000000 0.000000 0.000000 0.000000 0.000000 0.051719
#
#
# Mechanical properties :
#
#
# Convention : Reuss Voigt Hill
#
# Bulk Modulus (GPa) = 32.35221 34.11438 33.23330
# Shear Modulus (GPa) = 22.55298 26.24702 24.40000
#
# Velocity S-wave (km/s) = 3.31778 3.57920 3.45097
# Velocity P-wave (km/s) = 5.51973 5.80788 5.66564
#
# Compressibility (1/GPa) = 0.03090979
#
# Stress axis : x y z
#
# Youngs Moduli (GPa) = 36.13680 82.87111 39.51222
#
# Poissons Ratio (x) = 0.07074 0.46948
# Poissons Ratio (y) = 0.03085 0.17124
# Poissons Ratio (z) = 0.42937 0.35915
#
# Static dielectric constant tensor:
#      x y z
#    x 3.680910 0.000000 0.000000 
#    y 0.000000 3.713640 0.000000 
#    z 0.000000 0.000000 3.699280 
# 
# 
# High freq. dielectric constant tensor:
#      x y z
#    x 1.800620 0.000000 0.000000 
#    y 0.000000 1.806710 0.000000 
#    z 0.000000 0.000000 1.809550 
# 
# From -- ./inp_files/4807.got.cif
#   From: 2010.06.25/outbox.cif.g09.slc.cpg/sg58_3_cif.got.tgz:4807.got - 2010.06.26 21:38:00.
