data_PCOD8237621
_publ_section_title
;
Structure prediction by ZEFSAII (Michael W. Deem and Ramdas Pophale) SiO2 
 PCOD8237621
Probable space group: P N N M
;
_chemical_formula_sum "Si O2"
_cell_formula_units_Z 56
_cell_length_a 13.802110
_cell_length_b 23.206661
_cell_length_c 8.822357
_cell_angle_alpha 90.000000
_cell_angle_beta 90.000000
_cell_angle_gamma 90.000000
_cell_volume 2825.808780
_symmetry_space_group_name_H-M "P N N M"
_symmetry_group_IT_number 58
_symmetry_cell_setting 'orthorhombic'
loop_
_space_group_symop_operation_xyz
x,y,z
-x,-y,z
1/2+x,1/2-y,1/2-z
1/2-x,1/2+y,1/2-z
-x,-y,-z
x,y,-z
1/2-x,1/2+y,1/2+z
1/2+x,1/2-y,1/2+z
loop_
_atom_site_type_symbol
_atom_site_label
_atom_site_fract_x
_atom_site_fract_y
_atom_site_fract_z
Si Si1 0.394728 0.020675 0.678804
Si Si2 0.805893 0.366355 0.166353
Si Si3 0.108225 0.063867 0.329917
Si Si4 0.706033 0.269751 0.324207
Si Si5 0.015763 0.167964 0.820037
Si Si6 0.288983 0.463766 0.678911
Si Si7 0.818559 0.159078 0.321455
O O1 0.374892 0.011147 0.500000
O O2 0.389463 0.089124 0.719779
O O3 0.500000 0.000000 0.728687
O O4 0.317115 0.984475 0.772592
O O5 0.710329 0.404814 0.164164
O O6 0.793825 0.311188 0.272208
O O7 0.829710 0.341978 0.000000
O O8 0.065477 0.057004 0.500000
O O9 0.035973 0.101562 0.226684
O O10 0.124886 0.000898 0.256722
O O11 0.698753 0.279280 0.500000
O O12 0.601876 0.289978 0.257751
O O13 0.731889 0.204057 0.283022
O O14 0.918663 0.187944 0.734846
O O15 0.002040 0.171715 0.000000
O O16 0.300477 0.469522 0.500000
O O17 0.298654 0.397960 0.727604
O O18 0.823080 0.146143 0.500000
#
# Coordination Sequence:
#
# PCOD8237621 Si02
#       7
#     8   8   8   8   8   8   8
#     4   9  18  35  57  82 114 152 192 231 281 347
#     4   8  15  29  53  80 104 138 182 226 271 322
#     4   9  17  33  57  83 111 145 181 219 273 344
#     4   9  20  38  58  78 108 147 187 233 284 336
#     4  10  20  37  60  87 112 142 187 240 289 336
#     4  11  22  36  55  83 116 149 186 239 291 331
#     4  11  23  40  58  80 114 156 193 232 284 346
#
# _framework density 19.817335
#
# number of rings (size 3 to 8) (size 9 to 14) (size 15 to 20)
#    0.000    2.429    0.000    3.429    0.000    6.000 
#    2.571    2.857    0.000    0.000    0.000    0.000 
#    0.000    0.000    0.000    0.000    0.000    0.000 
#
# Total GULP energy -694207.478663 kJ/mol
# GULP energy per Si atom -12396.562119 kJ/mol
# Density = 1.977223 g / cm^3
# Si number density = 19.817335 Si / 1000 Ang^3
#
#
#
# Elastic Constant Matrix: (Units=GPa)
#
#
# Indices 1 2 3 4 5 6 
#
# 1 58.2002 22.0415 21.1235 0.0000 0.0000 0.0000
# 2 22.0415 82.8917 32.8362 0.0000 0.0000 0.0000
# 3 21.1235 32.8362 68.2136 0.0000 0.0000 0.0000
# 4 0.0000 0.0000 0.0000 29.4695 0.0000 0.0000
# 5 0.0000 0.0000 0.0000 0.0000 20.9975 0.0000
# 6 0.0000 0.0000 0.0000 0.0000 0.0000 26.4495
#
#
#
# Elastic Compliance Matrix: (Units=1/GPa)
#
#
# Indices 1 2 3 4 5 6 
#
# 1 0.020179 -0.003571 -0.004529 0.000000 0.000000 0.000000
# 2 -0.003571 0.015538 -0.006374 0.000000 0.000000 0.000000
# 3 -0.004529 -0.006374 0.019131 0.000000 0.000000 0.000000
# 4 0.000000 0.000000 0.000000 0.033933 0.000000 0.000000
# 5 0.000000 0.000000 0.000000 0.000000 0.047625 0.000000
# 6 0.000000 0.000000 0.000000 0.000000 0.000000 0.037808
#
#
# Mechanical properties :
#
#
# Convention : Reuss Voigt Hill
#
# Bulk Modulus (GPa) = 38.61257 40.14533 39.37895
# Shear Modulus (GPa) = 23.60763 24.27026 23.93894
#
# Velocity S-wave (km/s) = 3.45521 3.50337 3.47937
# Velocity P-wave (km/s) = 5.95353 6.05528 6.00462
#
# Compressibility (1/GPa) = 0.02589830
#
# Stress axis : x y z
#
# Youngs Moduli (GPa) = 49.55758 64.35634 52.27209
#
# Poissons Ratio (x) = 0.22984 0.23677
# Poissons Ratio (y) = 0.17699 0.33318
# Poissons Ratio (z) = 0.22447 0.41020
#
# Static dielectric constant tensor:
#      x y z
#    x 3.745590 0.000000 0.000000 
#    y 0.000000 3.702750 0.000000 
#    z 0.000000 0.000000 3.587720 
# 
# 
# High freq. dielectric constant tensor:
#      x y z
#    x 1.760850 0.000000 0.000000 
#    y 0.000000 1.770210 0.000000 
#    z 0.000000 0.000000 1.770070 
# 
# From -- ./inp_files/6410.got.cif
#   From: 2010.06.25/outbox.cif.g09.slc.cpg/sg58_4_cif.got.tgz:6410.got - 2010.06.26 21:38:00.
