data_PCOD8237752
_publ_section_title
;
Structure prediction by ZEFSAII (Michael W. Deem and Ramdas Pophale) SiO2 
 PCOD8237752
Probable space group: P N N M
;
_chemical_formula_sum "Si O2"
_cell_formula_units_Z 32
_cell_length_a 9.151454
_cell_length_b 20.066950
_cell_length_c 8.570068
_cell_angle_alpha 90.000000
_cell_angle_beta 90.000000
_cell_angle_gamma 90.000000
_cell_volume 1573.822455
_symmetry_space_group_name_H-M "P N N M"
_symmetry_group_IT_number 58
_symmetry_cell_setting 'orthorhombic'
loop_
_space_group_symop_operation_xyz
x,y,z
-x,-y,z
1/2+x,1/2-y,1/2-z
1/2-x,1/2+y,1/2-z
-x,-y,-z
x,y,-z
1/2-x,1/2+y,1/2+z
1/2+x,1/2-y,1/2+z
loop_
_atom_site_type_symbol
_atom_site_label
_atom_site_fract_x
_atom_site_fract_y
_atom_site_fract_z
Si Si1 0.176650 0.205491 0.817369
Si Si2 0.321177 0.942470 0.681435
Si Si3 0.848157 0.174360 0.818460
Si Si4 0.126580 0.580803 0.318008
O O1 0.235845 0.267013 0.719096
O O2 0.264183 0.139369 0.770338
O O3 0.009516 0.195922 0.767091
O O4 0.191981 0.221691 0.000000
O O5 0.317077 0.959311 0.500000
O O6 0.192108 0.892026 0.724046
O O7 0.476613 0.909263 0.723727
O O8 0.297640 0.010833 0.775744
O O9 0.840887 0.157095 0.000000
O O10 0.088827 0.582109 0.500000
#
# Coordination Sequence:
#
# PCOD8237752 Si02
#       4
#     8   8   8   8
#     4  10  23  40  59  85 114 147 189 236 283 337
#     4  11  22  37  58  86 118 150 190 234 279 334
#     4  11  23  39  59  83 114 150 188 233 284 336
#     4  10  20  38  62  86 115 151 190 231 283 339
#
# _framework density 20.332661000000002
#
# number of rings (size 3 to 8) (size 9 to 14) (size 15 to 20)
#    0.000    1.500    0.000    6.750    0.000    9.000 
#    0.000    5.000    0.000    0.000    0.000    0.000 
#    0.000    0.000    0.000    0.000    0.000    0.000 
#
# Total GULP energy -397021.946211 kJ/mol
# GULP energy per Si atom -12406.935819 kJ/mol
# Density = 2.028638 g / cm^3
# Si number density = 20.332661 Si / 1000 Ang^3
#
#
#
# Elastic Constant Matrix: (Units=GPa)
#
#
# Indices 1 2 3 4 5 6 
#
# 1 45.5426 3.7656 2.0768 0.0000 0.0000 0.0000
# 2 3.7656 63.3855 -1.4012 0.0000 0.0000 0.0000
# 3 2.0768 -1.4012 49.2125 0.0000 0.0000 0.0000
# 4 0.0000 0.0000 0.0000 30.6133 0.0000 0.0000
# 5 0.0000 0.0000 0.0000 0.0000 23.5353 0.0000
# 6 0.0000 0.0000 0.0000 0.0000 0.0000 42.6509
#
#
#
# Elastic Compliance Matrix: (Units=1/GPa)
#
#
# Indices 1 2 3 4 5 6 
#
# 1 0.022112 -0.001335 -0.000971 0.000000 0.000000 0.000000
# 2 -0.001335 0.015867 0.000508 0.000000 0.000000 0.000000
# 3 -0.000971 0.000508 0.020376 0.000000 0.000000 0.000000
# 4 0.000000 0.000000 0.000000 0.032666 0.000000 0.000000
# 5 0.000000 0.000000 0.000000 0.000000 0.042489 0.000000
# 6 0.000000 0.000000 0.000000 0.000000 0.000000 0.023446
#
#
# Mechanical properties :
#
#
# Convention : Reuss Voigt Hill
#
# Bulk Modulus (GPa) = 18.26205 18.55811 18.41008
# Shear Modulus (GPa) = 27.96346 29.60654 28.78500
#
# Velocity S-wave (km/s) = 3.71252 3.82004 3.76666
# Velocity P-wave (km/s) = 5.23242 5.34827 5.29066
#
# Compressibility (1/GPa) = 0.05475836
#
# Stress axis : x y z
#
# Youngs Moduli (GPa) = 45.22403 63.02378 49.07853
#
# Poissons Ratio (x) = 0.08414 0.04766
# Poissons Ratio (y) = 0.06038 -0.02494
# Poissons Ratio (z) = 0.04392 -0.03202
#
# Static dielectric constant tensor:
#      x y z
#    x 3.722570 0.000000 0.000000 
#    y 0.000000 3.789110 0.000000 
#    z 0.000000 0.000000 3.673520 
# 
# 
# High freq. dielectric constant tensor:
#      x y z
#    x 1.793300 0.000000 0.000000 
#    y 0.000000 1.806200 0.000000 
#    z 0.000000 0.000000 1.798730 
# 
# From -- ./inp_files/2160.got.cif
#   From: 2010.06.25/outbox.cif.g09.slc.cpg/sg58_2_cif.got.tgz:2160.got - 2010.06.26 21:38:00.
