data_PCOD8237587
_publ_section_title
;
Structure prediction by ZEFSAII (Michael W. Deem and Ramdas Pophale) SiO2 
 PCOD8237587
Probable space group: P N N M
;
_chemical_formula_sum "Si O2"
_cell_formula_units_Z 64
_cell_length_a 30.602255
_cell_length_b 11.906280
_cell_length_c 8.908214
_cell_angle_alpha 90.000000
_cell_angle_beta 90.000000
_cell_angle_gamma 90.000000
_cell_volume 3245.788093
_symmetry_space_group_name_H-M "P N N M"
_symmetry_group_IT_number 58
_symmetry_cell_setting 'orthorhombic'
loop_
_space_group_symop_operation_xyz
x,y,z
-x,-y,z
1/2+x,1/2-y,1/2-z
1/2-x,1/2+y,1/2-z
-x,-y,-z
x,y,-z
1/2-x,1/2+y,1/2+z
1/2+x,1/2-y,1/2+z
loop_
_atom_site_type_symbol
_atom_site_label
_atom_site_fract_x
_atom_site_fract_y
_atom_site_fract_z
Si Si1 0.125746 0.108901 0.321817
Si Si2 0.294788 0.209237 0.176280
Si Si3 0.170119 0.499834 0.172451
Si Si4 0.875256 0.147253 0.678062
Si Si5 0.696707 0.244853 0.676848
Si Si6 0.961053 0.277591 0.677595
Si Si7 0.930292 0.493194 0.827151
Si Si8 0.950313 0.746536 0.177837
O O1 0.122070 0.118637 0.500000
O O2 0.171801 0.158517 0.267318
O O3 0.085684 0.172771 0.246961
O O4 0.124019 0.980506 0.265779
O O5 0.299045 0.083443 0.237244
O O6 0.332207 0.290804 0.244627
O O7 0.247472 0.255160 0.222072
O O8 0.300302 0.203191 0.000000
O O9 0.177204 0.373688 0.230496
O O10 0.120289 0.534839 0.198248
O O11 0.184082 0.506806 0.000000
O O12 0.873692 0.151458 0.500000
O O13 0.918594 0.210554 0.735985
O O14 0.689377 0.264535 0.500000
O O15 0.966337 0.270882 0.500000
O O16 0.958389 0.407544 0.727855
O O17 0.002764 0.219467 0.755070
O O18 0.939678 0.619270 0.773799
O O19 0.944078 0.477066 0.000000
O O20 0.949856 0.761008 0.000000
#
# Coordination Sequence:
#
# PCOD8237587 Si02
#       8
#     8   8   8   8   8   8   8   8
#     4  11  23  40  63  86 114 154 202 243 286 345
#     4  10  21  39  62  87 118 157 198 239 290 346
#     4  10  20  37  61  87 118 155 192 236 294 348
#     4   9  21  40  59  83 117 156 192 239 294 344
#     4  10  22  40  61  87 122 159 193 239 298 349
#     4  11  22  38  61  88 118 150 196 245 290 345
#     4  10  20  37  59  84 118 157 189 231 295 355
#     4  11  23  41  61  85 121 155 191 237 298 355
#
# _framework density 19.717860000000002
#
# number of rings (size 3 to 8) (size 9 to 14) (size 15 to 20)
#    0.000    1.750    2.500    1.500    1.750    4.000 
#    0.000    6.250    0.000    0.000    0.000    0.000 
#    0.000    0.000    0.000    0.000    0.000    0.000 
#
# Total GULP energy -793854.841104 kJ/mol
# GULP energy per Si atom -12403.981892 kJ/mol
# Density = 1.967298 g / cm^3
# Si number density = 19.717860 Si / 1000 Ang^3
#
#
#
# Elastic Constant Matrix: (Units=GPa)
#
#
# Indices 1 2 3 4 5 6 
#
# 1 120.5790 55.5012 45.7151 0.0000 0.0000 0.0000
# 2 55.5012 124.5111 36.1389 0.0000 0.0000 0.0000
# 3 45.7151 36.1389 50.9861 0.0000 0.0000 0.0000
# 4 0.0000 0.0000 0.0000 27.1647 0.0000 0.0000
# 5 0.0000 0.0000 0.0000 0.0000 32.8907 0.0000
# 6 0.0000 0.0000 0.0000 0.0000 0.0000 27.7481
#
#
#
# Elastic Compliance Matrix: (Units=1/GPa)
#
#
# Indices 1 2 3 4 5 6 
#
# 1 0.013478 -0.003148 -0.009853 0.000000 0.000000 0.000000
# 2 -0.003148 0.010847 -0.004866 0.000000 0.000000 0.000000
# 3 -0.009853 -0.004866 0.031897 0.000000 0.000000 0.000000
# 4 0.000000 0.000000 0.000000 0.036812 0.000000 0.000000
# 5 0.000000 0.000000 0.000000 0.000000 0.030404 0.000000
# 6 0.000000 0.000000 0.000000 0.000000 0.000000 0.036038
#
#
# Mechanical properties :
#
#
# Convention : Reuss Voigt Hill
#
# Bulk Modulus (GPa) = 48.81028 63.42074 56.11551
# Shear Modulus (GPa) = 24.74762 28.14210 26.44486
#
# Velocity S-wave (km/s) = 3.54656 3.78198 3.66616
# Velocity P-wave (km/s) = 6.44817 7.16276 6.81484
#
# Compressibility (1/GPa) = 0.02048749
#
# Stress axis : x y z
#
# Youngs Moduli (GPa) = 74.19500 92.19233 31.35117
#
# Poissons Ratio (x) = 0.29022 0.30891
# Poissons Ratio (y) = 0.23356 0.15255
# Poissons Ratio (z) = 0.73107 0.44858
#
# Static dielectric constant tensor:
#      x y z
#    x 3.805210 0.000000 0.000000 
#    y 0.000000 3.664300 0.000000 
#    z 0.000000 0.000000 3.392790 
# 
# 
# High freq. dielectric constant tensor:
#      x y z
#    x 1.784370 0.000000 0.000000 
#    y 0.000000 1.771150 0.000000 
#    z 0.000000 0.000000 1.751180 
# 
# From -- ./inp_files/4648.got.cif
#   From: 2010.06.25/outbox.cif.g09.slc.cpg/sg58_3_cif.got.tgz:4648.got - 2010.06.26 21:38:00.
