data_PCOD8237772
_publ_section_title
;
Structure prediction by ZEFSAII (Michael W. Deem and Ramdas Pophale) SiO2 
 PCOD8237772
Probable space group: P N N M
;
_chemical_formula_sum "Si O2"
_cell_formula_units_Z 56
_cell_length_a 12.351742
_cell_length_b 15.633581
_cell_length_c 13.344340
_cell_angle_alpha 90.000000
_cell_angle_beta 90.000000
_cell_angle_gamma 90.000000
_cell_volume 2576.818196
_symmetry_space_group_name_H-M "P N N M"
_symmetry_group_IT_number 58
_symmetry_cell_setting 'orthorhombic'
loop_
_space_group_symop_operation_xyz
x,y,z
-x,-y,z
1/2+x,1/2-y,1/2-z
1/2-x,1/2+y,1/2-z
-x,-y,-z
x,y,-z
1/2-x,1/2+y,1/2+z
1/2+x,1/2-y,1/2+z
loop_
_atom_site_type_symbol
_atom_site_label
_atom_site_fract_x
_atom_site_fract_y
_atom_site_fract_z
Si Si1 0.746190 0.459407 0.115259
Si Si2 0.594831 0.611690 0.387061
Si Si3 0.886369 0.874579 0.232283
Si Si4 0.412202 0.189584 0.392034
Si Si5 0.795394 0.276165 0.382108
Si Si6 0.526922 0.201411 0.199735
Si Si7 0.274870 0.888738 0.256475
O O1 0.640177 0.446196 0.184194
O O2 0.809533 0.370365 0.125179
O O3 0.812190 0.538713 0.163794
O O4 0.716252 0.479749 0.000000
O O5 0.602313 0.576436 0.500000
O O6 0.475275 0.590517 0.345724
O O7 0.624911 0.712437 0.382544
O O8 0.684388 0.568366 0.315955
O O9 0.783051 0.847508 0.164944
O O10 0.935568 0.798848 0.299853
O O11 0.465159 0.171603 0.500000
O O12 0.504480 0.170169 0.313064
O O13 0.771586 0.263933 0.500000
O O14 0.776073 0.188863 0.321262
O O15 0.920640 0.308193 0.369490
O O16 0.629101 0.139319 0.178732
#
# Coordination Sequence:
#
# PCOD8237772 Si02
#       7
#     8   8   8   8   8   8   8
#     4  11  23  39  62  93 133 165 191 247 326 384
#     4  10  20  40  66  87 112 163 219 257 293 356
#     4  10  20  40  62  88 121 160 209 252 295 367
#     4   9  17  35  62  88 114 154 203 248 302 359
#     4  11  21  39  64  92 121 159 210 264 312 353
#     4  10  20  38  63  88 119 158 206 257 296 356
#     4  11  23  39  59  93 131 157 203 254 310 380
#
# _framework density 21.732229
#
# number of rings (size 3 to 8) (size 9 to 14) (size 15 to 20)
#    0.000    1.714    4.286    1.714    0.000    6.286 
#    0.000    4.286    0.000    0.857    0.000    0.000 
#    0.000    0.000    0.000    0.000    0.000    0.000 
#
# Total GULP energy -693981.676589 kJ/mol
# GULP energy per Si atom -12392.529939 kJ/mol
# Density = 2.168277 g / cm^3
# Si number density = 21.732229 Si / 1000 Ang^3
#
#
#
# Elastic Constant Matrix: (Units=GPa)
#
#
# Indices 1 2 3 4 5 6 
#
# 1 86.1326 6.9123 1.6430 0.0000 0.0000 0.0000
# 2 6.9123 27.9105 15.1600 0.0000 0.0000 0.0000
# 3 1.6430 15.1600 47.9752 0.0000 0.0000 0.0000
# 4 0.0000 0.0000 0.0000 26.3437 0.0000 0.0000
# 5 0.0000 0.0000 0.0000 0.0000 28.7390 0.0000
# 6 0.0000 0.0000 0.0000 0.0000 0.0000 13.7921
#
#
#
# Elastic Compliance Matrix: (Units=1/GPa)
#
#
# Indices 1 2 3 4 5 6 
#
# 1 0.011861 -0.003280 0.000630 0.000000 0.000000 0.000000
# 2 -0.003280 0.044160 -0.013842 0.000000 0.000000 0.000000
# 3 0.000630 -0.013842 0.025197 0.000000 0.000000 0.000000
# 4 0.000000 0.000000 0.000000 0.037960 0.000000 0.000000
# 5 0.000000 0.000000 0.000000 0.000000 0.034796 0.000000
# 6 0.000000 0.000000 0.000000 0.000000 0.000000 0.072506
#
#
# Mechanical properties :
#
#
# Convention : Reuss Voigt Hill
#
# Bulk Modulus (GPa) = 20.73221 23.27210 22.00216
# Shear Modulus (GPa) = 18.14620 22.99515 20.57067
#
# Velocity S-wave (km/s) = 2.89275 3.25639 3.07995
# Velocity P-wave (km/s) = 4.55169 4.98704 4.77433
#
# Compressibility (1/GPa) = 0.04823413
#
# Stress axis : x y z
#
# Youngs Moduli (GPa) = 84.30854 22.64512 39.68796
#
# Poissons Ratio (x) = 0.07427 -0.02501
# Poissons Ratio (y) = 0.27652 0.54936
# Poissons Ratio (z) = -0.05313 0.31345
#
# Static dielectric constant tensor:
#      x y z
#    x 4.012090 0.000000 0.000000 
#    y 0.000000 3.712870 0.000000 
#    z 0.000000 0.000000 4.035830 
# 
# 
# High freq. dielectric constant tensor:
#      x y z
#    x 1.848840 0.000000 0.000000 
#    y 0.000000 1.841630 0.000000 
#    z 0.000000 0.000000 1.853190 
# 
# From -- ./inp_files/21292.got.cif
#   From: 2010.06.25/outbox.cif.g09.slc.cpg/sg58_11_cif.got.tgz:21292.got - 2010.06.26 21:38:00.
