data_PCOD8237611
_publ_section_title
;
Structure prediction by ZEFSAII (Michael W. Deem and Ramdas Pophale) SiO2 
 PCOD8237611
Probable space group: P N N M
;
_chemical_formula_sum "Si O2"
_cell_formula_units_Z 56
_cell_length_a 16.512027
_cell_length_b 19.622642
_cell_length_c 8.908844
_cell_angle_alpha 90.000000
_cell_angle_beta 90.000000
_cell_angle_gamma 90.000000
_cell_volume 2886.550932
_symmetry_space_group_name_H-M "P N N M"
_symmetry_group_IT_number 58
_symmetry_cell_setting 'orthorhombic'
loop_
_space_group_symop_operation_xyz
x,y,z
-x,-y,z
1/2+x,1/2-y,1/2-z
1/2-x,1/2+y,1/2-z
-x,-y,-z
x,y,-z
1/2-x,1/2+y,1/2+z
1/2+x,1/2-y,1/2+z
loop_
_atom_site_type_symbol
_atom_site_label
_atom_site_fract_x
_atom_site_fract_y
_atom_site_fract_z
Si Si1 0.811327 0.617563 0.174439
Si Si2 0.849416 0.354460 0.675982
Si Si3 0.938817 0.941731 0.674601
Si Si4 0.417042 0.694727 0.674098
Si Si5 0.746618 0.469888 0.173791
Si Si6 0.488273 0.838626 0.671848
Si Si7 0.258958 0.749233 0.177318
O O1 0.777478 0.544426 0.218526
O O2 0.906262 0.621428 0.214738
O O3 0.761811 0.673039 0.268715
O O4 0.798584 0.635120 0.000000
O O5 0.842940 0.344026 0.500000
O O6 0.793662 0.417250 0.723070
O O7 0.821924 0.285295 0.758463
O O8 0.942058 0.368522 0.722278
O O9 0.952165 0.925730 0.500000
O O10 0.959977 0.873604 0.767232
O O11 0.848296 0.966793 0.708690
O O12 0.000000 0.000000 0.730262
O O13 0.393705 0.688202 0.500000
O O14 0.477009 0.757978 0.700630
O O15 0.334726 0.705029 0.766133
O O16 0.764986 0.453412 0.000000
O O17 0.512224 0.852921 0.500000
O O18 0.256813 0.746493 0.000000
#
# Coordination Sequence:
#
# PCOD8237611 Si02
#       7
#     8   8   8   8   8   8   8
#     4   9  20  39  61  86 118 157 200 244 295 357
#     4  12  24  37  58  87 118 154 202 249 295 356
#     4  10  21  36  57  87 121 159 199 240 292 356
#     4  10  20  37  60  85 114 150 194 243 296 351
#     4  10  21  39  61  85 119 161 198 241 299 357
#     4   9  20  38  58  83 115 152 196 246 298 351
#     4  11  21  36  60  85 114 154 197 245 299 353
#
# _framework density 19.400316
#
# number of rings (size 3 to 8) (size 9 to 14) (size 15 to 20)
#    0.000    1.857    1.429    3.857    0.000    5.429 
#    0.000    4.286    0.000    0.000    0.000    0.000 
#    0.000    0.000    0.000    0.000    0.000    0.000 
#
# Total GULP energy -694676.514920 kJ/mol
# GULP energy per Si atom -12404.937766 kJ/mol
# Density = 1.935616 g / cm^3
# Si number density = 19.400316 Si / 1000 Ang^3
#
#
#
# Elastic Constant Matrix: (Units=GPa)
#
#
# Indices 1 2 3 4 5 6 
#
# 1 89.2968 53.8241 40.4624 0.0000 0.0000 0.0000
# 2 53.8241 97.2467 51.8371 0.0000 0.0000 0.0000
# 3 40.4624 51.8371 111.5207 0.0000 0.0000 0.0000
# 4 0.0000 0.0000 0.0000 35.4619 0.0000 0.0000
# 5 0.0000 0.0000 0.0000 0.0000 22.2762 0.0000
# 6 0.0000 0.0000 0.0000 0.0000 0.0000 28.4016
#
#
#
# Elastic Compliance Matrix: (Units=1/GPa)
#
#
# Indices 1 2 3 4 5 6 
#
# 1 0.017285 -0.008274 -0.002425 0.000000 0.000000 0.000000
# 2 -0.008274 0.017631 -0.005193 0.000000 0.000000 0.000000
# 3 -0.002425 -0.005193 0.012261 0.000000 0.000000 0.000000
# 4 0.000000 0.000000 0.000000 0.028199 0.000000 0.000000
# 5 0.000000 0.000000 0.000000 0.000000 0.044891 0.000000
# 6 0.000000 0.000000 0.000000 0.000000 0.000000 0.035209
#
#
# Mechanical properties :
#
#
# Convention : Reuss Voigt Hill
#
# Bulk Modulus (GPa) = 64.97157 65.59015 65.28086
# Shear Modulus (GPa) = 25.98869 27.35731 26.67300
#
# Velocity S-wave (km/s) = 3.66403 3.75927 3.71195
# Velocity P-wave (km/s) = 7.17376 7.26120 7.21761
#
# Compressibility (1/GPa) = 0.01539135
#
# Stress axis : x y z
#
# Youngs Moduli (GPa) = 57.85442 56.71905 81.56035
#
# Poissons Ratio (x) = 0.46929 0.19782
# Poissons Ratio (y) = 0.47868 0.42356
# Poissons Ratio (z) = 0.14032 0.29455
#
# Static dielectric constant tensor:
#      x y z
#    x 3.521970 0.000000 0.000000 
#    y 0.000000 3.623280 0.000000 
#    z 0.000000 0.000000 3.449750 
# 
# 
# High freq. dielectric constant tensor:
#      x y z
#    x 1.752200 0.000000 0.000000 
#    y 0.000000 1.759250 0.000000 
#    z 0.000000 0.000000 1.751950 
# 
# From -- ./inp_files/6336.got.cif
#   From: 2010.06.25/outbox.cif.g09.slc.cpg/sg58_4_cif.got.tgz:6336.got - 2010.06.26 21:38:00.
