data_PCOD8237693
_publ_section_title
;
Structure prediction by ZEFSAII (Michael W. Deem and Ramdas Pophale) SiO2 
 PCOD8237693
Probable space group: P N N M
;
_chemical_formula_sum "Si O2"
_cell_formula_units_Z 48
_cell_length_a 8.661063
_cell_length_b 7.979418
_cell_length_c 29.425892
_cell_angle_alpha 90.000000
_cell_angle_beta 90.000000
_cell_angle_gamma 90.000000
_cell_volume 2033.630517
_symmetry_space_group_name_H-M "P N N M"
_symmetry_group_IT_number 58
_symmetry_cell_setting 'orthorhombic'
loop_
_space_group_symop_operation_xyz
x,y,z
-x,-y,z
1/2+x,1/2-y,1/2-z
1/2-x,1/2+y,1/2-z
-x,-y,-z
x,y,-z
1/2-x,1/2+y,1/2+z
1/2+x,1/2-y,1/2+z
loop_
_atom_site_type_symbol
_atom_site_label
_atom_site_fract_x
_atom_site_fract_y
_atom_site_fract_z
Si Si1 0.322069 0.530336 0.233369
Si Si2 0.700341 0.655118 0.316924
Si Si3 0.196034 0.841275 0.409459
Si Si4 0.851496 0.770095 0.406519
Si Si5 0.198793 0.835832 0.000000
Si Si6 0.900559 0.660567 0.830184
Si Si7 0.152961 0.228492 0.000000
O O1 0.500000 0.500000 0.221558
O O2 0.283321 0.518216 0.288087
O O3 0.285300 0.710563 0.214385
O O4 0.216879 0.388334 0.209551
O O5 0.772923 0.653652 0.367559
O O6 0.517744 0.693525 0.315709
O O7 0.308921 0.759991 0.372599
O O8 0.274054 0.825208 0.458014
O O9 0.035016 0.741098 0.407874
O O10 0.179583 0.035975 0.395812
O O11 0.787318 0.722784 0.455437
O O12 0.030989 0.751148 0.000000
O O13 0.196269 0.034982 0.000000
O O14 0.000000 0.500000 0.846457
#
# Coordination Sequence:
#
# PCOD8237693 Si02
#       7
#     8   8   8   8   4   8   4
#     4  11  22  41  64  92 132 171 220 279 322 387
#     4  11  23  41  66  98 129 178 218 275 328 391
#     4  11  22  41  71  99 126 174 223 272 318 396
#     4  11  23  43  71  98 134 170 223 269 329 388
#     4  11  26  47  66  98 139 170 210 275 328 398
#     4  10  20  37  64  93 128 169 217 269 324 380
#     4  11  26  43  68 100 134 171 216 267 335 387
#
# _framework density 23.603109
#
# number of rings (size 3 to 8) (size 9 to 14) (size 15 to 20)
#    0.000    1.167    3.333    4.000    0.000    3.333 
#    9.000    1.667    3.667    0.000    0.000    0.000 
#    0.000    0.000    0.000    0.000    0.000    0.000 
#
# Total GULP energy -595209.769971 kJ/mol
# GULP energy per Si atom -12400.203541 kJ/mol
# Density = 2.354939 g / cm^3
# Si number density = 23.603109 Si / 1000 Ang^3
#
#
#
# Elastic Constant Matrix: (Units=GPa)
#
#
# Indices 1 2 3 4 5 6 
#
# 1 173.6717 8.1476 65.7806 0.0000 0.0000 0.0000
# 2 8.1476 14.9194 10.1095 0.0000 0.0000 0.0000
# 3 65.7806 10.1095 156.3078 0.0000 0.0000 0.0000
# 4 0.0000 0.0000 0.0000 18.0850 0.0000 0.0000
# 5 0.0000 0.0000 0.0000 0.0000 -36.0154 0.0000
# 6 0.0000 0.0000 0.0000 0.0000 0.0000 22.2926
#
#
#
# Elastic Compliance Matrix: (Units=1/GPa)
#
#
# Indices 1 2 3 4 5 6 
#
# 1 0.006900 -0.001883 -0.002782 0.000000 0.000000 0.000000
# 2 -0.001883 0.070613 -0.003775 0.000000 0.000000 0.000000
# 3 -0.002782 -0.003775 0.007813 0.000000 0.000000 0.000000
# 4 0.000000 0.000000 0.000000 0.055295 0.000000 0.000000
# 5 0.000000 0.000000 0.000000 0.000000 -0.027766 0.000000
# 6 0.000000 0.000000 0.000000 0.000000 0.000000 0.044858
#
#
# Mechanical properties :
#
#
# Convention : Reuss Voigt Hill
#
# Bulk Modulus (GPa) = 14.61001 56.99715 35.80358
# Shear Modulus (GPa) = 25.32840 18.26317 21.79579
#
# Velocity S-wave (km/s) = 3.27937 2.78467 3.04209
# Velocity P-wave (km/s) = 4.53236 5.87706 5.24796
#
# Compressibility (1/GPa) = 0.06844624
#
# Stress axis : x y z
#
# Youngs Moduli (GPa) = 144.92606 14.16171 127.99921
#
# Poissons Ratio (x) = 0.02667 0.35610
# Poissons Ratio (y) = 0.27291 0.48314
# Poissons Ratio (z) = 0.40319 0.05345
#
# Static dielectric constant tensor:
#      x y z
#    x 4.554580 0.000000 0.000000 
#    y 0.000000 4.226650 0.000000 
#    z 0.000000 0.000000 4.377210 
# 
# 
# High freq. dielectric constant tensor:
#      x y z
#    x 1.954280 0.000000 0.000000 
#    y 0.000000 1.923230 0.000000 
#    z 0.000000 0.000000 1.949210 
# 
# From -- ./inp_files/34626.got.cif
#   From: 2010.06.25/outbox.cif.g09.slc.cpg/sg58_18_cif.got.tgz:34626.got - 2010.06.26 21:38:00.
