data_PCOD8237082
_publ_section_title
;
Structure prediction by ZEFSAII (Michael W. Deem and Ramdas Pophale) SiO2 
 PCOD8237082
Probable space group: P N N M
;
_chemical_formula_sum "Si O2"
_cell_formula_units_Z 64
_cell_length_a 20.460744
_cell_length_b 18.142657
_cell_length_c 9.029613
_cell_angle_alpha 90.000000
_cell_angle_beta 90.000000
_cell_angle_gamma 90.000000
_cell_volume 3351.903052
_symmetry_space_group_name_H-M "P N N M"
_symmetry_group_IT_number 58
_symmetry_cell_setting 'orthorhombic'
loop_
_space_group_symop_operation_xyz
x,y,z
-x,-y,z
1/2+x,1/2-y,1/2-z
1/2-x,1/2+y,1/2-z
-x,-y,-z
x,y,-z
1/2-x,1/2+y,1/2+z
1/2+x,1/2-y,1/2+z
loop_
_atom_site_type_symbol
_atom_site_label
_atom_site_fract_x
_atom_site_fract_y
_atom_site_fract_z
Si Si1 0.063139 0.044919 0.171489
Si Si2 0.325987 0.297308 0.827508
Si Si3 0.693491 0.216062 0.826101
Si Si4 0.452681 0.207448 0.174609
Si Si5 0.688322 0.045875 0.826307
Si Si6 0.063218 0.540533 0.324325
Si Si7 0.572001 0.284747 0.327415
Si Si8 0.179883 0.966768 0.327378
O O1 0.051314 0.131015 0.200668
O O2 0.125209 0.020100 0.264176
O O3 0.076843 0.027901 0.000000
O O4 0.000000 0.000000 0.227715
O O5 0.265284 0.264789 0.735811
O O6 0.391253 0.256211 0.776209
O O7 0.338166 0.382605 0.790276
O O8 0.311056 0.284378 0.000000
O O9 0.676413 0.131451 0.788002
O O10 0.641403 0.268998 0.748381
O O11 0.692270 0.231440 0.000000
O O12 0.436809 0.124904 0.226091
O O13 0.517294 0.233047 0.257356
O O14 0.466152 0.212805 0.000000
O O15 0.751445 0.012886 0.746334
O O16 0.627310 0.000161 0.762679
O O17 0.698448 0.034500 0.000000
O O18 0.062663 0.533698 0.500000
O O19 0.000000 0.500000 0.256895
O O20 0.578230 0.266892 0.500000
O O21 0.185973 0.981150 0.500000
#
# Coordination Sequence:
#
# PCOD8237082 Si02
#       8
#     8   8   8   8   8   8   8   8
#     4  10  22  39  57  77 103 138 180 222 266 322
#     4   9  19  35  54  80 113 144 175 216 268 321
#     4  10  20  35  57  81 107 143 183 221 262 316
#     4  10  20  35  56  79 105 139 177 217 264 321
#     4   9  18  34  56  80 108 144 182 217 257 313
#     4   9  17  31  53  79 104 133 175 221 258 301
#     4  11  23  37  55  79 108 140 176 225 276 320
#     4  10  20  34  54  80 110 141 174 218 267 314
#
# _framework density 19.093630999999998
#
# number of rings (size 3 to 8) (size 9 to 14) (size 15 to 20)
#    0.000    2.250    0.000    2.625    0.000    5.750 
#    0.000    3.125    0.000    1.500    0.000    0.000 
#    0.000    0.000    0.000    0.000    0.000    0.000 
#
# Total GULP energy -793873.662257 kJ/mol
# GULP energy per Si atom -12404.275973 kJ/mol
# Density = 1.905017 g / cm^3
# Si number density = 19.093631 Si / 1000 Ang^3
#
#
#
# Elastic Constant Matrix: (Units=GPa)
#
#
# Indices 1 2 3 4 5 6 
#
# 1 116.1281 30.5352 35.8810 0.0000 0.0000 0.0000
# 2 30.5352 57.0201 20.6181 0.0000 0.0000 0.0000
# 3 35.8810 20.6181 55.4647 0.0000 0.0000 0.0000
# 4 0.0000 0.0000 0.0000 17.1529 0.0000 0.0000
# 5 0.0000 0.0000 0.0000 0.0000 24.7541 0.0000
# 6 0.0000 0.0000 0.0000 0.0000 0.0000 41.7853
#
#
#
# Elastic Compliance Matrix: (Units=1/GPa)
#
#
# Indices 1 2 3 4 5 6 
#
# 1 0.011504 -0.004008 -0.005952 0.000000 0.000000 0.000000
# 2 -0.004008 0.021658 -0.005458 0.000000 0.000000 0.000000
# 3 -0.005952 -0.005458 0.023909 0.000000 0.000000 0.000000
# 4 0.000000 0.000000 0.000000 0.058299 0.000000 0.000000
# 5 0.000000 0.000000 0.000000 0.000000 0.040397 0.000000
# 6 0.000000 0.000000 0.000000 0.000000 0.000000 0.023932
#
#
# Mechanical properties :
#
#
# Convention : Reuss Voigt Hill
#
# Bulk Modulus (GPa) = 38.11841 44.74237 41.43039
# Shear Modulus (GPa) = 22.80178 26.17703 24.48941
#
# Velocity S-wave (km/s) = 3.45948 3.70669 3.58522
# Velocity P-wave (km/s) = 5.99705 6.46556 6.23571
#
# Compressibility (1/GPa) = 0.02623404
#
# Stress axis : x y z
#
# Youngs Moduli (GPa) = 86.92420 46.17278 41.82540
#
# Poissons Ratio (x) = 0.18508 0.24895
# Poissons Ratio (y) = 0.34843 0.22827
# Poissons Ratio (z) = 0.51739 0.25200
#
# Static dielectric constant tensor:
#      x y z
#    x 3.613290 0.000000 0.000000 
#    y 0.000000 3.512070 0.000000 
#    z 0.000000 0.000000 3.339530 
# 
# 
# High freq. dielectric constant tensor:
#      x y z
#    x 1.756190 0.000000 0.000000 
#    y 0.000000 1.742770 0.000000 
#    z 0.000000 0.000000 1.727930 
# 
# From -- ./inp_files/9289.got.cif
#   From: 2010.06.25/outbox.cif.g09.slc.cpg/sg58_5_cif.got.tgz:9289.got - 2010.06.26 21:38:00.
