data_PCOD8237707
_publ_section_title
;
Structure prediction by ZEFSAII (Michael W. Deem and Ramdas Pophale) SiO2 
 PCOD8237707
Probable space group: P N N M
;
_chemical_formula_sum "Si O2"
_cell_formula_units_Z 48
_cell_length_a 30.613030
_cell_length_b 10.292976
_cell_length_c 7.798081
_cell_angle_alpha 90.000000
_cell_angle_beta 90.000000
_cell_angle_gamma 90.000000
_cell_volume 2457.168953
_symmetry_space_group_name_H-M "P N N M"
_symmetry_group_IT_number 58
_symmetry_cell_setting 'orthorhombic'
loop_
_space_group_symop_operation_xyz
x,y,z
-x,-y,z
1/2+x,1/2-y,1/2-z
1/2-x,1/2+y,1/2-z
-x,-y,-z
x,y,-z
1/2-x,1/2+y,1/2+z
1/2+x,1/2-y,1/2+z
loop_
_atom_site_type_symbol
_atom_site_label
_atom_site_fract_x
_atom_site_fract_y
_atom_site_fract_z
Si Si1 0.481981 0.796873 0.500000
Si Si2 0.376620 0.161245 0.193763
Si Si3 0.283397 0.191878 0.695098
Si Si4 0.037196 0.106135 0.303230
Si Si5 0.070023 0.559222 0.000000
Si Si6 0.624148 0.542501 0.199296
Si Si7 0.281291 0.480966 0.306589
O O1 0.472497 0.722193 0.324604
O O2 0.532804 0.831933 0.500000
O O3 0.450556 0.918615 0.500000
O O4 0.324528 0.136175 0.200045
O O5 0.401149 0.069273 0.327891
O O6 0.386972 0.309268 0.247466
O O7 0.392901 0.130889 0.000000
O O8 0.298816 0.211685 0.500000
O O9 0.270283 0.335871 0.765910
O O10 0.243473 0.091507 0.699645
O O11 0.038304 0.156969 0.500000
O O12 0.083368 0.045320 0.247874
O O13 0.000000 0.000000 0.281211
O O14 0.666836 0.492815 0.298860
O O15 0.634959 0.532423 0.000000
O O16 0.264719 0.495502 0.500000
#
# Coordination Sequence:
#
# PCOD8237707 Si02
#       7
#     4   8   8   8   4   8   8
#     4  11  25  40  60  86 127 155 200 250 302 357
#     4  10  20  38  64  86 114 156 201 241 294 355
#     4  10  20  38  59  85 120 153 201 253 293 360
#     4  10  21  39  62  91 120 152 198 250 306 362
#     4  11  24  42  58  88 118 162 206 244 289 358
#     4   9  19  35  59  87 114 147 193 247 300 355
#     4  10  21  35  56  85 116 156 198 244 302 355
#
# _framework density 19.534676999999999
#
# number of rings (size 3 to 8) (size 9 to 14) (size 15 to 20)
#    0.000    2.000    0.833    2.250    2.333    4.667 
#    3.000    1.667    0.000    0.000    0.000    0.000 
#    0.000    0.000    0.000    0.000    0.000    0.000 
#
# Total GULP energy -595257.180222 kJ/mol
# GULP energy per Si atom -12401.191255 kJ/mol
# Density = 1.949022 g / cm^3
# Si number density = 19.534677 Si / 1000 Ang^3
#
#
#
# Elastic Constant Matrix: (Units=GPa)
#
#
# Indices 1 2 3 4 5 6 
#
# 1 109.3276 64.1525 41.3076 0.0000 0.0000 0.0000
# 2 64.1525 85.1954 38.1611 0.0000 0.0000 0.0000
# 3 41.3076 38.1611 92.5510 0.0000 0.0000 0.0000
# 4 0.0000 0.0000 0.0000 43.8873 0.0000 0.0000
# 5 0.0000 0.0000 0.0000 0.0000 24.8106 0.0000
# 6 0.0000 0.0000 0.0000 0.0000 0.0000 30.0222
#
#
#
# Elastic Compliance Matrix: (Units=1/GPa)
#
#
# Indices 1 2 3 4 5 6 
#
# 1 0.016970 -0.011512 -0.002827 0.000000 0.000000 0.000000
# 2 -0.011512 0.022206 -0.004018 0.000000 0.000000 0.000000
# 3 -0.002827 -0.004018 0.013724 0.000000 0.000000 0.000000
# 4 0.000000 0.000000 0.000000 0.022786 0.000000 0.000000
# 5 0.000000 0.000000 0.000000 0.000000 0.040305 0.000000
# 6 0.000000 0.000000 0.000000 0.000000 0.000000 0.033309
#
#
# Mechanical properties :
#
#
# Convention : Reuss Voigt Hill
#
# Bulk Modulus (GPa) = 61.78677 63.81293 62.79985
# Shear Modulus (GPa) = 26.12186 29.30755 27.71470
#
# Velocity S-wave (km/s) = 3.66075 3.87755 3.77071
# Velocity P-wave (km/s) = 7.04032 7.26530 7.15369
#
# Compressibility (1/GPa) = 0.01618469
#
# Stress axis : x y z
#
# Youngs Moduli (GPa) = 58.92579 45.03223 72.86742
#
# Poissons Ratio (x) = 0.51843 0.20603
# Poissons Ratio (y) = 0.67837 0.29278
# Poissons Ratio (z) = 0.16661 0.18094
#
# Static dielectric constant tensor:
#      x y z
#    x 3.532650 0.000000 0.000000 
#    y 0.000000 3.381660 0.000000 
#    z 0.000000 0.000000 3.592210 
# 
# 
# High freq. dielectric constant tensor:
#      x y z
#    x 1.764140 0.000000 0.000000 
#    y 0.000000 1.741110 0.000000 
#    z 0.000000 0.000000 1.771800 
# 
# From -- ./inp_files/10767.got.cif
#   From: 2010.06.25/outbox.cif.g09.slc.cpg/sg58_6_cif.got.tgz:10767.got - 2010.06.26 21:38:00.
