data_PCOD8237290
_publ_section_title
;
Structure prediction by ZEFSAII (Michael W. Deem and Ramdas Pophale) SiO2 
 PCOD8237290
Probable space group: P N N M
;
_chemical_formula_sum "Si O2"
_cell_formula_units_Z 48
_cell_length_a 8.734278
_cell_length_b 9.869696
_cell_length_c 27.330907
_cell_angle_alpha 90.000000
_cell_angle_beta 90.000000
_cell_angle_gamma 90.000000
_cell_volume 2356.051782
_symmetry_space_group_name_H-M "P N N M"
_symmetry_group_IT_number 58
_symmetry_cell_setting 'orthorhombic'
loop_
_space_group_symop_operation_xyz
x,y,z
-x,-y,z
1/2+x,1/2-y,1/2-z
1/2-x,1/2+y,1/2-z
-x,-y,-z
x,y,-z
1/2-x,1/2+y,1/2+z
1/2+x,1/2-y,1/2+z
loop_
_atom_site_type_symbol
_atom_site_label
_atom_site_fract_x
_atom_site_fract_y
_atom_site_fract_z
Si Si1 0.320449 0.971400 0.352095
Si Si2 0.591088 0.135401 0.553344
Si Si3 0.117613 0.881280 0.053550
Si Si4 0.835161 0.784608 0.304527
Si Si5 0.823847 0.519018 0.360397
Si Si6 0.191985 0.735775 0.296966
O O1 0.281761 0.897380 0.404535
O O2 0.290759 0.868285 0.308075
O O3 0.500000 0.000000 0.351615
O O4 0.215466 0.104835 0.345309
O O5 0.662720 0.180003 0.500000
O O6 0.472377 0.248990 0.573374
O O7 0.500000 0.000000 0.543631
O O8 0.246742 0.936156 0.089465
O O9 0.190241 0.847853 0.000000
O O10 0.000000 0.000000 0.047115
O O11 0.787951 0.634919 0.321026
O O12 0.742100 0.821218 0.255579
O O13 0.016712 0.784872 0.296521
O O14 0.766181 0.378145 0.337269
O O15 0.000000 0.500000 0.372829
#
# Coordination Sequence:
#
# PCOD8237290 Si02
#       6
#     8   8   8   8   8   8
#     4  11  21  36  59  85 114 150 189 232 286 340
#     4   9  18  33  55  83 112 144 186 233 278 331
#     4  10  20  35  57  85 113 145 188 232 277 335
#     4  11  23  39  58  83 112 149 194 238 285 341
#     4  10  22  38  56  81 114 148 186 234 285 338
#     4  11  23  39  58  82 114 149 192 239 286 340
#
# _framework density 20.373069000000001
#
# number of rings (size 3 to 8) (size 9 to 14) (size 15 to 20)
#    0.000    1.667    0.000    5.500    0.000    3.000 
#    0.000    0.000    0.000    4.000    0.000    0.000 
#    0.000    0.000    0.000    0.000    0.000    0.000 
#
# Total GULP energy -594893.019746 kJ/mol
# GULP energy per Si atom -12393.604578 kJ/mol
# Density = 2.032670 g / cm^3
# Si number density = 20.373069 Si / 1000 Ang^3
#
#
#
# Elastic Constant Matrix: (Units=GPa)
#
#
# Indices 1 2 3 4 5 6 
#
# 1 66.2532 47.3285 56.8273 0.0000 0.0000 0.0000
# 2 47.3285 125.1142 38.2574 0.0000 0.0000 0.0000
# 3 56.8273 38.2574 126.1682 0.0000 0.0000 0.0000
# 4 0.0000 0.0000 0.0000 28.7905 0.0000 0.0000
# 5 0.0000 0.0000 0.0000 0.0000 26.4988 0.0000
# 6 0.0000 0.0000 0.0000 0.0000 0.0000 31.8061
#
#
#
# Elastic Compliance Matrix: (Units=1/GPa)
#
#
# Indices 1 2 3 4 5 6 
#
# 1 0.030602 -0.008114 -0.011323 0.000000 0.000000 0.000000
# 2 -0.008114 0.010961 0.000331 0.000000 0.000000 0.000000
# 3 -0.011323 0.000331 0.012926 0.000000 0.000000 0.000000
# 4 0.000000 0.000000 0.000000 0.034734 0.000000 0.000000
# 5 0.000000 0.000000 0.000000 0.000000 0.037738 0.000000
# 6 0.000000 0.000000 0.000000 0.000000 0.000000 0.031441
#
#
# Mechanical properties :
#
#
# Convention : Reuss Voigt Hill
#
# Bulk Modulus (GPa) = 61.43850 66.92911 64.18380
# Shear Modulus (GPa) = 24.74790 29.09389 26.92089
#
# Velocity S-wave (km/s) = 3.48909 3.78306 3.63904
# Velocity P-wave (km/s) = 6.81570 7.21146 7.01637
#
# Compressibility (1/GPa) = 0.01627644
#
# Stress axis : x y z
#
# Youngs Moduli (GPa) = 32.67777 91.23421 77.36589
#
# Poissons Ratio (x) = 0.74025 0.87602
# Poissons Ratio (y) = 0.26514 -0.02560
# Poissons Ratio (z) = 0.37001 -0.03019
#
# Static dielectric constant tensor:
#      x y z
#    x 3.446850 0.000000 0.000000 
#    y 0.000000 3.940550 0.000000 
#    z 0.000000 0.000000 4.338570 
# 
# 
# High freq. dielectric constant tensor:
#      x y z
#    x 1.760240 0.000000 0.000000 
#    y 0.000000 1.820600 0.000000 
#    z 0.000000 0.000000 1.808160 
# 
# From -- ./inp_files/34577.got.cif
#   From: 2010.06.25/outbox.cif.g09.slc.cpg/sg58_18_cif.got.tgz:34577.got - 2010.06.26 21:38:00.
