data_PCOD8237796
_publ_section_title
;
Structure prediction by ZEFSAII (Michael W. Deem and Ramdas Pophale) SiO2 
 PCOD8237796
Probable space group: P N N M
;
_chemical_formula_sum "Si O2"
_cell_formula_units_Z 64
_cell_length_a 15.629882
_cell_length_b 10.057439
_cell_length_c 20.707319
_cell_angle_alpha 90.000000
_cell_angle_beta 90.000000
_cell_angle_gamma 90.000000
_cell_volume 3255.119827
_symmetry_space_group_name_H-M "P N N M"
_symmetry_group_IT_number 58
_symmetry_cell_setting 'orthorhombic'
loop_
_space_group_symop_operation_xyz
x,y,z
-x,-y,z
1/2+x,1/2-y,1/2-z
1/2-x,1/2+y,1/2-z
-x,-y,-z
x,y,-z
1/2-x,1/2+y,1/2+z
1/2+x,1/2-y,1/2+z
loop_
_atom_site_type_symbol
_atom_site_label
_atom_site_fract_x
_atom_site_fract_y
_atom_site_fract_z
Si Si1 0.434820 0.881013 0.709950
Si Si2 0.822307 0.135841 0.129190
Si Si3 0.002354 0.148510 0.122277
Si Si4 0.434117 0.677735 0.809907
Si Si5 0.766999 0.601170 0.868264
Si Si6 0.820032 0.866203 0.929310
Si Si7 0.687723 0.341751 0.923826
Si Si8 0.120085 0.900758 0.271680
O O1 0.482923 0.756928 0.677466
O O2 0.404641 0.819764 0.779070
O O3 0.356262 0.934635 0.667227
O O4 0.500000 0.000000 0.721536
O O5 0.746489 0.228259 0.106679
O O6 0.855383 0.158580 0.202155
O O7 0.909297 0.168860 0.087979
O O8 0.792869 0.982904 0.119778
O O9 0.077325 0.156626 0.069944
O O10 0.000000 0.000000 0.155664
O O11 0.402154 0.666347 0.884637
O O12 0.388314 0.560646 0.769135
O O13 0.536576 0.664065 0.805321
O O14 0.774648 0.729080 0.913125
O O15 0.736462 0.480407 0.913187
O O16 0.698916 0.641337 0.815277
O O17 0.790768 0.911104 0.000000
O O18 0.670459 0.319825 0.000000
#
# Coordination Sequence:
#
# PCOD8237796 Si02
#       8
#     8   8   8   8   8   8   8   8
#     4  11  20  35  57  92 126 146 189 248 319 359
#     4  11  20  34  61  88 117 154 196 250 300 357
#     4   9  18  32  55  83 115 158 194 237 286 355
#     4  10  21  39  62  87 119 155 194 256 297 352
#     4  10  22  38  59  88 116 157 197 251 296 346
#     4  10  21  36  55  83 121 159 195 234 288 359
#     4  11  24  41  59  85 123 163 202 238 297 367
#     4  10  20  38  65  91 110 147 210 256 300 337
#
# _framework density 19.661335000000001
#
# number of rings (size 3 to 8) (size 9 to 14) (size 15 to 20)
#    0.000    1.750    1.250    4.500    1.750    3.750 
#    2.250    5.625    0.000    4.500    0.000    0.000 
#    0.000    0.000    0.000    0.000    0.000    0.000 
#
# Total GULP energy -793209.079409 kJ/mol
# GULP energy per Si atom -12393.891866 kJ/mol
# Density = 1.961659 g / cm^3
# Si number density = 19.661335 Si / 1000 Ang^3
#
#
#
# Elastic Constant Matrix: (Units=GPa)
#
#
# Indices 1 2 3 4 5 6 
#
# 1 83.3187 41.3097 51.7141 0.0000 0.0000 0.0000
# 2 41.3097 94.1825 47.3567 0.0000 0.0000 0.0000
# 3 51.7141 47.3567 117.9811 0.0000 0.0000 0.0000
# 4 0.0000 0.0000 0.0000 16.8759 0.0000 0.0000
# 5 0.0000 0.0000 0.0000 0.0000 19.3621 0.0000
# 6 0.0000 0.0000 0.0000 0.0000 0.0000 24.9196
#
#
#
# Elastic Compliance Matrix: (Units=1/GPa)
#
#
# Indices 1 2 3 4 5 6 
#
# 1 0.018171 -0.004968 -0.005971 0.000000 0.000000 0.000000
# 2 -0.004968 0.014661 -0.003707 0.000000 0.000000 0.000000
# 3 -0.005971 -0.003707 0.012581 0.000000 0.000000 0.000000
# 4 0.000000 0.000000 0.000000 0.059256 0.000000 0.000000
# 5 0.000000 0.000000 0.000000 0.000000 0.051647 0.000000
# 6 0.000000 0.000000 0.000000 0.000000 0.000000 0.040129
#
#
# Mechanical properties :
#
#
# Convention : Reuss Voigt Hill
#
# Bulk Modulus (GPa) = 62.02977 64.02703 63.02840
# Shear Modulus (GPa) = 21.63465 22.57164 22.10315
#
# Velocity S-wave (km/s) = 3.32077 3.39192 3.35654
# Velocity P-wave (km/s) = 6.80595 6.92646 6.86647
#
# Compressibility (1/GPa) = 0.01612129
#
# Stress axis : x y z
#
# Youngs Moduli (GPa) = 55.03237 68.20965 79.48427
#
# Poissons Ratio (x) = 0.33886 0.47458
# Poissons Ratio (y) = 0.27339 0.29466
# Poissons Ratio (z) = 0.32859 0.25286
#
# Static dielectric constant tensor:
#      x y z
#    x 3.712970 0.000000 0.000000 
#    y 0.000000 3.584210 0.000000 
#    z 0.000000 0.000000 3.449670 
# 
# 
# High freq. dielectric constant tensor:
#      x y z
#    x 1.764190 0.000000 0.000000 
#    y 0.000000 1.766810 0.000000 
#    z 0.000000 0.000000 1.747260 
# 
# From -- ./inp_files/30302.got.cif
#   From: 2010.06.25/outbox.cif.g09.slc.cpg/sg58_16_cif.got.tgz:30302.got - 2010.06.26 21:38:00.
