data_PCOD8237273
_publ_section_title
;
Structure prediction by ZEFSAII (Michael W. Deem and Ramdas Pophale) SiO2 
 PCOD8237273
Probable space group: P N N M
;
_chemical_formula_sum "Si O2"
_cell_formula_units_Z 64
_cell_length_a 15.405247
_cell_length_b 24.075938
_cell_length_c 8.798183
_cell_angle_alpha 90.000000
_cell_angle_beta 90.000000
_cell_angle_gamma 90.000000
_cell_volume 3263.208873
_symmetry_space_group_name_H-M "P N N M"
_symmetry_group_IT_number 58
_symmetry_cell_setting 'orthorhombic'
loop_
_space_group_symop_operation_xyz
x,y,z
-x,-y,z
1/2+x,1/2-y,1/2-z
1/2-x,1/2+y,1/2-z
-x,-y,-z
x,y,-z
1/2-x,1/2+y,1/2+z
1/2+x,1/2-y,1/2+z
loop_
_atom_site_type_symbol
_atom_site_label
_atom_site_fract_x
_atom_site_fract_y
_atom_site_fract_z
Si Si1 0.659770 0.869614 0.323801
Si Si2 0.145170 0.359664 0.322106
Si Si3 0.143411 0.134085 0.675349
Si Si4 0.162047 0.865395 0.177878
Si Si5 0.902914 0.753181 0.821723
Si Si6 0.102826 0.748564 0.179049
Si Si7 0.995107 0.062218 0.180480
Si Si8 0.009957 0.562133 0.320007
O O1 0.632790 0.869985 0.500000
O O2 0.758950 0.888168 0.300473
O O3 0.644931 0.807788 0.254017
O O4 0.600223 0.913413 0.237335
O O5 0.132906 0.346057 0.500000
O O6 0.240122 0.386562 0.290936
O O7 0.142601 0.303488 0.226796
O O8 0.071886 0.401752 0.261673
O O9 0.116044 0.131625 0.500000
O O10 0.141764 0.197276 0.730828
O O11 0.079853 0.095934 0.771992
O O12 0.148443 0.803594 0.248518
O O13 0.091887 0.908459 0.247255
O O14 0.142596 0.861160 0.000000
O O15 0.002839 0.750200 0.773773
O O16 0.891311 0.763401 0.000000
O O17 0.115941 0.747900 0.000000
O O18 0.992534 0.060432 0.000000
O O19 0.000000 0.000000 0.247723
O O20 0.011403 0.561360 0.500000
O O21 0.000000 0.500000 0.254839
#
# Coordination Sequence:
#
# PCOD8237273 Si02
#       8
#     8   8   8   8   8   8   8   8
#     4  10  21  38  59  83 111 153 195 229 280 345
#     4  10  20  35  57  82 111 148 187 229 284 342
#     4  11  23  38  59  86 117 151 188 233 287 340
#     4   9  17  33  56  81 110 146 184 223 275 340
#     4  11  20  34  59  86 113 145 185 233 284 342
#     4   9  16  30  55  80 106 140 182 228 273 331
#     4  10  21  38  61  86 112 151 198 236 277 333
#     4  10  22  38  56  83 117 150 189 242 290 326
#
# _framework density 19.612596
#
# number of rings (size 3 to 8) (size 9 to 14) (size 15 to 20)
#    0.000    2.000    2.500    1.500    0.000    4.500 
#    0.000    3.125    0.000    0.000    0.000    0.000 
#    0.000    0.000    0.000    0.000    0.000    0.000 
#
# Total GULP energy -793618.088891 kJ/mol
# GULP energy per Si atom -12400.282639 kJ/mol
# Density = 1.956796 g / cm^3
# Si number density = 19.612596 Si / 1000 Ang^3
#
#
#
# Elastic Constant Matrix: (Units=GPa)
#
#
# Indices 1 2 3 4 5 6 
#
# 1 109.8863 47.3697 11.5478 0.0000 0.0000 0.0000
# 2 47.3697 136.1786 7.2176 0.0000 0.0000 0.0000
# 3 11.5478 7.2176 8.6308 0.0000 0.0000 0.0000
# 4 0.0000 0.0000 0.0000 20.2114 0.0000 0.0000
# 5 0.0000 0.0000 0.0000 0.0000 24.4445 0.0000
# 6 0.0000 0.0000 0.0000 0.0000 0.0000 14.7773
#
#
#
# Elastic Compliance Matrix: (Units=1/GPa)
#
#
# Indices 1 2 3 4 5 6 
#
# 1 0.011975 -0.003470 -0.013120 0.000000 0.000000 0.000000
# 2 -0.003470 0.008689 -0.002624 0.000000 0.000000 0.000000
# 3 -0.013120 -0.002624 0.135613 0.000000 0.000000 0.000000
# 4 0.000000 0.000000 0.000000 0.049477 0.000000 0.000000
# 5 0.000000 0.000000 0.000000 0.000000 0.040909 0.000000
# 6 0.000000 0.000000 0.000000 0.000000 0.000000 0.067672
#
#
# Mechanical properties :
#
#
# Convention : Reuss Voigt Hill
#
# Bulk Modulus (GPa) = 8.48544 42.99621 25.74082
# Shear Modulus (GPa) = 12.75360 24.45735 18.60547
#
# Velocity S-wave (km/s) = 2.55282 3.53515 3.08336
# Velocity P-wave (km/s) = 3.60903 6.21558 5.08225
#
# Compressibility (1/GPa) = 0.11784898
#
# Stress axis : x y z
#
# Youngs Moduli (GPa) = 83.50719 115.08234 7.37393
#
# Poissons Ratio (x) = 0.39935 0.09675
# Poissons Ratio (y) = 0.28978 0.01935
# Poissons Ratio (z) = 1.09565 0.30193
#
# Static dielectric constant tensor:
#      x y z
#    x 3.685020 0.000000 0.000000 
#    y 0.000000 3.770710 0.000000 
#    z 0.000000 0.000000 3.216380 
# 
# 
# High freq. dielectric constant tensor:
#      x y z
#    x 1.778070 0.000000 0.000000 
#    y 0.000000 1.764590 0.000000 
#    z 0.000000 0.000000 1.728560 
# 
# From -- ./inp_files/6952.got.cif
#   From: 2010.06.25/outbox.cif.g09.slc.cpg/sg58_4_cif.got.tgz:6952.got - 2010.06.26 21:38:00.
