data_PCOD8237091
_publ_section_title
;
Structure prediction by ZEFSAII (Michael W. Deem and Ramdas Pophale) SiO2 
 PCOD8237091
Probable space group: P N N M
;
_chemical_formula_sum "Si O2"
_cell_formula_units_Z 64
_cell_length_a 32.725469
_cell_length_b 10.189988
_cell_length_c 9.213740
_cell_angle_alpha 90.000000
_cell_angle_beta 90.000000
_cell_angle_gamma 90.000000
_cell_volume 3072.525562
_symmetry_space_group_name_H-M "P N N M"
_symmetry_group_IT_number 58
_symmetry_cell_setting 'orthorhombic'
loop_
_space_group_symop_operation_xyz
x,y,z
-x,-y,z
1/2+x,1/2-y,1/2-z
1/2-x,1/2+y,1/2-z
-x,-y,-z
x,y,-z
1/2-x,1/2+y,1/2+z
1/2+x,1/2-y,1/2+z
loop_
_atom_site_type_symbol
_atom_site_label
_atom_site_fract_x
_atom_site_fract_y
_atom_site_fract_z
Si Si1 0.616276 0.860107 0.164767
Si Si2 0.226220 0.979351 0.329922
Si Si3 0.471687 0.224682 0.167926
Si Si4 0.148426 0.879504 0.833305
Si Si5 0.218015 0.276017 0.332228
Si Si6 0.951093 0.738225 0.164651
Si Si7 0.059341 0.962109 0.838331
Si Si8 0.627759 0.157429 0.164779
O O1 0.567706 0.865957 0.201692
O O2 0.640372 0.766355 0.273674
O O3 0.635189 0.002819 0.184710
O O4 0.621756 0.807990 0.000000
O O5 0.222474 0.951711 0.500000
O O6 0.183151 0.949693 0.257357
O O7 0.260940 0.886076 0.265484
O O8 0.237074 0.132327 0.300239
O O9 0.511391 0.168289 0.251515
O O10 0.461351 0.372020 0.217980
O O11 0.483116 0.226497 0.000000
O O12 0.108116 0.967912 0.815165
O O13 0.162387 0.866629 0.000000
O O14 0.224201 0.315444 0.500000
O O15 0.169937 0.271068 0.293929
O O16 0.907423 0.705760 0.230294
O O17 0.958986 0.893549 0.176368
O O18 0.951200 0.688639 0.000000
O O19 0.049986 0.905403 0.000000
O O20 0.614735 0.189975 0.000000
#
# Coordination Sequence:
#
# PCOD8237091 Si02
#       8
#     8   8   8   8   8   8   8   8
#     4   9  20  38  59  85 116 157 203 248 303 360
#     4  11  24  41  64  94 127 161 199 248 302 363
#     4  10  20  34  54  82 114 149 197 248 296 356
#     4  10  20  36  61  88 118 153 196 245 299 360
#     4  10  24  44  65  94 126 159 204 251 304 368
#     4  11  22  35  54  80 114 153 196 243 300 362
#     4   9  19  35  54  80 114 151 189 240 299 357
#     4  10  22  41  62  82 113 154 199 248 299 359
#
# _framework density 20.829768999999999
#
# number of rings (size 3 to 8) (size 9 to 14) (size 15 to 20)
#    0.000    2.000    0.000    2.625    1.750    6.000 
#    0.000    2.500    0.000    0.000    0.000    0.000 
#    0.000    0.000    0.000    0.000    0.000    0.000 
#
# Total GULP energy -793775.459576 kJ/mol
# GULP energy per Si atom -12402.741556 kJ/mol
# Density = 2.078236 g / cm^3
# Si number density = 20.829769 Si / 1000 Ang^3
#
#
#
# Elastic Constant Matrix: (Units=GPa)
#
#
# Indices 1 2 3 4 5 6 
#
# 1 88.7515 27.8048 57.3514 0.0000 0.0000 0.0000
# 2 27.8048 64.3429 43.5406 0.0000 0.0000 0.0000
# 3 57.3514 43.5406 127.6653 0.0000 0.0000 0.0000
# 4 0.0000 0.0000 0.0000 28.2432 0.0000 0.0000
# 5 0.0000 0.0000 0.0000 0.0000 41.1646 0.0000
# 6 0.0000 0.0000 0.0000 0.0000 0.0000 26.9975
#
#
#
# Elastic Compliance Matrix: (Units=1/GPa)
#
#
# Indices 1 2 3 4 5 6 
#
# 1 0.016230 -0.002704 -0.006369 0.000000 0.000000 0.000000
# 2 -0.002704 0.020655 -0.005830 0.000000 0.000000 0.000000
# 3 -0.006369 -0.005830 0.012682 0.000000 0.000000 0.000000
# 4 0.000000 0.000000 0.000000 0.035407 0.000000 0.000000
# 5 0.000000 0.000000 0.000000 0.000000 0.024293 0.000000
# 6 0.000000 0.000000 0.000000 0.000000 0.000000 0.037040
#
#
# Mechanical properties :
#
#
# Convention : Reuss Voigt Hill
#
# Bulk Modulus (GPa) = 50.60090 59.79481 55.19785
# Shear Modulus (GPa) = 27.36722 29.41858 28.39290
#
# Velocity S-wave (km/s) = 3.62864 3.76218 3.69601
# Velocity P-wave (km/s) = 6.47313 6.90223 6.69112
#
# Compressibility (1/GPa) = 0.01976249
#
# Stress axis : x y z
#
# Youngs Moduli (GPa) = 61.61390 48.41407 78.84930
#
# Poissons Ratio (x) = 0.13090 0.50219
# Poissons Ratio (y) = 0.16659 0.45968
# Poissons Ratio (z) = 0.39242 0.28225
#
# Static dielectric constant tensor:
#      x y z
#    x 3.787580 0.000000 0.000000 
#    y 0.000000 3.621190 0.000000 
#    z 0.000000 0.000000 3.835320 
# 
# 
# High freq. dielectric constant tensor:
#      x y z
#    x 1.824340 0.000000 0.000000 
#    y 0.000000 1.804680 0.000000 
#    z 0.000000 0.000000 1.818640 
# 
# From -- ./inp_files/11012.got.cif
#   From: 2010.06.25/outbox.cif.g09.slc.cpg/sg58_6_cif.got.tgz:11012.got - 2010.06.26 21:38:00.
