data_PCOD8237675
_publ_section_title
;
Structure prediction by ZEFSAII (Michael W. Deem and Ramdas Pophale) SiO2 
 PCOD8237675
Probable space group: P N N M
;
_chemical_formula_sum "Si O2"
_cell_formula_units_Z 64
_cell_length_a 14.676816
_cell_length_b 24.787533
_cell_length_c 8.754896
_cell_angle_alpha 90.000000
_cell_angle_beta 90.000000
_cell_angle_gamma 90.000000
_cell_volume 3185.049208
_symmetry_space_group_name_H-M "P N N M"
_symmetry_group_IT_number 58
_symmetry_cell_setting 'orthorhombic'
loop_
_space_group_symop_operation_xyz
x,y,z
-x,-y,z
1/2+x,1/2-y,1/2-z
1/2-x,1/2+y,1/2-z
-x,-y,-z
x,y,-z
1/2-x,1/2+y,1/2+z
1/2+x,1/2-y,1/2+z
loop_
_atom_site_type_symbol
_atom_site_label
_atom_site_fract_x
_atom_site_fract_y
_atom_site_fract_z
Si Si1 0.061419 0.364571 0.672149
Si Si2 0.662031 0.733363 0.818935
Si Si3 0.368729 0.760391 0.320097
Si Si4 0.761029 0.451362 0.320798
Si Si5 0.051640 0.053365 0.178101
Si Si6 0.641523 0.849896 0.828444
Si Si7 0.093535 0.472944 0.179645
Si Si8 0.011564 0.168369 0.681408
O O1 0.097375 0.355689 0.500000
O O2 0.069854 0.309798 0.766808
O O3 0.112683 0.414394 0.748465
O O4 0.955233 0.379514 0.674576
O O5 0.766181 0.722545 0.768688
O O6 0.638793 0.792036 0.745469
O O7 0.586806 0.690739 0.756850
O O8 0.651760 0.733142 0.000000
O O9 0.374231 0.752218 0.500000
O O10 0.405350 0.704825 0.246022
O O11 0.785905 0.456933 0.500000
O O12 0.655958 0.460388 0.288005
O O13 0.786296 0.391676 0.257043
O O14 0.817972 0.493676 0.223920
O O15 0.019497 0.106561 0.266636
O O16 0.033295 0.063816 0.000000
O O17 0.000000 0.000000 0.237138
O O18 0.674447 0.837571 0.000000
O O19 0.000000 0.500000 0.242067
O O20 0.087158 0.465861 0.000000
O O21 0.017241 0.171059 0.500000
#
# Coordination Sequence:
#
# PCOD8237675 Si02
#       8
#     8   8   8   8   8   8   8   8
#     4  11  21  36  59  84 117 157 197 239 289 357
#     4   9  19  36  59  87 120 159 197 236 292 359
#     4  11  22  38  61  90 124 158 196 247 301 348
#     4  10  20  37  63  88 114 160 207 242 295 365
#     4  10  23  43  65  90 120 154 199 256 307 349
#     4   9  16  31  57  83 110 150 198 236 276 345
#     4  11  23  37  55  85 123 154 192 248 301 349
#     4  11  22  40  65  91 120 159 204 245 294 362
#
# _framework density 20.093882000000001
#
# number of rings (size 3 to 8) (size 9 to 14) (size 15 to 20)
#    0.000    1.750    2.500    2.250    0.000    4.250 
#    0.000    5.000    0.000    0.000    0.000    0.000 
#    0.000    0.000    0.000    0.000    0.000    0.000 
#
# Total GULP energy -793358.908459 kJ/mol
# GULP energy per Si atom -12396.232945 kJ/mol
# Density = 2.004815 g / cm^3
# Si number density = 20.093882 Si / 1000 Ang^3
#
#
#
# Elastic Constant Matrix: (Units=GPa)
#
#
# Indices 1 2 3 4 5 6 
#
# 1 111.3285 54.0152 37.9015 0.0000 0.0000 0.0000
# 2 54.0152 147.0319 38.1486 0.0000 0.0000 0.0000
# 3 37.9015 38.1486 59.1992 0.0000 0.0000 0.0000
# 4 0.0000 0.0000 0.0000 32.5664 0.0000 0.0000
# 5 0.0000 0.0000 0.0000 0.0000 21.3994 0.0000
# 6 0.0000 0.0000 0.0000 0.0000 0.0000 33.9397
#
#
#
# Elastic Compliance Matrix: (Units=1/GPa)
#
#
# Indices 1 2 3 4 5 6 
#
# 1 0.012514 -0.003024 -0.006063 0.000000 0.000000 0.000000
# 2 -0.003024 0.008898 -0.003798 0.000000 0.000000 0.000000
# 3 -0.006063 -0.003798 0.023221 0.000000 0.000000 0.000000
# 4 0.000000 0.000000 0.000000 0.030707 0.000000 0.000000
# 5 0.000000 0.000000 0.000000 0.000000 0.046730 0.000000
# 6 0.000000 0.000000 0.000000 0.000000 0.000000 0.029464
#
#
# Mechanical properties :
#
#
# Convention : Reuss Voigt Hill
#
# Bulk Modulus (GPa) = 53.01360 64.18780 58.60070
# Shear Modulus (GPa) = 27.23454 30.08070 28.65762
#
# Velocity S-wave (km/s) = 3.68552 3.87332 3.78059
# Velocity P-wave (km/s) = 6.67465 7.21226 6.94866
#
# Compressibility (1/GPa) = 0.01886308
#
# Stress axis : x y z
#
# Youngs Moduli (GPa) = 79.91147 112.39100 43.06431
#
# Poissons Ratio (x) = 0.33988 0.26110
# Poissons Ratio (y) = 0.24166 0.16354
# Poissons Ratio (z) = 0.48451 0.42681
#
# Static dielectric constant tensor:
#      x y z
#    x 3.754870 0.000000 0.000000 
#    y 0.000000 3.772020 0.000000 
#    z 0.000000 0.000000 3.382580 
# 
# 
# High freq. dielectric constant tensor:
#      x y z
#    x 1.787730 0.000000 0.000000 
#    y 0.000000 1.794960 0.000000 
#    z 0.000000 0.000000 1.757080 
# 
# From -- ./inp_files/6738.got.cif
#   From: 2010.06.25/outbox.cif.g09.slc.cpg/sg58_4_cif.got.tgz:6738.got - 2010.06.26 21:38:00.
