data_PCOD8237771
_publ_section_title
;
Structure prediction by ZEFSAII (Michael W. Deem and Ramdas Pophale) SiO2 
 PCOD8237771
Probable space group: P N N M
;
_chemical_formula_sum "Si O2"
_cell_formula_units_Z 48
_cell_length_a 9.869247
_cell_length_b 26.914503
_cell_length_c 9.206329
_cell_angle_alpha 90.000000
_cell_angle_beta 90.000000
_cell_angle_gamma 90.000000
_cell_volume 2445.439224
_symmetry_space_group_name_H-M "P N N M"
_symmetry_group_IT_number 58
_symmetry_cell_setting 'orthorhombic'
loop_
_space_group_symop_operation_xyz
x,y,z
-x,-y,z
1/2+x,1/2-y,1/2-z
1/2-x,1/2+y,1/2-z
-x,-y,-z
x,y,-z
1/2-x,1/2+y,1/2+z
1/2+x,1/2-y,1/2+z
loop_
_atom_site_type_symbol
_atom_site_label
_atom_site_fract_x
_atom_site_fract_y
_atom_site_fract_z
Si Si1 0.113494 0.716965 0.829010
Si Si2 0.077020 0.209575 0.333178
Si Si3 0.212925 0.043063 0.169532
Si Si4 0.736302 0.069917 0.831584
Si Si5 0.508854 0.598841 0.167957
Si Si6 0.450017 0.116862 0.830467
O O1 0.271011 0.725649 0.790312
O O2 0.056318 0.667349 0.758030
O O3 0.029827 0.763453 0.769659
O O4 0.092470 0.712673 0.000000
O O5 0.044873 0.223329 0.500000
O O6 0.065767 0.150946 0.306689
O O7 0.330542 0.080397 0.219045
O O8 0.076359 0.055406 0.255581
O O9 0.259665 0.987922 0.210091
O O10 0.181001 0.048264 0.000000
O O11 0.842765 0.101218 0.737920
O O12 0.588944 0.089704 0.791524
O O13 0.770319 0.078210 0.000000
O O14 0.522658 0.585627 0.000000
O O15 0.439969 0.129628 0.000000
#
# Coordination Sequence:
#
# PCOD8237771 Si02
#       6
#     8   8   8   8   8   8
#     4  11  24  42  65  90 118 153 196 245 297 352
#     4  10  24  44  62  87 121 155 195 244 295 354
#     4  10  20  38  63  88 118 159 202 243 292 348
#     4  10  22  38  59  90 123 157 201 245 286 347
#     4  11  23  40  60  86 123 159 196 245 298 349
#     4  10  21  39  63  89 121 157 196 244 298 349
#
# _framework density 19.628374000000001
#
# number of rings (size 3 to 8) (size 9 to 14) (size 15 to 20)
#    0.000    1.667    1.667    2.000    2.333    8.000 
#    0.000    0.000    0.000    3.000    0.000    0.000 
#    0.000    0.000    0.000    0.000    0.000    0.000 
#
# Total GULP energy -595514.669254 kJ/mol
# GULP energy per Si atom -12406.555609 kJ/mol
# Density = 1.958370 g / cm^3
# Si number density = 19.628374 Si / 1000 Ang^3
#
#
#
# Elastic Constant Matrix: (Units=GPa)
#
#
# Indices 1 2 3 4 5 6 
#
# 1 93.4038 24.7589 41.2716 0.0000 0.0000 0.0000
# 2 24.7589 57.2502 30.6033 0.0000 0.0000 0.0000
# 3 41.2716 30.6033 62.9612 0.0000 0.0000 0.0000
# 4 0.0000 0.0000 0.0000 28.0037 0.0000 0.0000
# 5 0.0000 0.0000 0.0000 0.0000 28.6223 0.0000
# 6 0.0000 0.0000 0.0000 0.0000 0.0000 38.3529
#
#
#
# Elastic Compliance Matrix: (Units=1/GPa)
#
#
# Indices 1 2 3 4 5 6 
#
# 1 0.015191 -0.001684 -0.009139 0.000000 0.000000 0.000000
# 2 -0.001684 0.023786 -0.010457 0.000000 0.000000 0.000000
# 3 -0.009139 -0.010457 0.026957 0.000000 0.000000 0.000000
# 4 0.000000 0.000000 0.000000 0.035710 0.000000 0.000000
# 5 0.000000 0.000000 0.000000 0.000000 0.034938 0.000000
# 6 0.000000 0.000000 0.000000 0.000000 0.000000 0.026074
#
#
# Mechanical properties :
#
#
# Convention : Reuss Voigt Hill
#
# Bulk Modulus (GPa) = 42.78693 45.20921 43.99807
# Shear Modulus (GPa) = 23.47354 26.79454 25.13404
#
# Velocity S-wave (km/s) = 3.46193 3.69872 3.58228
# Velocity P-wave (km/s) = 6.15027 6.42832 6.29083
#
# Compressibility (1/GPa) = 0.02337162
#
# Stress axis : x y z
#
# Youngs Moduli (GPa) = 65.82902 42.04235 37.09679
#
# Poissons Ratio (x) = 0.07081 0.33903
# Poissons Ratio (y) = 0.11087 0.38793
# Poissons Ratio (z) = 0.60162 0.43965
#
# Static dielectric constant tensor:
#      x y z
#    x 3.722460 0.000000 0.000000 
#    y 0.000000 3.575340 0.000000 
#    z 0.000000 0.000000 3.595070 
# 
# 
# High freq. dielectric constant tensor:
#      x y z
#    x 1.778800 0.000000 0.000000 
#    y 0.000000 1.771870 0.000000 
#    z 0.000000 0.000000 1.760040 
# 
# From -- ./inp_files/2881.got.cif
#   From: 2010.06.25/outbox.cif.g09.slc.cpg/sg58_2_cif.got.tgz:2881.got - 2010.06.26 21:38:00.
