data_PCOD8237021
_publ_section_title
;
Structure prediction by ZEFSAII (Michael W. Deem and Ramdas Pophale) SiO2 
 PCOD8237021
Probable space group: P N N M
;
_chemical_formula_sum "Si O2"
_cell_formula_units_Z 64
_cell_length_a 17.121809
_cell_length_b 8.903628
_cell_length_c 22.229428
_cell_angle_alpha 90.000000
_cell_angle_beta 90.000000
_cell_angle_gamma 90.000000
_cell_volume 3388.792227
_symmetry_space_group_name_H-M "P N N M"
_symmetry_group_IT_number 58
_symmetry_cell_setting 'orthorhombic'
loop_
_space_group_symop_operation_xyz
x,y,z
-x,-y,z
1/2+x,1/2-y,1/2-z
1/2-x,1/2+y,1/2-z
-x,-y,-z
x,y,-z
1/2-x,1/2+y,1/2+z
1/2+x,1/2-y,1/2+z
loop_
_atom_site_type_symbol
_atom_site_label
_atom_site_fract_x
_atom_site_fract_y
_atom_site_fract_z
Si Si1 0.755829 0.323942 0.669155
Si Si2 0.309277 0.193283 0.638435
Si Si3 0.943110 0.873222 0.067136
Si Si4 0.613480 0.688613 0.244416
Si Si5 0.541147 0.144835 0.764397
Si Si6 0.877263 0.611937 0.859212
Si Si7 0.162533 0.124420 0.711946
Si Si8 0.777745 0.029107 0.933628
O O1 0.840382 0.291834 0.696698
O O2 0.710207 0.181369 0.641146
O O3 0.698112 0.378772 0.721244
O O4 0.773546 0.450053 0.618361
O O5 0.345102 0.299837 0.690557
O O6 0.229229 0.118974 0.662017
O O7 0.291680 0.296100 0.580992
O O8 0.366506 0.058518 0.616232
O O9 0.938180 0.715790 0.103453
O O10 0.858526 0.942684 0.065122
O O11 0.974138 0.836240 0.000000
O O12 0.000000 0.000000 0.097236
O O13 0.524577 0.735790 0.252735
O O14 0.611500 0.525678 0.213596
O O15 0.586078 0.084429 0.706041
O O16 0.607057 0.231895 0.803118
O O17 0.500000 0.000000 0.796529
O O18 0.738226 0.018563 0.000000
#
# Coordination Sequence:
#
# PCOD8237021 Si02
#       8
#     8   8   8   8   8   8   8   8
#     4   9  19  34  55  76 104 150 184 225 275 334
#     4  11  21  34  55  81 110 149 188 234 281 329
#     4   9  20  36  54  73 103 151 196 230 273 324
#     4  11  20  34  54  78 114 145 182 226 285 342
#     4  11  23  32  50  84 112 141 177 228 283 344
#     4  10  20  34  51  76 110 143 190 230 270 324
#     4  10  21  35  54  79 112 147 185 221 285 344
#     4  10  21  36  54  79 109 147 196 236 274 330
#
# _framework density 18.885784999999998
#
# number of rings (size 3 to 8) (size 9 to 14) (size 15 to 20)
#    0.000    1.875    3.750    0.375    3.500    0.500 
#    0.000    0.000    0.000    2.625    0.000    1.750 
#    0.000    2.000    0.000    0.000    0.000    0.000 
#
# Total GULP energy -793066.237200 kJ/mol
# GULP energy per Si atom -12391.659956 kJ/mol
# Density = 1.884280 g / cm^3
# Si number density = 18.885785 Si / 1000 Ang^3
#
#
#
# Elastic Constant Matrix: (Units=GPa)
#
#
# Indices 1 2 3 4 5 6 
#
# 1 48.2548 22.3899 9.2955 0.0000 0.0000 0.0000
# 2 22.3899 112.3155 26.5421 0.0000 0.0000 0.0000
# 3 9.2955 26.5421 62.4636 0.0000 0.0000 0.0000
# 4 0.0000 0.0000 0.0000 15.2315 0.0000 0.0000
# 5 0.0000 0.0000 0.0000 0.0000 12.8457 0.0000
# 6 0.0000 0.0000 0.0000 0.0000 0.0000 30.4922
#
#
#
# Elastic Compliance Matrix: (Units=1/GPa)
#
#
# Indices 1 2 3 4 5 6 
#
# 1 0.022985 -0.004195 -0.001638 0.000000 0.000000 0.000000
# 2 -0.004195 0.010663 -0.003907 0.000000 0.000000 0.000000
# 3 -0.001638 -0.003907 0.017913 0.000000 0.000000 0.000000
# 4 0.000000 0.000000 0.000000 0.065654 0.000000 0.000000
# 5 0.000000 0.000000 0.000000 0.000000 0.077847 0.000000
# 6 0.000000 0.000000 0.000000 0.000000 0.000000 0.032795
#
#
# Mechanical properties :
#
#
# Convention : Reuss Voigt Hill
#
# Bulk Modulus (GPa) = 31.17006 37.72100 34.44553
# Shear Modulus (GPa) = 19.37753 22.70096 21.03925
#
# Velocity S-wave (km/s) = 3.20666 3.47077 3.34132
# Velocity P-wave (km/s) = 5.50005 6.00651 5.75885
#
# Compressibility (1/GPa) = 0.03208207
#
# Stress axis : x y z
#
# Youngs Moduli (GPa) = 43.50601 93.78262 55.82511
#
# Poissons Ratio (x) = 0.39342 0.09144
# Poissons Ratio (y) = 0.18251 0.21809
# Poissons Ratio (z) = 0.07126 0.36637
#
# Static dielectric constant tensor:
#      x y z
#    x 3.348850 0.000000 0.000000 
#    y 0.000000 3.647220 0.000000 
#    z 0.000000 0.000000 3.407960 
# 
# 
# High freq. dielectric constant tensor:
#      x y z
#    x 1.716980 0.000000 0.000000 
#    y 0.000000 1.752080 0.000000 
#    z 0.000000 0.000000 1.683330 
# 
# From -- ./inp_files/31690.got.cif
#   From: 2010.06.25/outbox.cif.g09.slc.cpg/sg58_16_cif.got.tgz:31690.got - 2010.06.26 21:38:00.
