data_PCOD8237979
_publ_section_title
;
Structure prediction by ZEFSAII (Michael W. Deem and Ramdas Pophale) SiO2 
 PCOD8237979
Probable space group: P N N M
;
_chemical_formula_sum "Si O2"
_cell_formula_units_Z 56
_cell_length_a 16.116727
_cell_length_b 19.875955
_cell_length_c 9.069063
_cell_angle_alpha 90.000000
_cell_angle_beta 90.000000
_cell_angle_gamma 90.000000
_cell_volume 2905.141385
_symmetry_space_group_name_H-M "P N N M"
_symmetry_group_IT_number 58
_symmetry_cell_setting 'orthorhombic'
loop_
_space_group_symop_operation_xyz
x,y,z
-x,-y,z
1/2+x,1/2-y,1/2-z
1/2-x,1/2+y,1/2-z
-x,-y,-z
x,y,-z
1/2-x,1/2+y,1/2+z
1/2+x,1/2-y,1/2+z
loop_
_atom_site_type_symbol
_atom_site_label
_atom_site_fract_x
_atom_site_fract_y
_atom_site_fract_z
Si Si1 0.756668 0.466851 0.827153
Si Si2 0.996142 0.323268 0.173927
Si Si3 0.825137 0.104949 0.672589
Si Si4 0.925723 0.450333 0.326020
Si Si5 0.526117 0.670380 0.669317
Si Si6 0.679791 0.197584 0.674736
Si Si7 0.335536 0.651561 0.328788
O O1 0.694922 0.527952 0.789476
O O2 0.842674 0.480460 0.744181
O O3 0.713688 0.399178 0.773602
O O4 0.775390 0.462147 0.000000
O O5 0.940583 0.376095 0.261777
O O6 0.962921 0.248671 0.211687
O O7 0.090893 0.329142 0.232192
O O8 0.989778 0.337685 0.000000
O O9 0.829045 0.117743 0.500000
O O10 0.913898 0.123370 0.737261
O O11 0.753101 0.152216 0.742004
O O12 0.914740 0.444610 0.500000
O O13 0.000000 0.500000 0.281269
O O14 0.548923 0.659949 0.500000
O O15 0.433279 0.645313 0.701046
O O16 0.675864 0.192912 0.500000
O O17 0.695097 0.274658 0.720470
O O18 0.315131 0.637472 0.500000
#
# Coordination Sequence:
#
# PCOD8237979 Si02
#       7
#     8   8   8   8   8   8   8
#     4  11  24  39  57  84 116 152 194 238 288 342
#     4   9  18  36  60  84 112 146 189 235 283 342
#     4  10  21  36  56  82 112 149 193 238 285 338
#     4  11  24  39  57  84 118 153 191 234 286 346
#     4   9  20  37  58  85 114 148 190 237 287 340
#     4   8  16  34  59  82 108 147 189 230 282 338
#     4   9  19  38  60  82 112 149 190 236 287 343
#
# _framework density 19.276171000000001
#
# number of rings (size 3 to 8) (size 9 to 14) (size 15 to 20)
#    0.000    2.429    0.000    3.429    2.000    5.143 
#    0.000    5.714    0.000    0.000    0.000    0.000 
#    0.000    0.000    0.000    0.000    0.000    0.000 
#
# Total GULP energy -694484.558459 kJ/mol
# GULP energy per Si atom -12401.509972 kJ/mol
# Density = 1.923230 g / cm^3
# Si number density = 19.276171 Si / 1000 Ang^3
#
#
#
# Elastic Constant Matrix: (Units=GPa)
#
#
# Indices 1 2 3 4 5 6 
#
# 1 66.4084 28.8510 31.1344 0.0000 0.0000 0.0000
# 2 28.8510 78.9939 37.3877 0.0000 0.0000 0.0000
# 3 31.1344 37.3877 58.2626 0.0000 0.0000 0.0000
# 4 0.0000 0.0000 0.0000 23.5957 0.0000 0.0000
# 5 0.0000 0.0000 0.0000 0.0000 33.9874 0.0000
# 6 0.0000 0.0000 0.0000 0.0000 0.0000 34.8216
#
#
#
# Elastic Compliance Matrix: (Units=1/GPa)
#
#
# Indices 1 2 3 4 5 6 
#
# 1 0.020687 -0.003337 -0.008913 0.000000 0.000000 0.000000
# 2 -0.003337 0.018719 -0.010229 0.000000 0.000000 0.000000
# 3 -0.008913 -0.010229 0.028491 0.000000 0.000000 0.000000
# 4 0.000000 0.000000 0.000000 0.042381 0.000000 0.000000
# 5 0.000000 0.000000 0.000000 0.000000 0.029423 0.000000
# 6 0.000000 0.000000 0.000000 0.000000 0.000000 0.028718
#
#
# Mechanical properties :
#
#
# Convention : Reuss Voigt Hill
#
# Bulk Modulus (GPa) = 43.59513 44.26789 43.93151
# Shear Modulus (GPa) = 22.62201 25.56706 24.09454
#
# Velocity S-wave (km/s) = 3.42946 3.64587 3.53932
# Velocity P-wave (km/s) = 6.19248 6.38264 6.28828
#
# Compressibility (1/GPa) = 0.02293834
#
# Stress axis : x y z
#
# Youngs Moduli (GPa) = 48.33982 53.42036 35.09871
#
# Poissons Ratio (x) = 0.17825 0.31285
# Poissons Ratio (y) = 0.16130 0.35904
# Poissons Ratio (z) = 0.43087 0.54646
#
# Static dielectric constant tensor:
#      x y z
#    x 3.634710 0.000000 0.000000 
#    y 0.000000 3.569480 0.000000 
#    z 0.000000 0.000000 3.261640 
# 
# 
# High freq. dielectric constant tensor:
#      x y z
#    x 1.756520 0.000000 0.000000 
#    y 0.000000 1.757690 0.000000 
#    z 0.000000 0.000000 1.729950 
# 
# From -- ./inp_files/6405.got.cif
#   From: 2010.06.25/outbox.cif.g09.slc.cpg/sg58_4_cif.got.tgz:6405.got - 2010.06.26 21:38:00.
