data_PCOD8237029
_publ_section_title
;
Structure prediction by ZEFSAII (Michael W. Deem and Ramdas Pophale) SiO2 
 PCOD8237029
Probable space group: P N N M
;
_chemical_formula_sum "Si O2"
_cell_formula_units_Z 40
_cell_length_a 9.695168
_cell_length_b 24.578599
_cell_length_c 9.336665
_cell_angle_alpha 90.000000
_cell_angle_beta 90.000000
_cell_angle_gamma 90.000000
_cell_volume 2224.867949
_symmetry_space_group_name_H-M "P N N M"
_symmetry_group_IT_number 58
_symmetry_cell_setting 'orthorhombic'
loop_
_space_group_symop_operation_xyz
x,y,z
-x,-y,z
1/2+x,1/2-y,1/2-z
1/2-x,1/2+y,1/2-z
-x,-y,-z
x,y,-z
1/2-x,1/2+y,1/2+z
1/2+x,1/2-y,1/2+z
loop_
_atom_site_type_symbol
_atom_site_label
_atom_site_fract_x
_atom_site_fract_y
_atom_site_fract_z
Si Si1 0.658269 0.990360 0.667027
Si Si2 0.875097 0.082620 0.334717
Si Si3 0.150281 0.087575 0.832251
Si Si4 0.877727 0.787504 0.834439
Si Si5 0.354790 0.293742 0.833871
O O1 0.667579 0.974769 0.500000
O O2 0.718677 0.941268 0.760571
O O3 0.500000 0.000000 0.712798
O O4 0.746939 0.044055 0.702189
O O5 0.920619 0.076926 0.500000
O O6 0.822777 0.143314 0.299178
O O7 0.007852 0.066919 0.239684
O O8 0.173082 0.151379 0.803358
O O9 0.143569 0.073701 0.000000
O O10 0.767978 0.743960 0.778561
O O11 0.012877 0.772918 0.748265
O O12 0.911436 0.779337 0.000000
O O13 0.382463 0.284376 0.000000
#
# Coordination Sequence:
#
# PCOD8237029 Si02
#       5
#     8   8   8   8   8
#     4  10  21  35  51  74 101 128 164 209 251 291
#     4   9  18  34  54  73  96 129 167 204 242 289
#     4  10  20  34  52  74 101 133 166 200 243 296
#     4   9  19  34  51  75 104 130 162 204 245 290
#     4   9  18  33  52  73  98 130 165 200 243 292
#
# _framework density 17.978594999999999
#
# number of rings (size 3 to 8) (size 9 to 14) (size 15 to 20)
#    0.000    2.600    0.000    1.200    0.000    6.800 
#    0.000    2.000    0.000    0.000    0.000    0.000 
#    0.000    0.000    0.000    0.000    0.000    0.000 
#
# Total GULP energy -496081.235463 kJ/mol
# GULP energy per Si atom -12402.030887 kJ/mol
# Density = 1.793767 g / cm^3
# Si number density = 17.978595 Si / 1000 Ang^3
#
#
#
# Elastic Constant Matrix: (Units=GPa)
#
#
# Indices 1 2 3 4 5 6 
#
# 1 110.8650 47.8606 42.6577 0.0000 0.0000 0.0000
# 2 47.8606 65.5835 29.9863 0.0000 0.0000 0.0000
# 3 42.6577 29.9863 53.8412 0.0000 0.0000 0.0000
# 4 0.0000 0.0000 0.0000 40.5442 0.0000 0.0000
# 5 0.0000 0.0000 0.0000 0.0000 29.0521 0.0000
# 6 0.0000 0.0000 0.0000 0.0000 0.0000 37.4204
#
#
#
# Elastic Compliance Matrix: (Units=1/GPa)
#
#
# Indices 1 2 3 4 5 6 
#
# 1 0.015341 -0.007564 -0.007942 0.000000 0.000000 0.000000
# 2 -0.007564 0.024187 -0.007477 0.000000 0.000000 0.000000
# 3 -0.007942 -0.007477 0.029030 0.000000 0.000000 0.000000
# 4 0.000000 0.000000 0.000000 0.024664 0.000000 0.000000
# 5 0.000000 0.000000 0.000000 0.000000 0.034421 0.000000
# 6 0.000000 0.000000 0.000000 0.000000 0.000000 0.026723
#
#
# Mechanical properties :
#
#
# Convention : Reuss Voigt Hill
#
# Bulk Modulus (GPa) = 44.26608 52.36655 48.31632
# Shear Modulus (GPa) = 24.05416 28.72235 26.38826
#
# Velocity S-wave (km/s) = 3.66175 4.00132 3.83529
# Velocity P-wave (km/s) = 6.52325 7.10899 6.82241
#
# Compressibility (1/GPa) = 0.02259066
#
# Stress axis : x y z
#
# Youngs Moduli (GPa) = 65.18340 41.34486 34.44732
#
# Poissons Ratio (x) = 0.31275 0.27357
# Poissons Ratio (y) = 0.49307 0.25758
# Poissons Ratio (z) = 0.51768 0.30915
#
# Static dielectric constant tensor:
#      x y z
#    x 3.326480 0.000000 0.000000 
#    y 0.000000 3.457290 0.000000 
#    z 0.000000 0.000000 3.317120 
# 
# 
# High freq. dielectric constant tensor:
#      x y z
#    x 1.691170 0.000000 0.000000 
#    y 0.000000 1.703680 0.000000 
#    z 0.000000 0.000000 1.694080 
# 
# From -- ./inp_files/2429.got.cif
#   From: 2010.06.25/outbox.cif.g09.slc.cpg/sg58_2_cif.got.tgz:2429.got - 2010.06.26 21:38:00.
