data_PCOD8237822
_publ_section_title
;
Structure prediction by ZEFSAII (Michael W. Deem and Ramdas Pophale) SiO2 
 PCOD8237822
Probable space group: P N N M
;
_chemical_formula_sum "Si O2"
_cell_formula_units_Z 48
_cell_length_a 10.026897
_cell_length_b 27.103762
_cell_length_c 8.792738
_cell_angle_alpha 90.000000
_cell_angle_beta 90.000000
_cell_angle_gamma 90.000000
_cell_volume 2389.572774
_symmetry_space_group_name_H-M "P N N M"
_symmetry_group_IT_number 58
_symmetry_cell_setting 'orthorhombic'
loop_
_space_group_symop_operation_xyz
x,y,z
-x,-y,z
1/2+x,1/2-y,1/2-z
1/2-x,1/2+y,1/2-z
-x,-y,-z
x,y,-z
1/2-x,1/2+y,1/2+z
1/2+x,1/2-y,1/2+z
loop_
_atom_site_type_symbol
_atom_site_label
_atom_site_fract_x
_atom_site_fract_y
_atom_site_fract_z
Si Si1 0.380062 0.465304 0.323645
Si Si2 0.985207 0.641143 0.679464
Si Si3 0.744822 0.212246 0.180684
Si Si4 0.392330 0.958404 0.323571
Si Si5 0.481685 0.356090 0.676617
Si Si6 0.247643 0.176599 0.679492
O O1 0.500000 0.500000 0.268085
O O2 0.347351 0.475095 0.500000
O O3 0.251654 0.479496 0.224054
O O4 0.417358 0.408905 0.293707
O O5 0.002690 0.644170 0.500000
O O6 0.886591 0.684029 0.740697
O O7 0.923217 0.588808 0.721383
O O8 0.127724 0.646890 0.756593
O O9 0.744577 0.267690 0.245975
O O10 0.878031 0.184819 0.238271
O O11 0.743505 0.211206 0.000000
O O12 0.393340 0.943473 0.500000
O O13 0.500000 0.000000 0.287460
O O14 0.515780 0.348234 0.500000
O O15 0.615927 0.352277 0.772393
O O16 0.258441 0.177798 0.500000
#
# Coordination Sequence:
#
# PCOD8237822 Si02
#       6
#     8   8   8   8   8   8
#     4  10  22  41  66  93 118 154 203 247 295 359
#     4  11  22  41  65  89 120 162 207 251 297 356
#     4   9  19  38  62  86 119 159 205 251 295 349
#     4  11  25  43  63  92 125 157 196 248 310 367
#     4  10  20  39  61  86 120 158 200 247 293 351
#     4  11  23  37  57  91 127 160 199 248 300 355
#
# _framework density 20.087271999999999
#
# number of rings (size 3 to 8) (size 9 to 14) (size 15 to 20)
#    0.000    1.667    1.667    2.500    2.333    2.333 
#    0.000    3.333    0.000    0.000    0.000    0.000 
#    0.000    0.000    0.000    0.000    0.000    0.000 
#
# Total GULP energy -595471.489012 kJ/mol
# GULP energy per Si atom -12405.656021 kJ/mol
# Density = 2.004155 g / cm^3
# Si number density = 20.087272 Si / 1000 Ang^3
#
#
#
# Elastic Constant Matrix: (Units=GPa)
#
#
# Indices 1 2 3 4 5 6 
#
# 1 155.2765 32.0052 40.8944 0.0000 0.0000 0.0000
# 2 32.0052 65.8395 25.3342 0.0000 0.0000 0.0000
# 3 40.8944 25.3342 55.0177 0.0000 0.0000 0.0000
# 4 0.0000 0.0000 0.0000 22.5929 0.0000 0.0000
# 5 0.0000 0.0000 0.0000 0.0000 19.4496 0.0000
# 6 0.0000 0.0000 0.0000 0.0000 0.0000 36.3513
#
#
#
# Elastic Compliance Matrix: (Units=1/GPa)
#
#
# Indices 1 2 3 4 5 6 
#
# 1 0.008219 -0.001999 -0.005188 0.000000 0.000000 0.000000
# 2 -0.001999 0.018945 -0.007238 0.000000 0.000000 0.000000
# 3 -0.005188 -0.007238 0.025366 0.000000 0.000000 0.000000
# 4 0.000000 0.000000 0.000000 0.044262 0.000000 0.000000
# 5 0.000000 0.000000 0.000000 0.000000 0.051415 0.000000
# 6 0.000000 0.000000 0.000000 0.000000 0.000000 0.027509
#
#
# Mechanical properties :
#
#
# Convention : Reuss Voigt Hill
#
# Bulk Modulus (GPa) = 42.23214 52.51127 47.37171
# Shear Modulus (GPa) = 23.53399 27.53876 25.53638
#
# Velocity S-wave (km/s) = 3.42656 3.70666 3.56936
# Velocity P-wave (km/s) = 6.06012 6.67214 6.37348
#
# Compressibility (1/GPa) = 0.02367865
#
# Stress axis : x y z
#
# Youngs Moduli (GPa) = 121.67600 52.78398 39.42362
#
# Poissons Ratio (x) = 0.10550 0.20455
# Poissons Ratio (y) = 0.24319 0.28535
# Poissons Ratio (z) = 0.63131 0.38206
#
# Static dielectric constant tensor:
#      x y z
#    x 3.800380 0.000000 0.000000 
#    y 0.000000 3.749610 0.000000 
#    z 0.000000 0.000000 3.421110 
# 
# 
# High freq. dielectric constant tensor:
#      x y z
#    x 1.801500 0.000000 0.000000 
#    y 0.000000 1.791280 0.000000 
#    z 0.000000 0.000000 1.766390 
# 
# From -- ./inp_files/2913.got.cif
#   From: 2010.06.25/outbox.cif.g09.slc.cpg/sg58_2_cif.got.tgz:2913.got - 2010.06.26 21:38:00.
