data_PCOD8237266
_publ_section_title
;
Structure prediction by ZEFSAII (Michael W. Deem and Ramdas Pophale) SiO2 
 PCOD8237266
Probable space group: P N N M
;
_chemical_formula_sum "Si O2"
_cell_formula_units_Z 40
_cell_length_a 26.952476
_cell_length_b 8.860212
_cell_length_c 7.738953
_cell_angle_alpha 90.000000
_cell_angle_beta 90.000000
_cell_angle_gamma 90.000000
_cell_volume 1848.097972
_symmetry_space_group_name_H-M "P N N M"
_symmetry_group_IT_number 58
_symmetry_cell_setting 'orthorhombic'
loop_
_space_group_symop_operation_xyz
x,y,z
-x,-y,z
1/2+x,1/2-y,1/2-z
1/2-x,1/2+y,1/2-z
-x,-y,-z
x,y,-z
1/2-x,1/2+y,1/2+z
1/2+x,1/2-y,1/2+z
loop_
_atom_site_type_symbol
_atom_site_label
_atom_site_fract_x
_atom_site_fract_y
_atom_site_fract_z
Si Si1 0.074065 0.894894 0.000000
Si Si2 0.915006 0.611412 0.306857
Si Si3 0.622075 0.779062 0.194873
Si Si4 0.685800 0.207200 0.697519
Si Si5 0.036340 0.224003 0.000000
Si Si6 0.723973 0.886221 0.299540
O O1 0.102961 0.846894 0.827072
O O2 0.020569 0.819631 0.000000
O O3 0.070979 0.075943 0.000000
O O4 0.937977 0.618414 0.500000
O O5 0.901464 0.440530 0.252626
O O6 0.864625 0.711036 0.307768
O O7 0.954394 0.676979 0.171587
O O8 0.681826 0.789762 0.201710
O O9 0.606642 0.733092 0.000000
O O10 0.668274 0.204514 0.500000
O O11 0.720635 0.348980 0.736434
O O12 0.718110 0.061218 0.746095
O O13 0.717520 0.852299 0.500000
#
# Coordination Sequence:
#
# PCOD8237266 Si02
#       6
#     4   8   8   8   4   8
#     4  11  25  43  63  89 123 161 201 253 312 367
#     4  10  21  40  65  90 120 158 203 254 302 358
#     4  10  21  40  65  90 120 158 203 254 302 358
#     4  10  20  35  56  84 120 159 198 242 292 350
#     4  11  25  43  63  89 123 161 201 253 312 367
#     4  10  20  35  56  84 120 159 198 242 292 350
#
# _framework density 21.643874
#
# number of rings (size 3 to 8) (size 9 to 14) (size 15 to 20)
#    0.000    1.800    2.000    1.800    0.000    7.200 
#    0.000    4.000    0.000    0.000    0.000    0.000 
#    0.000    0.000    0.000    0.000    0.000    0.000 
#
# Total GULP energy -496120.837690 kJ/mol
# GULP energy per Si atom -12403.020942 kJ/mol
# Density = 2.159461 g / cm^3
# Si number density = 21.643874 Si / 1000 Ang^3
#
#
#
# Elastic Constant Matrix: (Units=GPa)
#
#
# Indices 1 2 3 4 5 6 
#
# 1 23.2539 -8.4233 4.6794 0.0000 0.0000 0.0000
# 2 -8.4233 20.4226 10.2809 0.0000 0.0000 0.0000
# 3 4.6794 10.2809 104.0821 0.0000 0.0000 0.0000
# 4 0.0000 0.0000 0.0000 23.5918 0.0000 0.0000
# 5 0.0000 0.0000 0.0000 0.0000 6.4661 0.0000
# 6 0.0000 0.0000 0.0000 0.0000 0.0000 36.7346
#
#
#
# Elastic Compliance Matrix: (Units=1/GPa)
#
#
# Indices 1 2 3 4 5 6 
#
# 1 0.052700 0.024129 -0.004753 0.000000 0.000000 0.000000
# 2 0.024129 0.062575 -0.007266 0.000000 0.000000 0.000000
# 3 -0.004753 -0.007266 0.010539 0.000000 0.000000 0.000000
# 4 0.000000 0.000000 0.000000 0.042388 0.000000 0.000000
# 5 0.000000 0.000000 0.000000 0.000000 0.154653 0.000000
# 6 0.000000 0.000000 0.000000 0.000000 0.000000 0.027222
#
#
# Mechanical properties :
#
#
# Convention : Reuss Voigt Hill
#
# Bulk Modulus (GPa) = 6.66512 17.87030 12.26771
# Shear Modulus (GPa) = 13.30255 22.77327 18.03791
#
# Velocity S-wave (km/s) = 2.48182 3.24725 2.88999
# Velocity P-wave (km/s) = 3.36136 4.72588 4.10077
#
# Compressibility (1/GPa) = 0.15003475
#
# Stress axis : x y z
#
# Youngs Moduli (GPa) = 18.97528 15.98084 94.88417
#
# Poissons Ratio (x) = -0.38560 0.45096
# Poissons Ratio (y) = -0.45785 0.68941
# Poissons Ratio (z) = 0.09018 0.11611
#
# Static dielectric constant tensor:
#      x y z
#    x 3.711810 0.000000 0.000000 
#    y 0.000000 3.853880 0.000000 
#    z 0.000000 0.000000 3.927080 
# 
# 
# High freq. dielectric constant tensor:
#      x y z
#    x 1.842350 0.000000 0.000000 
#    y 0.000000 1.834350 0.000000 
#    z 0.000000 0.000000 1.858740 
# 
# From -- ./inp_files/2437.got.cif
#   From: 2010.06.25/outbox.cif.g09.slc.cpg/sg58_2_cif.got.tgz:2437.got - 2010.06.26 21:38:00.
