data_PCOD8237467
_publ_section_title
;
Structure prediction by ZEFSAII (Michael W. Deem and Ramdas Pophale) SiO2 
 PCOD8237467
Probable space group: P N N M
;
_chemical_formula_sum "Si O2"
_cell_formula_units_Z 48
_cell_length_a 14.634074
_cell_length_b 13.092950
_cell_length_c 13.715902
_cell_angle_alpha 90.000000
_cell_angle_beta 90.000000
_cell_angle_gamma 90.000000
_cell_volume 2628.010703
_symmetry_space_group_name_H-M "P N N M"
_symmetry_group_IT_number 58
_symmetry_cell_setting 'orthorhombic'
loop_
_space_group_symop_operation_xyz
x,y,z
-x,-y,z
1/2+x,1/2-y,1/2-z
1/2-x,1/2+y,1/2-z
-x,-y,-z
x,y,-z
1/2-x,1/2+y,1/2+z
1/2+x,1/2-y,1/2+z
loop_
_atom_site_type_symbol
_atom_site_label
_atom_site_fract_x
_atom_site_fract_y
_atom_site_fract_z
Si Si1 0.226920 0.535505 0.892363
Si Si2 0.948429 0.718428 0.268118
Si Si3 0.603629 0.033606 0.107569
Si Si4 0.806901 0.696999 0.884746
Si Si5 0.841094 0.340386 0.283911
Si Si6 0.931691 0.917897 0.608971
O O1 0.193691 0.423383 0.862467
O O2 0.194002 0.625192 0.821559
O O3 0.335107 0.527580 0.893461
O O4 0.189458 0.563805 0.000000
O O5 0.890031 0.629759 0.320946
O O6 0.904060 0.733578 0.160643
O O7 0.928673 0.819800 0.325704
O O8 0.056153 0.698553 0.266239
O O9 0.500000 0.000000 0.100114
O O10 0.663403 0.939022 0.146237
O O11 0.640342 0.063728 0.000000
O O12 0.721589 0.752446 0.831176
O O13 0.803618 0.721341 0.000000
O O14 0.964446 0.887027 0.500000
O O15 0.000000 0.000000 0.655831
#
# Coordination Sequence:
#
# PCOD8237467 Si02
#       6
#     8   8   8   8   8   8
#     4  10  21  37  58  85 117 152 194 240 292 354
#     4  11  21  35  59  86 115 152 195 241 294 353
#     4   9  18  32  53  82 111 140 181 234 290 344
#     4  11  23  39  60  88 120 156 198 245 300 360
#     4  11  21  37  58  84 116 155 195 241 295 350
#     4  10  20  36  59  86 114 148 194 247 298 347
#
# _framework density 18.264765000000001
#
# number of rings (size 3 to 8) (size 9 to 14) (size 15 to 20)
#    0.000    1.667    3.333    2.000    0.000    4.000 
#    0.000    1.667    0.000    0.500    0.000    0.000 
#    0.000    0.000    0.000    0.000    0.000    0.000 
#
# Total GULP energy -595061.890294 kJ/mol
# GULP energy per Si atom -12397.122714 kJ/mol
# Density = 1.822319 g / cm^3
# Si number density = 18.264765 Si / 1000 Ang^3
#
#
#
# Elastic Constant Matrix: (Units=GPa)
#
#
# Indices 1 2 3 4 5 6 
#
# 1 76.1491 15.7875 43.6322 0.0000 0.0000 0.0000
# 2 15.7875 63.1654 41.0170 0.0000 0.0000 0.0000
# 3 43.6322 41.0170 121.0478 0.0000 0.0000 0.0000
# 4 0.0000 0.0000 0.0000 33.1328 0.0000 0.0000
# 5 0.0000 0.0000 0.0000 0.0000 23.8872 0.0000
# 6 0.0000 0.0000 0.0000 0.0000 0.0000 24.2374
#
#
#
# Elastic Compliance Matrix: (Units=1/GPa)
#
#
# Indices 1 2 3 4 5 6 
#
# 1 0.016556 -0.000337 -0.005853 0.000000 0.000000 0.000000
# 2 -0.000337 0.020304 -0.006759 0.000000 0.000000 0.000000
# 3 -0.005853 -0.006759 0.012661 0.000000 0.000000 0.000000
# 4 0.000000 0.000000 0.000000 0.030182 0.000000 0.000000
# 5 0.000000 0.000000 0.000000 0.000000 0.041863 0.000000
# 6 0.000000 0.000000 0.000000 0.000000 0.000000 0.041259
#
#
# Mechanical properties :
#
#
# Convention : Reuss Voigt Hill
#
# Bulk Modulus (GPa) = 42.33086 51.24841 46.78963
# Shear Modulus (GPa) = 25.43259 26.91319 26.17289
#
# Velocity S-wave (km/s) = 3.73559 3.84279 3.78957
# Velocity P-wave (km/s) = 6.46782 6.91440 6.69483
#
# Compressibility (1/GPa) = 0.02362343
#
# Stress axis : x y z
#
# Youngs Moduli (GPa) = 60.40132 49.25017 78.98083
#
# Poissons Ratio (x) = 0.01659 0.46231
# Poissons Ratio (y) = 0.02035 0.53381
# Poissons Ratio (z) = 0.35356 0.33287
#
# Static dielectric constant tensor:
#      x y z
#    x 3.578350 0.000000 0.000000 
#    y 0.000000 3.365300 0.000000 
#    z 0.000000 0.000000 3.580320 
# 
# 
# High freq. dielectric constant tensor:
#      x y z
#    x 1.697870 0.000000 0.000000 
#    y 0.000000 1.711090 0.000000 
#    z 0.000000 0.000000 1.713440 
# 
# From -- ./inp_files/15595.got.cif
#   From: 2010.06.25/outbox.cif.g09.slc.cpg/sg58_8_cif.got.tgz:15595.got - 2010.06.26 21:38:00.
