data_PCOD8237484
_publ_section_title
;
Structure prediction by ZEFSAII (Michael W. Deem and Ramdas Pophale) SiO2 
 PCOD8237484
Probable space group: P N N M
;
_chemical_formula_sum "Si O2"
_cell_formula_units_Z 32
_cell_length_a 14.690872
_cell_length_b 7.516769
_cell_length_c 14.113497
_cell_angle_alpha 90.000000
_cell_angle_beta 90.000000
_cell_angle_gamma 90.000000
_cell_volume 1558.523712
_symmetry_space_group_name_H-M "P N N M"
_symmetry_group_IT_number 58
_symmetry_cell_setting 'orthorhombic'
loop_
_space_group_symop_operation_xyz
x,y,z
-x,-y,z
1/2+x,1/2-y,1/2-z
1/2-x,1/2+y,1/2-z
-x,-y,-z
x,y,-z
1/2-x,1/2+y,1/2+z
1/2+x,1/2-y,1/2+z
loop_
_atom_site_type_symbol
_atom_site_label
_atom_site_fract_x
_atom_site_fract_y
_atom_site_fract_z
Si Si1 0.090370 0.212838 0.193789
Si Si2 0.714981 0.002254 0.607011
Si Si3 0.599288 0.669976 0.611197
Si Si4 0.088136 0.119113 0.397070
O O1 0.173225 0.338611 0.166903
O O2 0.077197 0.247011 0.306664
O O3 0.997535 0.259329 0.138586
O O4 0.116638 0.007916 0.172022
O O5 0.683697 0.036224 0.500000
O O6 0.677520 0.809248 0.639285
O O7 0.823429 0.005122 0.618891
O O8 0.599775 0.621384 0.500000
O O9 0.098672 0.219669 0.500000
O O10 0.000000 0.000000 0.402092
#
# Coordination Sequence:
#
# PCOD8237484 Si02
#       4
#     8   8   8   8
#     4  11  20  35  63  87 115 153 189 232 295 346
#     4  10  22  38  61  88 116 149 189 241 291 341
#     4  10  20  36  59  93 121 141 184 245 299 342
#     4  10  22  40  58  82 119 160 197 234 280 339
#
# _framework density 20.532250000000001
#
# number of rings (size 3 to 8) (size 9 to 14) (size 15 to 20)
#    0.000    1.750    2.500    3.750    3.500    2.000 
#    0.000    0.000    0.000    4.500    0.000    0.000 
#    0.000    0.000    0.000    0.000    0.000    0.000 
#
# Total GULP energy -396666.081587 kJ/mol
# GULP energy per Si atom -12395.815050 kJ/mol
# Density = 2.048552 g / cm^3
# Si number density = 20.532250 Si / 1000 Ang^3
#
#
#
# Elastic Constant Matrix: (Units=GPa)
#
#
# Indices 1 2 3 4 5 6 
#
# 1 136.0291 48.9511 31.7705 0.0000 0.0000 0.0000
# 2 48.9511 60.5716 30.8014 0.0000 0.0000 0.0000
# 3 31.7705 30.8014 120.2057 0.0000 0.0000 0.0000
# 4 0.0000 0.0000 0.0000 6.1955 0.0000 0.0000
# 5 0.0000 0.0000 0.0000 0.0000 -10.1030 0.0000
# 6 0.0000 0.0000 0.0000 0.0000 0.0000 15.6464
#
#
#
# Elastic Compliance Matrix: (Units=1/GPa)
#
#
# Indices 1 2 3 4 5 6 
#
# 1 0.010415 -0.008068 -0.000685 0.000000 0.000000 0.000000
# 2 -0.008068 0.025233 -0.004333 0.000000 0.000000 0.000000
# 3 -0.000685 -0.004333 0.009611 0.000000 0.000000 0.000000
# 4 0.000000 0.000000 0.000000 0.161407 0.000000 0.000000
# 5 0.000000 0.000000 0.000000 0.000000 -0.098981 0.000000
# 6 0.000000 0.000000 0.000000 0.000000 0.000000 0.063913
#
#
# Mechanical properties :
#
#
# Convention : Reuss Voigt Hill
#
# Bulk Modulus (GPa) = 52.39710 59.98360 56.19035
# Shear Modulus (GPa) = 24.49382 16.03334 20.26358
#
# Velocity S-wave (km/s) = 3.45765 2.79746 3.14493
# Velocity P-wave (km/s) = 6.44323 6.30176 6.37289
#
# Compressibility (1/GPa) = 0.01908502
#
# Stress axis : x y z
#
# Youngs Moduli (GPa) = 96.01649 39.62998 104.05237
#
# Poissons Ratio (x) = 0.31975 0.07130
# Poissons Ratio (y) = 0.77470 0.45089
# Poissons Ratio (z) = 0.06579 0.17173
#
# Static dielectric constant tensor:
#      x y z
#    x 3.820570 0.000000 0.000000 
#    y 0.000000 3.352490 0.000000 
#    z 0.000000 0.000000 4.332850 
# 
# 
# High freq. dielectric constant tensor:
#      x y z
#    x 1.815090 0.000000 0.000000 
#    y 0.000000 1.758480 0.000000 
#    z 0.000000 0.000000 1.823710 
# 
# From -- ./inp_files/19311.got.cif
#   From: 2010.06.25/outbox.cif.g09.slc.cpg/sg58_10_cif.got.tgz:19311.got - 2010.06.26 21:38:00.
