data_PCOD8237912
_publ_section_title
;
Structure prediction by ZEFSAII (Michael W. Deem and Ramdas Pophale) SiO2 
 PCOD8237912
Probable space group: P N N M
;
_chemical_formula_sum "Si O2"
_cell_formula_units_Z 56
_cell_length_a 23.438501
_cell_length_b 13.841925
_cell_length_c 9.522550
_cell_angle_alpha 90.000000
_cell_angle_beta 90.000000
_cell_angle_gamma 90.000000
_cell_volume 3089.438729
_symmetry_space_group_name_H-M "P N N M"
_symmetry_group_IT_number 58
_symmetry_cell_setting 'orthorhombic'
loop_
_space_group_symop_operation_xyz
x,y,z
-x,-y,z
1/2+x,1/2-y,1/2-z
1/2-x,1/2+y,1/2-z
-x,-y,-z
x,y,-z
1/2-x,1/2+y,1/2+z
1/2+x,1/2-y,1/2+z
loop_
_atom_site_type_symbol
_atom_site_label
_atom_site_fract_x
_atom_site_fract_y
_atom_site_fract_z
Si Si1 0.938265 0.896834 0.334969
Si Si2 0.115248 0.297147 0.663937
Si Si3 0.826021 0.432506 0.838200
Si Si4 0.559987 0.043173 0.662511
Si Si5 0.271873 0.906443 0.163214
Si Si6 0.161465 0.787108 0.835577
Si Si7 0.433198 0.389624 0.166429
O O1 0.942109 0.907795 0.500000
O O2 0.893586 0.814170 0.288598
O O3 0.001939 0.868999 0.284826
O O4 0.917643 0.001552 0.280164
O O5 0.101757 0.309717 0.500000
O O6 0.070017 0.361201 0.747556
O O7 0.179464 0.328018 0.701211
O O8 0.890781 0.464934 0.806985
O O9 0.781198 0.495063 0.748730
O O10 0.819527 0.321084 0.795143
O O11 0.809960 0.448861 0.000000
O O12 0.558467 0.073126 0.500000
O O13 0.500000 0.000000 0.711878
O O14 0.212045 0.859759 0.206428
O O15 0.274039 0.933017 0.000000
O O16 0.105995 0.813739 0.747175
O O17 0.146735 0.792890 0.000000
O O18 0.424217 0.376100 0.000000
#
# Coordination Sequence:
#
# PCOD8237912 Si02
#       7
#     8   8   8   8   8   8   8
#     4   8  16  32  52  75 103 130 166 215 255 296
#     4   9  17  31  51  71  94 129 168 207 252 298
#     4   9  19  35  52  72 101 134 168 205 249 304
#     4   9  18  31  47  71 102 131 160 200 249 303
#     4   9  19  35  51  71 100 130 167 213 252 291
#     4  10  21  35  52  76 105 135 168 210 257 303
#     4   9  18  33  52  75 102 133 169 209 253 303
#
# _framework density 18.126269000000001
#
# number of rings (size 3 to 8) (size 9 to 14) (size 15 to 20)
#    0.000    3.000    0.000    0.857    2.000    2.571 
#    0.000    5.000    0.000    3.429    0.000    0.000 
#    0.000    0.000    0.000    0.000    0.000    0.000 
#
# Total GULP energy -694319.710710 kJ/mol
# GULP energy per Si atom -12398.566263 kJ/mol
# Density = 1.808501 g / cm^3
# Si number density = 18.126269 Si / 1000 Ang^3
#
#
#
# Elastic Constant Matrix: (Units=GPa)
#
#
# Indices 1 2 3 4 5 6 
#
# 1 54.5482 30.0653 22.9066 0.0000 0.0000 0.0000
# 2 30.0653 105.4506 37.2677 0.0000 0.0000 0.0000
# 3 22.9066 37.2677 38.7840 0.0000 0.0000 0.0000
# 4 0.0000 0.0000 0.0000 26.7437 0.0000 0.0000
# 5 0.0000 0.0000 0.0000 0.0000 20.7411 0.0000
# 6 0.0000 0.0000 0.0000 0.0000 0.0000 26.0895
#
#
#
# Elastic Compliance Matrix: (Units=1/GPa)
#
#
# Indices 1 2 3 4 5 6 
#
# 1 0.024945 -0.002885 -0.011961 0.000000 0.000000 0.000000
# 2 -0.002885 0.014693 -0.012415 0.000000 0.000000 0.000000
# 3 -0.011961 -0.012415 0.044778 0.000000 0.000000 0.000000
# 4 0.000000 0.000000 0.000000 0.037392 0.000000 0.000000
# 5 0.000000 0.000000 0.000000 0.000000 0.048213 0.000000
# 6 0.000000 0.000000 0.000000 0.000000 0.000000 0.038330
#
#
# Mechanical properties :
#
#
# Convention : Reuss Voigt Hill
#
# Bulk Modulus (GPa) = 33.45089 42.14023 37.79556
# Shear Modulus (GPa) = 18.32591 21.95107 20.13849
#
# Velocity S-wave (km/s) = 3.18309 3.48373 3.33680
# Velocity P-wave (km/s) = 5.65720 6.28335 5.97848
#
# Compressibility (1/GPa) = 0.02989457
#
# Stress axis : x y z
#
# Youngs Moduli (GPa) = 40.08757 68.05838 22.33260
#
# Poissons Ratio (x) = 0.19635 0.26712
# Poissons Ratio (y) = 0.11566 0.27726
# Poissons Ratio (z) = 0.47948 0.84493
#
# Static dielectric constant tensor:
#      x y z
#    x 3.292970 0.000000 0.000000 
#    y 0.000000 3.542580 0.000000 
#    z 0.000000 0.000000 3.133600 
# 
# 
# High freq. dielectric constant tensor:
#      x y z
#    x 1.698310 0.000000 0.000000 
#    y 0.000000 1.707050 0.000000 
#    z 0.000000 0.000000 1.680760 
# 
# From -- ./inp_files/9059.got.cif
#   From: 2010.06.25/outbox.cif.g09.slc.cpg/sg58_5_cif.got.tgz:9059.got - 2010.06.26 21:38:00.
