data_PCOD8237212
_publ_section_title
;
Structure prediction by ZEFSAII (Michael W. Deem and Ramdas Pophale) SiO2 
 PCOD8237212
Probable space group: P N N M
;
_chemical_formula_sum "Si O2"
_cell_formula_units_Z 64
_cell_length_a 33.105805
_cell_length_b 11.660758
_cell_length_c 8.981950
_cell_angle_alpha 90.000000
_cell_angle_beta 90.000000
_cell_angle_gamma 90.000000
_cell_volume 3467.381025
_symmetry_space_group_name_H-M "P N N M"
_symmetry_group_IT_number 58
_symmetry_cell_setting 'orthorhombic'
loop_
_space_group_symop_operation_xyz
x,y,z
-x,-y,z
1/2+x,1/2-y,1/2-z
1/2-x,1/2+y,1/2-z
-x,-y,-z
x,y,-z
1/2-x,1/2+y,1/2+z
1/2+x,1/2-y,1/2+z
loop_
_atom_site_type_symbol
_atom_site_label
_atom_site_fract_x
_atom_site_fract_y
_atom_site_fract_z
Si Si1 0.301329 0.458331 0.674984
Si Si2 0.360304 0.023660 0.674648
Si Si3 0.966349 0.848419 0.323578
Si Si4 0.178928 0.187087 0.328197
Si Si5 0.097608 0.327538 0.670484
Si Si6 0.280414 0.889401 0.323923
Si Si7 0.870114 0.219028 0.825881
Si Si8 0.945207 0.098804 0.324038
O O1 0.292657 0.470151 0.500000
O O2 0.323736 0.570393 0.735813
O O3 0.259985 0.446451 0.764212
O O4 0.329493 0.350033 0.711120
O O5 0.366021 0.021093 0.500000
O O6 0.364106 0.152523 0.736650
O O7 0.395925 0.945929 0.742568
O O8 0.316600 0.975106 0.720397
O O9 0.961862 0.851864 0.500000
O O10 0.940981 0.740214 0.261060
O O11 0.013250 0.836340 0.278198
O O12 0.947787 0.968238 0.263641
O O13 0.190079 0.163214 0.500000
O O14 0.135655 0.244751 0.311242
O O15 0.213344 0.267829 0.257303
O O16 0.090173 0.360606 0.500000
O O17 0.277923 0.869439 0.500000
O O18 0.908205 0.162865 0.748573
O O19 0.878822 0.219463 0.000000
O O20 0.939310 0.100461 0.500000
#
# Coordination Sequence:
#
# PCOD8237212 Si02
#       8
#     8   8   8   8   8   8   8   8
#     4  11  23  36  54  79 106 139 178 222 271 323
#     4   9  20  38  55  72 103 144 177 214 268 319
#     4   8  15  30  54  82 111 137 170 220 273 311
#     4  10  20  35  55  79 108 136 171 221 269 319
#     4   9  17  32  55  80 103 135 177 221 264 312
#     4  10  21  37  57  79 103 137 180 223 270 323
#     4  10  22  38  53  74 109 145 174 217 271 319
#     4   9  17  32  55  81 108 141 177 217 263 321
#
# _framework density 18.457736000000001
#
# number of rings (size 3 to 8) (size 9 to 14) (size 15 to 20)
#    0.000    2.500    0.000    2.625    1.750    3.500 
#    0.000    3.125    0.000    3.750    0.000    0.000 
#    0.000    0.000    0.000    0.000    0.000    0.000 
#
# Total GULP energy -793610.611788 kJ/mol
# GULP energy per Si atom -12400.165809 kJ/mol
# Density = 1.841573 g / cm^3
# Si number density = 18.457736 Si / 1000 Ang^3
#
#
#
# Elastic Constant Matrix: (Units=GPa)
#
#
# Indices 1 2 3 4 5 6 
#
# 1 89.5254 35.8931 35.0995 0.0000 0.0000 0.0000
# 2 35.8931 100.0765 34.3819 0.0000 0.0000 0.0000
# 3 35.0995 34.3819 41.2101 0.0000 0.0000 0.0000
# 4 0.0000 0.0000 0.0000 31.4485 0.0000 0.0000
# 5 0.0000 0.0000 0.0000 0.0000 27.8399 0.0000
# 6 0.0000 0.0000 0.0000 0.0000 0.0000 24.5312
#
#
#
# Elastic Compliance Matrix: (Units=1/GPa)
#
#
# Indices 1 2 3 4 5 6 
#
# 1 0.016944 -0.001569 -0.013123 0.000000 0.000000 0.000000
# 2 -0.001569 0.014152 -0.010471 0.000000 0.000000 0.000000
# 3 -0.013123 -0.010471 0.044179 0.000000 0.000000 0.000000
# 4 0.000000 0.000000 0.000000 0.031798 0.000000 0.000000
# 5 0.000000 0.000000 0.000000 0.000000 0.035920 0.000000
# 6 0.000000 0.000000 0.000000 0.000000 0.000000 0.040764
#
#
# Mechanical properties :
#
#
# Convention : Reuss Voigt Hill
#
# Bulk Modulus (GPa) = 40.08033 49.06232 44.57132
# Shear Modulus (GPa) = 20.62709 25.12644 22.87676
#
# Velocity S-wave (km/s) = 3.34658 3.69358 3.52435
# Velocity P-wave (km/s) = 6.05760 6.69542 6.38448
#
# Compressibility (1/GPa) = 0.02494990
#
# Stress axis : x y z
#
# Youngs Moduli (GPa) = 59.01858 70.65891 22.63511
#
# Poissons Ratio (x) = 0.11084 0.29703
# Poissons Ratio (y) = 0.09258 0.23702
# Poissons Ratio (z) = 0.77448 0.73990
#
# Static dielectric constant tensor:
#      x y z
#    x 3.433880 0.000000 0.000000 
#    y 0.000000 3.630350 0.000000 
#    z 0.000000 0.000000 3.279420 
# 
# 
# High freq. dielectric constant tensor:
#      x y z
#    x 1.715340 0.000000 0.000000 
#    y 0.000000 1.719240 0.000000 
#    z 0.000000 0.000000 1.702860 
# 
# From -- ./inp_files/11083.got.cif
#   From: 2010.06.25/outbox.cif.g09.slc.cpg/sg58_6_cif.got.tgz:11083.got - 2010.06.26 21:38:00.
