data_PCOD8237580
_publ_section_title
;
Structure prediction by ZEFSAII (Michael W. Deem and Ramdas Pophale) SiO2 
 PCOD8237580
Probable space group: P N N M
;
_chemical_formula_sum "Si O2"
_cell_formula_units_Z 64
_cell_length_a 23.530763
_cell_length_b 15.453623
_cell_length_c 9.323515
_cell_angle_alpha 90.000000
_cell_angle_beta 90.000000
_cell_angle_gamma 90.000000
_cell_volume 3390.361415
_symmetry_space_group_name_H-M "P N N M"
_symmetry_group_IT_number 58
_symmetry_cell_setting 'orthorhombic'
loop_
_space_group_symop_operation_xyz
x,y,z
-x,-y,z
1/2+x,1/2-y,1/2-z
1/2-x,1/2+y,1/2-z
-x,-y,-z
x,y,-z
1/2-x,1/2+y,1/2+z
1/2+x,1/2-y,1/2+z
loop_
_atom_site_type_symbol
_atom_site_label
_atom_site_fract_x
_atom_site_fract_y
_atom_site_fract_z
Si Si1 0.093009 0.015335 0.334452
Si Si2 0.293138 0.498650 0.330039
Si Si3 0.261747 0.840864 0.667884
Si Si4 0.614127 0.104020 0.331189
Si Si5 0.501794 0.191675 0.334394
Si Si6 0.211673 0.656174 0.667331
Si Si7 0.110057 0.589273 0.834025
Si Si8 0.990451 0.138168 0.664323
O O1 0.112594 0.021872 0.500000
O O2 0.049250 0.091383 0.295423
O O3 0.145642 0.025771 0.228760
O O4 0.062889 0.923794 0.306456
O O5 0.296569 0.486146 0.500000
O O6 0.274121 0.409357 0.258138
O O7 0.250305 0.575132 0.286546
O O8 0.252165 0.860639 0.500000
O O9 0.328072 0.846885 0.709078
O O10 0.242761 0.744845 0.710546
O O11 0.604455 0.096158 0.500000
O O12 0.560889 0.156950 0.266215
O O13 0.615873 0.006994 0.268162
O O14 0.509984 0.214591 0.500000
O O15 0.454526 0.118467 0.311473
O O16 0.481325 0.278111 0.258961
O O17 0.198350 0.654181 0.500000
O O18 0.152209 0.652868 0.750101
O O19 0.127872 0.591877 0.000000
O O20 0.991659 0.166809 0.500000
#
# Coordination Sequence:
#
# PCOD8237580 Si02
#       8
#     8   8   8   8   8   8   8   8
#     4   9  20  39  60  79 110 154 192 222 272 343
#     4  11  23  38  59  89 119 145 187 246 293 329
#     4  10  21  39  61  82 111 158 197 225 281 353
#     4   9  18  36  60  81 108 147 191 231 276 340
#     4  10  21  34  57  88 114 140 183 240 289 330
#     4  10  23  39  57  84 116 151 191 236 287 340
#     4  10  20  37  59  83 111 147 190 232 279 337
#     4   9  20  39  58  81 112 149 190 229 271 337
#
# _framework density 18.877044000000001
#
# number of rings (size 3 to 8) (size 9 to 14) (size 15 to 20)
#    0.000    2.250    1.250    1.500    3.500    4.000 
#    0.000    2.500    0.000    1.500    0.000    0.000 
#    0.000    0.000    0.000    0.000    0.000    0.000 
#
# Total GULP energy -793785.906303 kJ/mol
# GULP energy per Si atom -12402.904786 kJ/mol
# Density = 1.883408 g / cm^3
# Si number density = 18.877044 Si / 1000 Ang^3
#
#
#
# Elastic Constant Matrix: (Units=GPa)
#
#
# Indices 1 2 3 4 5 6 
#
# 1 82.3031 11.5100 29.6246 0.0000 0.0000 0.0000
# 2 11.5100 93.6240 28.3822 0.0000 0.0000 0.0000
# 3 29.6246 28.3822 46.0674 0.0000 0.0000 0.0000
# 4 0.0000 0.0000 0.0000 28.9551 0.0000 0.0000
# 5 0.0000 0.0000 0.0000 0.0000 30.2549 0.0000
# 6 0.0000 0.0000 0.0000 0.0000 0.0000 26.4299
#
#
#
# Elastic Compliance Matrix: (Units=1/GPa)
#
#
# Indices 1 2 3 4 5 6 
#
# 1 0.015960 0.001413 -0.011134 0.000000 0.000000 0.000000
# 2 0.001413 0.013259 -0.009078 0.000000 0.000000 0.000000
# 3 -0.011134 -0.009078 0.034460 0.000000 0.000000 0.000000
# 4 0.000000 0.000000 0.000000 0.034536 0.000000 0.000000
# 5 0.000000 0.000000 0.000000 0.000000 0.033053 0.000000
# 6 0.000000 0.000000 0.000000 0.000000 0.000000 0.037836
#
#
# Mechanical properties :
#
#
# Convention : Reuss Voigt Hill
#
# Bulk Modulus (GPa) = 38.34054 40.11424 39.22739
# Shear Modulus (GPa) = 23.21300 27.29315 25.25308
#
# Velocity S-wave (km/s) = 3.51050 3.80654 3.66152
# Velocity P-wave (km/s) = 6.06517 6.37308 6.22103
#
# Compressibility (1/GPa) = 0.02608205
#
# Stress axis : x y z
#
# Youngs Moduli (GPa) = 62.65539 75.41910 29.01885
#
# Poissons Ratio (x) = -0.10659 0.32311
# Poissons Ratio (y) = -0.08855 0.26343
# Poissons Ratio (z) = 0.69763 0.68464
#
# Static dielectric constant tensor:
#      x y z
#    x 3.528640 0.000000 0.000000 
#    y 0.000000 3.486390 0.000000 
#    z 0.000000 0.000000 3.233710 
# 
# 
# High freq. dielectric constant tensor:
#      x y z
#    x 1.745170 0.000000 0.000000 
#    y 0.000000 1.740530 0.000000 
#    z 0.000000 0.000000 1.712130 
# 
# From -- ./inp_files/10010.got.cif
#   From: 2010.06.25/outbox.cif.g09.slc.cpg/sg58_6_cif.got.tgz:10010.got - 2010.06.26 21:38:00.
