data_PCOD8237135
_publ_section_title
;
Structure prediction by ZEFSAII (Michael W. Deem and Ramdas Pophale) SiO2 
 PCOD8237135
Probable space group: P N N M
;
_chemical_formula_sum "Si O2"
_cell_formula_units_Z 64
_cell_length_a 12.738007
_cell_length_b 28.663681
_cell_length_c 9.259399
_cell_angle_alpha 90.000000
_cell_angle_beta 90.000000
_cell_angle_gamma 90.000000
_cell_volume 3380.774811
_symmetry_space_group_name_H-M "P N N M"
_symmetry_group_IT_number 58
_symmetry_cell_setting 'orthorhombic'
loop_
_space_group_symop_operation_xyz
x,y,z
-x,-y,z
1/2+x,1/2-y,1/2-z
1/2-x,1/2+y,1/2-z
-x,-y,-z
x,y,-z
1/2-x,1/2+y,1/2+z
1/2+x,1/2-y,1/2+z
loop_
_atom_site_type_symbol
_atom_site_label
_atom_site_fract_x
_atom_site_fract_y
_atom_site_fract_z
Si Si1 0.607128 0.400781 0.170540
Si Si2 0.882680 0.706960 0.166285
Si Si3 0.539950 0.108149 0.668762
Si Si4 0.093823 0.919676 0.832493
Si Si5 0.162101 0.832672 0.660871
Si Si6 0.059343 0.202725 0.660324
Si Si7 0.310494 0.962046 0.169098
Si Si8 0.828595 0.444253 0.831632
O O1 0.513914 0.430735 0.246203
O O2 0.601223 0.346893 0.222449
O O3 0.719476 0.420840 0.216640
O O4 0.587133 0.403700 0.000000
O O5 0.953969 0.662675 0.213482
O O6 0.763187 0.696158 0.205221
O O7 0.907532 0.754226 0.245514
O O8 0.900718 0.717538 0.000000
O O9 0.567426 0.101788 0.500000
O O10 0.627421 0.080454 0.758256
O O11 0.422523 0.091276 0.703713
O O12 0.143779 0.871544 0.780351
O O13 0.184528 0.958226 0.805421
O O14 0.064617 0.916129 0.000000
O O15 0.175567 0.855305 0.500000
O O16 0.066307 0.796785 0.658738
O O17 0.105454 0.209615 0.500000
O O18 0.350300 0.009650 0.240084
O O19 0.337329 0.962259 0.000000
O O20 0.826399 0.457684 0.000000
#
# Coordination Sequence:
#
# PCOD8237135 Si02
#       8
#     8   8   8   8   8   8   8   8
#     4   9  20  39  58  79 112 152 189 230 280 335
#     4  10  20  34  56  83 108 140 185 230 273 326
#     4  10  21  38  59  82 110 147 193 237 272 328
#     4  10  20  34  56  83 109 141 184 231 277 329
#     4   9  18  35  55  76 105 143 183 226 274 325
#     4   9  19  34  54  80 110 142 178 224 279 332
#     4  11  23  37  56  85 116 146 183 233 292 339
#     4  10  22  39  59  82 111 150 193 230 276 335
#
# _framework density 18.930571
#
# number of rings (size 3 to 8) (size 9 to 14) (size 15 to 20)
#    0.000    2.250    1.250    1.875    0.000    8.500 
#    0.000    3.750    0.000    0.000    0.000    0.000 
#    0.000    0.000    0.000    0.000    0.000    0.000 
#
# Total GULP energy -793496.573604 kJ/mol
# GULP energy per Si atom -12398.383963 kJ/mol
# Density = 1.888748 g / cm^3
# Si number density = 18.930571 Si / 1000 Ang^3
#
#
#
# Elastic Constant Matrix: (Units=GPa)
#
#
# Indices 1 2 3 4 5 6 
#
# 1 88.3261 8.1695 26.1205 0.0000 0.0000 0.0000
# 2 8.1695 45.4665 17.6853 0.0000 0.0000 0.0000
# 3 26.1205 17.6853 55.8990 0.0000 0.0000 0.0000
# 4 0.0000 0.0000 0.0000 28.7398 0.0000 0.0000
# 5 0.0000 0.0000 0.0000 0.0000 26.6352 0.0000
# 6 0.0000 0.0000 0.0000 0.0000 0.0000 24.8906
#
#
#
# Elastic Compliance Matrix: (Units=1/GPa)
#
#
# Indices 1 2 3 4 5 6 
#
# 1 0.013137 0.000031 -0.006149 0.000000 0.000000 0.000000
# 2 0.000031 0.025081 -0.007950 0.000000 0.000000 0.000000
# 3 -0.006149 -0.007950 0.023278 0.000000 0.000000 0.000000
# 4 0.000000 0.000000 0.000000 0.034795 0.000000 0.000000
# 5 0.000000 0.000000 0.000000 0.000000 0.037544 0.000000
# 6 0.000000 0.000000 0.000000 0.000000 0.000000 0.040176
#
#
# Mechanical properties :
#
#
# Convention : Reuss Voigt Hill
#
# Bulk Modulus (GPa) = 29.97472 32.62692 31.30082
# Shear Modulus (GPa) = 23.44501 25.23422 24.33961
#
# Velocity S-wave (km/s) = 3.52301 3.65497 3.58960
# Velocity P-wave (km/s) = 5.69361 5.92319 5.80954
#
# Compressibility (1/GPa) = 0.03336144
#
# Stress axis : x y z
#
# Youngs Moduli (GPa) = 76.12034 39.87113 42.95981
#
# Poissons Ratio (x) = -0.00124 0.26414
# Poissons Ratio (y) = -0.00237 0.34151
# Poissons Ratio (z) = 0.46803 0.31696
#
# Static dielectric constant tensor:
#      x y z
#    x 3.768970 0.000000 0.000000 
#    y 0.000000 3.321410 0.000000 
#    z 0.000000 0.000000 3.419590 
# 
# 
# High freq. dielectric constant tensor:
#      x y z
#    x 1.746470 0.000000 0.000000 
#    y 0.000000 1.725250 0.000000 
#    z 0.000000 0.000000 1.729450 
# 
# From -- ./inp_files/4776.got.cif
#   From: 2010.06.25/outbox.cif.g09.slc.cpg/sg58_3_cif.got.tgz:4776.got - 2010.06.26 21:38:00.
