data_PCOD8237469
_publ_section_title
;
Structure prediction by ZEFSAII (Michael W. Deem and Ramdas Pophale) SiO2 
 PCOD8237469
Probable space group: P N N M
;
_chemical_formula_sum "Si O2"
_cell_formula_units_Z 56
_cell_length_a 20.156382
_cell_length_b 15.219702
_cell_length_c 8.824628
_cell_angle_alpha 90.000000
_cell_angle_beta 90.000000
_cell_angle_gamma 90.000000
_cell_volume 2707.167555
_symmetry_space_group_name_H-M "P N N M"
_symmetry_group_IT_number 58
_symmetry_cell_setting 'orthorhombic'
loop_
_space_group_symop_operation_xyz
x,y,z
-x,-y,z
1/2+x,1/2-y,1/2-z
1/2-x,1/2+y,1/2-z
-x,-y,-z
x,y,-z
1/2-x,1/2+y,1/2+z
1/2+x,1/2-y,1/2+z
loop_
_atom_site_type_symbol
_atom_site_label
_atom_site_fract_x
_atom_site_fract_y
_atom_site_fract_z
Si Si1 0.566538 0.828477 0.174257
Si Si2 0.426762 0.818573 0.679282
Si Si3 0.125335 0.849574 0.327656
Si Si4 0.778185 0.999677 0.321123
Si Si5 0.627933 0.343648 0.823325
Si Si6 0.997139 0.899948 0.162823
Si Si7 0.870618 0.497087 0.180212
O O1 0.498747 0.791724 0.251931
O O2 0.627163 0.757166 0.185762
O O3 0.587936 0.916285 0.257316
O O4 0.550199 0.848944 0.000000
O O5 0.430135 0.819418 0.500000
O O6 0.369976 0.749421 0.734178
O O7 0.406025 0.914582 0.738550
O O8 0.107082 0.876477 0.500000
O O9 0.069856 0.875639 0.211706
O O10 0.190943 0.904273 0.278150
O O11 0.775833 0.990554 0.500000
O O12 0.819902 0.915841 0.258013
O O13 0.704190 0.995360 0.253749
O O14 0.554693 0.381260 0.795801
O O15 0.639584 0.326353 0.000000
O O16 0.979097 0.852454 0.000000
O O17 0.000000 0.000000 0.126232
O O18 0.870340 0.491723 0.000000
#
# Coordination Sequence:
#
# PCOD8237469 Si02
#       7
#     8   8   8   8   8   8   8
#     4  11  23  38  62  92 118 150 197 252 300 347
#     4  11  23  39  62  89 118 153 196 250 304 350
#     4  10  20  36  59  86 116 154 194 236 292 354
#     4   9  20  39  61  85 117 159 201 233 285 364
#     4  11  21  35  60  89 118 155 196 240 294 353
#     4  11  21  32  52  86 123 154 190 240 296 346
#     4  10  23  43  62  81 114 161 203 243 295 353
#
# _framework density 20.685828000000001
#
# number of rings (size 3 to 8) (size 9 to 14) (size 15 to 20)
#    0.000    1.571    2.857    2.143    0.000    5.143 
#    0.000    3.571    0.000    0.000    0.000    0.000 
#    0.000    0.000    0.000    0.000    0.000    0.000 
#
# Total GULP energy -693947.589995 kJ/mol
# GULP energy per Si atom -12391.921250 kJ/mol
# Density = 2.063875 g / cm^3
# Si number density = 20.685828 Si / 1000 Ang^3
#
#
#
# Elastic Constant Matrix: (Units=GPa)
#
#
# Indices 1 2 3 4 5 6 
#
# 1 80.6921 33.6076 16.9297 0.0000 0.0000 0.0000
# 2 33.6076 132.8710 23.7836 0.0000 0.0000 0.0000
# 3 16.9297 23.7836 48.6172 0.0000 0.0000 0.0000
# 4 0.0000 0.0000 0.0000 28.7714 0.0000 0.0000
# 5 0.0000 0.0000 0.0000 0.0000 17.3251 0.0000
# 6 0.0000 0.0000 0.0000 0.0000 0.0000 23.2574
#
#
#
# Elastic Compliance Matrix: (Units=1/GPa)
#
#
# Indices 1 2 3 4 5 6 
#
# 1 0.014387 -0.003005 -0.003540 0.000000 0.000000 0.000000
# 2 -0.003005 0.008876 -0.003296 0.000000 0.000000 0.000000
# 3 -0.003540 -0.003296 0.023414 0.000000 0.000000 0.000000
# 4 0.000000 0.000000 0.000000 0.034757 0.000000 0.000000
# 5 0.000000 0.000000 0.000000 0.000000 0.057720 0.000000
# 6 0.000000 0.000000 0.000000 0.000000 0.000000 0.042997
#
#
# Mechanical properties :
#
#
# Convention : Reuss Voigt Hill
#
# Bulk Modulus (GPa) = 37.04325 45.64689 41.34507
# Shear Modulus (GPa) = 23.71571 26.39474 25.05523
#
# Velocity S-wave (km/s) = 3.38963 3.57596 3.48404
# Velocity P-wave (km/s) = 5.76766 6.25817 6.01791
#
# Compressibility (1/GPa) = 0.02699547
#
# Stress axis : x y z
#
# Youngs Moduli (GPa) = 69.50642 112.66101 42.70998
#
# Poissons Ratio (x) = 0.33859 0.15118
# Poissons Ratio (y) = 0.20889 0.14076
# Poissons Ratio (z) = 0.24603 0.37130
#
# Static dielectric constant tensor:
#      x y z
#    x 3.816050 0.000000 0.000000 
#    y 0.000000 4.097120 0.000000 
#    z 0.000000 0.000000 3.560130 
# 
# 
# High freq. dielectric constant tensor:
#      x y z
#    x 1.788010 0.000000 0.000000 
#    y 0.000000 1.832130 0.000000 
#    z 0.000000 0.000000 1.796730 
# 
# From -- ./inp_files/6245.got.cif
#   From: 2010.06.25/outbox.cif.g09.slc.cpg/sg58_4_cif.got.tgz:6245.got - 2010.06.26 21:38:00.
