data_PCOD8237251
_publ_section_title
;
Structure prediction by ZEFSAII (Michael W. Deem and Ramdas Pophale) SiO2 
 PCOD8237251
Probable space group: P N N M
;
_chemical_formula_sum "Si O2"
_cell_formula_units_Z 56
_cell_length_a 25.059316
_cell_length_b 5.002707
_cell_length_c 21.955816
_cell_angle_alpha 90.000000
_cell_angle_beta 90.000000
_cell_angle_gamma 90.000000
_cell_volume 2752.478041
_symmetry_space_group_name_H-M "P N N M"
_symmetry_group_IT_number 58
_symmetry_cell_setting 'orthorhombic'
loop_
_space_group_symop_operation_xyz
x,y,z
-x,-y,z
1/2+x,1/2-y,1/2-z
1/2-x,1/2+y,1/2-z
-x,-y,-z
x,y,-z
1/2-x,1/2+y,1/2+z
1/2+x,1/2-y,1/2+z
loop_
_atom_site_type_symbol
_atom_site_label
_atom_site_fract_x
_atom_site_fract_y
_atom_site_fract_z
Si Si1 0.214581 0.148039 0.256695
Si Si2 0.769338 0.569988 0.069962
Si Si3 0.438153 0.939896 0.746378
Si Si4 0.336338 0.440715 0.429762
Si Si5 0.847401 0.199747 0.572187
Si Si6 0.130936 0.281251 0.643777
Si Si7 0.887730 0.044894 0.811615
O O1 0.244329 0.407113 0.227902
O O2 0.185050 0.246341 0.317509
O O3 0.171635 0.037511 0.208865
O O4 0.814188 0.774592 0.093232
O O5 0.711169 0.618300 0.097675
O O6 0.788601 0.269142 0.080922
O O7 0.762328 0.641903 0.000000
O O8 0.418502 0.853956 0.813080
O O9 0.405208 0.198038 0.726227
O O10 0.500000 0.000000 0.748967
O O11 0.428829 0.697234 0.699228
O O12 0.356610 0.434328 0.500000
O O13 0.385656 0.382675 0.383907
O O14 0.854778 0.173147 0.500000
O O15 0.885214 0.989426 0.607716
O O16 0.860620 0.497926 0.592040
#
# Coordination Sequence:
#
# PCOD8237251 Si02
#       7
#     8   8   8   8   8   8   8
#     4  11  23  36  54  86 128 164 191 245 294 346
#     4   9  19  32  48  77 114 169 201 214 262 335
#     4  11  24  46  67  85 112 151 206 266 312 365
#     4  10  20  35  56  82 121 159 198 236 278 347
#     4  11  22  37  58  86 125 162 203 244 284 353
#     4  11  23  39  59  88 115 158 211 240 306 362
#     4  11  23  39  61  92 116 154 208 242 308 366
#
# _framework density 20.345300999999999
#
# number of rings (size 3 to 8) (size 9 to 14) (size 15 to 20)
#    0.000    1.429    0.000    6.857    6.000    2.286 
#    0.000    0.000    0.000    5.143    0.000    0.000 
#    0.000    0.000    0.000    0.000    0.000    0.000 
#
# Total GULP energy -694360.899244 kJ/mol
# GULP energy per Si atom -12399.301772 kJ/mol
# Density = 2.029899 g / cm^3
# Si number density = 20.345301 Si / 1000 Ang^3
#
#
#
# Elastic Constant Matrix: (Units=GPa)
#
#
# Indices 1 2 3 4 5 6 
#
# 1 56.3245 10.2627 40.6382 0.0000 0.0000 0.0000
# 2 10.2627 108.0549 36.2566 0.0000 0.0000 0.0000
# 3 40.6382 36.2566 105.3594 0.0000 0.0000 0.0000
# 4 0.0000 0.0000 0.0000 24.3669 0.0000 0.0000
# 5 0.0000 0.0000 0.0000 0.0000 11.5301 0.0000
# 6 0.0000 0.0000 0.0000 0.0000 0.0000 22.5350
#
#
#
# Elastic Compliance Matrix: (Units=1/GPa)
#
#
# Indices 1 2 3 4 5 6 
#
# 1 0.024688 0.000961 -0.009853 0.000000 0.000000 0.000000
# 2 0.000961 0.010500 -0.003984 0.000000 0.000000 0.000000
# 3 -0.009853 -0.003984 0.014663 0.000000 0.000000 0.000000
# 4 0.000000 0.000000 0.000000 0.041039 0.000000 0.000000
# 5 0.000000 0.000000 0.000000 0.000000 0.086730 0.000000
# 6 0.000000 0.000000 0.000000 0.000000 0.000000 0.044376
#
#
# Mechanical properties :
#
#
# Convention : Reuss Voigt Hill
#
# Bulk Modulus (GPa) = 41.49543 49.33932 45.41737
# Shear Modulus (GPa) = 19.54797 23.85848 21.70322
#
# Velocity S-wave (km/s) = 3.10306 3.42815 3.26965
# Velocity P-wave (km/s) = 5.76875 6.32244 6.05193
#
# Compressibility (1/GPa) = 0.02409904
#
# Stress axis : x y z
#
# Youngs Moduli (GPa) = 40.50497 95.23746 68.19940
#
# Poissons Ratio (x) = -0.09156 0.67199
# Poissons Ratio (y) = -0.03894 0.27171
# Poissons Ratio (z) = 0.39911 0.37944
#
# Static dielectric constant tensor:
#      x y z
#    x 3.372890 0.000000 0.000000 
#    y 0.000000 3.957960 0.000000 
#    z 0.000000 0.000000 3.788870 
# 
# 
# High freq. dielectric constant tensor:
#      x y z
#    x 1.743680 0.000000 0.000000 
#    y 0.000000 1.819930 0.000000 
#    z 0.000000 0.000000 1.805230 
# 
# From -- ./inp_files/30519.got.cif
#   From: 2010.06.25/outbox.cif.g09.slc.cpg/sg58_16_cif.got.tgz:30519.got - 2010.06.26 21:38:00.
