data_PCOD8237324
_publ_section_title
;
Structure prediction by ZEFSAII (Michael W. Deem and Ramdas Pophale) SiO2 
 PCOD8237324
Probable space group: P N N M
;
_chemical_formula_sum "Si O2"
_cell_formula_units_Z 64
_cell_length_a 12.736492
_cell_length_b 28.863551
_cell_length_c 9.148041
_cell_angle_alpha 90.000000
_cell_angle_beta 90.000000
_cell_angle_gamma 90.000000
_cell_volume 3363.006367
_symmetry_space_group_name_H-M "P N N M"
_symmetry_group_IT_number 58
_symmetry_cell_setting 'orthorhombic'
loop_
_space_group_symop_operation_xyz
x,y,z
-x,-y,z
1/2+x,1/2-y,1/2-z
1/2-x,1/2+y,1/2-z
-x,-y,-z
x,y,-z
1/2-x,1/2+y,1/2+z
1/2+x,1/2-y,1/2+z
loop_
_atom_site_type_symbol
_atom_site_label
_atom_site_fract_x
_atom_site_fract_y
_atom_site_fract_z
Si Si1 0.050070 0.700398 0.828396
Si Si2 0.871198 0.388110 0.325688
Si Si3 0.383670 0.302731 0.329289
Si Si4 0.590669 0.073816 0.162163
Si Si5 0.150124 0.322527 0.663146
Si Si6 0.322465 0.566346 0.831228
Si Si7 0.777614 0.038642 0.331564
Si Si8 0.955169 0.108573 0.672866
O O1 0.120738 0.663149 0.742552
O O2 0.083354 0.751612 0.781857
O O3 0.929281 0.696609 0.783008
O O4 0.063283 0.691429 0.000000
O O5 0.871352 0.382832 0.500000
O O6 0.766018 0.411844 0.271017
O O7 0.972284 0.418991 0.275855
O O8 0.401438 0.311865 0.500000
O O9 0.262949 0.306157 0.284199
O O10 0.451121 0.340592 0.242656
O O11 0.650458 0.122336 0.160202
O O12 0.662238 0.039824 0.258270
O O13 0.584426 0.052286 0.000000
O O14 0.122713 0.303694 0.500000
O O15 0.327569 0.511522 0.806126
O O16 0.434260 0.586192 0.781539
O O17 0.297368 0.578295 0.000000
O O18 0.758233 0.049226 0.500000
O O19 0.860363 0.076106 0.267368
O O20 0.947094 0.113174 0.500000
#
# Coordination Sequence:
#
# PCOD8237324 Si02
#       8
#     8   8   8   8   8   8   8   8
#     4  10  21  36  57  84 112 145 186 232 284 338
#     4  10  22  40  58  80 113 152 191 234 286 341
#     4  10  21  37  57  83 113 146 187 233 282 337
#     4   9  18  34  57  80 107 144 185 233 281 330
#     4   9  18  35  55  76 109 148 181 225 281 332
#     4  10  22  39  57  81 118 156 189 232 286 340
#     4  10  20  35  58  86 113 147 190 236 283 335
#     4  10  21  37  58  84 114 149 191 236 283 336
#
# _framework density 19.030591000000001
#
# number of rings (size 3 to 8) (size 9 to 14) (size 15 to 20)
#    0.000    2.250    1.250    1.875    0.000    8.000 
#    0.000    6.250    0.000    2.250    0.000    0.000 
#    0.000    0.000    0.000    0.000    0.000    0.000 
#
# Total GULP energy -793614.693200 kJ/mol
# GULP energy per Si atom -12400.229581 kJ/mol
# Density = 1.898728 g / cm^3
# Si number density = 19.030591 Si / 1000 Ang^3
#
#
#
# Elastic Constant Matrix: (Units=GPa)
#
#
# Indices 1 2 3 4 5 6 
#
# 1 102.5166 48.3723 39.8366 0.0000 0.0000 0.0000
# 2 48.3723 53.6622 30.6791 0.0000 0.0000 0.0000
# 3 39.8366 30.6791 55.9119 0.0000 0.0000 0.0000
# 4 0.0000 0.0000 0.0000 26.1115 0.0000 0.0000
# 5 0.0000 0.0000 0.0000 0.0000 30.1165 0.0000
# 6 0.0000 0.0000 0.0000 0.0000 0.0000 22.7656
#
#
#
# Elastic Compliance Matrix: (Units=1/GPa)
#
#
# Indices 1 2 3 4 5 6 
#
# 1 0.018167 -0.013079 -0.005767 0.000000 0.000000 0.000000
# 2 -0.013079 0.036569 -0.010747 0.000000 0.000000 0.000000
# 3 -0.005767 -0.010747 0.027891 0.000000 0.000000 0.000000
# 4 0.000000 0.000000 0.000000 0.038297 0.000000 0.000000
# 5 0.000000 0.000000 0.000000 0.000000 0.033204 0.000000
# 6 0.000000 0.000000 0.000000 0.000000 0.000000 0.043926
#
#
# Mechanical properties :
#
#
# Convention : Reuss Voigt Hill
#
# Bulk Modulus (GPa) = 42.66059 49.98520 46.32289
# Shear Modulus (GPa) = 18.86409 22.01223 20.43816
#
# Velocity S-wave (km/s) = 3.15183 3.40468 3.28069
# Velocity P-wave (km/s) = 5.97586 6.46363 6.22453
#
# Compressibility (1/GPa) = 0.02344084
#
# Stress axis : x y z
#
# Youngs Moduli (GPa) = 55.04561 27.34584 35.85344
#
# Poissons Ratio (x) = 0.35765 0.20678
# Poissons Ratio (y) = 0.71993 0.38532
# Poissons Ratio (z) = 0.31746 0.29389
#
# Static dielectric constant tensor:
#      x y z
#    x 3.528570 0.000000 0.000000 
#    y 0.000000 3.427880 0.000000 
#    z 0.000000 0.000000 3.419050 
# 
# 
# High freq. dielectric constant tensor:
#      x y z
#    x 1.745700 0.000000 0.000000 
#    y 0.000000 1.737630 0.000000 
#    z 0.000000 0.000000 1.732690 
# 
# From -- ./inp_files/4792.got.cif
#   From: 2010.06.25/outbox.cif.g09.slc.cpg/sg58_3_cif.got.tgz:4792.got - 2010.06.26 21:38:00.
