data_PCOD8237147
_publ_section_title
;
Structure prediction by ZEFSAII (Michael W. Deem and Ramdas Pophale) SiO2 
 PCOD8237147
Probable space group: P N N M
;
_chemical_formula_sum "Si O2"
_cell_formula_units_Z 64
_cell_length_a 24.027009
_cell_length_b 14.627287
_cell_length_c 9.009431
_cell_angle_alpha 90.000000
_cell_angle_beta 90.000000
_cell_angle_gamma 90.000000
_cell_volume 3166.364132
_symmetry_space_group_name_H-M "P N N M"
_symmetry_group_IT_number 58
_symmetry_cell_setting 'orthorhombic'
loop_
_space_group_symop_operation_xyz
x,y,z
-x,-y,z
1/2+x,1/2-y,1/2-z
1/2-x,1/2+y,1/2-z
-x,-y,-z
x,y,-z
1/2-x,1/2+y,1/2+z
1/2+x,1/2-y,1/2+z
loop_
_atom_site_type_symbol
_atom_site_label
_atom_site_fract_x
_atom_site_fract_y
_atom_site_fract_z
Si Si1 0.584476 0.243381 0.673817
Si Si2 0.707023 0.295904 0.668978
Si Si3 0.447060 0.939828 0.175475
Si Si4 0.147103 0.916150 0.827645
Si Si5 0.856194 0.443443 0.167595
Si Si6 0.269619 0.523018 0.834221
Si Si7 0.668598 0.758547 0.830175
Si Si8 0.052572 0.055071 0.824565
O O1 0.572607 0.231983 0.500000
O O2 0.651400 0.237266 0.704426
O O3 0.551776 0.162356 0.756860
O O4 0.559893 0.340750 0.733449
O O5 0.702015 0.334680 0.500000
O O6 0.710085 0.377615 0.784731
O O7 0.764714 0.239409 0.685385
O O8 0.500000 0.000000 0.226281
O O9 0.393108 0.991271 0.232941
O O10 0.444693 0.930051 0.000000
O O11 0.133440 0.825217 0.735769
O O12 0.208479 0.948217 0.781495
O O13 0.106344 0.997249 0.778607
O O14 0.143652 0.892379 0.000000
O O15 0.796044 0.488955 0.166098
O O16 0.852568 0.344303 0.238511
O O17 0.879851 0.436006 0.000000
O O18 0.293025 0.504983 0.000000
O O19 0.651871 0.774026 0.000000
O O20 0.046339 0.059614 0.000000
O O21 0.000000 0.000000 0.755918
#
# Coordination Sequence:
#
# PCOD8237147 Si02
#       8
#     8   8   8   8   8   8   8   8
#     4  10  20  38  63  90 119 156 204 252 301 361
#     4   9  18  35  57  84 119 158 198 243 297 359
#     4  11  26  45  63  88 122 159 204 259 316 368
#     4  11  21  35  56  86 124 162 203 246 297 363
#     4  10  22  41  63  88 117 157 208 254 304 369
#     4  10  20  34  56  86 121 155 195 248 302 362
#     4  10  21  36  57  88 129 166 199 248 308 364
#     4   9  19  37  61  89 119 154 198 249 295 344
#
# _framework density 20.212456
#
# number of rings (size 3 to 8) (size 9 to 14) (size 15 to 20)
#    0.000    2.000    1.250    1.875    1.750    4.500 
#    0.000    1.250    0.000    2.625    0.000    0.000 
#    0.000    0.000    0.000    0.000    0.000    0.000 
#
# Total GULP energy -793413.423162 kJ/mol
# GULP energy per Si atom -12397.084737 kJ/mol
# Density = 2.016645 g / cm^3
# Si number density = 20.212456 Si / 1000 Ang^3
#
#
#
# Elastic Constant Matrix: (Units=GPa)
#
#
# Indices 1 2 3 4 5 6 
#
# 1 71.1963 58.7614 39.2985 0.0000 0.0000 0.0000
# 2 58.7614 127.6264 22.5967 0.0000 0.0000 0.0000
# 3 39.2985 22.5967 41.6963 0.0000 0.0000 0.0000
# 4 0.0000 0.0000 0.0000 29.6946 0.0000 0.0000
# 5 0.0000 0.0000 0.0000 0.0000 21.8944 0.0000
# 6 0.0000 0.0000 0.0000 0.0000 0.0000 28.7665
#
#
#
# Elastic Compliance Matrix: (Units=1/GPa)
#
#
# Indices 1 2 3 4 5 6 
#
# 1 0.045469 -0.014764 -0.034853 0.000000 0.000000 0.000000
# 2 -0.014764 0.013461 0.006620 0.000000 0.000000 0.000000
# 3 -0.034853 0.006620 0.053244 0.000000 0.000000 0.000000
# 4 0.000000 0.000000 0.000000 0.033676 0.000000 0.000000
# 5 0.000000 0.000000 0.000000 0.000000 0.045674 0.000000
# 6 0.000000 0.000000 0.000000 0.000000 0.000000 0.034763
#
#
# Mechanical properties :
#
#
# Convention : Reuss Voigt Hill
#
# Bulk Modulus (GPa) = 38.19721 53.53691 45.86706
# Shear Modulus (GPa) = 15.57596 24.06194 19.81895
#
# Velocity S-wave (km/s) = 2.77900 3.45403 3.13474
# Velocity P-wave (km/s) = 5.40703 6.51550 5.98698
#
# Compressibility (1/GPa) = 0.02617992
#
# Stress axis : x y z
#
# Youngs Moduli (GPa) = 21.99303 74.28981 18.78131
#
# Poissons Ratio (x) = 1.09680 0.65459
# Poissons Ratio (y) = 0.32470 -0.12433
# Poissons Ratio (z) = 0.76653 -0.49179
#
# Static dielectric constant tensor:
#      x y z
#    x 3.745650 0.000000 0.000000 
#    y 0.000000 3.787530 0.000000 
#    z 0.000000 0.000000 3.605460 
# 
# 
# High freq. dielectric constant tensor:
#      x y z
#    x 1.780290 0.000000 0.000000 
#    y 0.000000 1.794130 0.000000 
#    z 0.000000 0.000000 1.780580 
# 
# From -- ./inp_files/9933.got.cif
#   From: 2010.06.25/outbox.cif.g09.slc.cpg/sg58_5_cif.got.tgz:9933.got - 2010.06.26 21:38:00.
