data_PCOD8237323
_publ_section_title
;
Structure prediction by ZEFSAII (Michael W. Deem and Ramdas Pophale) SiO2 
 PCOD8237323
Probable space group: P N N M
;
_chemical_formula_sum "Si O2"
_cell_formula_units_Z 56
_cell_length_a 20.200502
_cell_length_b 15.324844
_cell_length_c 8.765855
_cell_angle_alpha 90.000000
_cell_angle_beta 90.000000
_cell_angle_gamma 90.000000
_cell_volume 2713.641716
_symmetry_space_group_name_H-M "P N N M"
_symmetry_group_IT_number 58
_symmetry_cell_setting 'orthorhombic'
loop_
_space_group_symop_operation_xyz
x,y,z
-x,-y,z
1/2+x,1/2-y,1/2-z
1/2-x,1/2+y,1/2-z
-x,-y,-z
x,y,-z
1/2-x,1/2+y,1/2+z
1/2+x,1/2-y,1/2+z
loop_
_atom_site_type_symbol
_atom_site_label
_atom_site_fract_x
_atom_site_fract_y
_atom_site_fract_z
Si Si1 0.130178 0.501418 0.681311
Si Si2 0.078404 0.316540 0.320470
Si Si3 0.426006 0.180573 0.178638
Si Si4 0.720971 0.499917 0.681158
Si Si5 0.630226 0.656142 0.322980
Si Si6 0.005115 0.900751 0.334521
Si Si7 0.372710 0.655675 0.320453
O O1 0.133161 0.505247 0.500000
O O2 0.090862 0.415509 0.734189
O O3 0.091953 0.585755 0.748510
O O4 0.204966 0.500070 0.746749
O O5 0.091353 0.307228 0.500000
O O6 0.133286 0.257278 0.230866
O O7 0.001651 0.292113 0.277669
O O8 0.371650 0.250318 0.238374
O O9 0.417575 0.172443 0.000000
O O10 0.718836 0.505174 0.500000
O O11 0.684015 0.587273 0.744103
O O12 0.686636 0.408385 0.732184
O O13 0.642416 0.673289 0.500000
O O14 0.559061 0.613362 0.295752
O O15 0.021674 0.853786 0.500000
O O16 0.935790 0.869830 0.275279
O O17 0.000000 0.000000 0.372484
O O18 0.384399 0.647934 0.500000
#
# Coordination Sequence:
#
# PCOD8237323 Si02
#       7
#     8   8   8   8   8   8   8
#     4   9  19  38  59  77 108 152 194 234 274 324
#     4  10  20  35  58  86 110 141 189 240 281 323
#     4  10  20  35  58  86 110 141 189 240 281 323
#     4   9  20  36  54  80 113 152 191 219 268 343
#     4  11  21  34  55  83 115 149 181 223 280 338
#     4  11  21  33  53  82 113 144 183 231 278 326
#     4  11  21  34  55  83 115 149 181 223 280 338
#
# _framework density 20.636475000000001
#
# number of rings (size 3 to 8) (size 9 to 14) (size 15 to 20)
#    0.000    1.857    2.857    1.714    0.000    3.429 
#    0.000    0.714    0.000    6.857    0.000    0.000 
#    0.000    0.000    0.000    0.000    0.000    0.000 
#
# Total GULP energy -693897.556102 kJ/mol
# GULP energy per Si atom -12391.027788 kJ/mol
# Density = 2.058951 g / cm^3
# Si number density = 20.636475 Si / 1000 Ang^3
#
#
#
# Elastic Constant Matrix: (Units=GPa)
#
#
# Indices 1 2 3 4 5 6 
#
# 1 74.7798 32.8209 14.8973 0.0000 0.0000 0.0000
# 2 32.8209 150.3894 21.5371 0.0000 0.0000 0.0000
# 3 14.8973 21.5371 30.9283 0.0000 0.0000 0.0000
# 4 0.0000 0.0000 0.0000 29.1244 0.0000 0.0000
# 5 0.0000 0.0000 0.0000 0.0000 16.3676 0.0000
# 6 0.0000 0.0000 0.0000 0.0000 0.0000 28.8494
#
#
#
# Elastic Compliance Matrix: (Units=1/GPa)
#
#
# Indices 1 2 3 4 5 6 
#
# 1 0.015654 -0.002595 -0.005733 0.000000 0.000000 0.000000
# 2 -0.002595 0.007816 -0.004193 0.000000 0.000000 0.000000
# 3 -0.005733 -0.004193 0.038014 0.000000 0.000000 0.000000
# 4 0.000000 0.000000 0.000000 0.034335 0.000000 0.000000
# 5 0.000000 0.000000 0.000000 0.000000 0.061096 0.000000
# 6 0.000000 0.000000 0.000000 0.000000 0.000000 0.034663
#
#
# Mechanical properties :
#
#
# Convention : Reuss Voigt Hill
#
# Bulk Modulus (GPa) = 27.44073 43.84533 35.64303
# Shear Modulus (GPa) = 21.85626 27.32442 24.59034
#
# Velocity S-wave (km/s) = 3.25792 3.64274 3.45570
# Velocity P-wave (km/s) = 5.24196 6.24383 5.76470
#
# Compressibility (1/GPa) = 0.03644217
#
# Stress axis : x y z
#
# Youngs Moduli (GPa) = 63.88259 127.93859 26.30620
#
# Poissons Ratio (x) = 0.33204 0.15081
# Poissons Ratio (y) = 0.16579 0.11030
# Poissons Ratio (z) = 0.36622 0.53642
#
# Static dielectric constant tensor:
#      x y z
#    x 3.715100 0.000000 0.000000 
#    y 0.000000 4.262320 0.000000 
#    z 0.000000 0.000000 3.332540 
# 
# 
# High freq. dielectric constant tensor:
#      x y z
#    x 1.789630 0.000000 0.000000 
#    y 0.000000 1.836880 0.000000 
#    z 0.000000 0.000000 1.768030 
# 
# From -- ./inp_files/6246.got.cif
#   From: 2010.06.25/outbox.cif.g09.slc.cpg/sg58_4_cif.got.tgz:6246.got - 2010.06.26 21:38:00.
