data_PCOD8237144
_publ_section_title
;
Structure prediction by ZEFSAII (Michael W. Deem and Ramdas Pophale) SiO2 
 PCOD8237144
Probable space group: P N N M
;
_chemical_formula_sum "Si O2"
_cell_formula_units_Z 56
_cell_length_a 15.766443
_cell_length_b 19.880217
_cell_length_c 9.161347
_cell_angle_alpha 90.000000
_cell_angle_beta 90.000000
_cell_angle_gamma 90.000000
_cell_volume 2871.535427
_symmetry_space_group_name_H-M "P N N M"
_symmetry_group_IT_number 58
_symmetry_cell_setting 'orthorhombic'
loop_
_space_group_symop_operation_xyz
x,y,z
-x,-y,z
1/2+x,1/2-y,1/2-z
1/2-x,1/2+y,1/2-z
-x,-y,-z
x,y,-z
1/2-x,1/2+y,1/2+z
1/2+x,1/2-y,1/2+z
loop_
_atom_site_type_symbol
_atom_site_label
_atom_site_fract_x
_atom_site_fract_y
_atom_site_fract_z
Si Si1 0.025177 0.182942 0.832211
Si Si2 0.318878 0.201818 0.169153
Si Si3 0.986933 0.683316 0.669569
Si Si4 0.760175 0.036344 0.331909
Si Si5 0.832077 0.163278 0.170755
Si Si6 0.932629 0.553956 0.832351
Si Si7 0.181843 0.091901 0.830590
O O1 0.048262 0.247517 0.735935
O O2 0.090480 0.123661 0.796300
O O3 0.931899 0.155283 0.795726
O O4 0.032253 0.205673 0.000000
O O5 0.413240 0.175432 0.201414
O O6 0.297608 0.266673 0.265749
O O7 0.254987 0.143504 0.216916
O O8 0.307062 0.221509 0.000000
O O9 0.965867 0.683744 0.500000
O O10 0.937337 0.621866 0.740656
O O11 0.786383 0.044138 0.500000
O O12 0.782481 0.104152 0.248777
O O13 0.660288 0.022147 0.314402
O O14 0.812091 0.974961 0.264124
O O15 0.812251 0.161035 0.000000
O O16 0.000000 0.500000 0.770917
O O17 0.953226 0.571491 0.000000
O O18 0.191166 0.072510 0.000000
#
# Coordination Sequence:
#
# PCOD8237144 Si02
#       7
#     8   8   8   8   8   8   8
#     4   9  20  38  59  83 111 150 192 231 279 338
#     4   9  19  36  58  85 117 149 183 232 289 336
#     4  10  20  34  56  86 116 145 183 234 284 333
#     4  11  24  39  57  83 115 150 189 237 290 340
#     4  10  21  38  59  83 114 151 193 235 279 340
#     4  10  22  39  58  80 112 153 192 230 281 347
#     4  10  21  38  60  83 111 148 191 234 282 341
#
# _framework density 19.501763
#
# number of rings (size 3 to 8) (size 9 to 14) (size 15 to 20)
#    0.000    2.143    0.000    2.143    2.000    4.286 
#    0.000    2.857    0.000    0.000    0.000    0.000 
#    0.000    0.000    0.000    0.000    0.000    0.000 
#
# Total GULP energy -694727.490875 kJ/mol
# GULP energy per Si atom -12405.848051 kJ/mol
# Density = 1.945738 g / cm^3
# Si number density = 19.501763 Si / 1000 Ang^3
#
#
#
# Elastic Constant Matrix: (Units=GPa)
#
#
# Indices 1 2 3 4 5 6 
#
# 1 43.3220 15.2588 18.2778 0.0000 0.0000 0.0000
# 2 15.2588 90.1314 49.2503 0.0000 0.0000 0.0000
# 3 18.2778 49.2503 87.2607 0.0000 0.0000 0.0000
# 4 0.0000 0.0000 0.0000 39.7933 0.0000 0.0000
# 5 0.0000 0.0000 0.0000 0.0000 12.9818 0.0000
# 6 0.0000 0.0000 0.0000 0.0000 0.0000 33.1982
#
#
#
# Elastic Compliance Matrix: (Units=1/GPa)
#
#
# Indices 1 2 3 4 5 6 
#
# 1 0.025574 -0.002028 -0.004212 0.000000 0.000000 0.000000
# 2 -0.002028 0.016203 -0.008720 0.000000 0.000000 0.000000
# 3 -0.004212 -0.008720 0.017264 0.000000 0.000000 0.000000
# 4 0.000000 0.000000 0.000000 0.025130 0.000000 0.000000
# 5 0.000000 0.000000 0.000000 0.000000 0.077031 0.000000
# 6 0.000000 0.000000 0.000000 0.000000 0.000000 0.030122
#
#
# Mechanical properties :
#
#
# Convention : Reuss Voigt Hill
#
# Bulk Modulus (GPa) = 34.34004 42.92087 38.63046
# Shear Modulus (GPa) = 21.64944 26.38981 24.01963
#
# Velocity S-wave (km/s) = 3.33547 3.68258 3.51332
# Velocity P-wave (km/s) = 5.69919 6.33548 6.02574
#
# Compressibility (1/GPa) = 0.02912052
#
# Stress axis : x y z
#
# Youngs Moduli (GPa) = 39.10152 61.71579 57.92365
#
# Poissons Ratio (x) = 0.12515 0.24399
# Poissons Ratio (y) = 0.07929 0.50512
# Poissons Ratio (z) = 0.16471 0.53819
#
# Static dielectric constant tensor:
#      x y z
#    x 3.636800 0.000000 0.000000 
#    y 0.000000 3.442180 0.000000 
#    z 0.000000 0.000000 3.568540 
# 
# 
# High freq. dielectric constant tensor:
#      x y z
#    x 1.763870 0.000000 0.000000 
#    y 0.000000 1.759650 0.000000 
#    z 0.000000 0.000000 1.761250 
# 
# From -- ./inp_files/6269.got.cif
#   From: 2010.06.25/outbox.cif.g09.slc.cpg/sg58_4_cif.got.tgz:6269.got - 2010.06.26 21:38:00.
