data_PCOD8237123
_publ_section_title
;
Structure prediction by ZEFSAII (Michael W. Deem and Ramdas Pophale) SiO2 
 PCOD8237123
Probable space group: P N N M
;
_chemical_formula_sum "Si O2"
_cell_formula_units_Z 64
_cell_length_a 23.485193
_cell_length_b 14.856813
_cell_length_c 9.539111
_cell_angle_alpha 90.000000
_cell_angle_beta 90.000000
_cell_angle_gamma 90.000000
_cell_volume 3328.340066
_symmetry_space_group_name_H-M "P N N M"
_symmetry_group_IT_number 58
_symmetry_cell_setting 'orthorhombic'
loop_
_space_group_symop_operation_xyz
x,y,z
-x,-y,z
1/2+x,1/2-y,1/2-z
1/2-x,1/2+y,1/2-z
-x,-y,-z
x,y,-z
1/2-x,1/2+y,1/2+z
1/2+x,1/2-y,1/2+z
loop_
_atom_site_type_symbol
_atom_site_label
_atom_site_fract_x
_atom_site_fract_y
_atom_site_fract_z
Si Si1 0.470613 0.594885 0.843479
Si Si2 0.246323 0.565155 0.165790
Si Si3 0.750571 0.731404 0.334139
Si Si4 0.038716 0.412911 0.659192
Si Si5 0.627930 0.674216 0.339516
Si Si6 0.829076 0.566907 0.334696
Si Si7 0.365714 0.487847 0.157202
Si Si8 0.987833 0.255315 0.161331
O O1 0.500000 0.500000 0.813477
O O2 0.402578 0.579158 0.833371
O O3 0.486233 0.665437 0.725730
O O4 0.486814 0.629999 0.000000
O O5 0.260048 0.666578 0.218920
O O6 0.194964 0.519471 0.251308
O O7 0.301668 0.507581 0.203786
O O8 0.231946 0.564213 0.000000
O O9 0.750741 0.731409 0.500000
O O10 0.688283 0.704834 0.276358
O O11 0.798473 0.659905 0.282110
O O12 0.036155 0.376897 0.500000
O O13 0.104142 0.429844 0.701479
O O14 0.000000 0.500000 0.677193
O O15 0.012275 0.340779 0.761684
O O16 0.634438 0.644949 0.500000
O O17 0.606325 0.587540 0.255281
O O18 0.580935 0.752940 0.323130
O O19 0.818592 0.552158 0.500000
O O20 0.367332 0.449442 0.000000
O O21 0.006251 0.259915 0.000000
#
# Coordination Sequence:
#
# PCOD8237123 Si02
#       8
#     8   8   8   8   8   8   8   8
#     4  10  20  35  56  82 117 159 194 230 285 352
#     4  10  21  36  59  86 114 148 189 238 291 349
#     4   9  19  36  58  83 112 151 189 228 289 356
#     4  10  24  44  64  86 115 157 207 253 295 347
#     4  10  20  36  57  81 115 153 191 235 292 356
#     4  10  21  40  64  86 115 154 196 241 292 349
#     4  10  20  34  55  85 116 150 192 235 286 343
#     4  11  24  38  58  88 117 154 198 245 299 349
#
# _framework density 19.228804
#
# number of rings (size 3 to 8) (size 9 to 14) (size 15 to 20)
#    0.000    2.000    2.500    0.375    3.500    2.000 
#    0.000    1.250    0.000    0.000    0.000    0.000 
#    0.000    0.000    0.000    0.000    0.000    0.000 
#
# Total GULP energy -793457.767592 kJ/mol
# GULP energy per Si atom -12397.777619 kJ/mol
# Density = 1.918504 g / cm^3
# Si number density = 19.228804 Si / 1000 Ang^3
#
#
#
# Elastic Constant Matrix: (Units=GPa)
#
#
# Indices 1 2 3 4 5 6 
#
# 1 131.4129 49.3167 50.8133 0.0000 0.0000 0.0000
# 2 49.3167 105.4463 53.2914 0.0000 0.0000 0.0000
# 3 50.8133 53.2914 79.0093 0.0000 0.0000 0.0000
# 4 0.0000 0.0000 0.0000 53.6242 0.0000 0.0000
# 5 0.0000 0.0000 0.0000 0.0000 25.0241 0.0000
# 6 0.0000 0.0000 0.0000 0.0000 0.0000 26.0647
#
#
#
# Elastic Compliance Matrix: (Units=1/GPa)
#
#
# Indices 1 2 3 4 5 6 
#
# 1 0.010474 -0.002267 -0.005207 0.000000 0.000000 0.000000
# 2 -0.002267 0.014879 -0.008578 0.000000 0.000000 0.000000
# 3 -0.005207 -0.008578 0.021791 0.000000 0.000000 0.000000
# 4 0.000000 0.000000 0.000000 0.018648 0.000000 0.000000
# 5 0.000000 0.000000 0.000000 0.000000 0.039962 0.000000
# 6 0.000000 0.000000 0.000000 0.000000 0.000000 0.038366
#
#
# Mechanical properties :
#
#
# Convention : Reuss Voigt Hill
#
# Bulk Modulus (GPa) = 66.48755 69.19014 67.83885
# Shear Modulus (GPa) = 27.58829 31.77239 29.68034
#
# Velocity S-wave (km/s) = 3.79190 4.06930 3.93305
# Velocity P-wave (km/s) = 7.33645 7.62493 7.48208
#
# Compressibility (1/GPa) = 0.01504041
#
# Stress axis : x y z
#
# Youngs Moduli (GPa) = 95.47722 67.20943 45.89026
#
# Poissons Ratio (x) = 0.15236 0.23895
# Poissons Ratio (y) = 0.21645 0.39364
# Poissons Ratio (z) = 0.49714 0.57651
#
# Static dielectric constant tensor:
#      x y z
#    x 3.879030 0.000000 0.000000 
#    y 0.000000 11.444460 0.000000 
#    z 0.000000 0.000000 3.353120 
# 
# 
# High freq. dielectric constant tensor:
#      x y z
#    x 1.763380 0.000000 0.000000 
#    y 0.000000 1.741180 0.000000 
#    z 0.000000 0.000000 1.731050 
# 
# From -- ./inp_files/6785.got.cif
#   From: 2010.06.25/outbox.cif.g09.slc.cpg/sg58_4_cif.got.tgz:6785.got - 2010.06.26 21:38:00.
