data_PCOD8237747
_publ_section_title
;
Structure prediction by ZEFSAII (Michael W. Deem and Ramdas Pophale) SiO2 
 PCOD8237747
Probable space group: P N N M
;
_chemical_formula_sum "Si O2"
_cell_formula_units_Z 56
_cell_length_a 21.586582
_cell_length_b 14.651704
_cell_length_c 8.923401
_cell_angle_alpha 90.000000
_cell_angle_beta 90.000000
_cell_angle_gamma 90.000000
_cell_volume 2822.295141
_symmetry_space_group_name_H-M "P N N M"
_symmetry_group_IT_number 58
_symmetry_cell_setting 'orthorhombic'
loop_
_space_group_symop_operation_xyz
x,y,z
-x,-y,z
1/2+x,1/2-y,1/2-z
1/2-x,1/2+y,1/2-z
-x,-y,-z
x,y,-z
1/2-x,1/2+y,1/2+z
1/2+x,1/2-y,1/2+z
loop_
_atom_site_type_symbol
_atom_site_label
_atom_site_fract_x
_atom_site_fract_y
_atom_site_fract_z
Si Si1 0.177622 0.958615 0.323202
Si Si2 0.744830 0.381491 0.677115
Si Si3 0.885231 0.411303 0.677213
Si Si4 0.475751 0.222888 0.323465
Si Si5 0.780480 0.680088 0.822015
Si Si6 0.090970 0.403178 0.176418
Si Si7 0.960927 0.088358 0.676061
O O1 0.182819 0.970465 0.500000
O O2 0.192870 0.054933 0.248840
O O3 0.225845 0.884125 0.260729
O O4 0.109622 0.927737 0.274512
O O5 0.737575 0.384270 0.500000
O O6 0.813408 0.412844 0.726141
O O7 0.731517 0.280842 0.741274
O O8 0.892828 0.408016 0.500000
O O9 0.915745 0.320275 0.744509
O O10 0.919245 0.500274 0.742399
O O11 0.464976 0.224908 0.500000
O O12 0.535377 0.163330 0.279488
O O13 0.487342 0.324793 0.264241
O O14 0.846098 0.642932 0.763323
O O15 0.779465 0.681807 0.000000
O O16 0.093517 0.422192 0.000000
O O17 0.966798 0.107615 0.500000
O O18 0.000000 0.000000 0.723857
#
# Coordination Sequence:
#
# PCOD8237747 Si02
#       7
#     8   8   8   8   8   8   8
#     4  10  20  38  62  85 114 157 194 232 291 350
#     4  10  21  36  59  88 116 151 194 242 291 346
#     4  11  22  38  60  89 123 157 194 241 300 356
#     4  11  24  39  60  88 117 156 203 247 292 348
#     4   9  18  35  58  81 113 153 191 235 290 343
#     4  10  21  38  59  85 117 154 199 246 294 349
#     4  10  23  42  62  87 122 159 197 242 297 358
#
# _framework density 19.842006999999999
#
# number of rings (size 3 to 8) (size 9 to 14) (size 15 to 20)
#    0.000    1.857    1.429    2.143    2.000    6.571 
#    0.000    1.429    0.000    0.000    0.000    0.000 
#    0.000    0.000    0.000    0.000    0.000    0.000 
#
# Total GULP energy -694697.640212 kJ/mol
# GULP energy per Si atom -12405.315004 kJ/mol
# Density = 1.979685 g / cm^3
# Si number density = 19.842007 Si / 1000 Ang^3
#
#
#
# Elastic Constant Matrix: (Units=GPa)
#
#
# Indices 1 2 3 4 5 6 
#
# 1 85.9293 37.3823 28.2642 0.0000 0.0000 0.0000
# 2 37.3823 147.9921 35.5093 0.0000 0.0000 0.0000
# 3 28.2642 35.5093 42.8024 0.0000 0.0000 0.0000
# 4 0.0000 0.0000 0.0000 36.7981 0.0000 0.0000
# 5 0.0000 0.0000 0.0000 0.0000 19.3375 0.0000
# 6 0.0000 0.0000 0.0000 0.0000 0.0000 36.9010
#
#
#
# Elastic Compliance Matrix: (Units=1/GPa)
#
#
# Indices 1 2 3 4 5 6 
#
# 1 0.015238 -0.001791 -0.008576 0.000000 0.000000 0.000000
# 2 -0.001791 0.008647 -0.005991 0.000000 0.000000 0.000000
# 3 -0.008576 -0.005991 0.033996 0.000000 0.000000 0.000000
# 4 0.000000 0.000000 0.000000 0.027175 0.000000 0.000000
# 5 0.000000 0.000000 0.000000 0.000000 0.051713 0.000000
# 6 0.000000 0.000000 0.000000 0.000000 0.000000 0.027100
#
#
# Mechanical properties :
#
#
# Convention : Reuss Voigt Hill
#
# Bulk Modulus (GPa) = 39.73804 53.22616 46.48210
# Shear Modulus (GPa) = 24.39344 30.31183 27.35264
#
# Velocity S-wave (km/s) = 3.51006 3.91277 3.71687
# Velocity P-wave (km/s) = 6.04136 6.87723 6.47280
#
# Compressibility (1/GPa) = 0.02516480
#
# Stress axis : x y z
#
# Youngs Moduli (GPa) = 65.62721 115.64672 29.41497
#
# Poissons Ratio (x) = 0.20715 0.25226
# Poissons Ratio (y) = 0.11755 0.17622
# Poissons Ratio (z) = 0.56282 0.69282
#
# Static dielectric constant tensor:
#      x y z
#    x 3.744260 0.000000 0.000000 
#    y 0.000000 3.728550 0.000000 
#    z 0.000000 0.000000 3.301710 
# 
# 
# High freq. dielectric constant tensor:
#      x y z
#    x 1.783640 0.000000 0.000000 
#    y 0.000000 1.788740 0.000000 
#    z 0.000000 0.000000 1.750800 
# 
# From -- ./inp_files/6393.got.cif
#   From: 2010.06.25/outbox.cif.g09.slc.cpg/sg58_4_cif.got.tgz:6393.got - 2010.06.26 21:38:00.
