data_PCOD8237640
_publ_section_title
;
Structure prediction by ZEFSAII (Michael W. Deem and Ramdas Pophale) SiO2 
 PCOD8237640
Probable space group: P N N M
;
_chemical_formula_sum "Si O2"
_cell_formula_units_Z 64
_cell_length_a 16.634908
_cell_length_b 15.558429
_cell_length_c 13.021397
_cell_angle_alpha 90.000000
_cell_angle_beta 90.000000
_cell_angle_gamma 90.000000
_cell_volume 3370.107278
_symmetry_space_group_name_H-M "P N N M"
_symmetry_group_IT_number 58
_symmetry_cell_setting 'orthorhombic'
loop_
_space_group_symop_operation_xyz
x,y,z
-x,-y,z
1/2+x,1/2-y,1/2-z
1/2-x,1/2+y,1/2-z
-x,-y,-z
x,y,-z
1/2-x,1/2+y,1/2+z
1/2+x,1/2-y,1/2+z
loop_
_atom_site_type_symbol
_atom_site_label
_atom_site_fract_x
_atom_site_fract_y
_atom_site_fract_z
Si Si1 0.411277 0.535599 0.619407
Si Si2 0.421176 0.730052 0.315862
Si Si3 0.752090 0.713792 0.881326
Si Si4 0.094576 0.731763 0.885666
Si Si5 0.970932 0.688101 0.615579
Si Si6 0.810026 0.111706 0.802515
Si Si7 0.848536 0.544587 0.616672
Si Si8 0.357484 0.141674 0.189836
O O1 0.500000 0.500000 0.634905
O O2 0.384949 0.530204 0.500000
O O3 0.404856 0.631796 0.659095
O O4 0.350526 0.481945 0.691357
O O5 0.345968 0.787599 0.351729
O O6 0.498412 0.764342 0.376769
O O7 0.436743 0.740580 0.193789
O O8 0.702491 0.643612 0.814665
O O9 0.719027 0.809363 0.857580
O O10 0.740567 0.689424 0.000000
O O11 0.130906 0.825324 0.863567
O O12 0.133009 0.661988 0.810153
O O13 0.117389 0.702876 0.000000
O O14 0.951409 0.719649 0.500000
O O15 0.930683 0.595688 0.637746
O O16 0.065686 0.675082 0.627171
O O17 0.723976 0.109199 0.857938
O O18 0.843372 0.513072 0.500000
O O19 0.845008 0.460047 0.686211
#
# Coordination Sequence:
#
# PCOD8237640 Si02
#       8
#     8   8   8   8   8   8   8   8
#     4  11  21  35  60  91 119 148 192 246 295 340
#     4  11  21  38  61  90 120 152 198 240 292 357
#     4  11  22  38  58  84 119 159 195 235 289 351
#     4  10  20  37  61  86 118 155 190 241 298 348
#     4  10  21  38  60  85 117 153 194 242 288 342
#     4  11  22  37  57  89 120 151 193 244 288 349
#     4  11  20  35  59  85 115 150 190 240 291 335
#     4  10  22  36  58  85 115 151 199 238 284 349
#
# _framework density 18.990493000000001
#
# number of rings (size 3 to 8) (size 9 to 14) (size 15 to 20)
#    0.000    1.375    2.500    4.500    0.000    1.000 
#    0.000    1.250    0.000    2.250    0.000    0.000 
#    0.000    0.000    0.000    0.000    0.000    0.000 
#
# Total GULP energy -793835.965414 kJ/mol
# GULP energy per Si atom -12403.686960 kJ/mol
# Density = 1.894727 g / cm^3
# Si number density = 18.990493 Si / 1000 Ang^3
#
#
#
# Elastic Constant Matrix: (Units=GPa)
#
#
# Indices 1 2 3 4 5 6 
#
# 1 87.6307 12.4598 39.2436 0.0000 0.0000 0.0000
# 2 12.4598 60.9384 42.5038 0.0000 0.0000 0.0000
# 3 39.2436 42.5038 136.0900 0.0000 0.0000 0.0000
# 4 0.0000 0.0000 0.0000 24.4462 0.0000 0.0000
# 5 0.0000 0.0000 0.0000 0.0000 20.2806 0.0000
# 6 0.0000 0.0000 0.0000 0.0000 0.0000 25.9393
#
#
#
# Elastic Compliance Matrix: (Units=1/GPa)
#
#
# Indices 1 2 3 4 5 6 
#
# 1 0.013104 -0.000056 -0.003761 0.000000 0.000000 0.000000
# 2 -0.000056 0.020981 -0.006537 0.000000 0.000000 0.000000
# 3 -0.003761 -0.006537 0.010474 0.000000 0.000000 0.000000
# 4 0.000000 0.000000 0.000000 0.040906 0.000000 0.000000
# 5 0.000000 0.000000 0.000000 0.000000 0.049308 0.000000
# 6 0.000000 0.000000 0.000000 0.000000 0.000000 0.038551
#
#
# Mechanical properties :
#
#
# Convention : Reuss Voigt Hill
#
# Bulk Modulus (GPa) = 41.92644 52.56374 47.24509
# Shear Modulus (GPa) = 24.75463 26.83002 25.79232
#
# Velocity S-wave (km/s) = 3.61436 3.76282 3.68933
# Velocity P-wave (km/s) = 6.28837 6.82770 6.56358
#
# Compressibility (1/GPa) = 0.02385130
#
# Stress axis : x y z
#
# Youngs Moduli (GPa) = 76.31338 47.66301 95.47261
#
# Poissons Ratio (x) = 0.00266 0.35910
# Poissons Ratio (y) = 0.00426 0.62407
# Poissons Ratio (z) = 0.28703 0.31155
#
# Static dielectric constant tensor:
#      x y z
#    x 3.710320 0.000000 0.000000 
#    y 0.000000 3.290390 0.000000 
#    z 0.000000 0.000000 3.518090 
# 
# 
# High freq. dielectric constant tensor:
#      x y z
#    x 1.757520 0.000000 0.000000 
#    y 0.000000 1.719850 0.000000 
#    z 0.000000 0.000000 1.734200 
# 
# From -- ./inp_files/15916.got.cif
#   From: 2010.06.25/outbox.cif.g09.slc.cpg/sg58_8_cif.got.tgz:15916.got - 2010.06.26 21:38:00.
