data_PCOD8237406
_publ_section_title
;
Structure prediction by ZEFSAII (Michael W. Deem and Ramdas Pophale) SiO2 
 PCOD8237406
Probable space group: P N N M
;
_chemical_formula_sum "Si O2"
_cell_formula_units_Z 64
_cell_length_a 9.077067
_cell_length_b 19.820089
_cell_length_c 18.318750
_cell_angle_alpha 90.000000
_cell_angle_beta 90.000000
_cell_angle_gamma 90.000000
_cell_volume 3295.694727
_symmetry_space_group_name_H-M "P N N M"
_symmetry_group_IT_number 58
_symmetry_cell_setting 'orthorhombic'
loop_
_space_group_symop_operation_xyz
x,y,z
-x,-y,z
1/2+x,1/2-y,1/2-z
1/2-x,1/2+y,1/2-z
-x,-y,-z
x,y,-z
1/2-x,1/2+y,1/2+z
1/2+x,1/2-y,1/2+z
loop_
_atom_site_type_symbol
_atom_site_label
_atom_site_fract_x
_atom_site_fract_y
_atom_site_fract_z
Si Si1 0.200524 0.632204 0.372905
Si Si2 0.349529 0.260459 0.338210
Si Si3 0.835425 0.513486 0.631138
Si Si4 0.386142 0.846433 0.918775
Si Si5 0.302371 0.632491 0.208321
Si Si6 0.844326 0.743751 0.081527
Si Si7 0.330832 0.485680 0.776777
Si Si8 0.137106 0.839515 0.312916
O O1 0.216570 0.556739 0.406265
O O2 0.284369 0.636680 0.295572
O O3 0.277727 0.681928 0.429374
O O4 0.027915 0.654553 0.364955
O O5 0.238714 0.294199 0.395229
O O6 0.314095 0.181677 0.328287
O O7 0.512336 0.255111 0.369661
O O8 0.330428 0.302867 0.263850
O O9 0.822185 0.577027 0.577287
O O10 0.739123 0.531321 0.700074
O O11 0.000000 0.500000 0.659784
O O12 0.436588 0.826310 0.000000
O O13 0.268306 0.554210 0.184867
O O14 0.460740 0.658340 0.179702
O O15 0.720184 0.699237 0.122315
O O16 0.877530 0.714689 0.000000
O O17 0.500000 0.500000 0.760729
O O18 0.304878 0.416768 0.821439
#
# Coordination Sequence:
#
# PCOD8237406 Si02
#       8
#     8   8   8   8   8   8   8   8
#     4  10  20  36  57  84 117 158 202 245 296 353
#     4  12  22  38  61  87 120 159 207 245 290 356
#     4   9  19  32  53  80 117 156 201 240 291 349
#     4  11  23  36  54  83 124 167 201 242 294 353
#     4  10  21  37  62  92 113 147 202 257 302 344
#     4  12  26  40  59  91 128 161 198 252 307 360
#     4   9  19  35  60  90 115 141 196 262 302 346
#     4  11  20  39  66  88 113 157 202 250 297 360
#
# _framework density 19.419274000000001
#
# number of rings (size 3 to 8) (size 9 to 14) (size 15 to 20)
#    0.000    1.500    3.750    1.500    1.750    3.750 
#    0.000    0.625    0.000    7.500    0.000    0.000 
#    0.000    0.000    0.000    0.000    0.000    0.000 
#
# Total GULP energy -792919.844571 kJ/mol
# GULP energy per Si atom -12389.372571 kJ/mol
# Density = 1.937507 g / cm^3
# Si number density = 19.419274 Si / 1000 Ang^3
#
#
#
# Elastic Constant Matrix: (Units=GPa)
#
#
# Indices 1 2 3 4 5 6 
#
# 1 62.3169 49.1770 24.6545 0.0000 0.0000 0.0000
# 2 49.1770 132.8952 40.3178 0.0000 0.0000 0.0000
# 3 24.6545 40.3178 72.1873 0.0000 0.0000 0.0000
# 4 0.0000 0.0000 0.0000 16.3350 0.0000 0.0000
# 5 0.0000 0.0000 0.0000 0.0000 15.7462 0.0000
# 6 0.0000 0.0000 0.0000 0.0000 0.0000 30.3261
#
#
#
# Elastic Compliance Matrix: (Units=1/GPa)
#
#
# Indices 1 2 3 4 5 6 
#
# 1 0.023508 -0.007541 -0.003817 0.000000 0.000000 0.000000
# 2 -0.007541 0.011479 -0.003836 0.000000 0.000000 0.000000
# 3 -0.003817 -0.003836 0.017299 0.000000 0.000000 0.000000
# 4 0.000000 0.000000 0.000000 0.061218 0.000000 0.000000
# 5 0.000000 0.000000 0.000000 0.000000 0.063507 0.000000
# 6 0.000000 0.000000 0.000000 0.000000 0.000000 0.032975
#
#
# Mechanical properties :
#
#
# Convention : Reuss Voigt Hill
#
# Bulk Modulus (GPa) = 45.66551 55.07756 50.37154
# Shear Modulus (GPa) = 20.18791 22.69814 21.44303
#
# Velocity S-wave (km/s) = 3.22775 3.42255 3.32658
# Velocity P-wave (km/s) = 6.12028 6.63644 6.38358
#
# Compressibility (1/GPa) = 0.02189836
#
# Stress axis : x y z
#
# Youngs Moduli (GPa) = 42.53861 87.11659 57.80758
#
# Poissons Ratio (x) = 0.65694 0.22065
# Poissons Ratio (y) = 0.32078 0.22173
# Poissons Ratio (z) = 0.16237 0.33415
#
# Static dielectric constant tensor:
#      x y z
#    x 3.621170 0.000000 0.000000 
#    y 0.000000 4.119600 0.000000 
#    z 0.000000 0.000000 3.149550 
# 
# 
# High freq. dielectric constant tensor:
#      x y z
#    x 1.761400 0.000000 0.000000 
#    y 0.000000 1.777340 0.000000 
#    z 0.000000 0.000000 1.711610 
# 
# From -- ./inp_files/25638.got.cif
#   From: 2010.06.25/outbox.cif.g09.slc.cpg/sg58_13_cif.got.tgz:25638.got - 2010.06.26 21:38:00.
