data_PCOD8237053
_publ_section_title
;
Structure prediction by ZEFSAII (Michael W. Deem and Ramdas Pophale) SiO2 
 PCOD8237053
Probable space group: P N N M
;
_chemical_formula_sum "Si O2"
_cell_formula_units_Z 52
_cell_length_a 23.862565
_cell_length_b 6.662807
_cell_length_c 18.065274
_cell_angle_alpha 90.000000
_cell_angle_beta 90.000000
_cell_angle_gamma 90.000000
_cell_volume 2872.227994
_symmetry_space_group_name_H-M "P N N M"
_symmetry_group_IT_number 58
_symmetry_cell_setting 'orthorhombic'
loop_
_space_group_symop_operation_xyz
x,y,z
-x,-y,z
1/2+x,1/2-y,1/2-z
1/2-x,1/2+y,1/2-z
-x,-y,-z
x,y,-z
1/2-x,1/2+y,1/2+z
1/2+x,1/2-y,1/2+z
loop_
_atom_site_type_symbol
_atom_site_label
_atom_site_fract_x
_atom_site_fract_y
_atom_site_fract_z
Si Si1 0.286224 0.411643 0.414586
Si Si2 0.000000 0.500000 0.653289
Si Si3 0.197806 0.723106 0.582855
Si Si4 0.076154 0.824130 0.585301
Si Si5 0.552898 0.377749 0.787774
Si Si6 0.234337 0.525960 0.180355
Si Si7 0.669862 0.335133 0.291162
O O1 0.305849 0.379952 0.500000
O O2 0.222599 0.497791 0.412754
O O3 0.327655 0.569707 0.373801
O O4 0.287662 0.208840 0.368117
O O5 0.966966 0.352829 0.599580
O O6 0.961254 0.641390 0.705156
O O7 0.199996 0.806616 0.500000
O O8 0.134585 0.726814 0.611543
O O9 0.234464 0.871840 0.629074
O O10 0.074785 0.889513 0.500000
O O11 0.063277 0.024484 0.631549
O O12 0.500000 0.500000 0.751080
O O13 0.609603 0.397283 0.740701
O O14 0.276387 0.580313 0.246271
O O15 0.178752 0.407068 0.209436
#
# Coordination Sequence:
#
# PCOD8237053 Si02
#       7
#     8   4   8   8   8   8   8
#     4  10  22  38  57  87 121 151 183 230 296 358
#     4  10  23  34  50  74 107 150 202 244 287 328
#     4   9  19  33  52  78 112 150 187 223 276 340
#     4  10  20  34  53  76 110 153 198 241 280 330
#     4  10  23  40  56  79 113 154 202 251 289 340
#     4  11  20  33  56  87 115 147 184 235 283 349
#     4  11  22  36  60  86 115 150 193 236 294 346
#
# _framework density 18.104413000000001
#
# number of rings (size 3 to 8) (size 9 to 14) (size 15 to 20)
#    0.000    1.846    3.077    0.692    2.154    6.462 
#    0.000    0.000    0.000    0.462    0.000    1.615 
#    0.000    0.000    0.000    0.000    0.000    0.000 
#
# Total GULP energy -644436.705339 kJ/mol
# GULP energy per Si atom -12393.013564 kJ/mol
# Density = 1.806321 g / cm^3
# Si number density = 18.104413 Si / 1000 Ang^3
#
#
#
# Elastic Constant Matrix: (Units=GPa)
#
#
# Indices 1 2 3 4 5 6 
#
# 1 91.4031 32.1935 47.6784 0.0000 0.0000 0.0000
# 2 32.1935 103.6256 43.8974 0.0000 0.0000 0.0000
# 3 47.6784 43.8974 68.5823 0.0000 0.0000 0.0000
# 4 0.0000 0.0000 0.0000 29.2225 0.0000 0.0000
# 5 0.0000 0.0000 0.0000 0.0000 31.9128 0.0000
# 6 0.0000 0.0000 0.0000 0.0000 0.0000 -2.7937
#
#
#
# Elastic Compliance Matrix: (Units=1/GPa)
#
#
# Indices 1 2 3 4 5 6 
#
# 1 0.017176 -0.000381 -0.011697 0.000000 0.000000 0.000000
# 2 -0.000381 0.013249 -0.008215 0.000000 0.000000 0.000000
# 3 -0.011697 -0.008215 0.027971 0.000000 0.000000 0.000000
# 4 0.000000 0.000000 0.000000 0.034220 0.000000 0.000000
# 5 0.000000 0.000000 0.000000 0.000000 0.031335 0.000000
# 6 0.000000 0.000000 0.000000 0.000000 0.000000 -0.357948
#
#
# Mechanical properties :
#
#
# Convention : Reuss Voigt Hill
#
# Bulk Modulus (GPa) = 56.14989 56.79439 56.47214
# Shear Modulus (GPa) = -26.67043 20.99110 -2.83966
#
# Velocity S-wave (km/s) = -3.84232 3.40876 -1.25375
# Velocity P-wave (km/s) = 3.37598 6.85065 5.40040
#
# Compressibility (1/GPa) = 0.01780947
#
# Stress axis : x y z
#
# Youngs Moduli (GPa) = 58.21982 75.48005 35.75143
#
# Poissons Ratio (x) = 0.02877 0.41818
# Poissons Ratio (y) = 0.02219 0.29370
# Poissons Ratio (z) = 0.68100 0.62007
#
# Static dielectric constant tensor:
#      x y z
#    x 3.462090 0.000000 0.000000 
#    y 0.000000 3.816020 0.000000 
#    z 0.000000 0.000000 3.287520 
# 
# 
# High freq. dielectric constant tensor:
#      x y z
#    x 1.686870 0.000000 0.000000 
#    y 0.000000 1.712080 0.000000 
#    z 0.000000 0.000000 1.690520 
# 
# From -- ./inp_files/27704.got.cif
#   From: 2010.06.25/outbox.cif.g09.slc.cpg/sg58_14_cif.got.tgz:27704.got - 2010.06.26 21:38:00.
