data_PCOD8237724
_publ_section_title
;
Structure prediction by ZEFSAII (Michael W. Deem and Ramdas Pophale) SiO2 
 PCOD8237724
Probable space group: P N N M
;
_chemical_formula_sum "Si O2"
_cell_formula_units_Z 52
_cell_length_a 14.548924
_cell_length_b 19.200377
_cell_length_c 9.431785
_cell_angle_alpha 90.000000
_cell_angle_beta 90.000000
_cell_angle_gamma 90.000000
_cell_volume 2634.720337
_symmetry_space_group_name_H-M "P N N M"
_symmetry_group_IT_number 58
_symmetry_cell_setting 'orthorhombic'
loop_
_space_group_symop_operation_xyz
x,y,z
-x,-y,z
1/2+x,1/2-y,1/2-z
1/2-x,1/2+y,1/2-z
-x,-y,-z
x,y,-z
1/2-x,1/2+y,1/2+z
1/2+x,1/2-y,1/2+z
loop_
_atom_site_type_symbol
_atom_site_label
_atom_site_fract_x
_atom_site_fract_y
_atom_site_fract_z
Si Si1 0.071352 0.237595 0.331716
Si Si2 0.414630 0.321539 0.337179
Si Si3 0.262444 0.424561 0.662191
Si Si4 0.599771 0.131600 0.340074
Si Si5 0.222809 0.698362 0.835198
Si Si6 0.500000 0.000000 0.748235
Si Si7 0.681341 0.933921 0.843915
O O1 0.058493 0.245625 0.500000
O O2 0.047507 0.310226 0.253464
O O3 0.173387 0.214366 0.288039
O O4 0.000979 0.180601 0.268886
O O5 0.446805 0.311251 0.500000
O O6 0.366147 0.396750 0.316773
O O7 0.341250 0.262620 0.292477
O O8 0.230046 0.408729 0.500000
O O9 0.197465 0.382568 0.768263
O O10 0.258118 0.507244 0.693378
O O11 0.615111 0.158777 0.500000
O O12 0.537533 0.062538 0.348758
O O13 0.186059 0.628277 0.765418
O O14 0.218642 0.683680 0.000000
O O15 0.582352 0.971511 0.845231
O O16 0.699595 0.903441 0.000000
#
# Coordination Sequence:
#
# PCOD8237724 Si02
#       7
#     8   8   8   8   8   4   8
#     4  11  23  39  58  84 117 155 196 246 300 349
#     4  10  20  38  61  83 110 151 196 240 291 352
#     4   9  19  38  58  79 113 151 184 232 294 341
#     4  11  21  34  55  83 115 153 193 235 284 354
#     4  10  22  40  59  82 120 159 190 239 303 351
#     4  10  22  36  54  88 126 154 186 240 308 362
#     4  10  21  36  59  86 115 152 195 241 291 353
#
# _framework density 19.736439000000001
#
# number of rings (size 3 to 8) (size 9 to 14) (size 15 to 20)
#    0.000    1.846    1.538    2.308    0.000    9.846 
#    0.000    0.769    0.000    4.615    0.000    0.000 
#    0.000    0.000    0.000    0.000    0.000    0.000 
#
# Total GULP energy -644822.625386 kJ/mol
# GULP energy per Si atom -12400.435104 kJ/mol
# Density = 1.969152 g / cm^3
# Si number density = 19.736439 Si / 1000 Ang^3
#
#
#
# Elastic Constant Matrix: (Units=GPa)
#
#
# Indices 1 2 3 4 5 6 
#
# 1 77.7733 17.3222 24.8450 0.0000 0.0000 0.0000
# 2 17.3222 71.4741 18.1460 0.0000 0.0000 0.0000
# 3 24.8450 18.1460 75.7093 0.0000 0.0000 0.0000
# 4 0.0000 0.0000 0.0000 21.5210 0.0000 0.0000
# 5 0.0000 0.0000 0.0000 0.0000 27.8115 0.0000
# 6 0.0000 0.0000 0.0000 0.0000 0.0000 27.5284
#
#
#
# Elastic Compliance Matrix: (Units=1/GPa)
#
#
# Indices 1 2 3 4 5 6 
#
# 1 0.014772 -0.002502 -0.004248 0.000000 0.000000 0.000000
# 2 -0.002502 0.015321 -0.002851 0.000000 0.000000 0.000000
# 3 -0.004248 -0.002851 0.015286 0.000000 0.000000 0.000000
# 4 0.000000 0.000000 0.000000 0.046466 0.000000 0.000000
# 5 0.000000 0.000000 0.000000 0.000000 0.035956 0.000000
# 6 0.000000 0.000000 0.000000 0.000000 0.000000 0.036326
#
#
# Mechanical properties :
#
#
# Convention : Reuss Voigt Hill
#
# Bulk Modulus (GPa) = 38.20094 38.39810 38.29952
# Shear Modulus (GPa) = 26.03414 26.34843 26.19128
#
# Velocity S-wave (km/s) = 3.63587 3.65775 3.64682
# Velocity P-wave (km/s) = 6.08470 6.11036 6.09755
#
# Compressibility (1/GPa) = 0.02617736
#
# Stress axis : x y z
#
# Youngs Moduli (GPa) = 67.69510 65.26886 65.41988
#
# Poissons Ratio (x) = 0.16328 0.27791
# Poissons Ratio (y) = 0.16935 0.18653
# Poissons Ratio (z) = 0.28757 0.18610
#
# Static dielectric constant tensor:
#      x y z
#    x 3.541120 0.000000 0.000000 
#    y 0.000000 3.614100 0.000000 
#    z 0.000000 0.000000 3.440680 
# 
# 
# High freq. dielectric constant tensor:
#      x y z
#    x 1.759000 0.000000 0.000000 
#    y 0.000000 1.764230 0.000000 
#    z 0.000000 0.000000 1.766510 
# 
# From -- ./inp_files/6185.got.cif
#   From: 2010.06.25/outbox.cif.g09.slc.cpg/sg58_4_cif.got.tgz:6185.got - 2010.06.26 21:38:00.
