data_PCOD8237606
_publ_section_title
;
Structure prediction by ZEFSAII (Michael W. Deem and Ramdas Pophale) SiO2 
 PCOD8237606
Probable space group: P N N M
;
_chemical_formula_sum "Si O2"
_cell_formula_units_Z 64
_cell_length_a 18.541818
_cell_length_b 19.793600
_cell_length_c 8.879798
_cell_angle_alpha 90.000000
_cell_angle_beta 90.000000
_cell_angle_gamma 90.000000
_cell_volume 3258.968704
_symmetry_space_group_name_H-M "P N N M"
_symmetry_group_IT_number 58
_symmetry_cell_setting 'orthorhombic'
loop_
_space_group_symop_operation_xyz
x,y,z
-x,-y,z
1/2+x,1/2-y,1/2-z
1/2-x,1/2+y,1/2-z
-x,-y,-z
x,y,-z
1/2-x,1/2+y,1/2+z
1/2+x,1/2-y,1/2+z
loop_
_atom_site_type_symbol
_atom_site_label
_atom_site_fract_x
_atom_site_fract_y
_atom_site_fract_z
Si Si1 0.358856 0.735704 0.678286
Si Si2 0.289574 0.478682 0.321791
Si Si3 0.440694 0.445148 0.177004
Si Si4 0.167635 0.375405 0.677668
Si Si5 0.474474 0.924588 0.673625
Si Si6 0.247431 0.625430 0.321373
Si Si7 0.007102 0.799396 0.672812
Si Si8 0.909632 0.332563 0.673684
O O1 0.357302 0.740300 0.500000
O O2 0.324380 0.803618 0.743058
O O3 0.310915 0.673669 0.739576
O O4 0.440580 0.727112 0.730409
O O5 0.294757 0.482090 0.500000
O O6 0.367607 0.463656 0.258454
O O7 0.234940 0.420561 0.269204
O O8 0.260975 0.550307 0.257473
O O9 0.500000 0.500000 0.224175
O O10 0.467087 0.371889 0.233520
O O11 0.426455 0.444847 0.000000
O O12 0.166129 0.364640 0.500000
O O13 0.095193 0.413260 0.724983
O O14 0.455130 0.910669 0.500000
O O15 0.537005 0.874278 0.722305
O O16 0.500000 0.000000 0.701866
O O17 0.248309 0.625048 0.500000
O O18 0.170719 0.653853 0.264975
O O19 0.981630 0.804720 0.500000
O O20 0.073095 0.746972 0.690148
O O21 0.918293 0.355775 0.500000
#
# Coordination Sequence:
#
# PCOD8237606 Si02
#       8
#     8   8   8   8   8   8   8   8
#     4  11  22  37  62  89 118 154 195 248 303 352
#     4  10  22  40  61  87 118 154 202 251 293 352
#     4  10  22  39  61  90 123 159 199 245 302 359
#     4  11  23  39  59  86 119 158 199 239 290 355
#     4  11  23  38  58  87 120 151 191 241 290 339
#     4   9  20  38  60  86 114 152 199 242 296 357
#     4  10  21  37  59  86 118 157 200 241 288 355
#     4  10  20  37  60  84 114 157 202 240 284 353
#
# _framework density 19.638114000000002
#
# number of rings (size 3 to 8) (size 9 to 14) (size 15 to 20)
#    0.000    1.750    1.250    2.625    1.750    3.750 
#    0.000    2.500    0.000    0.000    0.000    0.000 
#    0.000    0.000    0.000    0.000    0.000    0.000 
#
# Total GULP energy -793875.329507 kJ/mol
# GULP energy per Si atom -12404.302024 kJ/mol
# Density = 1.959342 g / cm^3
# Si number density = 19.638114 Si / 1000 Ang^3
#
#
#
# Elastic Constant Matrix: (Units=GPa)
#
#
# Indices 1 2 3 4 5 6 
#
# 1 131.5945 74.2448 23.8163 0.0000 0.0000 0.0000
# 2 74.2448 172.8604 39.7056 0.0000 0.0000 0.0000
# 3 23.8163 39.7056 38.5984 0.0000 0.0000 0.0000
# 4 0.0000 0.0000 0.0000 24.5171 0.0000 0.0000
# 5 0.0000 0.0000 0.0000 0.0000 5.1509 0.0000
# 6 0.0000 0.0000 0.0000 0.0000 0.0000 40.3722
#
#
#
# Elastic Compliance Matrix: (Units=1/GPa)
#
#
# Indices 1 2 3 4 5 6 
#
# 1 0.010188 -0.003839 -0.002337 0.000000 0.000000 0.000000
# 2 -0.003839 0.009021 -0.006911 0.000000 0.000000 0.000000
# 3 -0.002337 -0.006911 0.034460 0.000000 0.000000 0.000000
# 4 0.000000 0.000000 0.000000 0.040788 0.000000 0.000000
# 5 0.000000 0.000000 0.000000 0.000000 0.194142 0.000000
# 6 0.000000 0.000000 0.000000 0.000000 0.000000 0.024770
#
#
# Mechanical properties :
#
#
# Convention : Reuss Voigt Hill
#
# Bulk Modulus (GPa) = 36.37179 68.73186 52.55183
# Shear Modulus (GPa) = 14.33863 27.69380 21.01621
#
# Velocity S-wave (km/s) = 2.70505 3.75935 3.27490
# Velocity P-wave (km/s) = 5.32143 7.34294 6.41235
#
# Compressibility (1/GPa) = 0.02749383
#
# Stress axis : x y z
#
# Youngs Moduli (GPa) = 98.15451 110.84715 29.01947
#
# Poissons Ratio (x) = 0.42554 0.06782
# Poissons Ratio (y) = 0.37681 0.20057
# Poissons Ratio (z) = 0.22940 0.76612
#
# Static dielectric constant tensor:
#      x y z
#    x 3.914150 0.000000 0.000000 
#    y 0.000000 3.920850 0.000000 
#    z 0.000000 0.000000 3.411110 
# 
# 
# High freq. dielectric constant tensor:
#      x y z
#    x 1.773240 0.000000 0.000000 
#    y 0.000000 1.785250 0.000000 
#    z 0.000000 0.000000 1.749610 
# 
# From -- ./inp_files/8380.got.cif
#   From: 2010.06.25/outbox.cif.g09.slc.cpg/sg58_5_cif.got.tgz:8380.got - 2010.06.26 21:38:00.
