data_PCOD8237933
_publ_section_title
;
Structure prediction by ZEFSAII (Michael W. Deem and Ramdas Pophale) SiO2 
 PCOD8237933
Probable space group: P N N M
;
_chemical_formula_sum "Si O2"
_cell_formula_units_Z 48
_cell_length_a 9.679892
_cell_length_b 20.925151
_cell_length_c 13.010456
_cell_angle_alpha 90.000000
_cell_angle_beta 90.000000
_cell_angle_gamma 90.000000
_cell_volume 2635.309519
_symmetry_space_group_name_H-M "P N N M"
_symmetry_group_IT_number 58
_symmetry_cell_setting 'orthorhombic'
loop_
_space_group_symop_operation_xyz
x,y,z
-x,-y,z
1/2+x,1/2-y,1/2-z
1/2-x,1/2+y,1/2-z
-x,-y,-z
x,y,-z
1/2-x,1/2+y,1/2+z
1/2+x,1/2-y,1/2+z
loop_
_atom_site_type_symbol
_atom_site_label
_atom_site_fract_x
_atom_site_fract_y
_atom_site_fract_z
Si Si1 0.052481 0.283184 0.882581
Si Si2 0.337783 0.998876 0.287426
Si Si3 0.297367 0.132669 0.382647
Si Si4 0.638266 0.460293 0.617155
Si Si5 0.556348 0.341309 0.255173
Si Si6 0.295923 0.374869 0.880556
O O1 0.205967 0.310690 0.865295
O O2 0.947207 0.339872 0.854832
O O3 0.016725 0.224776 0.808482
O O4 0.033349 0.260468 0.000000
O O5 0.292433 0.057785 0.358297
O O6 0.259878 0.004135 0.178650
O O7 0.500000 0.000000 0.265321
O O8 0.294984 0.935462 0.347790
O O9 0.259934 0.143050 0.500000
O O10 0.182676 0.172150 0.321006
O O11 0.500000 0.500000 0.629041
O O12 0.688060 0.455379 0.500000
O O13 0.607786 0.389639 0.657693
O O14 0.429579 0.370301 0.190997
O O15 0.339288 0.382445 0.000000
#
# Coordination Sequence:
#
# PCOD8237933 Si02
#       6
#     8   8   8   8   8   8
#     4  10  21  37  57  81 110 150 190 226 276 335
#     4  11  21  37  60  85 113 147 185 231 286 335
#     4  10  21  35  56  84 114 146 183 229 280 334
#     4  10  21  38  58  82 110 145 188 231 276 325
#     4  11  21  37  57  82 113 150 185 232 276 330
#     4  11  22  36  58  87 115 147 186 230 280 334
#
# _framework density 18.214179999999999
#
# number of rings (size 3 to 8) (size 9 to 14) (size 15 to 20)
#    0.000    1.500    3.333    2.500    0.000    1.000 
#    0.000    2.500    0.000    2.000    0.000    0.000 
#    0.000    0.000    0.000    0.000    0.000    0.000 
#
# Total GULP energy -595348.719715 kJ/mol
# GULP energy per Si atom -12403.098327 kJ/mol
# Density = 1.817272 g / cm^3
# Si number density = 18.214180 Si / 1000 Ang^3
#
#
#
# Elastic Constant Matrix: (Units=GPa)
#
#
# Indices 1 2 3 4 5 6 
#
# 1 85.1854 13.0544 41.2565 0.0000 0.0000 0.0000
# 2 13.0544 78.9014 43.6324 0.0000 0.0000 0.0000
# 3 41.2565 43.6324 102.6691 0.0000 0.0000 0.0000
# 4 0.0000 0.0000 0.0000 42.6390 0.0000 0.0000
# 5 0.0000 0.0000 0.0000 0.0000 28.9277 0.0000
# 6 0.0000 0.0000 0.0000 0.0000 0.0000 25.6164
#
#
#
# Elastic Compliance Matrix: (Units=1/GPa)
#
#
# Indices 1 2 3 4 5 6 
#
# 1 0.014647 0.001087 -0.006348 0.000000 0.000000 0.000000
# 2 0.001087 0.016648 -0.007512 0.000000 0.000000 0.000000
# 3 -0.006348 -0.007512 0.015483 0.000000 0.000000 0.000000
# 4 0.000000 0.000000 0.000000 0.023453 0.000000 0.000000
# 5 0.000000 0.000000 0.000000 0.000000 0.034569 0.000000
# 6 0.000000 0.000000 0.000000 0.000000 0.000000 0.039037
#
#
# Mechanical properties :
#
#
# Convention : Reuss Voigt Hill
#
# Bulk Modulus (GPa) = 47.09664 51.40474 49.25069
# Shear Modulus (GPa) = 28.33499 30.69080 29.51290
#
# Velocity S-wave (km/s) = 3.94846 4.10932 4.02969
# Velocity P-wave (km/s) = 6.83377 7.12734 6.98210
#
# Compressibility (1/GPa) = 0.02123294
#
# Stress axis : x y z
#
# Youngs Moduli (GPa) = 68.27455 60.06609 64.58629
#
# Poissons Ratio (x) = -0.06528 0.40996
# Poissons Ratio (y) = -0.07420 0.48517
# Poissons Ratio (z) = 0.43338 0.45121
#
# Static dielectric constant tensor:
#      x y z
#    x 3.423290 0.000000 0.000000 
#    y 0.000000 3.298930 0.000000 
#    z 0.000000 0.000000 3.397370 
# 
# 
# High freq. dielectric constant tensor:
#      x y z
#    x 1.712920 0.000000 0.000000 
#    y 0.000000 1.706150 0.000000 
#    z 0.000000 0.000000 1.710460 
# 
# From -- ./inp_files/13050.got.cif
#   From: 2010.06.25/outbox.cif.g09.slc.cpg/sg58_7_cif.got.tgz:13050.got - 2010.06.26 21:38:00.
