data_PCOD8237081
_publ_section_title
;
Structure prediction by ZEFSAII (Michael W. Deem and Ramdas Pophale) SiO2 
 PCOD8237081
Probable space group: P N N M
;
_chemical_formula_sum "Si O2"
_cell_formula_units_Z 64
_cell_length_a 20.646805
_cell_length_b 17.933381
_cell_length_c 8.876721
_cell_angle_alpha 90.000000
_cell_angle_beta 90.000000
_cell_angle_gamma 90.000000
_cell_volume 3286.757036
_symmetry_space_group_name_H-M "P N N M"
_symmetry_group_IT_number 58
_symmetry_cell_setting 'orthorhombic'
loop_
_space_group_symop_operation_xyz
x,y,z
-x,-y,z
1/2+x,1/2-y,1/2-z
1/2-x,1/2+y,1/2-z
-x,-y,-z
x,y,-z
1/2-x,1/2+y,1/2+z
1/2+x,1/2-y,1/2+z
loop_
_atom_site_type_symbol
_atom_site_label
_atom_site_fract_x
_atom_site_fract_y
_atom_site_fract_z
Si Si1 0.244584 0.835273 0.321949
Si Si2 0.994721 0.670368 0.678602
Si Si3 0.005166 0.171528 0.825919
Si Si4 0.633087 0.087441 0.821054
Si Si5 0.126659 0.914140 0.825532
Si Si6 0.744169 0.833924 0.179265
Si Si7 0.870986 0.916970 0.820894
Si Si8 0.881697 0.418864 0.679302
O O1 0.252225 0.839021 0.500000
O O2 0.300779 0.883145 0.247508
O O3 0.175401 0.866752 0.274665
O O4 0.248581 0.750591 0.262379
O O5 0.996176 0.670424 0.500000
O O6 0.005778 0.753350 0.734982
O O7 0.926521 0.637804 0.737239
O O8 0.052663 0.618601 0.741432
O O9 0.067562 0.128874 0.759144
O O10 0.944665 0.117670 0.802672
O O11 0.015334 0.192388 0.000000
O O12 0.621757 0.003523 0.762497
O O13 0.638945 0.089402 0.000000
O O14 0.126573 0.998361 0.763209
O O15 0.148328 0.910752 0.000000
O O16 0.806036 0.878631 0.242160
O O17 0.679501 0.872789 0.243552
O O18 0.743405 0.836072 0.000000
O O19 0.873132 0.916605 0.000000
O O20 0.881164 0.417490 0.500000
#
# Coordination Sequence:
#
# PCOD8237081 Si02
#       8
#     8   8   8   8   8   8   8   8
#     4  11  22  35  53  79 110 139 168 212 272 329
#     4  10  20  34  54  80 109 141 177 219 265 312
#     4  10  20  34  54  80 109 141 177 219 265 312
#     4  10  20  35  56  79 103 137 182 225 260 303
#     4  10  20  35  56  79 103 137 182 225 260 303
#     4   9  17  29  49  75 102 135 172 212 258 307
#     4   9  17  32  54  78 103 135 178 220 255 299
#     4   9  17  32  54  78 103 135 178 220 255 299
#
# _framework density 19.472082
#
# number of rings (size 3 to 8) (size 9 to 14) (size 15 to 20)
#    0.000    2.250    0.000    3.375    0.000    8.000 
#    0.000    1.250    0.000   12.000    0.000    0.000 
#    0.000    0.000    0.000    0.000    0.000    0.000 
#
# Total GULP energy -793757.384896 kJ/mol
# GULP energy per Si atom -12402.459139 kJ/mol
# Density = 1.942776 g / cm^3
# Si number density = 19.472082 Si / 1000 Ang^3
#
#
#
# Elastic Constant Matrix: (Units=GPa)
#
#
# Indices 1 2 3 4 5 6 
#
# 1 110.8514 31.6316 16.2877 0.0000 0.0000 0.0000
# 2 31.6316 133.9436 17.7817 0.0000 0.0000 0.0000
# 3 16.2877 17.7817 15.7322 0.0000 0.0000 0.0000
# 4 0.0000 0.0000 0.0000 23.9256 0.0000 0.0000
# 5 0.0000 0.0000 0.0000 0.0000 14.9564 0.0000
# 6 0.0000 0.0000 0.0000 0.0000 0.0000 45.5067
#
#
#
# Elastic Compliance Matrix: (Units=1/GPa)
#
#
# Indices 1 2 3 4 5 6 
#
# 1 0.010816 -0.001256 -0.009778 0.000000 0.000000 0.000000
# 2 -0.001256 0.008930 -0.008792 0.000000 0.000000 0.000000
# 3 -0.009778 -0.008792 0.083625 0.000000 0.000000 0.000000
# 4 0.000000 0.000000 0.000000 0.041796 0.000000 0.000000
# 5 0.000000 0.000000 0.000000 0.000000 0.066861 0.000000
# 6 0.000000 0.000000 0.000000 0.000000 0.000000 0.021975
#
#
# Mechanical properties :
#
#
# Convention : Reuss Voigt Hill
#
# Bulk Modulus (GPa) = 15.69435 43.54769 29.62102
# Shear Modulus (GPa) = 16.95512 29.86616 23.41064
#
# Velocity S-wave (km/s) = 2.95403 3.92062 3.47113
# Velocity P-wave (km/s) = 4.43988 6.55040 5.59554
#
# Compressibility (1/GPa) = 0.06371718
#
# Stress axis : x y z
#
# Youngs Moduli (GPa) = 92.45308 111.98539 11.95813
#
# Poissons Ratio (x) = 0.14068 0.11693
# Poissons Ratio (y) = 0.11614 0.10514
# Poissons Ratio (z) = 0.90403 0.98463
#
# Static dielectric constant tensor:
#      x y z
#    x 3.786540 0.000000 0.000000 
#    y 0.000000 3.760080 0.000000 
#    z 0.000000 0.000000 3.080830 
# 
# 
# High freq. dielectric constant tensor:
#      x y z
#    x 1.778910 0.000000 0.000000 
#    y 0.000000 1.777320 0.000000 
#    z 0.000000 0.000000 1.706430 
# 
# From -- ./inp_files/9300.got.cif
#   From: 2010.06.25/outbox.cif.g09.slc.cpg/sg58_5_cif.got.tgz:9300.got - 2010.06.26 21:38:00.
