data_PCOD8237680
_publ_section_title
;
Structure prediction by ZEFSAII (Michael W. Deem and Ramdas Pophale) SiO2 
 PCOD8237680
Probable space group: P N N M
;
_chemical_formula_sum "Si O2"
_cell_formula_units_Z 56
_cell_length_a 15.857181
_cell_length_b 19.899212
_cell_length_c 8.958397
_cell_angle_alpha 90.000000
_cell_angle_beta 90.000000
_cell_angle_gamma 90.000000
_cell_volume 2826.781022
_symmetry_space_group_name_H-M "P N N M"
_symmetry_group_IT_number 58
_symmetry_cell_setting 'orthorhombic'
loop_
_space_group_symop_operation_xyz
x,y,z
-x,-y,z
1/2+x,1/2-y,1/2-z
1/2-x,1/2+y,1/2-z
-x,-y,-z
x,y,-z
1/2-x,1/2+y,1/2+z
1/2+x,1/2-y,1/2+z
loop_
_atom_site_type_symbol
_atom_site_label
_atom_site_fract_x
_atom_site_fract_y
_atom_site_fract_z
Si Si1 0.818347 0.608096 0.328100
Si Si2 0.815500 0.202132 0.325545
Si Si3 0.162858 0.661221 0.825384
Si Si4 0.578544 0.454968 0.826451
Si Si5 0.969187 0.675662 0.174196
Si Si6 0.991604 0.809925 0.328231
Si Si7 0.250605 0.037482 0.171503
O O1 0.815045 0.629755 0.500000
O O2 0.745628 0.647078 0.242097
O O3 0.909529 0.624458 0.261041
O O4 0.806144 0.528882 0.308015
O O5 0.798048 0.206968 0.500000
O O6 0.796343 0.274701 0.255227
O O7 0.910399 0.178726 0.288590
O O8 0.209264 0.594864 0.772265
O O9 0.064358 0.654997 0.785540
O O10 0.177660 0.670482 0.000000
O O11 0.500000 0.500000 0.776264
O O12 0.559101 0.377318 0.793808
O O13 0.656572 0.478116 0.726953
O O14 0.599438 0.467285 0.000000
O O15 0.951373 0.751824 0.226717
O O16 0.949871 0.670723 0.000000
O O17 0.982405 0.788026 0.500000
O O18 0.248528 0.060706 0.000000
#
# Coordination Sequence:
#
# PCOD8237680 Si02
#       7
#     8   8   8   8   8   8   8
#     4  11  24  40  59  85 120 159 200 247 303 359
#     4  10  20  37  63  90 119 155 198 247 297 356
#     4  10  22  41  63  88 120 157 198 249 305 360
#     4  10  21  38  61  88 121 160 200 244 299 361
#     4  10  22  39  61  88 115 151 200 250 301 357
#     4   9  19  36  59  87 118 153 193 242 298 355
#     4  11  25  41  59  87 121 161 204 248 301 360
#
# _framework density 19.81052
#
# number of rings (size 3 to 8) (size 9 to 14) (size 15 to 20)
#    0.000    1.857    0.000    3.000    2.000    7.143 
#    0.000    2.857    0.000    0.000    0.000    0.000 
#    0.000    0.000    0.000    0.000    0.000    0.000 
#
# Total GULP energy -694757.773196 kJ/mol
# GULP energy per Si atom -12406.388807 kJ/mol
# Density = 1.976543 g / cm^3
# Si number density = 19.810520 Si / 1000 Ang^3
#
#
#
# Elastic Constant Matrix: (Units=GPa)
#
#
# Indices 1 2 3 4 5 6 
#
# 1 53.6864 12.2647 23.8259 0.0000 0.0000 0.0000
# 2 12.2647 56.9891 27.0843 0.0000 0.0000 0.0000
# 3 23.8259 27.0843 84.2159 0.0000 0.0000 0.0000
# 4 0.0000 0.0000 0.0000 31.8540 0.0000 0.0000
# 5 0.0000 0.0000 0.0000 0.0000 34.5226 0.0000
# 6 0.0000 0.0000 0.0000 0.0000 0.0000 37.0692
#
#
#
# Elastic Compliance Matrix: (Units=1/GPa)
#
#
# Indices 1 2 3 4 5 6 
#
# 1 0.021502 -0.002050 -0.005424 0.000000 0.000000 0.000000
# 2 -0.002050 0.020908 -0.006144 0.000000 0.000000 0.000000
# 3 -0.005424 -0.006144 0.015385 0.000000 0.000000 0.000000
# 4 0.000000 0.000000 0.000000 0.031393 0.000000 0.000000
# 5 0.000000 0.000000 0.000000 0.000000 0.028967 0.000000
# 6 0.000000 0.000000 0.000000 0.000000 0.000000 0.026977
#
#
# Mechanical properties :
#
#
# Convention : Reuss Voigt Hill
#
# Bulk Modulus (GPa) = 32.72342 35.69347 34.20844
# Shear Modulus (GPa) = 27.38907 29.47024 28.42966
#
# Velocity S-wave (km/s) = 3.72230 3.86113 3.79235
# Velocity P-wave (km/s) = 5.91845 6.15909 6.03997
#
# Compressibility (1/GPa) = 0.03055915
#
# Stress axis : x y z
#
# Youngs Moduli (GPa) = 46.50700 47.82749 64.99894
#
# Poissons Ratio (x) = 0.09803 0.35256
# Poissons Ratio (y) = 0.09533 0.39938
# Poissons Ratio (z) = 0.25226 0.29387
#
# Static dielectric constant tensor:
#      x y z
#    x 3.647530 0.000000 0.000000 
#    y 0.000000 3.610310 0.000000 
#    z 0.000000 0.000000 3.681330 
# 
# 
# High freq. dielectric constant tensor:
#      x y z
#    x 1.777430 0.000000 0.000000 
#    y 0.000000 1.776950 0.000000 
#    z 0.000000 0.000000 1.780540 
# 
# From -- ./inp_files/6451.got.cif
#   From: 2010.06.25/outbox.cif.g09.slc.cpg/sg58_4_cif.got.tgz:6451.got - 2010.06.26 21:38:00.
