data_PCOD8237672
_publ_section_title
;
Structure prediction by ZEFSAII (Michael W. Deem and Ramdas Pophale) SiO2 
 PCOD8237672
Probable space group: P N N M
;
_chemical_formula_sum "Si O2"
_cell_formula_units_Z 64
_cell_length_a 15.106894
_cell_length_b 11.218828
_cell_length_c 17.833145
_cell_angle_alpha 90.000000
_cell_angle_beta 90.000000
_cell_angle_gamma 90.000000
_cell_volume 3022.390757
_symmetry_space_group_name_H-M "P N N M"
_symmetry_group_IT_number 58
_symmetry_cell_setting 'orthorhombic'
loop_
_space_group_symop_operation_xyz
x,y,z
-x,-y,z
1/2+x,1/2-y,1/2-z
1/2-x,1/2+y,1/2-z
-x,-y,-z
x,y,-z
1/2-x,1/2+y,1/2+z
1/2+x,1/2-y,1/2+z
loop_
_atom_site_type_symbol
_atom_site_label
_atom_site_fract_x
_atom_site_fract_y
_atom_site_fract_z
Si Si1 0.543132 0.371140 0.322029
Si Si2 0.397885 0.257841 0.583440
Si Si3 0.053360 0.714803 0.415553
Si Si4 0.348684 0.036684 0.186935
Si Si5 0.689735 0.485866 0.584093
Si Si6 0.246848 0.622880 0.164502
Si Si7 0.601162 0.218633 0.815686
Si Si8 0.599466 0.524497 0.915028
O O1 0.500000 0.500000 0.308207
O O2 0.483200 0.274294 0.364786
O O3 0.632133 0.391127 0.369164
O O4 0.561181 0.311117 0.243169
O O5 0.429548 0.225694 0.500000
O O6 0.348444 0.382702 0.584676
O O7 0.336386 0.147832 0.610406
O O8 0.056825 0.658883 0.500000
O O9 0.083564 0.633000 0.346016
O O10 0.113093 0.833173 0.414174
O O11 0.950570 0.740548 0.394438
O O12 0.287361 0.006553 0.116571
O O13 0.290554 0.080502 0.256194
O O14 0.402765 0.918589 0.211129
O O15 0.694623 0.435330 0.500000
O O16 0.295728 0.749327 0.173674
O O17 0.320240 0.529668 0.133768
O O18 0.500000 0.500000 0.883099
O O19 0.605894 0.474405 0.000000
#
# Coordination Sequence:
#
# PCOD8237672 Si02
#       8
#     8   8   8   8   8   8   8   8
#     4  10  22  40  67  97 131 172 219 272 331 394
#     4  10  21  39  64  95 126 166 220 271 323 388
#     4  11  26  45  68  95 132 177 222 275 337 402
#     4  12  26  42  61  96 134 173 217 269 336 396
#     4  10  20  37  62  93 130 167 210 266 326 393
#     4  12  24  39  66  95 134 172 218 275 332 394
#     4  12  25  41  65  95 130 175 219 270 327 400
#     4  10  22  41  65  94 125 168 223 273 327 393
#
# _framework density 21.17529
#
# number of rings (size 3 to 8) (size 9 to 14) (size 15 to 20)
#    0.000    1.125    3.750    2.250    3.500    3.500 
#    0.000    0.000    0.000    3.000    0.000    0.000 
#    0.000    0.000    0.000    0.000    0.000    0.000 
#
# Total GULP energy -793385.955546 kJ/mol
# GULP energy per Si atom -12396.655555 kJ/mol
# Density = 2.112709 g / cm^3
# Si number density = 21.175290 Si / 1000 Ang^3
#
#
#
# Elastic Constant Matrix: (Units=GPa)
#
#
# Indices 1 2 3 4 5 6 
#
# 1 74.8133 25.9423 43.6744 0.0000 0.0000 0.0000
# 2 25.9423 90.8128 43.6709 0.0000 0.0000 0.0000
# 3 43.6744 43.6709 123.0029 0.0000 0.0000 0.0000
# 4 0.0000 0.0000 0.0000 27.6803 0.0000 0.0000
# 5 0.0000 0.0000 0.0000 0.0000 33.3920 0.0000
# 6 0.0000 0.0000 0.0000 0.0000 0.0000 33.1752
#
#
#
# Elastic Compliance Matrix: (Units=1/GPa)
#
#
# Indices 1 2 3 4 5 6 
#
# 1 0.017283 -0.002395 -0.005286 0.000000 0.000000 0.000000
# 2 -0.002395 0.013611 -0.003982 0.000000 0.000000 0.000000
# 3 -0.005286 -0.003982 0.011421 0.000000 0.000000 0.000000
# 4 0.000000 0.000000 0.000000 0.036127 0.000000 0.000000
# 5 0.000000 0.000000 0.000000 0.000000 0.029947 0.000000
# 6 0.000000 0.000000 0.000000 0.000000 0.000000 0.030143
#
#
# Mechanical properties :
#
#
# Convention : Reuss Voigt Hill
#
# Bulk Modulus (GPa) = 52.66537 57.24491 54.95514
# Shear Modulus (GPa) = 29.72870 30.53893 30.13381
#
# Velocity S-wave (km/s) = 3.75097 3.80175 3.77645
# Velocity P-wave (km/s) = 6.60945 6.80908 6.71001
#
# Compressibility (1/GPa) = 0.01898781
#
# Stress axis : x y z
#
# Youngs Moduli (GPa) = 57.85966 73.47140 87.56075
#
# Poissons Ratio (x) = 0.17597 0.46288
# Poissons Ratio (y) = 0.13858 0.34866
# Poissons Ratio (z) = 0.30587 0.29256
#
# Static dielectric constant tensor:
#      x y z
#    x 3.948000 0.000000 0.000000 
#    y 0.000000 3.763740 0.000000 
#    z 0.000000 0.000000 3.876010 
# 
# 
# High freq. dielectric constant tensor:
#      x y z
#    x 1.830490 0.000000 0.000000 
#    y 0.000000 1.821120 0.000000 
#    z 0.000000 0.000000 1.836480 
# 
# From -- ./inp_files/26990.got.cif
#   From: 2010.06.25/outbox.cif.g09.slc.cpg/sg58_14_cif.got.tgz:26990.got - 2010.06.26 21:38:00.
