data_PCOD8237836
_publ_section_title
;
Structure prediction by ZEFSAII (Michael W. Deem and Ramdas Pophale) SiO2 
 PCOD8237836
Probable space group: P N N M
;
_chemical_formula_sum "Si O2"
_cell_formula_units_Z 48
_cell_length_a 9.751230
_cell_length_b 17.083806
_cell_length_c 14.762778
_cell_angle_alpha 90.000000
_cell_angle_beta 90.000000
_cell_angle_gamma 90.000000
_cell_volume 2459.303456
_symmetry_space_group_name_H-M "P N N M"
_symmetry_group_IT_number 58
_symmetry_cell_setting 'orthorhombic'
loop_
_space_group_symop_operation_xyz
x,y,z
-x,-y,z
1/2+x,1/2-y,1/2-z
1/2-x,1/2+y,1/2-z
-x,-y,-z
x,y,-z
1/2-x,1/2+y,1/2+z
1/2+x,1/2-y,1/2+z
loop_
_atom_site_type_symbol
_atom_site_label
_atom_site_fract_x
_atom_site_fract_y
_atom_site_fract_z
Si Si1 0.160670 0.173554 0.735927
Si Si2 0.602377 0.431703 0.395528
Si Si3 0.095132 0.426073 0.104867
Si Si4 0.907274 0.428015 0.595490
Si Si5 0.973149 0.314712 0.251614
Si Si6 0.652763 0.472055 0.103882
O O1 0.093826 0.144194 0.831006
O O2 0.057507 0.241975 0.707690
O O3 0.313721 0.209583 0.741759
O O4 0.174811 0.104602 0.663413
O O5 0.500000 0.500000 0.362433
O O6 0.569816 0.408807 0.500000
O O7 0.757203 0.461431 0.379345
O O8 0.045502 0.350646 0.162008
O O9 0.247813 0.455729 0.132006
O O10 0.000000 0.500000 0.125587
O O11 0.087886 0.400411 0.000000
O O12 0.895160 0.379851 0.500000
O O13 0.000000 0.500000 0.575912
O O14 0.980948 0.379805 0.672185
O O15 0.500000 0.500000 0.118655
O O16 0.683801 0.448576 0.000000
#
# Coordination Sequence:
#
# PCOD8237836 Si02
#       6
#     8   8   8   8   8   8
#     4  11  24  38  55  86 121 156 189 237 291 349
#     4   9  19  37  59  82 108 143 188 234 277 329
#     4  10  20  39  65  87 111 151 201 245 288 343
#     4   9  19  36  58  82 108 144 187 229 278 336
#     4  11  24  37  56  84 120 155 192 236 294 346
#     4  10  22  40  64  91 116 150 198 249 295 347
#
# _framework density 19.517721999999999
#
# number of rings (size 3 to 8) (size 9 to 14) (size 15 to 20)
#    0.000    2.000    1.667    1.000    4.667    2.667 
#    0.000    0.000    0.000    0.000    0.000    0.000 
#    0.000    0.000    0.000    0.000    0.000    0.000 
#
# Total GULP energy -594839.716681 kJ/mol
# GULP energy per Si atom -12392.494098 kJ/mol
# Density = 1.947330 g / cm^3
# Si number density = 19.517722 Si / 1000 Ang^3
#
#
#
# Elastic Constant Matrix: (Units=GPa)
#
#
# Indices 1 2 3 4 5 6 
#
# 1 116.6502 50.0283 38.9577 0.0000 0.0000 0.0000
# 2 50.0283 63.6465 32.4302 0.0000 0.0000 0.0000
# 3 38.9577 32.4302 84.6509 0.0000 0.0000 0.0000
# 4 0.0000 0.0000 0.0000 -7.9041 0.0000 0.0000
# 5 0.0000 0.0000 0.0000 0.0000 24.1548 0.0000
# 6 0.0000 0.0000 0.0000 0.0000 0.0000 35.1405
#
#
#
# Elastic Compliance Matrix: (Units=1/GPa)
#
#
# Indices 1 2 3 4 5 6 
#
# 1 0.013393 -0.009179 -0.002647 0.000000 0.000000 0.000000
# 2 -0.009179 0.025813 -0.005665 0.000000 0.000000 0.000000
# 3 -0.002647 -0.005665 0.015202 0.000000 0.000000 0.000000
# 4 0.000000 0.000000 0.000000 -0.126517 0.000000 0.000000
# 5 0.000000 0.000000 0.000000 0.000000 0.041400 0.000000
# 6 0.000000 0.000000 0.000000 0.000000 0.000000 0.028457
#
#
# Mechanical properties :
#
#
# Convention : Reuss Voigt Hill
#
# Bulk Modulus (GPa) = 51.47693 56.41998 53.94846
# Shear Modulus (GPa) = 127.53453 19.84700 73.69076
#
# Velocity S-wave (km/s) = 8.09227 3.19230 6.15124
# Velocity P-wave (km/s) = 10.66512 6.52361 8.84031
#
# Compressibility (1/GPa) = 0.01942618
#
# Stress axis : x y z
#
# Youngs Moduli (GPa) = 74.66437 38.74016 65.78127
#
# Poissons Ratio (x) = 0.35558 0.17415
# Poissons Ratio (y) = 0.68532 0.37265
# Poissons Ratio (z) = 0.19767 0.21946
#
# Static dielectric constant tensor:
#      x y z
#    x 3.805890 0.000000 0.000000 
#    y 0.000000 3.338100 0.000000 
#    z 0.000000 0.000000 3.843020 
# 
# 
# High freq. dielectric constant tensor:
#      x y z
#    x 1.778620 0.000000 0.000000 
#    y 0.000000 1.726740 0.000000 
#    z 0.000000 0.000000 1.773470 
# 
# From -- ./inp_files/19829.got.cif
#   From: 2010.06.25/outbox.cif.g09.slc.cpg/sg58_10_cif.got.tgz:19829.got - 2010.06.26 21:38:00.
