data_PCOD8237201
_publ_section_title
;
Structure prediction by ZEFSAII (Michael W. Deem and Ramdas Pophale) SiO2 
 PCOD8237201
Probable space group: P N N M
;
_chemical_formula_sum "Si O2"
_cell_formula_units_Z 64
_cell_length_a 9.249785
_cell_length_b 14.155146
_cell_length_c 21.523844
_cell_angle_alpha 90.000000
_cell_angle_beta 90.000000
_cell_angle_gamma 90.000000
_cell_volume 2818.161173
_symmetry_space_group_name_H-M "P N N M"
_symmetry_group_IT_number 58
_symmetry_cell_setting 'orthorhombic'
loop_
_space_group_symop_operation_xyz
x,y,z
-x,-y,z
1/2+x,1/2-y,1/2-z
1/2-x,1/2+y,1/2-z
-x,-y,-z
x,y,-z
1/2-x,1/2+y,1/2+z
1/2+x,1/2-y,1/2+z
loop_
_atom_site_type_symbol
_atom_site_label
_atom_site_fract_x
_atom_site_fract_y
_atom_site_fract_z
Si Si1 0.825573 0.856984 0.762884
Si Si2 0.182399 0.353279 0.572848
Si Si3 0.777147 0.939515 0.365956
Si Si4 0.522330 0.687807 0.890665
Si Si5 0.353624 0.328311 0.753179
Si Si6 0.705405 0.125533 0.433200
Si Si7 0.666374 0.016077 0.816598
Si Si8 0.587541 0.795301 0.428903
O O1 0.821278 0.931635 0.705913
O O2 0.736911 0.766205 0.739498
O O3 0.990759 0.831493 0.782737
O O4 0.745965 0.913844 0.818034
O O5 0.153871 0.373037 0.500000
O O6 0.061999 0.285624 0.603314
O O7 0.174537 0.449256 0.611928
O O8 0.340233 0.306358 0.584725
O O9 0.914823 0.900027 0.404525
O O10 0.641404 0.875073 0.382221
O O11 0.732055 0.045951 0.381471
O O12 0.603828 0.672643 0.825254
O O13 0.648165 0.685598 0.941518
O O14 0.248938 0.412649 0.730471
O O15 0.666992 0.078472 0.500000
O O16 0.583804 0.202979 0.415443
O O17 0.500000 0.000000 0.795084
O O18 0.625188 0.822822 0.500000
#
# Coordination Sequence:
#
# PCOD8237201 Si02
#       8
#     8   8   8   8   8   8   8   8
#     4  11  24  42  67  96 129 171 219 274 337 407
#     4  10  22  44  69  91 126 176 231 285 330 388
#     4  10  20  35  54  83 122 166 211 258 323 403
#     4  10  21  37  58  87 123 170 221 271 335 400
#     4  11  23  44  69  97 136 174 219 280 339 404
#     4  11  21  32  53  87 124 162 210 267 326 396
#     4  12  25  43  67 100 133 171 224 276 338 405
#     4   9  19  35  55  83 120 163 213 268 329 392
#
# _framework density 22.709842999999999
#
# number of rings (size 3 to 8) (size 9 to 14) (size 15 to 20)
#    0.000    1.500    0.000    6.375    0.000    9.250 
#    0.000    2.500    0.000    1.500    0.000    0.000 
#    0.000    0.000    0.000    0.000    0.000    0.000 
#
# Total GULP energy -793013.090256 kJ/mol
# GULP energy per Si atom -12390.829535 kJ/mol
# Density = 2.265815 g / cm^3
# Si number density = 22.709843 Si / 1000 Ang^3
#
#
#
# Elastic Constant Matrix: (Units=GPa)
#
#
# Indices 1 2 3 4 5 6 
#
# 1 182.9580 62.1468 37.4202 0.0000 0.0000 0.0000
# 2 62.1468 94.2211 28.7915 0.0000 0.0000 0.0000
# 3 37.4202 28.7915 69.8083 0.0000 0.0000 0.0000
# 4 0.0000 0.0000 0.0000 35.7275 0.0000 0.0000
# 5 0.0000 0.0000 0.0000 0.0000 26.9989 0.0000
# 6 0.0000 0.0000 0.0000 0.0000 0.0000 33.7877
#
#
#
# Elastic Compliance Matrix: (Units=1/GPa)
#
#
# Indices 1 2 3 4 5 6 
#
# 1 0.007331 -0.004159 -0.002215 0.000000 0.000000 0.000000
# 2 -0.004159 0.014503 -0.003752 0.000000 0.000000 0.000000
# 3 -0.002215 -0.003752 0.017060 0.000000 0.000000 0.000000
# 4 0.000000 0.000000 0.000000 0.027990 0.000000 0.000000
# 5 0.000000 0.000000 0.000000 0.000000 0.037039 0.000000
# 6 0.000000 0.000000 0.000000 0.000000 0.000000 0.029597
#
#
# Mechanical properties :
#
#
# Convention : Reuss Voigt Hill
#
# Bulk Modulus (GPa) = 53.64086 67.07825 60.35956
# Shear Modulus (GPa) = 31.25299 33.87809 32.56554
#
# Velocity S-wave (km/s) = 3.71372 3.86655 3.79091
# Velocity P-wave (km/s) = 6.48540 7.03810 6.76739
#
# Compressibility (1/GPa) = 0.01864250
#
# Stress axis : x y z
#
# Youngs Moduli (GPa) = 136.39968 68.95076 58.61787
#
# Poissons Ratio (x) = 0.28676 0.12982
# Poissons Ratio (y) = 0.56728 0.21995
# Poissons Ratio (z) = 0.30208 0.25872
#
# Static dielectric constant tensor:
#      x y z
#    x 4.577060 0.000000 0.000000 
#    y 0.000000 3.923140 0.000000 
#    z 0.000000 0.000000 4.066410 
# 
# 
# High freq. dielectric constant tensor:
#      x y z
#    x 1.915000 0.000000 0.000000 
#    y 0.000000 1.875540 0.000000 
#    z 0.000000 0.000000 1.887560 
# 
# From -- ./inp_files/31619.got.cif
#   From: 2010.06.25/outbox.cif.g09.slc.cpg/sg58_16_cif.got.tgz:31619.got - 2010.06.26 21:38:00.
