data_PCOD8237586
_publ_section_title
;
Structure prediction by ZEFSAII (Michael W. Deem and Ramdas Pophale) SiO2 
 PCOD8237586
Probable space group: P N N M
;
_chemical_formula_sum "Si O2"
_cell_formula_units_Z 64
_cell_length_a 23.175357
_cell_length_b 15.680529
_cell_length_c 8.551938
_cell_angle_alpha 90.000000
_cell_angle_beta 90.000000
_cell_angle_gamma 90.000000
_cell_volume 3107.790155
_symmetry_space_group_name_H-M "P N N M"
_symmetry_group_IT_number 58
_symmetry_cell_setting 'orthorhombic'
loop_
_space_group_symop_operation_xyz
x,y,z
-x,-y,z
1/2+x,1/2-y,1/2-z
1/2-x,1/2+y,1/2-z
-x,-y,-z
x,y,-z
1/2-x,1/2+y,1/2+z
1/2+x,1/2-y,1/2+z
loop_
_atom_site_type_symbol
_atom_site_label
_atom_site_fract_x
_atom_site_fract_y
_atom_site_fract_z
Si Si1 0.546077 0.568523 0.818468
Si Si2 0.314244 0.707586 0.679337
Si Si3 0.871225 0.633003 0.680797
Si Si4 0.745459 0.075906 0.817966
Si Si5 0.430004 0.248198 0.685716
Si Si6 0.149436 0.025017 0.177890
Si Si7 0.798833 0.250485 0.185534
Si Si8 0.991151 0.594496 0.182286
O O1 0.500000 0.500000 0.747685
O O2 0.542287 0.662074 0.741366
O O3 0.608387 0.526599 0.792663
O O4 0.534052 0.581727 0.000000
O O5 0.313872 0.739387 0.500000
O O6 0.343574 0.774065 0.796337
O O7 0.355912 0.625813 0.695179
O O8 0.248288 0.686538 0.734483
O O9 0.889077 0.620162 0.500000
O O10 0.820873 0.567495 0.741662
O O11 0.925778 0.622032 0.790447
O O12 0.779689 0.157604 0.751717
O O13 0.783732 0.994074 0.777406
O O14 0.738625 0.092682 0.000000
O O15 0.432340 0.250514 0.500000
O O16 0.364314 0.234940 0.745914
O O17 0.466636 0.167607 0.753245
O O18 0.136615 0.994269 0.000000
O O19 0.796904 0.261682 0.000000
O O20 0.000000 0.500000 0.258142
O O21 0.004113 0.588725 0.000000
#
# Coordination Sequence:
#
# PCOD8237586 Si02
#       8
#     8   8   8   8   8   8   8   8
#     4  11  25  40  56  87 125 156 196 252 303 352
#     4  10  21  34  55  88 120 151 190 239 291 352
#     4  10  21  38  60  82 115 158 197 239 296 355
#     4   8  15  32  56  79 105 143 188 232 276 337
#     4  10  21  40  65  86 116 163 205 243 296 363
#     4  10  20  37  59  84 116 154 198 237 284 358
#     4   9  17  34  57  80 109 148 192 235 289 350
#     4  10  23  42  62  88 119 152 200 255 300 349
#
# _framework density 20.593411
#
# number of rings (size 3 to 8) (size 9 to 14) (size 15 to 20)
#    0.000    2.250    1.250    1.875    1.750    4.250 
#    0.000    0.625    0.000    0.000    0.000    0.000 
#    0.000    0.000    0.000    0.000    0.000    0.000 
#
# Total GULP energy -793081.517809 kJ/mol
# GULP energy per Si atom -12391.898716 kJ/mol
# Density = 2.054654 g / cm^3
# Si number density = 20.593411 Si / 1000 Ang^3
#
#
#
# Elastic Constant Matrix: (Units=GPa)
#
#
# Indices 1 2 3 4 5 6 
#
# 1 128.9208 50.2788 8.3941 0.0000 0.0000 0.0000
# 2 50.2788 105.4490 15.9669 0.0000 0.0000 0.0000
# 3 8.3941 15.9669 29.5993 0.0000 0.0000 0.0000
# 4 0.0000 0.0000 0.0000 18.5659 0.0000 0.0000
# 5 0.0000 0.0000 0.0000 0.0000 29.9308 0.0000
# 6 0.0000 0.0000 0.0000 0.0000 0.0000 29.5933
#
#
#
# Elastic Compliance Matrix: (Units=1/GPa)
#
#
# Indices 1 2 3 4 5 6 
#
# 1 0.009531 -0.004503 -0.000274 0.000000 0.000000 0.000000
# 2 -0.004503 0.012454 -0.005441 0.000000 0.000000 0.000000
# 3 -0.000274 -0.005441 0.036797 0.000000 0.000000 0.000000
# 4 0.000000 0.000000 0.000000 0.053862 0.000000 0.000000
# 5 0.000000 0.000000 0.000000 0.000000 0.033410 0.000000
# 6 0.000000 0.000000 0.000000 0.000000 0.000000 0.033791
#
#
# Mechanical properties :
#
#
# Convention : Reuss Voigt Hill
#
# Bulk Modulus (GPa) = 26.07802 45.91651 35.99727
# Shear Modulus (GPa) = 23.46714 28.23998 25.85356
#
# Velocity S-wave (km/s) = 3.37938 3.70714 3.54705
# Velocity P-wave (km/s) = 5.28372 6.37722 5.85605
#
# Compressibility (1/GPa) = 0.03834647
#
# Stress axis : x y z
#
# Youngs Moduli (GPa) = 104.92514 80.29471 27.17579
#
# Poissons Ratio (x) = 0.36155 0.00744
# Poissons Ratio (y) = 0.47246 0.14787
# Poissons Ratio (z) = 0.02873 0.43690
#
# Static dielectric constant tensor:
#      x y z
#    x 3.950300 0.000000 0.000000 
#    y 0.000000 3.771330 0.000000 
#    z 0.000000 0.000000 3.400890 
# 
# 
# High freq. dielectric constant tensor:
#      x y z
#    x 1.814540 0.000000 0.000000 
#    y 0.000000 1.798000 0.000000 
#    z 0.000000 0.000000 1.777690 
# 
# From -- ./inp_files/9938.got.cif
#   From: 2010.06.25/outbox.cif.g09.slc.cpg/sg58_5_cif.got.tgz:9938.got - 2010.06.26 21:38:00.
