data_PCOD8237648
_publ_section_title
;
Structure prediction by ZEFSAII (Michael W. Deem and Ramdas Pophale) SiO2 
 PCOD8237648
Probable space group: P N N M
;
_chemical_formula_sum "Si O2"
_cell_formula_units_Z 40
_cell_length_a 24.143300
_cell_length_b 9.290064
_cell_length_c 9.548979
_cell_angle_alpha 90.000000
_cell_angle_beta 90.000000
_cell_angle_gamma 90.000000
_cell_volume 2141.767258
_symmetry_space_group_name_H-M "P N N M"
_symmetry_group_IT_number 58
_symmetry_cell_setting 'orthorhombic'
loop_
_space_group_symop_operation_xyz
x,y,z
-x,-y,z
1/2+x,1/2-y,1/2-z
1/2-x,1/2+y,1/2-z
-x,-y,-z
x,y,-z
1/2-x,1/2+y,1/2+z
1/2+x,1/2-y,1/2+z
loop_
_atom_site_type_symbol
_atom_site_label
_atom_site_fract_x
_atom_site_fract_y
_atom_site_fract_z
Si Si1 0.450528 0.105626 0.000000
Si Si2 0.374488 0.694104 0.225310
Si Si3 0.968299 0.853179 0.500000
Si Si4 0.363936 0.031326 0.227767
Si Si5 0.662025 0.809365 0.500000
Si Si6 0.846624 0.965217 0.000000
Si Si7 0.721261 0.970530 0.000000
Si Si8 0.787656 0.810147 0.500000
O O1 0.476050 0.261525 0.000000
O O2 0.500000 0.000000 0.000000
O O3 0.416487 0.076107 0.860904
O O4 0.365869 0.861680 0.263023
O O5 0.377993 0.597320 0.364506
O O6 0.321634 0.637494 0.136348
O O7 0.430904 0.673093 0.137691
O O8 0.000000 0.000000 0.500000
O O9 0.309283 0.080948 0.141538
O O10 0.367969 0.124951 0.366543
O O11 0.653992 0.637920 0.500000
O O12 0.725308 0.869026 0.500000
O O13 0.783236 0.908971 0.000000
O O14 0.716327 0.140335 0.000000
#
# Coordination Sequence:
#
# PCOD8237648 Si02
#       8
#     4   8   4   8   4   4   4   4
#     4  11  20  42  66  84 100 142 195 243 271 332
#     4  10  20  39  59  84 112 156 185 227 281 345
#     4  11  24  40  66  84 108 140 191 237 294 334
#     4  10  20  37  62  83 112 147 198 228 276 330
#     4  11  22  34  53  91 121 149 181 239 272 325
#     4  11  22  34  53  85 130 147 180 227 289 330
#     4   8  17  35  57  84 112 156 187 230 266 334
#     4   8  17  35  59  81 117 150 194 221 272 333
#
# _framework density 18.676165000000001
#
# number of rings (size 3 to 8) (size 9 to 14) (size 15 to 20)
#    0.000    2.000    2.000    3.000    2.800    0.000 
#    0.000    4.000    0.000    0.000    0.000    0.000 
#    0.000    0.000    0.000    0.000    0.000    0.000 
#
# Total GULP energy -495855.335317 kJ/mol
# GULP energy per Si atom -12396.383383 kJ/mol
# Density = 1.863366 g / cm^3
# Si number density = 18.676165 Si / 1000 Ang^3
#
#
#
# Elastic Constant Matrix: (Units=GPa)
#
#
# Indices 1 2 3 4 5 6 
#
# 1 90.3027 34.2164 47.0158 0.0000 0.0000 0.0000
# 2 34.2164 107.0225 55.8325 0.0000 0.0000 0.0000
# 3 47.0158 55.8325 156.2394 0.0000 0.0000 0.0000
# 4 0.0000 0.0000 0.0000 21.1766 0.0000 0.0000
# 5 0.0000 0.0000 0.0000 0.0000 4.2966 0.0000
# 6 0.0000 0.0000 0.0000 0.0000 0.0000 31.1269
#
#
#
# Elastic Compliance Matrix: (Units=1/GPa)
#
#
# Indices 1 2 3 4 5 6 
#
# 1 0.013761 -0.002752 -0.003157 0.000000 0.000000 0.000000
# 2 -0.002752 0.012035 -0.003473 0.000000 0.000000 0.000000
# 3 -0.003157 -0.003473 0.008592 0.000000 0.000000 0.000000
# 4 0.000000 0.000000 0.000000 0.047222 0.000000 0.000000
# 5 0.000000 0.000000 0.000000 0.000000 0.232744 0.000000
# 6 0.000000 0.000000 0.000000 0.000000 0.000000 0.032127
#
#
# Mechanical properties :
#
#
# Convention : Reuss Voigt Hill
#
# Bulk Modulus (GPa) = 64.00834 69.74379 66.87607
# Shear Modulus (GPa) = 13.49702 25.75334 19.62518
#
# Velocity S-wave (km/s) = 2.69120 3.71744 3.24514
# Velocity P-wave (km/s) = 6.63354 7.47333 7.06592
#
# Compressibility (1/GPa) = 0.01562296
#
# Stress axis : x y z
#
# Youngs Moduli (GPa) = 72.67138 83.08804 116.39404
#
# Poissons Ratio (x) = 0.22868 0.36749
# Poissons Ratio (y) = 0.20001 0.40420
# Poissons Ratio (z) = 0.22945 0.28854
#
# Static dielectric constant tensor:
#      x y z
#    x 3.478580 0.000000 0.000000 
#    y 0.000000 3.276600 0.000000 
#    z 0.000000 0.000000 3.414540 
# 
# 
# High freq. dielectric constant tensor:
#      x y z
#    x 1.723860 0.000000 0.000000 
#    y 0.000000 1.717840 0.000000 
#    z 0.000000 0.000000 1.728610 
# 
# From -- ./inp_files/10314.got.cif
#   From: 2010.06.25/outbox.cif.g09.slc.cpg/sg58_6_cif.got.tgz:10314.got - 2010.06.26 21:38:00.
