data_PCOD8237569
_publ_section_title
;
Structure prediction by ZEFSAII (Michael W. Deem and Ramdas Pophale) SiO2 
 PCOD8237569
Probable space group: P N N M
;
_chemical_formula_sum "Si O2"
_cell_formula_units_Z 56
_cell_length_a 16.103854
_cell_length_b 11.470725
_cell_length_c 14.941475
_cell_angle_alpha 90.000000
_cell_angle_beta 90.000000
_cell_angle_gamma 90.000000
_cell_volume 2760.032304
_symmetry_space_group_name_H-M "P N N M"
_symmetry_group_IT_number 58
_symmetry_cell_setting 'orthorhombic'
loop_
_space_group_symop_operation_xyz
x,y,z
-x,-y,z
1/2+x,1/2-y,1/2-z
1/2-x,1/2+y,1/2-z
-x,-y,-z
x,y,-z
1/2-x,1/2+y,1/2+z
1/2+x,1/2-y,1/2+z
loop_
_atom_site_type_symbol
_atom_site_label
_atom_site_fract_x
_atom_site_fract_y
_atom_site_fract_z
Si Si1 0.665028 0.132677 0.598258
Si Si2 0.140210 0.782695 0.178778
Si Si3 0.298621 0.189181 0.142109
Si Si4 0.161864 0.050277 0.224980
Si Si5 0.961906 0.755056 0.777013
Si Si6 0.255035 0.105228 0.402042
Si Si7 0.478293 0.131836 0.099403
O O1 0.628050 0.164370 0.500000
O O2 0.756443 0.192501 0.605484
O O3 0.605082 0.168904 0.679095
O O4 0.675018 0.994550 0.607481
O O5 0.167988 0.700818 0.258789
O O6 0.198631 0.732401 0.100045
O O7 0.043492 0.757496 0.160985
O O8 0.153947 0.914902 0.206538
O O9 0.225808 0.092546 0.148001
O O10 0.378638 0.148314 0.086267
O O11 0.073413 0.113934 0.217106
O O12 0.187434 0.083956 0.325792
O O13 0.981972 0.717369 0.674317
O O14 0.211910 0.097084 0.500000
O O15 0.500000 0.000000 0.128152
O O16 0.516204 0.158369 0.000000
#
# Coordination Sequence:
#
# PCOD8237569 Si02
#       7
#     8   8   8   8   8   8   8
#     4  10  20  37  60  87 117 153 198 245 297 356
#     4  10  20  37  58  82 118 156 194 239 300 358
#     4   9  19  35  60  82 112 156 197 239 289 358
#     4  10  20  38  60  85 117 159 198 239 300 362
#     4  10  23  36  59  86 120 159 198 242 297 364
#     4  10  22  37  60  91 117 150 201 255 298 353
#     4  10  22  37  57  86 122 159 199 247 302 357
#
# _framework density 20.289618000000001
#
# number of rings (size 3 to 8) (size 9 to 14) (size 15 to 20)
#    0.000    2.143    1.429    0.857    6.000    1.143 
#    0.000    6.429    0.000    6.857    0.000    0.000 
#    0.000    0.000    0.000    0.000    0.000    0.000 
#
# Total GULP energy -693843.519625 kJ/mol
# GULP energy per Si atom -12390.062850 kJ/mol
# Density = 2.024344 g / cm^3
# Si number density = 20.289618 Si / 1000 Ang^3
#
#
#
# Elastic Constant Matrix: (Units=GPa)
#
#
# Indices 1 2 3 4 5 6 
#
# 1 87.8416 33.7103 16.6175 0.0000 0.0000 0.0000
# 2 33.7103 87.2471 4.4747 0.0000 0.0000 0.0000
# 3 16.6175 4.4747 71.7124 0.0000 0.0000 0.0000
# 4 0.0000 0.0000 0.0000 6.4402 0.0000 0.0000
# 5 0.0000 0.0000 0.0000 0.0000 18.3336 0.0000
# 6 0.0000 0.0000 0.0000 0.0000 0.0000 21.9714
#
#
#
# Elastic Compliance Matrix: (Units=1/GPa)
#
#
# Indices 1 2 3 4 5 6 
#
# 1 0.013944 -0.005239 -0.002904 0.000000 0.000000 0.000000
# 2 -0.005239 0.013467 0.000374 0.000000 0.000000 0.000000
# 3 -0.002904 0.000374 0.014594 0.000000 0.000000 0.000000
# 4 0.000000 0.000000 0.000000 0.155275 0.000000 0.000000
# 5 0.000000 0.000000 0.000000 0.000000 0.054545 0.000000
# 6 0.000000 0.000000 0.000000 0.000000 0.000000 0.045514
#
#
# Mechanical properties :
#
#
# Convention : Reuss Voigt Hill
#
# Bulk Modulus (GPa) = 37.78396 39.60067 38.69231
# Shear Modulus (GPa) = 15.54248 22.14894 18.84571
#
# Velocity S-wave (km/s) = 2.77073 3.30758 3.05099
# Velocity P-wave (km/s) = 5.37575 5.84353 5.61451
#
# Compressibility (1/GPa) = 0.02646626
#
# Stress axis : x y z
#
# Youngs Moduli (GPa) = 71.71572 74.25764 68.52003
#
# Poissons Ratio (x) = 0.38901 0.19900
# Poissons Ratio (y) = 0.37569 -0.02560
# Poissons Ratio (z) = 0.20828 -0.02775
#
# Static dielectric constant tensor:
#      x y z
#    x 3.752270 0.000000 0.000000 
#    y 0.000000 3.660340 0.000000 
#    z 0.000000 0.000000 3.698780 
# 
# 
# High freq. dielectric constant tensor:
#      x y z
#    x 1.784860 0.000000 0.000000 
#    y 0.000000 1.791340 0.000000 
#    z 0.000000 0.000000 1.787690 
# 
# From -- ./inp_files/22187.got.cif
#   From: 2010.06.25/outbox.cif.g09.slc.cpg/sg58_12_cif.got.tgz:22187.got - 2010.06.26 21:38:00.
