data_PCOD8237590
_publ_section_title
;
Structure prediction by ZEFSAII (Michael W. Deem and Ramdas Pophale) SiO2 
 PCOD8237590
Probable space group: P N N M
;
_chemical_formula_sum "Si O2"
_cell_formula_units_Z 64
_cell_length_a 24.317583
_cell_length_b 14.617558
_cell_length_c 8.997728
_cell_angle_alpha 90.000000
_cell_angle_beta 90.000000
_cell_angle_gamma 90.000000
_cell_volume 3198.365506
_symmetry_space_group_name_H-M "P N N M"
_symmetry_group_IT_number 58
_symmetry_cell_setting 'orthorhombic'
loop_
_space_group_symop_operation_xyz
x,y,z
-x,-y,z
1/2+x,1/2-y,1/2-z
1/2-x,1/2+y,1/2-z
-x,-y,-z
x,y,-z
1/2-x,1/2+y,1/2+z
1/2+x,1/2-y,1/2+z
loop_
_atom_site_type_symbol
_atom_site_label
_atom_site_fract_x
_atom_site_fract_y
_atom_site_fract_z
Si Si1 0.267581 0.670693 0.171162
Si Si2 0.563062 0.748283 0.174351
Si Si3 0.673959 0.493214 0.675148
Si Si4 0.355435 0.139337 0.665811
Si Si5 0.479870 0.901814 0.175876
Si Si6 0.052573 0.941434 0.828108
Si Si7 0.626085 0.062764 0.671665
Si Si8 0.243977 0.365742 0.822971
O O1 0.310871 0.603910 0.250949
O O2 0.209223 0.620069 0.177863
O O3 0.259712 0.764065 0.259870
O O4 0.285656 0.688196 0.000000
O O5 0.623761 0.781114 0.224693
O O6 0.519446 0.822124 0.236145
O O7 0.548405 0.650586 0.236324
O O8 0.562434 0.742326 0.000000
O O9 0.687117 0.490585 0.500000
O O10 0.609177 0.505654 0.706361
O O11 0.706419 0.578024 0.748244
O O12 0.370487 0.171966 0.500000
O O13 0.384678 0.043985 0.704920
O O14 0.418814 0.880319 0.236161
O O15 0.500000 0.000000 0.237072
O O16 0.478161 0.901634 0.000000
O O17 0.048931 0.915492 0.000000
O O18 0.000000 0.000000 0.777828
O O19 0.618478 0.087268 0.500000
O O20 0.686997 0.087664 0.724089
O O21 0.253233 0.364513 0.000000
#
# Coordination Sequence:
#
# PCOD8237590 Si02
#       8
#     8   8   8   8   8   8   8   8
#     4  11  23  40  62  91 126 164 204 253 307 364
#     4  11  23  38  61  92 122 158 202 252 307 358
#     4  11  23  41  66  94 122 160 206 255 311 368
#     4  10  20  37  59  85 119 158 203 246 293 357
#     4  10  21  37  55  84 125 158 192 243 298 356
#     4  10  24  46  67  87 117 158 205 255 303 357
#     4  10  21  37  58  84 117 159 201 244 293 353
#     4  11  23  41  61  91 129 163 204 253 303 364
#
# _framework density 20.010221000000001
#
# number of rings (size 3 to 8) (size 9 to 14) (size 15 to 20)
#    0.000    1.500    2.500    2.250    0.000    8.500 
#    0.000    3.750    0.000    0.000    0.000    0.000 
#    0.000    0.000    0.000    0.000    0.000    0.000 
#
# Total GULP energy -793718.261254 kJ/mol
# GULP energy per Si atom -12401.847832 kJ/mol
# Density = 1.996468 g / cm^3
# Si number density = 20.010221 Si / 1000 Ang^3
#
#
#
# Elastic Constant Matrix: (Units=GPa)
#
#
# Indices 1 2 3 4 5 6 
#
# 1 121.6961 49.1301 51.7008 0.0000 0.0000 0.0000
# 2 49.1301 97.9684 46.1930 0.0000 0.0000 0.0000
# 3 51.7008 46.1930 74.2771 0.0000 0.0000 0.0000
# 4 0.0000 0.0000 0.0000 30.1506 0.0000 0.0000
# 5 0.0000 0.0000 0.0000 0.0000 29.9121 0.0000
# 6 0.0000 0.0000 0.0000 0.0000 0.0000 28.5829
#
#
#
# Elastic Compliance Matrix: (Units=1/GPa)
#
#
# Indices 1 2 3 4 5 6 
#
# 1 0.012263 -0.003007 -0.006666 0.000000 0.000000 0.000000
# 2 -0.003007 0.015180 -0.007347 0.000000 0.000000 0.000000
# 3 -0.006666 -0.007347 0.022672 0.000000 0.000000 0.000000
# 4 0.000000 0.000000 0.000000 0.033167 0.000000 0.000000
# 5 0.000000 0.000000 0.000000 0.000000 0.033431 0.000000
# 6 0.000000 0.000000 0.000000 0.000000 0.000000 0.034986
#
#
# Mechanical properties :
#
#
# Convention : Reuss Voigt Hill
#
# Bulk Modulus (GPa) = 62.20855 65.33215 63.77035
# Shear Modulus (GPa) = 26.16479 27.52363 26.84421
#
# Velocity S-wave (km/s) = 3.61996 3.71277 3.66666
# Velocity P-wave (km/s) = 6.97338 7.14841 7.06144
#
# Compressibility (1/GPa) = 0.01607496
#
# Stress axis : x y z
#
# Youngs Moduli (GPa) = 81.54690 65.87806 44.10709
#
# Poissons Ratio (x) = 0.19808 0.29401
# Poissons Ratio (y) = 0.24519 0.32407
# Poissons Ratio (z) = 0.54357 0.48403
#
# Static dielectric constant tensor:
#      x y z
#    x 3.766490 0.000000 0.000000 
#    y 0.000000 3.642570 0.000000 
#    z 0.000000 0.000000 3.619090 
# 
# 
# High freq. dielectric constant tensor:
#      x y z
#    x 1.787940 0.000000 0.000000 
#    y 0.000000 1.782320 0.000000 
#    z 0.000000 0.000000 1.781750 
# 
# From -- ./inp_files/9922.got.cif
#   From: 2010.06.25/outbox.cif.g09.slc.cpg/sg58_5_cif.got.tgz:9922.got - 2010.06.26 21:38:00.
