data_PCOD8237154
_publ_section_title
;
Structure prediction by ZEFSAII (Michael W. Deem and Ramdas Pophale) SiO2 
 PCOD8237154
Probable space group: P N N M
;
_chemical_formula_sum "Si O2"
_cell_formula_units_Z 64
_cell_length_a 20.685731
_cell_length_b 18.349091
_cell_length_c 8.563983
_cell_angle_alpha 90.000000
_cell_angle_beta 90.000000
_cell_angle_gamma 90.000000
_cell_volume 3250.582731
_symmetry_space_group_name_H-M "P N N M"
_symmetry_group_IT_number 58
_symmetry_cell_setting 'orthorhombic'
loop_
_space_group_symop_operation_xyz
x,y,z
-x,-y,z
1/2+x,1/2-y,1/2-z
1/2-x,1/2+y,1/2-z
-x,-y,-z
x,y,-z
1/2-x,1/2+y,1/2+z
1/2+x,1/2-y,1/2+z
loop_
_atom_site_type_symbol
_atom_site_label
_atom_site_fract_x
_atom_site_fract_y
_atom_site_fract_z
Si Si1 0.493766 0.680707 0.821989
Si Si2 0.628622 0.152636 0.818198
Si Si3 0.635551 0.311988 0.681532
Si Si4 0.757069 0.925867 0.818419
Si Si5 0.748438 0.580258 0.818192
Si Si6 0.498661 0.833998 0.320923
Si Si7 0.635145 0.688062 0.816528
Si Si8 0.359112 0.153367 0.678489
O O1 0.434492 0.650593 0.717034
O O2 0.497694 0.767263 0.799259
O O3 0.565203 0.651092 0.775843
O O4 0.477127 0.661819 0.000000
O O5 0.643995 0.235915 0.771096
O O6 0.688305 0.101235 0.777778
O O7 0.565326 0.120336 0.726603
O O8 0.614910 0.148168 0.000000
O O9 0.642799 0.295319 0.500000
O O10 0.691346 0.366080 0.739110
O O11 0.685365 0.895406 0.788825
O O12 0.770580 0.997723 0.718811
O O13 0.765481 0.943941 0.000000
O O14 0.689274 0.631034 0.764850
O O15 0.762906 0.590126 0.000000
O O16 0.492337 0.806589 0.500000
O O17 0.566887 0.875595 0.299394
O O18 0.646290 0.761616 0.720335
O O19 0.638327 0.706975 0.000000
O O20 0.336780 0.143395 0.500000
#
# Coordination Sequence:
#
# PCOD8237154 Si02
#       8
#     8   8   8   8   8   8   8   8
#     4   9  16  29  52  81 108 134 171 217 263 311
#     4  11  21  34  56  84 110 138 176 218 261 313
#     4  10  20  35  55  80 109 141 177 217 264 313
#     4  11  24  39  54  75 107 144 181 222 265 313
#     4  11  23  39  56  75 106 144 180 221 267 315
#     4   9  17  31  52  80 110 137 170 213 262 312
#     4   9  19  35  56  82 109 139 175 218 267 315
#     4  10  20  34  57  85 109 138 176 218 263 315
#
# _framework density 19.688777000000002
#
# number of rings (size 3 to 8) (size 9 to 14) (size 15 to 20)
#    0.000    2.000    0.000    5.625    0.000    8.000 
#    0.000    1.250    0.000    7.500    0.000    0.000 
#    0.000    0.000    0.000    0.000    0.000    0.000 
#
# Total GULP energy -793426.536145 kJ/mol
# GULP energy per Si atom -12397.289627 kJ/mol
# Density = 1.964396 g / cm^3
# Si number density = 19.688777 Si / 1000 Ang^3
#
#
#
# Elastic Constant Matrix: (Units=GPa)
#
#
# Indices 1 2 3 4 5 6 
#
# 1 102.0395 11.0283 22.5494 0.0000 0.0000 0.0000
# 2 11.0283 40.3900 11.7448 0.0000 0.0000 0.0000
# 3 22.5494 11.7448 59.1318 0.0000 0.0000 0.0000
# 4 0.0000 0.0000 0.0000 24.0921 0.0000 0.0000
# 5 0.0000 0.0000 0.0000 0.0000 28.6659 0.0000
# 6 0.0000 0.0000 0.0000 0.0000 0.0000 4.1010
#
#
#
# Elastic Compliance Matrix: (Units=1/GPa)
#
#
# Indices 1 2 3 4 5 6 
#
# 1 0.010833 -0.001864 -0.003761 0.000000 0.000000 0.000000
# 2 -0.001864 0.026597 -0.004572 0.000000 0.000000 0.000000
# 3 -0.003761 -0.004572 0.019254 0.000000 0.000000 0.000000
# 4 0.000000 0.000000 0.000000 0.041507 0.000000 0.000000
# 5 0.000000 0.000000 0.000000 0.000000 0.034885 0.000000
# 6 0.000000 0.000000 0.000000 0.000000 0.000000 0.243841
#
#
# Mechanical properties :
#
#
# Convention : Reuss Voigt Hill
#
# Bulk Modulus (GPa) = 27.55599 32.46738 30.01168
# Shear Modulus (GPa) = 12.21279 21.78772 17.00026
#
# Velocity S-wave (km/s) = 2.49327 3.33018 2.94164
# Velocity P-wave (km/s) = 4.72384 5.59579 5.17820
#
# Compressibility (1/GPa) = 0.03628976
#
# Stress axis : x y z
#
# Youngs Moduli (GPa) = 92.31329 37.59815 51.93855
#
# Poissons Ratio (x) = 0.07009 0.19532
# Poissons Ratio (y) = 0.17210 0.23745
# Poissons Ratio (z) = 0.34716 0.17189
#
# Static dielectric constant tensor:
#      x y z
#    x 4.217190 0.000000 0.000000 
#    y 0.000000 3.152140 0.000000 
#    z 0.000000 0.000000 3.546470 
# 
# 
# High freq. dielectric constant tensor:
#      x y z
#    x 1.793450 0.000000 0.000000 
#    y 0.000000 1.716800 0.000000 
#    z 0.000000 0.000000 1.774800 
# 
# From -- ./inp_files/9253.got.cif
#   From: 2010.06.25/outbox.cif.g09.slc.cpg/sg58_5_cif.got.tgz:9253.got - 2010.06.26 21:38:00.
