data_PCOD8237610
_publ_section_title
;
Structure prediction by ZEFSAII (Michael W. Deem and Ramdas Pophale) SiO2 
 PCOD8237610
Probable space group: P N N M
;
_chemical_formula_sum "Si O2"
_cell_formula_units_Z 64
_cell_length_a 15.296201
_cell_length_b 24.071233
_cell_length_c 8.903013
_cell_angle_alpha 90.000000
_cell_angle_beta 90.000000
_cell_angle_gamma 90.000000
_cell_volume 3278.075305
_symmetry_space_group_name_H-M "P N N M"
_symmetry_group_IT_number 58
_symmetry_cell_setting 'orthorhombic'
loop_
_space_group_symop_operation_xyz
x,y,z
-x,-y,z
1/2+x,1/2-y,1/2-z
1/2-x,1/2+y,1/2-z
-x,-y,-z
x,y,-z
1/2-x,1/2+y,1/2+z
1/2+x,1/2-y,1/2+z
loop_
_atom_site_type_symbol
_atom_site_label
_atom_site_fract_x
_atom_site_fract_y
_atom_site_fract_z
Si Si1 0.123051 0.039403 0.677568
Si Si2 0.438519 0.421574 0.822234
Si Si3 0.627288 0.696235 0.820651
Si Si4 0.702018 0.954250 0.174955
Si Si5 0.541892 0.899992 0.671087
Si Si6 0.485093 0.774509 0.326043
Si Si7 0.690437 0.193243 0.177319
Si Si8 0.870942 0.571806 0.673976
O O1 0.134520 0.040175 0.500000
O O2 0.207982 0.066162 0.752073
O O3 0.039943 0.076075 0.728889
O O4 0.111342 0.976160 0.737861
O O5 0.392779 0.366078 0.761704
O O6 0.436144 0.422684 0.000000
O O7 0.548505 0.733943 0.763654
O O8 0.719082 0.715131 0.748287
O O9 0.633538 0.699960 0.000000
O O10 0.626505 0.914896 0.234642
O O11 0.687437 0.018888 0.216820
O O12 0.708176 0.944942 0.000000
O O13 0.557439 0.917091 0.500000
O O14 0.525507 0.835129 0.691186
O O15 0.459294 0.934171 0.731483
O O16 0.477858 0.756800 0.500000
O O17 0.388997 0.772519 0.251527
O O18 0.681113 0.127811 0.216021
O O19 0.690612 0.204468 0.000000
O O20 0.897827 0.571879 0.500000
#
# Coordination Sequence:
#
# PCOD8237610 Si02
#       8
#     8   8   8   8   8   8   8   8
#     4   9  17  34  56  78 109 146 182 219 263 319
#     4   8  17  34  57  82 108 141 180 224 270 319
#     4  11  21  36  60  88 113 144 186 233 284 336
#     4  11  21  32  49  79 114 146 179 217 272 333
#     4  10  21  36  54  75 103 141 185 230 274 324
#     4  10  22  41  59  80 110 146 190 239 285 333
#     4  10  20  37  60  85 112 146 185 230 282 334
#     4   9  19  34  53  78 111 145 178 222 275 328
#
# _framework density 19.523651999999998
#
# number of rings (size 3 to 8) (size 9 to 14) (size 15 to 20)
#    0.000    2.250    0.000    3.750    0.000    4.500 
#    2.250    3.125    0.000    0.000    0.000    0.000 
#    0.000    0.000    0.000    0.000    0.000    0.000 
#
# Total GULP energy -793684.762301 kJ/mol
# GULP energy per Si atom -12401.324411 kJ/mol
# Density = 1.947922 g / cm^3
# Si number density = 19.523652 Si / 1000 Ang^3
#
#
#
# Elastic Constant Matrix: (Units=GPa)
#
#
# Indices 1 2 3 4 5 6 
#
# 1 152.3555 34.3760 54.0193 0.0000 0.0000 0.0000
# 2 34.3760 36.0972 25.7641 0.0000 0.0000 0.0000
# 3 54.0193 25.7641 79.6426 0.0000 0.0000 0.0000
# 4 0.0000 0.0000 0.0000 51.2369 0.0000 0.0000
# 5 0.0000 0.0000 0.0000 0.0000 34.7466 0.0000
# 6 0.0000 0.0000 0.0000 0.0000 0.0000 26.1813
#
#
#
# Elastic Compliance Matrix: (Units=1/GPa)
#
#
# Indices 1 2 3 4 5 6 
#
# 1 0.009485 -0.005774 -0.004566 0.000000 0.000000 0.000000
# 2 -0.005774 0.039535 -0.008873 0.000000 0.000000 0.000000
# 3 -0.004566 -0.008873 0.018523 0.000000 0.000000 0.000000
# 4 0.000000 0.000000 0.000000 0.019517 0.000000 0.000000
# 5 0.000000 0.000000 0.000000 0.000000 0.028780 0.000000
# 6 0.000000 0.000000 0.000000 0.000000 0.000000 0.038195
#
#
# Mechanical properties :
#
#
# Convention : Reuss Voigt Hill
#
# Bulk Modulus (GPa) = 34.34328 55.15715 44.75022
# Shear Modulus (GPa) = 24.73202 32.69535 28.71368
#
# Velocity S-wave (km/s) = 3.56304 4.09669 3.83915
# Velocity P-wave (km/s) = 5.87841 7.11969 6.52862
#
# Compressibility (1/GPa) = 0.02911777
#
# Stress axis : x y z
#
# Youngs Moduli (GPa) = 105.42697 25.29406 53.98648
#
# Poissons Ratio (x) = 0.14606 0.24648
# Poissons Ratio (y) = 0.60877 0.47902
# Poissons Ratio (z) = 0.48134 0.22443
#
# Static dielectric constant tensor:
#      x y z
#    x 3.617350 0.000000 0.000000 
#    y 0.000000 3.579020 0.000000 
#    z 0.000000 0.000000 3.463770 
# 
# 
# High freq. dielectric constant tensor:
#      x y z
#    x 1.772240 0.000000 0.000000 
#    y 0.000000 1.743580 0.000000 
#    z 0.000000 0.000000 1.755880 
# 
# From -- ./inp_files/6729.got.cif
#   From: 2010.06.25/outbox.cif.g09.slc.cpg/sg58_4_cif.got.tgz:6729.got - 2010.06.26 21:38:00.
