data_PCOD8237345
_publ_section_title
;
Structure prediction by ZEFSAII (Michael W. Deem and Ramdas Pophale) SiO2 
 PCOD8237345
Probable space group: P N N M
;
_chemical_formula_sum "Si O2"
_cell_formula_units_Z 64
_cell_length_a 24.662028
_cell_length_b 14.442953
_cell_length_c 8.949829
_cell_angle_alpha 90.000000
_cell_angle_beta 90.000000
_cell_angle_gamma 90.000000
_cell_volume 3187.862067
_symmetry_space_group_name_H-M "P N N M"
_symmetry_group_IT_number 58
_symmetry_cell_setting 'orthorhombic'
loop_
_space_group_symop_operation_xyz
x,y,z
-x,-y,z
1/2+x,1/2-y,1/2-z
1/2-x,1/2+y,1/2-z
-x,-y,-z
x,y,-z
1/2-x,1/2+y,1/2+z
1/2+x,1/2-y,1/2+z
loop_
_atom_site_type_symbol
_atom_site_label
_atom_site_fract_x
_atom_site_fract_y
_atom_site_fract_z
Si Si1 0.145351 0.081370 0.326089
Si Si2 0.202161 0.789240 0.323611
Si Si3 0.341238 0.959097 0.670690
Si Si4 0.550653 0.943389 0.323165
Si Si5 0.232526 0.975391 0.174557
Si Si6 0.408099 0.251722 0.675324
Si Si7 0.823120 0.753388 0.169285
Si Si8 0.440937 0.457413 0.671161
O O1 0.156955 0.068916 0.500000
O O2 0.198147 0.063625 0.223716
O O3 0.137513 0.188952 0.281128
O O4 0.095874 0.016483 0.281433
O O5 0.194909 0.795246 0.500000
O O6 0.150242 0.737637 0.254218
O O7 0.259470 0.741678 0.281927
O O8 0.202716 0.892568 0.260172
O O9 0.328881 0.988806 0.500000
O O10 0.346201 0.849396 0.682579
O O11 0.395450 0.005440 0.733299
O O12 0.293587 0.994796 0.776582
O O13 0.546600 0.950550 0.500000
O O14 0.553315 0.834577 0.275104
O O15 0.500000 0.000000 0.251778
O O16 0.229838 0.956293 0.000000
O O17 0.396747 0.246848 0.500000
O O18 0.437745 0.348726 0.717908
O O19 0.829615 0.789346 0.000000
O O20 0.500000 0.500000 0.691881
O O21 0.421174 0.468684 0.500000
#
# Coordination Sequence:
#
# PCOD8237345 Si02
#       8
#     8   8   8   8   8   8   8   8
#     4  12  24  37  57  86 121 159 200 248 300 353
#     4  10  20  36  58  86 120 156 196 245 302 357
#     4   9  19  37  59  86 118 154 197 248 302 355
#     4   9  19  36  60  90 120 153 201 253 298 349
#     4  11  21  35  57  84 119 156 194 242 298 362
#     4  10  20  35  59  89 117 155 201 247 296 354
#     4   9  20  36  55  83 121 161 197 239 299 363
#     4  10  22  40  61  87 121 161 205 249 298 360
#
# _framework density 20.076150999999999
#
# number of rings (size 3 to 8) (size 9 to 14) (size 15 to 20)
#    0.000    2.000    1.250    3.375    1.750    3.750 
#    0.000    3.750    0.000    1.500    0.000    0.000 
#    0.000    0.000    0.000    0.000    0.000    0.000 
#
# Total GULP energy -793391.408549 kJ/mol
# GULP energy per Si atom -12396.740759 kJ/mol
# Density = 2.003046 g / cm^3
# Si number density = 20.076151 Si / 1000 Ang^3
#
#
#
# Elastic Constant Matrix: (Units=GPa)
#
#
# Indices 1 2 3 4 5 6 
#
# 1 95.2687 58.8456 33.3668 0.0000 0.0000 0.0000
# 2 58.8456 103.1691 32.7615 0.0000 0.0000 0.0000
# 3 33.3668 32.7615 64.7473 0.0000 0.0000 0.0000
# 4 0.0000 0.0000 0.0000 18.9776 0.0000 0.0000
# 5 0.0000 0.0000 0.0000 0.0000 28.0027 0.0000
# 6 0.0000 0.0000 0.0000 0.0000 0.0000 32.5492
#
#
#
# Elastic Compliance Matrix: (Units=1/GPa)
#
#
# Indices 1 2 3 4 5 6 
#
# 1 0.017319 -0.008393 -0.004679 0.000000 0.000000 0.000000
# 2 -0.008393 0.015616 -0.003576 0.000000 0.000000 0.000000
# 3 -0.004679 -0.003576 0.019665 0.000000 0.000000 0.000000
# 4 0.000000 0.000000 0.000000 0.052694 0.000000 0.000000
# 5 0.000000 0.000000 0.000000 0.000000 0.035711 0.000000
# 6 0.000000 0.000000 0.000000 0.000000 0.000000 0.030723
#
#
# Mechanical properties :
#
#
# Convention : Reuss Voigt Hill
#
# Bulk Modulus (GPa) = 51.80044 57.01475 54.40760
# Shear Modulus (GPa) = 23.64537 25.11998 24.38268
#
# Velocity S-wave (km/s) = 3.43561 3.54112 3.48876
# Velocity P-wave (km/s) = 6.44949 6.72163 6.58696
#
# Compressibility (1/GPa) = 0.01930485
#
# Stress axis : x y z
#
# Youngs Moduli (GPa) = 57.73865 64.03851 50.85121
#
# Poissons Ratio (x) = 0.53747 0.23791
# Poissons Ratio (y) = 0.48460 0.18185
# Poissons Ratio (z) = 0.27014 0.22901
#
# Static dielectric constant tensor:
#      x y z
#    x 3.658060 0.000000 0.000000 
#    y 0.000000 3.834650 0.000000 
#    z 0.000000 0.000000 3.427300 
# 
# 
# High freq. dielectric constant tensor:
#      x y z
#    x 1.773150 0.000000 0.000000 
#    y 0.000000 1.797150 0.000000 
#    z 0.000000 0.000000 1.762040 
# 
# From -- ./inp_files/10083.got.cif
#   From: 2010.06.25/outbox.cif.g09.slc.cpg/sg58_6_cif.got.tgz:10083.got - 2010.06.26 21:38:00.
