data_PCOD8237768
_publ_section_title
;
Structure prediction by ZEFSAII (Michael W. Deem and Ramdas Pophale) SiO2 
 PCOD8237768
Probable space group: P N N M
;
_chemical_formula_sum "Si O2"
_cell_formula_units_Z 48
_cell_length_a 12.290907
_cell_length_b 21.819850
_cell_length_c 8.843633
_cell_angle_alpha 90.000000
_cell_angle_beta 90.000000
_cell_angle_gamma 90.000000
_cell_volume 2371.736323
_symmetry_space_group_name_H-M "P N N M"
_symmetry_group_IT_number 58
_symmetry_cell_setting 'orthorhombic'
loop_
_space_group_symop_operation_xyz
x,y,z
-x,-y,z
1/2+x,1/2-y,1/2-z
1/2-x,1/2+y,1/2-z
-x,-y,-z
x,y,-z
1/2-x,1/2+y,1/2+z
1/2+x,1/2-y,1/2+z
loop_
_atom_site_type_symbol
_atom_site_label
_atom_site_fract_x
_atom_site_fract_y
_atom_site_fract_z
Si Si1 0.255852 0.904837 0.175281
Si Si2 0.076594 0.303931 0.678142
Si Si3 0.008660 0.929717 0.175342
Si Si4 0.875989 0.486182 0.174919
Si Si5 0.361906 0.671970 0.820958
Si Si6 0.854146 0.360572 0.321668
O O1 0.314070 0.841231 0.223230
O O2 0.127272 0.900787 0.204579
O O3 0.302437 0.956442 0.283996
O O4 0.280406 0.921017 0.000000
O O5 0.065644 0.303311 0.500000
O O6 0.080357 0.234213 0.738019
O O7 0.969375 0.336798 0.745121
O O8 0.922598 0.888389 0.263257
O O9 0.976775 0.927784 0.000000
O O10 0.000000 0.000000 0.234002
O O11 0.837043 0.431088 0.279658
O O12 0.000000 0.500000 0.213774
O O13 0.859317 0.469007 0.000000
O O14 0.240531 0.677637 0.757344
O O15 0.357384 0.669108 0.000000
O O16 0.845831 0.352168 0.500000
#
# Coordination Sequence:
#
# PCOD8237768 Si02
#       6
#     8   8   8   8   8   8
#     4  10  20  38  63  87 121 166 206 248 299 364
#     4   9  21  39  59  87 120 161 203 245 301 363
#     4  10  22  40  63  92 121 157 209 254 300 370
#     4  11  22  36  57  92 128 156 195 250 307 354
#     4  11  24  41  62  90 125 159 201 255 310 360
#     4  11  22  40  64  87 118 161 209 247 294 364
#
# _framework density 20.238337999999999
#
# number of rings (size 3 to 8) (size 9 to 14) (size 15 to 20)
#    0.000    1.667    1.667    2.500    2.333    3.000 
#    0.000    4.167    0.000    0.000    0.000    0.000 
#    0.000    0.000    0.000    0.000    0.000    0.000 
#
# Total GULP energy -595309.978624 kJ/mol
# GULP energy per Si atom -12402.291221 kJ/mol
# Density = 2.019227 g / cm^3
# Si number density = 20.238338 Si / 1000 Ang^3
#
#
#
# Elastic Constant Matrix: (Units=GPa)
#
#
# Indices 1 2 3 4 5 6 
#
# 1 120.5568 48.9154 34.5527 0.0000 0.0000 0.0000
# 2 48.9154 135.4894 32.6796 0.0000 0.0000 0.0000
# 3 34.5527 32.6796 53.1428 0.0000 0.0000 0.0000
# 4 0.0000 0.0000 0.0000 10.0983 0.0000 0.0000
# 5 0.0000 0.0000 0.0000 0.0000 25.0368 0.0000
# 6 0.0000 0.0000 0.0000 0.0000 0.0000 28.8259
#
#
#
# Elastic Compliance Matrix: (Units=1/GPa)
#
#
# Indices 1 2 3 4 5 6 
#
# 1 0.010934 -0.002622 -0.005497 0.000000 0.000000 0.000000
# 2 -0.002622 0.009295 -0.004011 0.000000 0.000000 0.000000
# 3 -0.005497 -0.004011 0.024858 0.000000 0.000000 0.000000
# 4 0.000000 0.000000 0.000000 0.099027 0.000000 0.000000
# 5 0.000000 0.000000 0.000000 0.000000 0.039941 0.000000
# 6 0.000000 0.000000 0.000000 0.000000 0.000000 0.034691
#
#
# Mechanical properties :
#
#
# Convention : Reuss Voigt Hill
#
# Bulk Modulus (GPa) = 48.01442 60.16493 54.08967
# Shear Modulus (GPa) = 20.00422 25.66162 22.83292
#
# Velocity S-wave (km/s) = 3.14734 3.56472 3.36251
# Velocity P-wave (km/s) = 6.08142 6.83635 6.46991
#
# Compressibility (1/GPa) = 0.02082708
#
# Stress axis : x y z
#
# Youngs Moduli (GPa) = 91.45739 107.58949 40.22873
#
# Poissons Ratio (x) = 0.28206 0.22114
# Poissons Ratio (y) = 0.23977 0.16136
# Poissons Ratio (z) = 0.50274 0.43155
#
# Static dielectric constant tensor:
#      x y z
#    x 4.097070 0.000000 0.000000 
#    y 0.000000 3.908290 0.000000 
#    z 0.000000 0.000000 3.442410 
# 
# 
# High freq. dielectric constant tensor:
#      x y z
#    x 1.803000 0.000000 0.000000 
#    y 0.000000 1.796690 0.000000 
#    z 0.000000 0.000000 1.772420 
# 
# From -- ./inp_files/4256.got.cif
#   From: 2010.06.25/outbox.cif.g09.slc.cpg/sg58_3_cif.got.tgz:4256.got - 2010.06.26 21:38:00.
