data_PCOD8237976
_publ_section_title
;
Structure prediction by ZEFSAII (Michael W. Deem and Ramdas Pophale) SiO2 
 PCOD8237976
Probable space group: P N N M
;
_chemical_formula_sum "Si O2"
_cell_formula_units_Z 36
_cell_length_a 8.987996
_cell_length_b 19.633829
_cell_length_c 10.057595
_cell_angle_alpha 90.000000
_cell_angle_beta 90.000000
_cell_angle_gamma 90.000000
_cell_volume 1774.851484
_symmetry_space_group_name_H-M "P N N M"
_symmetry_group_IT_number 58
_symmetry_cell_setting 'orthorhombic'
loop_
_space_group_symop_operation_xyz
x,y,z
-x,-y,z
1/2+x,1/2-y,1/2-z
1/2-x,1/2+y,1/2-z
-x,-y,-z
x,y,-z
1/2-x,1/2+y,1/2+z
1/2+x,1/2-y,1/2+z
loop_
_atom_site_type_symbol
_atom_site_label
_atom_site_fract_x
_atom_site_fract_y
_atom_site_fract_z
Si Si1 0.806631 0.118086 0.148953
Si Si2 0.476305 0.291057 0.152746
Si Si3 0.474762 0.132870 0.848485
Si Si4 0.275024 0.605046 0.851545
Si Si5 0.000000 0.000000 0.749438
O O1 0.852338 0.175731 0.253545
O O2 0.634861 0.098051 0.174707
O O3 0.906785 0.050844 0.158017
O O4 0.823107 0.148473 0.000000
O O5 0.489886 0.212184 0.187520
O O6 0.636431 0.325327 0.180761
O O7 0.428381 0.303573 0.000000
O O8 0.357544 0.096037 0.753101
O O9 0.420009 0.122914 0.000000
O O10 0.387691 0.541638 0.843804
O O11 0.207910 0.607138 0.000000
#
# Coordination Sequence:
#
# PCOD8237976 Si02
#       5
#     8   8   8   8   4
#     4  10  21  37  58  82 111 147 185 227 273 326
#     4   9  19  36  57  82 113 146 179 220 273 329
#     4  10  21  36  55  84 116 142 176 226 279 327
#     4  10  21  38  60  82 109 147 187 227 270 323
#     4  10  22  40  58  78 106 146 192 232 274 324
#
# _framework density 20.283389
#
# number of rings (size 3 to 8) (size 9 to 14) (size 15 to 20)
#    0.000    2.222    0.000    2.000    0.000    9.778 
#    0.000    3.333    0.000    0.000    0.000    0.000 
#    0.000    0.000    0.000    0.000    0.000    0.000 
#
# Total GULP energy -446483.752469 kJ/mol
# GULP energy per Si atom -12402.326457 kJ/mol
# Density = 2.023722 g / cm^3
# Si number density = 20.283389 Si / 1000 Ang^3
#
#
#
# Elastic Constant Matrix: (Units=GPa)
#
#
# Indices 1 2 3 4 5 6 
#
# 1 125.5346 38.4271 74.9423 0.0000 0.0000 0.0000
# 2 38.4271 72.3581 25.2278 0.0000 0.0000 0.0000
# 3 74.9423 25.2278 116.8202 0.0000 0.0000 0.0000
# 4 0.0000 0.0000 0.0000 5.0165 0.0000 0.0000
# 5 0.0000 0.0000 0.0000 0.0000 35.8380 0.0000
# 6 0.0000 0.0000 0.0000 0.0000 0.0000 16.3945
#
#
#
# Elastic Compliance Matrix: (Units=1/GPa)
#
#
# Indices 1 2 3 4 5 6 
#
# 1 0.014273 -0.004745 -0.008132 0.000000 0.000000 0.000000
# 2 -0.004745 0.016523 -0.000524 0.000000 0.000000 0.000000
# 3 -0.008132 -0.000524 0.013890 0.000000 0.000000 0.000000
# 4 0.000000 0.000000 0.000000 0.199342 0.000000 0.000000
# 5 0.000000 0.000000 0.000000 0.000000 0.027903 0.000000
# 6 0.000000 0.000000 0.000000 0.000000 0.000000 0.060996
#
#
# Mechanical properties :
#
#
# Convention : Reuss Voigt Hill
#
# Bulk Modulus (GPa) = 55.91537 65.76748 60.84142
# Shear Modulus (GPa) = 13.67279 23.19083 18.43181
#
# Velocity S-wave (km/s) = 2.59914 3.38500 3.01776
# Velocity P-wave (km/s) = 6.05263 6.91175 6.49641
#
# Compressibility (1/GPa) = 0.01788417
#
# Stress axis : x y z
#
# Youngs Moduli (GPa) = 70.06345 60.52269 71.99439
#
# Poissons Ratio (x) = 0.28716 0.58543
# Poissons Ratio (y) = 0.33243 0.03775
# Poissons Ratio (z) = 0.56973 0.03173
#
# Static dielectric constant tensor:
#      x y z
#    x 3.644900 0.000000 0.000000 
#    y 0.000000 3.625790 0.000000 
#    z 0.000000 0.000000 3.608500 
# 
# 
# High freq. dielectric constant tensor:
#      x y z
#    x 1.788960 0.000000 0.000000 
#    y 0.000000 1.787050 0.000000 
#    z 0.000000 0.000000 1.794050 
# 
# From -- ./inp_files/2250.got.cif
#   From: 2010.06.25/outbox.cif.g09.slc.cpg/sg58_2_cif.got.tgz:2250.got - 2010.06.26 21:38:00.
