data_PCOD8237014
_publ_section_title
;
Structure prediction by ZEFSAII (Michael W. Deem and Ramdas Pophale) SiO2 
 PCOD8237014
Probable space group: P N N M
;
_chemical_formula_sum "Si O2"
_cell_formula_units_Z 48
_cell_length_a 9.536747
_cell_length_b 30.125583
_cell_length_c 9.303056
_cell_angle_alpha 90.000000
_cell_angle_beta 90.000000
_cell_angle_gamma 90.000000
_cell_volume 2672.768578
_symmetry_space_group_name_H-M "P N N M"
_symmetry_group_IT_number 58
_symmetry_cell_setting 'orthorhombic'
loop_
_space_group_symop_operation_xyz
x,y,z
-x,-y,z
1/2+x,1/2-y,1/2-z
1/2-x,1/2+y,1/2-z
-x,-y,-z
x,y,-z
1/2-x,1/2+y,1/2+z
1/2+x,1/2-y,1/2+z
loop_
_atom_site_type_symbol
_atom_site_label
_atom_site_fract_x
_atom_site_fract_y
_atom_site_fract_z
Si Si1 0.406155 0.539780 0.669356
Si Si2 0.602669 0.213581 0.334157
Si Si3 0.113283 0.884107 0.832939
Si Si4 0.878637 0.216430 0.166571
Si Si5 0.587528 0.955750 0.168277
Si Si6 0.102291 0.388093 0.168182
O O1 0.500000 0.500000 0.736336
O O2 0.398643 0.533315 0.500000
O O3 0.480242 0.586075 0.711618
O O4 0.246565 0.538243 0.727289
O O5 0.634541 0.222071 0.500000
O O6 0.738565 0.226941 0.248744
O O7 0.486563 0.247253 0.275640
O O8 0.558225 0.162894 0.305902
O O9 0.068073 0.833519 0.801191
O O10 0.247953 0.898454 0.740533
O O11 0.153098 0.891394 0.000000
O O12 0.848021 0.223090 0.000000
O O13 0.519110 0.916302 0.258112
O O14 0.500000 0.000000 0.198323
O O15 0.585709 0.943215 0.000000
O O16 0.113144 0.399648 0.000000
#
# Coordination Sequence:
#
# PCOD8237014 Si02
#       6
#     8   8   8   8   8   8
#     4   9  17  30  50  75  99 123 156 202 251 293
#     4   9  19  34  50  72 102 133 166 207 253 297
#     4   9  17  32  53  73  95 127 168 209 246 290
#     4   9  18  32  50  72  97 128 167 207 246 291
#     4  10  20  34  54  78 101 128 165 207 249 295
#     4  10  20  34  51  72 102 136 166 201 249 302
#
# _framework density 17.958904
#
# number of rings (size 3 to 8) (size 9 to 14) (size 15 to 20)
#    0.000    2.667    0.000    1.500    0.000    5.667 
#    0.000    2.500    0.000    2.000    0.000    0.000 
#    0.000    0.000    0.000    0.000    0.000    0.000 
#
# Total GULP energy -595175.162815 kJ/mol
# GULP energy per Si atom -12399.482559 kJ/mol
# Density = 1.791803 g / cm^3
# Si number density = 17.958904 Si / 1000 Ang^3
#
#
#
# Elastic Constant Matrix: (Units=GPa)
#
#
# Indices 1 2 3 4 5 6 
#
# 1 170.9575 103.2730 56.4925 0.0000 0.0000 0.0000
# 2 103.2730 119.2883 48.8359 0.0000 0.0000 0.0000
# 3 56.4925 48.8359 51.0597 0.0000 0.0000 0.0000
# 4 0.0000 0.0000 0.0000 24.1540 0.0000 0.0000
# 5 0.0000 0.0000 0.0000 0.0000 24.3880 0.0000
# 6 0.0000 0.0000 0.0000 0.0000 0.0000 38.6502
#
#
#
# Elastic Compliance Matrix: (Units=1/GPa)
#
#
# Indices 1 2 3 4 5 6 
#
# 1 0.013325 -0.009040 -0.006096 0.000000 0.000000 0.000000
# 2 -0.009040 0.019911 -0.009042 0.000000 0.000000 0.000000
# 3 -0.006096 -0.009042 0.034978 0.000000 0.000000 0.000000
# 4 0.000000 0.000000 0.000000 0.041401 0.000000 0.000000
# 5 0.000000 0.000000 0.000000 0.000000 0.041004 0.000000
# 6 0.000000 0.000000 0.000000 0.000000 0.000000 0.025873
#
#
# Mechanical properties :
#
#
# Convention : Reuss Voigt Hill
#
# Bulk Modulus (GPa) = 50.35928 84.27868 67.31898
# Shear Modulus (GPa) = 21.60124 26.28537 23.94331
#
# Velocity S-wave (km/s) = 3.47192 3.82991 3.65530
# Velocity P-wave (km/s) = 6.64640 8.16015 7.44186
#
# Compressibility (1/GPa) = 0.01985731
#
# Stress axis : x y z
#
# Youngs Moduli (GPa) = 75.04704 50.22275 28.58945
#
# Poissons Ratio (x) = 0.45403 0.17429
# Poissons Ratio (y) = 0.67844 0.25850
# Poissons Ratio (z) = 0.45751 0.45411
#
# Static dielectric constant tensor:
#      x y z
#    x 3.433120 0.000000 0.000000 
#    y 0.000000 3.493120 0.000000 
#    z 0.000000 0.000000 3.150030 
# 
# 
# High freq. dielectric constant tensor:
#      x y z
#    x 1.695450 0.000000 0.000000 
#    y 0.000000 1.706250 0.000000 
#    z 0.000000 0.000000 1.674000 
# 
# From -- ./inp_files/2888.got.cif
#   From: 2010.06.25/outbox.cif.g09.slc.cpg/sg58_2_cif.got.tgz:2888.got - 2010.06.26 21:38:00.
