data_PCOD8237536
_publ_section_title
;
Structure prediction by ZEFSAII (Michael W. Deem and Ramdas Pophale) SiO2 
 PCOD8237536
Probable space group: P N N M
;
_chemical_formula_sum "Si O2"
_cell_formula_units_Z 48
_cell_length_a 17.272001
_cell_length_b 9.524877
_cell_length_c 13.543066
_cell_angle_alpha 90.000000
_cell_angle_beta 90.000000
_cell_angle_gamma 90.000000
_cell_volume 2228.019695
_symmetry_space_group_name_H-M "P N N M"
_symmetry_group_IT_number 58
_symmetry_cell_setting 'orthorhombic'
loop_
_space_group_symop_operation_xyz
x,y,z
-x,-y,z
1/2+x,1/2-y,1/2-z
1/2-x,1/2+y,1/2-z
-x,-y,-z
x,y,-z
1/2-x,1/2+y,1/2+z
1/2+x,1/2-y,1/2+z
loop_
_atom_site_type_symbol
_atom_site_label
_atom_site_fract_x
_atom_site_fract_y
_atom_site_fract_z
Si Si1 0.321415 0.730192 0.611555
Si Si2 0.600198 0.552616 0.391163
Si Si3 0.873469 0.658359 0.303692
Si Si4 0.521124 0.652325 0.205920
Si Si5 0.840217 0.349953 0.312304
Si Si6 0.775113 0.277458 0.109727
O O1 0.336520 0.782895 0.500000
O O2 0.379957 0.605089 0.641619
O O3 0.341376 0.850008 0.690857
O O4 0.232767 0.681070 0.618864
O O5 0.564034 0.560641 0.500000
O O6 0.535115 0.622161 0.322235
O O7 0.683095 0.627673 0.388115
O O8 0.879384 0.498283 0.342026
O O9 0.815332 0.750692 0.369952
O O10 0.956262 0.731586 0.311790
O O11 0.500000 0.500000 0.155667
O O12 0.600671 0.721278 0.166095
O O13 0.814035 0.367475 0.197279
O O14 0.784134 0.348016 0.000000
#
# Coordination Sequence:
#
# PCOD8237536 Si02
#       6
#     8   8   8   8   8   8
#     4  10  20  36  62  89 114 149 198 245 293 348
#     4   9  17  34  58  83 106 144 197 240 280 344
#     4  11  21  35  58  88 118 152 191 247 296 342
#     4  11  22  37  55  82 119 161 190 230 291 363
#     4  10  22  37  59  88 119 150 197 248 291 338
#     4   9  19  36  60  83 111 152 199 240 284 341
#
# _framework density 21.543794999999999
#
# number of rings (size 3 to 8) (size 9 to 14) (size 15 to 20)
#    0.000    2.000    3.333    0.500    0.000    1.667 
#    0.000    0.833    0.000    8.000    0.000    0.000 
#    0.000    0.000    0.000    0.000    0.000    0.000 
#
# Total GULP energy -594842.672368 kJ/mol
# GULP energy per Si atom -12392.555674 kJ/mol
# Density = 2.149476 g / cm^3
# Si number density = 21.543795 Si / 1000 Ang^3
#
#
#
# Elastic Constant Matrix: (Units=GPa)
#
#
# Indices 1 2 3 4 5 6 
#
# 1 116.2985 25.1006 -0.2449 0.0000 0.0000 0.0000
# 2 25.1006 80.2707 -15.7989 0.0000 0.0000 0.0000
# 3 -0.2449 -15.7989 39.8629 0.0000 0.0000 0.0000
# 4 0.0000 0.0000 0.0000 9.9059 0.0000 0.0000
# 5 0.0000 0.0000 0.0000 0.0000 15.6749 0.0000
# 6 0.0000 0.0000 0.0000 0.0000 0.0000 32.3506
#
#
#
# Elastic Compliance Matrix: (Units=1/GPa)
#
#
# Indices 1 2 3 4 5 6 
#
# 1 0.009272 -0.003133 -0.001185 0.000000 0.000000 0.000000
# 2 -0.003133 0.014570 0.005755 0.000000 0.000000 0.000000
# 3 -0.001185 0.005755 0.027360 0.000000 0.000000 0.000000
# 4 0.000000 0.000000 0.000000 0.100950 0.000000 0.000000
# 5 0.000000 0.000000 0.000000 0.000000 0.063796 0.000000
# 6 0.000000 0.000000 0.000000 0.000000 0.000000 0.030911
#
#
# Mechanical properties :
#
#
# Convention : Reuss Voigt Hill
#
# Bulk Modulus (GPa) = 18.49163 28.28285 23.38724
# Shear Modulus (GPa) = 19.08333 26.74465 22.91399
#
# Velocity S-wave (km/s) = 2.97946 3.52719 3.26483
# Velocity P-wave (km/s) = 4.52085 5.45386 5.00913
#
# Compressibility (1/GPa) = 0.05407852
#
# Stress axis : x y z
#
# Youngs Moduli (GPa) = 107.84968 68.63344 36.55012
#
# Poissons Ratio (x) = 0.21500 0.04330
# Poissons Ratio (y) = 0.33784 -0.21036
# Poissons Ratio (z) = 0.12775 -0.39501
#
# Static dielectric constant tensor:
#      x y z
#    x 3.823720 0.000000 0.000000 
#    y 0.000000 3.728720 0.000000 
#    z 0.000000 0.000000 3.722170 
# 
# 
# High freq. dielectric constant tensor:
#      x y z
#    x 1.856730 0.000000 0.000000 
#    y 0.000000 1.830600 0.000000 
#    z 0.000000 0.000000 1.820520 
# 
# From -- ./inp_files/22767.got.cif
#   From: 2010.06.25/outbox.cif.g09.slc.cpg/sg58_12_cif.got.tgz:22767.got - 2010.06.26 21:38:00.
