data_PCOD8237172
_publ_section_title
;
Structure prediction by ZEFSAII (Michael W. Deem and Ramdas Pophale) SiO2 
 PCOD8237172
Probable space group: P N N M
;
_chemical_formula_sum "Si O2"
_cell_formula_units_Z 40
_cell_length_a 9.552620
_cell_length_b 16.566231
_cell_length_c 12.420008
_cell_angle_alpha 90.000000
_cell_angle_beta 90.000000
_cell_angle_gamma 90.000000
_cell_volume 1965.477563
_symmetry_space_group_name_H-M "P N N M"
_symmetry_group_IT_number 58
_symmetry_cell_setting 'orthorhombic'
loop_
_space_group_symop_operation_xyz
x,y,z
-x,-y,z
1/2+x,1/2-y,1/2-z
1/2-x,1/2+y,1/2-z
-x,-y,-z
x,y,-z
1/2-x,1/2+y,1/2+z
1/2+x,1/2-y,1/2+z
loop_
_atom_site_type_symbol
_atom_site_label
_atom_site_fract_x
_atom_site_fract_y
_atom_site_fract_z
Si Si1 0.843818 0.656291 0.786427
Si Si2 0.449740 0.408146 0.768063
Si Si3 0.426814 0.416837 0.000000
Si Si4 0.100056 0.423274 0.000000
Si Si5 0.041126 0.589415 0.375911
Si Si6 0.826207 0.826830 0.874062
O O1 0.716426 0.598697 0.747574
O O2 0.783537 0.744960 0.812588
O O3 0.953992 0.656479 0.689041
O O4 0.930054 0.626268 0.891177
O O5 0.500000 0.500000 0.761997
O O6 0.530541 0.358127 0.678011
O O7 0.471370 0.370790 0.889851
O O8 0.500000 0.500000 0.000000
O O9 0.264498 0.441964 0.000000
O O10 0.000000 0.500000 0.000000
O O11 0.999913 0.598982 0.500000
O O12 0.205494 0.606469 0.357509
O O13 0.000000 0.500000 0.333843
O O14 0.851415 0.809352 0.000000
#
# Coordination Sequence:
#
# PCOD8237172 Si02
#       6
#     8   8   4   4   8   8
#     4  11  21  39  58  88 125 154 199 247 303 361
#     4  10  21  38  63  87 117 157 201 244 298 362
#     4   8  18  36  56  86 116 144 190 242 290 344
#     4  10  20  34  60  86 116 160 189 240 295 350
#     4  10  22  40  63  89 119 158 205 253 303 362
#     4  11  23  40  59  85 123 160 198 250 308 355
#
# _framework density 20.351286999999999
#
# number of rings (size 3 to 8) (size 9 to 14) (size 15 to 20)
#    0.000    1.800    1.000    3.000    0.000    4.400 
#    1.800    0.000    0.000    0.000    0.000    0.000 
#    0.000    0.000    0.000    0.000    0.000    0.000 
#
# Total GULP energy -495777.940403 kJ/mol
# GULP energy per Si atom -12394.448510 kJ/mol
# Density = 2.030497 g / cm^3
# Si number density = 20.351287 Si / 1000 Ang^3
#
#
#
# Elastic Constant Matrix: (Units=GPa)
#
#
# Indices 1 2 3 4 5 6 
#
# 1 78.8016 29.4858 57.3129 0.0000 0.0000 0.0000
# 2 29.4858 88.4620 30.4418 0.0000 0.0000 0.0000
# 3 57.3129 30.4418 97.5588 0.0000 0.0000 0.0000
# 4 0.0000 0.0000 0.0000 32.1854 0.0000 0.0000
# 5 0.0000 0.0000 0.0000 0.0000 37.2334 0.0000
# 6 0.0000 0.0000 0.0000 0.0000 0.0000 33.5901
#
#
#
# Elastic Compliance Matrix: (Units=1/GPa)
#
#
# Indices 1 2 3 4 5 6 
#
# 1 0.023027 -0.003383 -0.012472 0.000000 0.000000 0.000000
# 2 -0.003383 0.013161 -0.002119 0.000000 0.000000 0.000000
# 3 -0.012472 -0.002119 0.018238 0.000000 0.000000 0.000000
# 4 0.000000 0.000000 0.000000 0.031070 0.000000 0.000000
# 5 0.000000 0.000000 0.000000 0.000000 0.026858 0.000000
# 6 0.000000 0.000000 0.000000 0.000000 0.000000 0.029771
#
#
# Mechanical properties :
#
#
# Convention : Reuss Voigt Hill
#
# Bulk Modulus (GPa) = 54.11929 55.47816 54.79873
# Shear Modulus (GPa) = 27.13956 30.44060 28.79008
#
# Velocity S-wave (km/s) = 3.65575 3.87170 3.76527
# Velocity P-wave (km/s) = 6.66856 6.87795 6.77406
#
# Compressibility (1/GPa) = 0.01847770
#
# Stress axis : x y z
#
# Youngs Moduli (GPa) = 43.42735 75.98044 54.82956
#
# Poissons Ratio (x) = 0.25707 0.68383
# Poissons Ratio (y) = 0.14693 0.11619
# Poissons Ratio (z) = 0.54162 0.16101
#
# Static dielectric constant tensor:
#      x y z
#    x 3.578640 0.000000 0.000000 
#    y 0.000000 3.582030 0.000000 
#    z 0.000000 0.000000 5.152350 
# 
# 
# High freq. dielectric constant tensor:
#      x y z
#    x 1.788680 0.000000 0.000000 
#    y 0.000000 1.782470 0.000000 
#    z 0.000000 0.000000 1.809280 
# 
# From -- ./inp_files/19509.got.cif
#   From: 2010.06.25/outbox.cif.g09.slc.cpg/sg58_10_cif.got.tgz:19509.got - 2010.06.26 21:38:00.
