data_PCOD8237399
_publ_section_title
;
Structure prediction by ZEFSAII (Michael W. Deem and Ramdas Pophale) SiO2 
 PCOD8237399
Probable space group: P N N M
;
_chemical_formula_sum "Si O2"
_cell_formula_units_Z 64
_cell_length_a 12.768606
_cell_length_b 28.234502
_cell_length_c 9.198171
_cell_angle_alpha 90.000000
_cell_angle_beta 90.000000
_cell_angle_gamma 90.000000
_cell_volume 3316.080749
_symmetry_space_group_name_H-M "P N N M"
_symmetry_group_IT_number 58
_symmetry_cell_setting 'orthorhombic'
loop_
_space_group_symop_operation_xyz
x,y,z
-x,-y,z
1/2+x,1/2-y,1/2-z
1/2-x,1/2+y,1/2-z
-x,-y,-z
x,y,-z
1/2-x,1/2+y,1/2+z
1/2+x,1/2-y,1/2+z
loop_
_atom_site_type_symbol
_atom_site_label
_atom_site_fract_x
_atom_site_fract_y
_atom_site_fract_z
Si Si1 0.457949 0.111618 0.829969
Si Si2 0.118924 0.697349 0.170838
Si Si3 0.168834 0.443992 0.331370
Si Si4 0.416324 0.570786 0.161886
Si Si5 0.041725 0.798929 0.830869
Si Si6 0.889581 0.098738 0.171101
Si Si7 0.192917 0.538799 0.173517
Si Si8 0.349549 0.678679 0.161673
O O1 0.459880 0.164628 0.763668
O O2 0.573824 0.091612 0.804092
O O3 0.370963 0.081424 0.745306
O O4 0.429483 0.112449 0.000000
O O5 0.107648 0.752652 0.209462
O O6 0.234040 0.683714 0.225385
O O7 0.100934 0.687605 0.000000
O O8 0.175210 0.459308 0.500000
O O9 0.275767 0.418937 0.279165
O O10 0.146793 0.489902 0.233855
O O11 0.519728 0.565114 0.260928
O O12 0.316184 0.540879 0.218614
O O13 0.379563 0.624371 0.161884
O O14 0.447542 0.554273 0.000000
O O15 0.099099 0.846748 0.774078
O O16 0.928681 0.791632 0.759451
O O17 0.022238 0.803717 0.000000
O O18 0.902991 0.095279 0.000000
O O19 0.180066 0.542348 0.000000
O O20 0.353366 0.700278 0.000000
#
# Coordination Sequence:
#
# PCOD8237399 Si02
#       8
#     8   8   8   8   8   8   8   8
#     4  11  23  38  58  83 114 149 191 238 281 337
#     4  10  20  36  57  82 112 146 187 234 285 338
#     4  10  23  40  56  81 117 152 188 231 282 338
#     4   9  18  34  56  81 108 140 184 232 277 330
#     4   9  19  34  55  82 109 143 186 230 278 335
#     4   9  19  37  57  79 112 152 189 229 282 338
#     4  11  22  38  60  85 113 148 189 234 288 340
#     4   9  17  33  54  75 106 144 179 225 279 329
#
# _framework density 19.299890999999999
#
# number of rings (size 3 to 8) (size 9 to 14) (size 15 to 20)
#    0.000    2.250    1.250    1.125    0.000    6.500 
#    0.000    5.000    0.000    3.000    0.000    0.000 
#    0.000    0.000    0.000    0.000    0.000    0.000 
#
# Total GULP energy -793575.200887 kJ/mol
# GULP energy per Si atom -12399.612514 kJ/mol
# Density = 1.925596 g / cm^3
# Si number density = 19.299891 Si / 1000 Ang^3
#
#
#
# Elastic Constant Matrix: (Units=GPa)
#
#
# Indices 1 2 3 4 5 6 
#
# 1 89.9925 15.2286 29.7759 0.0000 0.0000 0.0000
# 2 15.2286 50.2545 26.4001 0.0000 0.0000 0.0000
# 3 29.7759 26.4001 52.4662 0.0000 0.0000 0.0000
# 4 0.0000 0.0000 0.0000 24.8577 0.0000 0.0000
# 5 0.0000 0.0000 0.0000 0.0000 29.5779 0.0000
# 6 0.0000 0.0000 0.0000 0.0000 0.0000 22.4467
#
#
#
# Elastic Compliance Matrix: (Units=1/GPa)
#
#
# Indices 1 2 3 4 5 6 
#
# 1 0.013681 -0.000091 -0.007719 0.000000 0.000000 0.000000
# 2 -0.000091 0.027049 -0.013559 0.000000 0.000000 0.000000
# 3 -0.007719 -0.013559 0.030263 0.000000 0.000000 0.000000
# 4 0.000000 0.000000 0.000000 0.040229 0.000000 0.000000
# 5 0.000000 0.000000 0.000000 0.000000 0.033809 0.000000
# 6 0.000000 0.000000 0.000000 0.000000 0.000000 0.044550
#
#
# Mechanical properties :
#
#
# Convention : Reuss Voigt Hill
#
# Bulk Modulus (GPa) = 35.39051 37.28026 36.33538
# Shear Modulus (GPa) = 20.68355 23.46371 22.07363
#
# Velocity S-wave (km/s) = 3.27722 3.49053 3.38556
# Velocity P-wave (km/s) = 5.71815 5.96685 5.84382
#
# Compressibility (1/GPa) = 0.02825616
#
# Stress axis : x y z
#
# Youngs Moduli (GPa) = 73.09234 36.96956 33.04352
#
# Poissons Ratio (x) = 0.00336 0.25505
# Poissons Ratio (y) = 0.00665 0.44804
# Poissons Ratio (z) = 0.56418 0.50127
#
# Static dielectric constant tensor:
#      x y z
#    x 3.693220 0.000000 0.000000 
#    y 0.000000 3.544120 0.000000 
#    z 0.000000 0.000000 3.556740 
# 
# 
# High freq. dielectric constant tensor:
#      x y z
#    x 1.755750 0.000000 0.000000 
#    y 0.000000 1.747760 0.000000 
#    z 0.000000 0.000000 1.743940 
# 
# From -- ./inp_files/4712.got.cif
#   From: 2010.06.25/outbox.cif.g09.slc.cpg/sg58_3_cif.got.tgz:4712.got - 2010.06.26 21:38:00.
