data_PCOD8237283
_publ_section_title
;
Structure prediction by ZEFSAII (Michael W. Deem and Ramdas Pophale) SiO2 
 PCOD8237283
Probable space group: P N N M
;
_chemical_formula_sum "Si O2"
_cell_formula_units_Z 48
_cell_length_a 27.673882
_cell_length_b 9.531959
_cell_length_c 9.584910
_cell_angle_alpha 90.000000
_cell_angle_beta 90.000000
_cell_angle_gamma 90.000000
_cell_volume 2528.368027
_symmetry_space_group_name_H-M "P N N M"
_symmetry_group_IT_number 58
_symmetry_cell_setting 'orthorhombic'
loop_
_space_group_symop_operation_xyz
x,y,z
-x,-y,z
1/2+x,1/2-y,1/2-z
1/2-x,1/2+y,1/2-z
-x,-y,-z
x,y,-z
1/2-x,1/2+y,1/2+z
1/2+x,1/2-y,1/2+z
loop_
_atom_site_type_symbol
_atom_site_label
_atom_site_fract_x
_atom_site_fract_y
_atom_site_fract_z
Si Si1 0.392932 0.700882 0.842671
Si Si2 0.555165 0.523874 0.663852
Si Si3 0.052675 0.475534 0.657524
Si Si4 0.288448 0.129852 0.339960
Si Si5 0.895824 0.312247 0.841821
Si Si6 0.706122 0.152632 0.164360
O O1 0.407074 0.576162 0.740699
O O2 0.436580 0.811206 0.838066
O O3 0.344156 0.775810 0.790603
O O4 0.386082 0.642586 0.000000
O O5 0.500000 0.500000 0.714605
O O6 0.559815 0.494226 0.500000
O O7 0.572194 0.679557 0.703930
O O8 0.054774 0.534216 0.500000
O O9 0.092240 0.556102 0.746302
O O10 0.000000 0.500000 0.723498
O O11 0.280428 0.082805 0.500000
O O12 0.338796 0.214212 0.323445
O O13 0.247802 0.239128 0.291961
O O14 0.286033 0.991968 0.245458
O O15 0.908453 0.352769 0.000000
O O16 0.706513 0.118453 0.000000
#
# Coordination Sequence:
#
# PCOD8237283 Si02
#       6
#     8   8   8   8   8   8
#     4  10  21  37  56  82 114 147 187 233 281 336
#     4  10  22  38  56  83 117 152 192 235 281 334
#     4  10  20  35  57  84 112 145 187 232 280 335
#     4  10  22  39  59  85 113 145 188 233 282 341
#     4  10  21  37  56  81 113 147 187 232 279 336
#     4  10  22  40  60  85 116 147 186 236 285 339
#
# _framework density 18.984577999999999
#
# number of rings (size 3 to 8) (size 9 to 14) (size 15 to 20)
#    0.000    2.000    1.667    1.000    2.333    3.333 
#    0.000    0.000    0.000    0.000    0.000    0.000 
#    0.000    0.000    0.000    0.000    0.000    0.000 
#
# Total GULP energy -595309.125763 kJ/mol
# GULP energy per Si atom -12402.273453 kJ/mol
# Density = 1.894137 g / cm^3
# Si number density = 18.984578 Si / 1000 Ang^3
#
#
#
# Elastic Constant Matrix: (Units=GPa)
#
#
# Indices 1 2 3 4 5 6 
#
# 1 94.0770 31.0696 27.1960 0.0000 0.0000 0.0000
# 2 31.0696 87.9255 46.6555 0.0000 0.0000 0.0000
# 3 27.1960 46.6555 57.7811 0.0000 0.0000 0.0000
# 4 0.0000 0.0000 0.0000 29.5993 0.0000 0.0000
# 5 0.0000 0.0000 0.0000 0.0000 30.8563 0.0000
# 6 0.0000 0.0000 0.0000 0.0000 0.0000 39.1147
#
#
#
# Elastic Compliance Matrix: (Units=1/GPa)
#
#
# Indices 1 2 3 4 5 6 
#
# 1 0.012559 -0.002277 -0.004073 0.000000 0.000000 0.000000
# 2 -0.002277 0.020312 -0.015329 0.000000 0.000000 0.000000
# 3 -0.004073 -0.015329 0.031601 0.000000 0.000000 0.000000
# 4 0.000000 0.000000 0.000000 0.033785 0.000000 0.000000
# 5 0.000000 0.000000 0.000000 0.000000 0.032408 0.000000
# 6 0.000000 0.000000 0.000000 0.000000 0.000000 0.025566
#
#
# Mechanical properties :
#
#
# Convention : Reuss Voigt Hill
#
# Bulk Modulus (GPa) = 47.36083 49.95841 48.65962
# Shear Modulus (GPa) = 24.19824 28.90490 26.55157
#
# Velocity S-wave (km/s) = 3.57406 3.90622 3.74383
# Velocity P-wave (km/s) = 6.48329 6.83499 6.66146
#
# Compressibility (1/GPa) = 0.02111450
#
# Stress axis : x y z
#
# Youngs Moduli (GPa) = 79.62510 49.23220 31.64422
#
# Poissons Ratio (x) = 0.11209 0.12888
# Poissons Ratio (y) = 0.18128 0.48508
# Poissons Ratio (z) = 0.32429 0.75470
#
# Static dielectric constant tensor:
#      x y z
#    x 3.670170 0.000000 0.000000 
#    y 0.000000 3.286360 0.000000 
#    z 0.000000 0.000000 3.425190 
# 
# 
# High freq. dielectric constant tensor:
#      x y z
#    x 1.754110 0.000000 0.000000 
#    y 0.000000 1.731610 0.000000 
#    z 0.000000 0.000000 1.731800 
# 
# From -- ./inp_files/2867.got.cif
#   From: 2010.06.25/outbox.cif.g09.slc.cpg/sg58_2_cif.got.tgz:2867.got - 2010.06.26 21:38:00.
