data_PCOD8237681
_publ_section_title
;
Structure prediction by ZEFSAII (Michael W. Deem and Ramdas Pophale) SiO2 
 PCOD8237681
Probable space group: P N N M
;
_chemical_formula_sum "Si O2"
_cell_formula_units_Z 64
_cell_length_a 30.505484
_cell_length_b 11.944709
_cell_length_c 8.559512
_cell_angle_alpha 90.000000
_cell_angle_beta 90.000000
_cell_angle_gamma 90.000000
_cell_volume 3118.907530
_symmetry_space_group_name_H-M "P N N M"
_symmetry_group_IT_number 58
_symmetry_cell_setting 'orthorhombic'
loop_
_space_group_symop_operation_xyz
x,y,z
-x,-y,z
1/2+x,1/2-y,1/2-z
1/2-x,1/2+y,1/2-z
-x,-y,-z
x,y,-z
1/2-x,1/2+y,1/2+z
1/2+x,1/2-y,1/2+z
loop_
_atom_site_type_symbol
_atom_site_label
_atom_site_fract_x
_atom_site_fract_y
_atom_site_fract_z
Si Si1 0.923324 0.721687 0.324898
Si Si2 0.545453 0.455503 0.814417
Si Si3 0.711064 0.455596 0.319618
Si Si4 0.676645 0.242057 0.825830
Si Si5 0.376910 0.166756 0.315550
Si Si6 0.802765 0.508972 0.819706
Si Si7 0.951362 0.498982 0.182159
Si Si8 0.869987 0.088341 0.315801
O O1 0.936845 0.684416 0.500000
O O2 0.952367 0.825426 0.264314
O O3 0.874495 0.769358 0.323111
O O4 0.928381 0.617659 0.210266
O O5 0.500000 0.500000 0.741955
O O6 0.586367 0.527480 0.750029
O O7 0.545506 0.466094 0.000000
O O8 0.722465 0.476081 0.500000
O O9 0.699615 0.325451 0.294951
O O10 0.752731 0.480273 0.213200
O O11 0.671914 0.537367 0.270576
O O12 0.683864 0.114258 0.782829
O O13 0.695392 0.263329 0.000000
O O14 0.379497 0.191034 0.500000
O O15 0.373739 0.280800 0.220396
O O16 0.333900 0.094545 0.273884
O O17 0.420191 0.100206 0.253685
O O18 0.809201 0.540055 0.000000
O O19 0.000000 0.500000 0.260303
O O20 0.956074 0.479749 0.000000
O O21 0.864177 0.069440 0.500000
#
# Coordination Sequence:
#
# PCOD8237681 Si02
#       8
#     8   8   8   8   8   8   8   8
#     4  10  20  37  63  90 121 157 204 258 303 359
#     4   9  19  37  60  89 123 159 199 251 311 363
#     4  12  26  43  65  92 125 165 207 253 309 370
#     4  11  22  41  66  93 125 159 205 260 311 365
#     4  10  23  42  61  87 125 165 204 250 308 370
#     4  11  24  43  66  91 123 163 208 257 309 367
#     4  10  22  40  61  88 126 165 203 252 307 364
#     4  11  23  41  64  90 124 163 206 257 310 366
#
# _framework density 20.520005999999999
#
# number of rings (size 3 to 8) (size 9 to 14) (size 15 to 20)
#    0.000    1.500    2.500    2.250    3.500    2.250 
#    0.000    0.000    0.000    1.875    0.000    0.000 
#    0.000    0.000    0.000    0.000    0.000    0.000 
#
# Total GULP energy -793743.954781 kJ/mol
# GULP energy per Si atom -12402.249293 kJ/mol
# Density = 2.047330 g / cm^3
# Si number density = 20.520006 Si / 1000 Ang^3
#
#
#
# Elastic Constant Matrix: (Units=GPa)
#
#
# Indices 1 2 3 4 5 6 
#
# 1 108.3404 25.4730 15.5592 0.0000 0.0000 0.0000
# 2 25.4730 97.6606 12.5330 0.0000 0.0000 0.0000
# 3 15.5592 12.5330 38.8999 0.0000 0.0000 0.0000
# 4 0.0000 0.0000 0.0000 33.5856 0.0000 0.0000
# 5 0.0000 0.0000 0.0000 0.0000 15.0353 0.0000
# 6 0.0000 0.0000 0.0000 0.0000 0.0000 33.3966
#
#
#
# Elastic Compliance Matrix: (Units=1/GPa)
#
#
# Indices 1 2 3 4 5 6 
#
# 1 0.010241 -0.002238 -0.003375 0.000000 0.000000 0.000000
# 2 -0.002238 0.011170 -0.002704 0.000000 0.000000 0.000000
# 3 -0.003375 -0.002704 0.027928 0.000000 0.000000 0.000000
# 4 0.000000 0.000000 0.000000 0.029775 0.000000 0.000000
# 5 0.000000 0.000000 0.000000 0.000000 0.066510 0.000000
# 6 0.000000 0.000000 0.000000 0.000000 0.000000 0.029943
#
#
# Mechanical properties :
#
#
# Convention : Reuss Voigt Hill
#
# Bulk Modulus (GPa) = 30.57585 39.11460 34.84522
# Shear Modulus (GPa) = 24.61803 29.15922 26.88862
#
# Velocity S-wave (km/s) = 3.46744 3.77372 3.62382
# Velocity P-wave (km/s) = 5.56450 6.17180 5.87600
#
# Compressibility (1/GPa) = 0.03270555
#
# Stress axis : x y z
#
# Youngs Moduli (GPa) = 97.64574 89.52333 35.80624
#
# Poissons Ratio (x) = 0.20036 0.12085
# Poissons Ratio (y) = 0.21854 0.09681
# Poissons Ratio (z) = 0.32957 0.24205
#
# Static dielectric constant tensor:
#      x y z
#    x 4.133850 0.000000 0.000000 
#    y 0.000000 3.681660 0.000000 
#    z 0.000000 0.000000 3.472160 
# 
# 
# High freq. dielectric constant tensor:
#      x y z
#    x 1.813310 0.000000 0.000000 
#    y 0.000000 1.812670 0.000000 
#    z 0.000000 0.000000 1.783760 
# 
# From -- ./inp_files/10972.got.cif
#   From: 2010.06.25/outbox.cif.g09.slc.cpg/sg58_6_cif.got.tgz:10972.got - 2010.06.26 21:38:00.
