data_PCOD8237441
_publ_section_title
;
Structure prediction by ZEFSAII (Michael W. Deem and Ramdas Pophale) SiO2 
 PCOD8237441
Probable space group: P N N M
;
_chemical_formula_sum "Si O2"
_cell_formula_units_Z 64
_cell_length_a 18.874118
_cell_length_b 8.851773
_cell_length_c 20.852284
_cell_angle_alpha 90.000000
_cell_angle_beta 90.000000
_cell_angle_gamma 90.000000
_cell_volume 3483.778746
_symmetry_space_group_name_H-M "P N N M"
_symmetry_group_IT_number 58
_symmetry_cell_setting 'orthorhombic'
loop_
_space_group_symop_operation_xyz
x,y,z
-x,-y,z
1/2+x,1/2-y,1/2-z
1/2-x,1/2+y,1/2-z
-x,-y,-z
x,y,-z
1/2-x,1/2+y,1/2+z
1/2+x,1/2-y,1/2+z
loop_
_atom_site_type_symbol
_atom_site_label
_atom_site_fract_x
_atom_site_fract_y
_atom_site_fract_z
Si Si1 0.707355 0.410160 0.074058
Si Si2 0.430042 0.567253 0.260312
Si Si3 0.927182 0.589302 0.256285
Si Si4 0.208252 0.448824 0.817010
Si Si5 0.561176 0.891277 0.928746
Si Si6 0.826968 0.577718 0.622130
Si Si7 0.720522 0.400478 0.302641
Si Si8 0.426767 0.429851 0.877224
O O1 0.772741 0.485474 0.112794
O O2 0.688315 0.248137 0.103379
O O3 0.637578 0.513091 0.078930
O O4 0.730378 0.396116 0.000000
O O5 0.500000 0.500000 0.295085
O O6 0.448350 0.736879 0.241101
O O7 0.362948 0.561659 0.307077
O O8 0.413076 0.471996 0.196382
O O9 0.876616 0.546784 0.195373
O O10 0.880640 0.556927 0.318684
O O11 0.000000 0.500000 0.252130
O O12 0.249910 0.552682 0.766511
O O13 0.235854 0.276942 0.811028
O O14 0.568701 0.750820 0.881159
O O15 0.500000 0.000000 0.900684
O O16 0.634425 0.986043 0.934471
O O17 0.540708 0.834632 0.000000
O O18 0.753712 0.495985 0.639585
O O19 0.500000 0.500000 0.903285
#
# Coordination Sequence:
#
# PCOD8237441 Si02
#       8
#     8   8   8   8   8   8   8   8
#     4  12  23  39  58  79 116 157 199 238 282 340
#     4  10  21  34  53  82 112 141 181 220 284 349
#     4  10  21  35  57  85 113 143 180 234 295 345
#     4  10  20  38  56  85 111 145 193 234 292 343
#     4  11  24  38  52  74 109 153 198 234 271 322
#     4  11  22  35  55  82 112 147 190 233 284 336
#     4  10  20  36  59  80 115 146 182 243 291 342
#     4  11  22  36  53  75 109 147 192 233 274 330
#
# _framework density 18.370857000000001
#
# number of rings (size 3 to 8) (size 9 to 14) (size 15 to 20)
#    0.000    1.375    2.500    4.125    5.250    4.000 
#    0.000    0.625    0.000    0.375    0.000    0.000 
#    0.000    6.000    0.000    0.000    0.000    0.000 
#
# Total GULP energy -793565.851162 kJ/mol
# GULP energy per Si atom -12399.466424 kJ/mol
# Density = 1.832904 g / cm^3
# Si number density = 18.370857 Si / 1000 Ang^3
#
#
#
# Elastic Constant Matrix: (Units=GPa)
#
#
# Indices 1 2 3 4 5 6 
#
# 1 102.6827 58.0186 43.6359 0.0000 0.0000 0.0000
# 2 58.0186 145.6464 39.0828 0.0000 0.0000 0.0000
# 3 43.6359 39.0828 73.2150 0.0000 0.0000 0.0000
# 4 0.0000 0.0000 0.0000 15.5211 0.0000 0.0000
# 5 0.0000 0.0000 0.0000 0.0000 9.8361 0.0000
# 6 0.0000 0.0000 0.0000 0.0000 0.0000 35.4789
#
#
#
# Elastic Compliance Matrix: (Units=1/GPa)
#
#
# Indices 1 2 3 4 5 6 
#
# 1 0.014923 -0.004153 -0.006677 0.000000 0.000000 0.000000
# 2 -0.004153 0.009170 -0.002420 0.000000 0.000000 0.000000
# 3 -0.006677 -0.002420 0.018930 0.000000 0.000000 0.000000
# 4 0.000000 0.000000 0.000000 0.064428 0.000000 0.000000
# 5 0.000000 0.000000 0.000000 0.000000 0.101666 0.000000
# 6 0.000000 0.000000 0.000000 0.000000 0.000000 0.028186
#
#
# Mechanical properties :
#
#
# Convention : Reuss Voigt Hill
#
# Bulk Modulus (GPa) = 60.52307 67.00207 63.76257
# Shear Modulus (GPa) = 18.56608 24.22103 21.39356
#
# Velocity S-wave (km/s) = 3.18248 3.63498 3.41623
# Velocity P-wave (km/s) = 6.82063 7.35993 7.09541
#
# Compressibility (1/GPa) = 0.01652262
#
# Stress axis : x y z
#
# Youngs Moduli (GPa) = 67.01236 109.05705 52.82737
#
# Poissons Ratio (x) = 0.45288 0.35273
# Poissons Ratio (y) = 0.27828 0.12783
# Poissons Ratio (z) = 0.44745 0.26389
#
# Static dielectric constant tensor:
#      x y z
#    x 3.671180 0.000000 0.000000 
#    y 0.000000 3.519780 0.000000 
#    z 0.000000 0.000000 3.123860 
# 
# 
# High freq. dielectric constant tensor:
#      x y z
#    x 1.711290 0.000000 0.000000 
#    y 0.000000 1.733700 0.000000 
#    z 0.000000 0.000000 1.672140 
# 
# From -- ./inp_files/32345.got.cif
#   From: 2010.06.25/outbox.cif.g09.slc.cpg/sg58_17_cif.got.tgz:32345.got - 2010.06.26 21:38:00.
