data_PCOD8237493
_publ_section_title
;
Structure prediction by ZEFSAII (Michael W. Deem and Ramdas Pophale) SiO2 
 PCOD8237493
Probable space group: P N N M
;
_chemical_formula_sum "Si O2"
_cell_formula_units_Z 64
_cell_length_a 17.376564
_cell_length_b 21.331995
_cell_length_c 8.677719
_cell_angle_alpha 90.000000
_cell_angle_beta 90.000000
_cell_angle_gamma 90.000000
_cell_volume 3216.628905
_symmetry_space_group_name_H-M "P N N M"
_symmetry_group_IT_number 58
_symmetry_cell_setting 'orthorhombic'
loop_
_space_group_symop_operation_xyz
x,y,z
-x,-y,z
1/2+x,1/2-y,1/2-z
1/2-x,1/2+y,1/2-z
-x,-y,-z
x,y,-z
1/2-x,1/2+y,1/2+z
1/2+x,1/2-y,1/2+z
loop_
_atom_site_type_symbol
_atom_site_label
_atom_site_fract_x
_atom_site_fract_y
_atom_site_fract_z
Si Si1 0.034724 0.705765 0.317728
Si Si2 0.447890 0.558273 0.323241
Si Si3 0.212755 0.043560 0.319702
Si Si4 0.152422 0.600315 0.318247
Si Si5 0.429022 0.337099 0.677467
Si Si6 0.915155 0.520336 0.167455
Si Si7 0.725257 0.594396 0.683849
Si Si8 0.884010 0.643065 0.677363
O O1 0.031094 0.699043 0.500000
O O2 0.100283 0.657664 0.255124
O O3 0.060887 0.774599 0.274281
O O4 0.948517 0.690212 0.248346
O O5 0.500000 0.500000 0.275581
O O6 0.420288 0.550781 0.500000
O O7 0.376014 0.558536 0.210609
O O8 0.495345 0.621648 0.298358
O O9 0.229399 0.046685 0.500000
O O10 0.257886 0.101361 0.233269
O O11 0.235291 0.973991 0.258505
O O12 0.143370 0.594429 0.500000
O O13 0.131730 0.536860 0.232760
O O14 0.417172 0.318953 0.500000
O O15 0.354317 0.374381 0.738858
O O16 0.917020 0.574072 0.295546
O O17 0.000000 0.500000 0.136775
O O18 0.880594 0.541682 0.000000
O O19 0.727033 0.585435 0.500000
O O20 0.795538 0.640775 0.740544
O O21 0.879755 0.659755 0.500000
#
# Coordination Sequence:
#
# PCOD8237493 Si02
#       8
#     8   8   8   8   8   8   8   8
#     4  10  23  41  60  85 119 164 211 250 295 360
#     4  10  20  40  67  90 118 156 199 242 297 370
#     4  12  24  36  58  96 128 151 191 252 313 353
#     4  11  22  38  59  82 119 167 206 241 295 366
#     4  10  22  41  65  88 115 160 206 247 302 362
#     4  11  21  31  51  86 121 150 191 249 300 342
#     4  10  20  38  63  89 118 156 195 241 302 370
#     4  10  20  36  60  85 115 158 203 241 295 368
#
# _framework density 19.896605999999998
#
# number of rings (size 3 to 8) (size 9 to 14) (size 15 to 20)
#    0.000    1.500    3.750    1.875    0.000    3.250 
#    2.250    0.000    0.000    0.000    0.000    0.000 
#    0.000    0.000    0.000    0.000    0.000    0.000 
#
# Total GULP energy -793039.229649 kJ/mol
# GULP energy per Si atom -12391.237963 kJ/mol
# Density = 1.985132 g / cm^3
# Si number density = 19.896606 Si / 1000 Ang^3
#
#
#
# Elastic Constant Matrix: (Units=GPa)
#
#
# Indices 1 2 3 4 5 6 
#
# 1 121.7741 36.1494 25.7561 0.0000 0.0000 0.0000
# 2 36.1494 74.7327 5.7912 0.0000 0.0000 0.0000
# 3 25.7561 5.7912 30.5592 0.0000 0.0000 0.0000
# 4 0.0000 0.0000 0.0000 28.8049 0.0000 0.0000
# 5 0.0000 0.0000 0.0000 0.0000 25.6766 0.0000
# 6 0.0000 0.0000 0.0000 0.0000 0.0000 28.6293
#
#
#
# Elastic Compliance Matrix: (Units=1/GPa)
#
#
# Indices 1 2 3 4 5 6 
#
# 1 0.011522 -0.004893 -0.008784 0.000000 0.000000 0.000000
# 2 -0.004893 0.015658 0.001156 0.000000 0.000000 0.000000
# 3 -0.008784 0.001156 0.039908 0.000000 0.000000 0.000000
# 4 0.000000 0.000000 0.000000 0.034716 0.000000 0.000000
# 5 0.000000 0.000000 0.000000 0.000000 0.038946 0.000000
# 6 0.000000 0.000000 0.000000 0.000000 0.000000 0.034929
#
#
# Mechanical properties :
#
#
# Convention : Reuss Voigt Hill
#
# Bulk Modulus (GPa) = 23.78277 40.27327 32.02802
# Shear Modulus (GPa) = 23.28439 27.24679 25.26559
#
# Velocity S-wave (km/s) = 3.42463 3.70458 3.56735
# Velocity P-wave (km/s) = 5.25515 6.21158 5.75328
#
# Compressibility (1/GPa) = 0.04204725
#
# Stress axis : x y z
#
# Youngs Moduli (GPa) = 86.78840 63.86451 25.05784
#
# Poissons Ratio (x) = 0.31248 0.22011
# Poissons Ratio (y) = 0.42464 -0.02898
# Poissons Ratio (z) = 0.76235 -0.07386
#
# Static dielectric constant tensor:
#      x y z
#    x 4.319760 0.000000 0.000000 
#    y 0.000000 3.392510 0.000000 
#    z 0.000000 0.000000 3.504870 
# 
# 
# High freq. dielectric constant tensor:
#      x y z
#    x 1.802330 0.000000 0.000000 
#    y 0.000000 1.749700 0.000000 
#    z 0.000000 0.000000 1.762740 
# 
# From -- ./inp_files/8372.got.cif
#   From: 2010.06.25/outbox.cif.g09.slc.cpg/sg58_5_cif.got.tgz:8372.got - 2010.06.26 21:38:00.
