data_PCOD8237046
_publ_section_title
;
Structure prediction by ZEFSAII (Michael W. Deem and Ramdas Pophale) SiO2 
 PCOD8237046
Probable space group: P N N M
;
_chemical_formula_sum "Si O2"
_cell_formula_units_Z 56
_cell_length_a 11.337240
_cell_length_b 12.496537
_cell_length_c 21.156713
_cell_angle_alpha 90.000000
_cell_angle_beta 90.000000
_cell_angle_gamma 90.000000
_cell_volume 2997.403530
_symmetry_space_group_name_H-M "P N N M"
_symmetry_group_IT_number 58
_symmetry_cell_setting 'orthorhombic'
loop_
_space_group_symop_operation_xyz
x,y,z
-x,-y,z
1/2+x,1/2-y,1/2-z
1/2-x,1/2+y,1/2-z
-x,-y,-z
x,y,-z
1/2-x,1/2+y,1/2+z
1/2+x,1/2-y,1/2+z
loop_
_atom_site_type_symbol
_atom_site_label
_atom_site_fract_x
_atom_site_fract_y
_atom_site_fract_z
Si Si1 0.741716 0.469179 0.241013
Si Si2 0.315651 0.373494 0.352639
Si Si3 0.879666 0.313593 0.669671
Si Si4 0.874586 0.769835 0.705624
Si Si5 0.327871 0.839013 0.668455
Si Si6 0.233055 0.555992 0.570289
Si Si7 0.456069 0.707273 0.425967
O O1 0.676967 0.544650 0.292778
O O2 0.836418 0.385926 0.271098
O O3 0.638723 0.398728 0.208102
O O4 0.813613 0.536537 0.187950
O O5 0.241556 0.272174 0.329931
O O6 0.248385 0.433770 0.408810
O O7 0.438504 0.332699 0.381180
O O8 0.802991 0.207363 0.661139
O O9 0.870901 0.388124 0.608641
O O10 0.011434 0.270865 0.669610
O O11 0.892325 0.725692 0.776107
O O12 0.403519 0.818094 0.604128
O O13 0.187375 0.557998 0.500000
O O14 0.357729 0.615815 0.579597
O O15 0.491856 0.725639 0.500000
#
# Coordination Sequence:
#
# PCOD8237046 Si02
#       7
#     8   8   8   8   8   8   8
#     4   9  20  36  52  83 109 150 184 226 284 342
#     4  10  20  34  52  83 112 140 184 228 278 339
#     4   9  19  36  51  82 109 138 187 225 280 332
#     4  10  21  35  52  78 114 145 177 232 277 330
#     4   9  20  34  55  80 107 146 185 225 277 333
#     4   9  18  34  56  79 108 144 183 227 280 339
#     4  10  20  36  58  84 113 144 187 240 281 331
#
# _framework density 18.682836999999999
#
# number of rings (size 3 to 8) (size 9 to 14) (size 15 to 20)
#    0.000    2.571    0.000    1.714    6.000    6.857 
#    5.143    2.143    0.000    3.429    0.000    4.000 
#    0.000    0.000    0.000    0.000    0.000    0.000 
#
# Total GULP energy -693928.292657 kJ/mol
# GULP energy per Si atom -12391.576655 kJ/mol
# Density = 1.864031 g / cm^3
# Si number density = 18.682837 Si / 1000 Ang^3
#
#
#
# Elastic Constant Matrix: (Units=GPa)
#
#
# Indices 1 2 3 4 5 6 
#
# 1 67.4578 50.3283 49.5582 0.0000 0.0000 0.0000
# 2 50.3283 106.9056 46.7538 0.0000 0.0000 0.0000
# 3 49.5582 46.7538 100.2761 0.0000 0.0000 0.0000
# 4 0.0000 0.0000 0.0000 19.7631 0.0000 0.0000
# 5 0.0000 0.0000 0.0000 0.0000 18.8244 0.0000
# 6 0.0000 0.0000 0.0000 0.0000 0.0000 18.0517
#
#
#
# Elastic Compliance Matrix: (Units=1/GPa)
#
#
# Indices 1 2 3 4 5 6 
#
# 1 0.029190 -0.009337 -0.010073 0.000000 0.000000 0.000000
# 2 -0.009337 0.014736 -0.002257 0.000000 0.000000 0.000000
# 3 -0.010073 -0.002257 0.016003 0.000000 0.000000 0.000000
# 4 0.000000 0.000000 0.000000 0.050599 0.000000 0.000000
# 5 0.000000 0.000000 0.000000 0.000000 0.053123 0.000000
# 6 0.000000 0.000000 0.000000 0.000000 0.000000 0.055396
#
#
# Mechanical properties :
#
#
# Convention : Reuss Voigt Hill
#
# Bulk Modulus (GPa) = 60.25212 63.10223 61.67718
# Shear Modulus (GPa) = 18.66286 19.86113 19.26199
#
# Velocity S-wave (km/s) = 3.16402 3.26401 3.21440
# Velocity P-wave (km/s) = 6.75781 6.93209 6.84550
#
# Compressibility (1/GPa) = 0.01659693
#
# Stress axis : x y z
#
# Youngs Moduli (GPa) = 34.25832 67.85950 62.48897
#
# Poissons Ratio (x) = 0.63358 0.62945
# Poissons Ratio (y) = 0.31986 0.14101
# Poissons Ratio (z) = 0.34508 0.15313
#
# Static dielectric constant tensor:
#      x y z
#    x 3.234950 0.000000 0.000000 
#    y 0.000000 3.517630 0.000000 
#    z 0.000000 0.000000 3.521120 
# 
# 
# High freq. dielectric constant tensor:
#      x y z
#    x 1.713580 0.000000 0.000000 
#    y 0.000000 1.717500 0.000000 
#    z 0.000000 0.000000 1.710510 
# 
# From -- ./inp_files/29590.got.cif
#   From: 2010.06.25/outbox.cif.g09.slc.cpg/sg58_15_cif.got.tgz:29590.got - 2010.06.26 21:38:00.
