data_PCOD8237066
_publ_section_title
;
Structure prediction by ZEFSAII (Michael W. Deem and Ramdas Pophale) SiO2 
 PCOD8237066
Probable space group: P N N M
;
_chemical_formula_sum "Si O2"
_cell_formula_units_Z 64
_cell_length_a 32.830055
_cell_length_b 10.215267
_cell_length_c 9.324425
_cell_angle_alpha 90.000000
_cell_angle_beta 90.000000
_cell_angle_gamma 90.000000
_cell_volume 3127.111688
_symmetry_space_group_name_H-M "P N N M"
_symmetry_group_IT_number 58
_symmetry_cell_setting 'orthorhombic'
loop_
_space_group_symop_operation_xyz
x,y,z
-x,-y,z
1/2+x,1/2-y,1/2-z
1/2-x,1/2+y,1/2-z
-x,-y,-z
x,y,-z
1/2-x,1/2+y,1/2+z
1/2+x,1/2-y,1/2+z
loop_
_atom_site_type_symbol
_atom_site_label
_atom_site_fract_x
_atom_site_fract_y
_atom_site_fract_z
Si Si1 0.614803 0.862618 0.163246
Si Si2 0.228247 0.005479 0.168986
Si Si3 0.472479 0.226417 0.167764
Si Si4 0.146214 0.873107 0.835455
Si Si5 0.216900 0.262484 0.332580
Si Si6 0.951086 0.739896 0.163135
Si Si7 0.058199 0.960532 0.839766
Si Si8 0.626922 0.159791 0.164235
O O1 0.566794 0.862335 0.206716
O O2 0.641651 0.764843 0.256276
O O3 0.632959 0.005398 0.186607
O O4 0.618456 0.814931 0.000000
O O5 0.184687 0.952375 0.224494
O O6 0.262081 0.898857 0.212847
O O7 0.237384 0.142472 0.247588
O O8 0.228357 0.033145 0.000000
O O9 0.512201 0.169879 0.249951
O O10 0.463368 0.373566 0.219805
O O11 0.482444 0.226727 0.000000
O O12 0.106682 0.963584 0.811865
O O13 0.153835 0.837381 0.000000
O O14 0.224024 0.237315 0.500000
O O15 0.169128 0.270886 0.294543
O O16 0.907666 0.711620 0.231665
O O17 0.959558 0.894627 0.170751
O O18 0.950891 0.688996 0.000000
O O19 0.049616 0.903086 0.000000
O O20 0.614544 0.189790 0.000000
#
# Coordination Sequence:
#
# PCOD8237066 Si02
#       8
#     8   8   8   8   8   8   8   8
#     4   9  20  37  57  81 111 151 195 238 290 346
#     4  10  22  40  62  92 126 159 197 247 300 356
#     4  10  20  34  53  80 110 143 187 237 287 343
#     4   9  18  34  57  82 112 146 186 235 289 346
#     4  10  23  41  62  91 123 157 200 245 297 358
#     4  11  22  35  54  79 109 148 190 234 290 349
#     4   9  18  33  52  76 108 144 181 228 284 344
#     4  10  22  40  58  78 111 151 193 241 289 346
#
# _framework density 20.466170000000002
#
# number of rings (size 3 to 8) (size 9 to 14) (size 15 to 20)
#    0.000    2.250    0.000    1.875    1.750    6.500 
#    0.000    5.000    0.000    0.000    0.000    0.000 
#    0.000    0.000    0.000    0.000    0.000    0.000 
#
# Total GULP energy -793723.206423 kJ/mol
# GULP energy per Si atom -12401.925100 kJ/mol
# Density = 2.041959 g / cm^3
# Si number density = 20.466170 Si / 1000 Ang^3
#
#
#
# Elastic Constant Matrix: (Units=GPa)
#
#
# Indices 1 2 3 4 5 6 
#
# 1 90.3004 26.9122 43.4950 0.0000 0.0000 0.0000
# 2 26.9122 77.4285 40.9538 0.0000 0.0000 0.0000
# 3 43.4950 40.9538 87.8664 0.0000 0.0000 0.0000
# 4 0.0000 0.0000 0.0000 32.6105 0.0000 0.0000
# 5 0.0000 0.0000 0.0000 0.0000 28.4588 0.0000
# 6 0.0000 0.0000 0.0000 0.0000 0.0000 26.9182
#
#
#
# Elastic Compliance Matrix: (Units=1/GPa)
#
#
# Indices 1 2 3 4 5 6 
#
# 1 0.014703 -0.001673 -0.006498 0.000000 0.000000 0.000000
# 2 -0.001673 0.017331 -0.007250 0.000000 0.000000 0.000000
# 3 -0.006498 -0.007250 0.017977 0.000000 0.000000 0.000000
# 4 0.000000 0.000000 0.000000 0.030665 0.000000 0.000000
# 5 0.000000 0.000000 0.000000 0.000000 0.035139 0.000000
# 6 0.000000 0.000000 0.000000 0.000000 0.000000 0.037150
#
#
# Mechanical properties :
#
#
# Convention : Reuss Voigt Hill
#
# Bulk Modulus (GPa) = 52.16913 53.14638 52.65775
# Shear Modulus (GPa) = 26.28873 27.21310 26.75092
#
# Velocity S-wave (km/s) = 3.58788 3.65041 3.61928
# Velocity P-wave (km/s) = 6.53526 6.61752 6.57652
#
# Compressibility (1/GPa) = 0.01916842
#
# Stress axis : x y z
#
# Youngs Moduli (GPa) = 68.01418 57.69925 55.62788
#
# Poissons Ratio (x) = 0.09655 0.36148
# Poissons Ratio (y) = 0.11381 0.40328
# Poissons Ratio (z) = 0.44197 0.41830
#
# Static dielectric constant tensor:
#      x y z
#    x 3.854530 0.000000 0.000000 
#    y 0.000000 3.504230 0.000000 
#    z 0.000000 0.000000 3.689960 
# 
# 
# High freq. dielectric constant tensor:
#      x y z
#    x 1.812090 0.000000 0.000000 
#    y 0.000000 1.787540 0.000000 
#    z 0.000000 0.000000 1.793390 
# 
# From -- ./inp_files/11010.got.cif
#   From: 2010.06.25/outbox.cif.g09.slc.cpg/sg58_6_cif.got.tgz:11010.got - 2010.06.26 21:38:00.
