data_PCOD8237964
_publ_section_title
;
Structure prediction by ZEFSAII (Michael W. Deem and Ramdas Pophale) SiO2 
 PCOD8237964
Probable space group: P N N M
;
_chemical_formula_sum "Si O2"
_cell_formula_units_Z 32
_cell_length_a 4.982105
_cell_length_b 13.071400
_cell_length_c 25.186230
_cell_angle_alpha 90.000000
_cell_angle_beta 90.000000
_cell_angle_gamma 90.000000
_cell_volume 1640.205055
_symmetry_space_group_name_H-M "P N N M"
_symmetry_group_IT_number 58
_symmetry_cell_setting 'orthorhombic'
loop_
_space_group_symop_operation_xyz
x,y,z
-x,-y,z
1/2+x,1/2-y,1/2-z
1/2-x,1/2+y,1/2-z
-x,-y,-z
x,y,-z
1/2-x,1/2+y,1/2+z
1/2+x,1/2-y,1/2+z
loop_
_atom_site_type_symbol
_atom_site_label
_atom_site_fract_x
_atom_site_fract_y
_atom_site_fract_z
Si Si1 0.255984 0.933908 0.680017
Si Si2 0.665315 0.293437 0.654781
Si Si3 0.366106 0.895869 0.800707
Si Si4 0.758465 0.930668 0.059483
O O1 0.313919 0.828042 0.650018
O O2 0.248089 0.918313 0.743229
O O3 0.500000 0.000000 0.660739
O O4 0.000000 0.000000 0.661894
O O5 0.372115 0.342346 0.665798
O O6 0.776564 0.335042 0.598818
O O7 0.877943 0.320358 0.701851
O O8 0.500000 0.000000 0.826475
O O9 0.500000 0.000000 0.059267
O O10 0.817889 0.888891 0.000000
O O11 0.000000 0.000000 0.080779
#
# Coordination Sequence:
#
# PCOD8237964 Si02
#       4
#     8   8   8   8
#     4  11  23  37  51  75 111 146 182 221 255 301
#     4  12  21  35  57  78 106 145 181 213 265 322
#     4  11  21  34  54  82 110 138 176 220 267 320
#     4  10  21  36  55  81 108 131 164 216 273 323
#
# _framework density 19.509754999999998
#
# number of rings (size 3 to 8) (size 9 to 14) (size 15 to 20)
#    0.000    1.000    0.000   10.500    0.000    0.000 
#    0.000    0.000    0.000    1.500    0.000    0.000 
#    0.000    0.000    0.000    0.000    0.000    0.000 
#
# Total GULP energy -396568.804264 kJ/mol
# GULP energy per Si atom -12392.775133 kJ/mol
# Density = 1.946535 g / cm^3
# Si number density = 19.509755 Si / 1000 Ang^3
#
#
#
# Elastic Constant Matrix: (Units=GPa)
#
#
# Indices 1 2 3 4 5 6 
#
# 1 148.1347 64.5689 14.4459 0.0000 0.0000 0.0000
# 2 64.5689 169.1570 49.4363 0.0000 0.0000 0.0000
# 3 14.4459 49.4363 51.2345 0.0000 0.0000 0.0000
# 4 0.0000 0.0000 0.0000 21.8180 0.0000 0.0000
# 5 0.0000 0.0000 0.0000 0.0000 18.7112 0.0000
# 6 0.0000 0.0000 0.0000 0.0000 0.0000 39.9890
#
#
#
# Elastic Compliance Matrix: (Units=1/GPa)
#
#
# Indices 1 2 3 4 5 6 
#
# 1 0.008133 -0.003390 0.000978 0.000000 0.000000 0.000000
# 2 -0.003390 0.009647 -0.008352 0.000000 0.000000 0.000000
# 3 0.000978 -0.008352 0.027301 0.000000 0.000000 0.000000
# 4 0.000000 0.000000 0.000000 0.045834 0.000000 0.000000
# 5 0.000000 0.000000 0.000000 0.000000 0.053444 0.000000
# 6 0.000000 0.000000 0.000000 0.000000 0.000000 0.025007
#
#
# Mechanical properties :
#
#
# Convention : Reuss Voigt Hill
#
# Bulk Modulus (GPa) = 42.45858 69.49206 55.97532
# Shear Modulus (GPa) = 25.15782 32.10863 28.63323
#
# Velocity S-wave (km/s) = 3.59486 4.06121 3.83513
# Velocity P-wave (km/s) = 6.24825 7.59524 6.95444
#
# Compressibility (1/GPa) = 0.02355236
#
# Stress axis : x y z
#
# Youngs Moduli (GPa) = 122.95596 103.66200 36.62813
#
# Poissons Ratio (x) = 0.35145 -0.03583
# Poissons Ratio (y) = 0.41686 0.30593
# Poissons Ratio (z) = -0.12027 0.86581
#
# Static dielectric constant tensor:
#      x y z
#    x 3.790330 0.000000 0.000000 
#    y 0.000000 3.561310 0.000000 
#    z 0.000000 0.000000 3.407660 
# 
# 
# High freq. dielectric constant tensor:
#      x y z
#    x 1.787780 0.000000 0.000000 
#    y 0.000000 1.756010 0.000000 
#    z 0.000000 0.000000 1.721810 
# 
# From -- ./inp_files/30766.got.cif
#   From: 2010.06.25/outbox.cif.g09.slc.cpg/sg58_16_cif.got.tgz:30766.got - 2010.06.26 21:38:00.
