data_PCOD8237908
_publ_section_title
;
Structure prediction by ZEFSAII (Michael W. Deem and Ramdas Pophale) SiO2 
 PCOD8237908
Probable space group: P N N M
;
_chemical_formula_sum "Si O2"
_cell_formula_units_Z 64
_cell_length_a 39.986091
_cell_length_b 9.974981
_cell_length_c 9.024168
_cell_angle_alpha 90.000000
_cell_angle_beta 90.000000
_cell_angle_gamma 90.000000
_cell_volume 3599.384142
_symmetry_space_group_name_H-M "P N N M"
_symmetry_group_IT_number 58
_symmetry_cell_setting 'orthorhombic'
loop_
_space_group_symop_operation_xyz
x,y,z
-x,-y,z
1/2+x,1/2-y,1/2-z
1/2-x,1/2+y,1/2-z
-x,-y,-z
x,y,-z
1/2-x,1/2+y,1/2+z
1/2+x,1/2-y,1/2+z
loop_
_atom_site_type_symbol
_atom_site_label
_atom_site_fract_x
_atom_site_fract_y
_atom_site_fract_z
Si Si1 0.970708 0.597871 0.824604
Si Si2 0.727946 0.607922 0.669243
Si Si3 0.026624 0.101665 0.174302
Si Si4 0.898425 0.887247 0.825126
Si Si5 0.402168 0.890466 0.173683
Si Si6 0.153950 0.606678 0.673075
Si Si7 0.151079 0.881260 0.171719
Si Si8 0.777385 0.413298 0.172854
O O1 0.981077 0.747173 0.773386
O O2 0.936414 0.556045 0.745699
O O3 0.000000 0.500000 0.771341
O O4 0.964728 0.589899 0.000000
O O5 0.737941 0.576275 0.500000
O O6 0.689197 0.574435 0.697701
O O7 0.749174 0.516738 0.778457
O O8 0.735061 0.762956 0.708195
O O9 0.064426 0.062120 0.218986
O O10 0.022304 0.093246 0.000000
O O11 0.000000 0.000000 0.250287
O O12 0.890016 0.749454 0.742893
O O13 0.872381 0.999026 0.770991
O O14 0.895818 0.860143 0.000000
O O15 0.374167 0.998979 0.210776
O O16 0.407590 0.871009 0.000000
O O17 0.159821 0.624065 0.500000
O O18 0.142110 0.748390 0.738221
O O19 0.188310 0.554602 0.743747
O O20 0.144449 0.849307 0.000000
O O21 0.784617 0.429571 0.000000
#
# Coordination Sequence:
#
# PCOD8237908 Si02
#       8
#     8   8   8   8   8   8   8   8
#     4   9  18  32  51  74  98 129 170 211 252 299
#     4   9  19  35  52  75 106 133 165 210 256 305
#     4   8  14  26  45  70  98 125 157 201 248 290
#     4   9  18  33  53  76 102 133 171 213 253 298
#     4  10  21  35  51  74 105 139 172 208 253 303
#     4  10  21  36  53  75 104 137 172 210 253 301
#     4   9  19  35  54  77 103 133 171 214 258 304
#     4  10  21  36  55  78 102 133 172 210 253 304
#
# _framework density 17.780819000000001
#
# number of rings (size 3 to 8) (size 9 to 14) (size 15 to 20)
#    0.000    2.750    0.000    2.625    0.000    7.250 
#    0.000    5.000    0.000    6.000    0.000    0.000 
#    0.000    0.000    0.000    0.000    0.000    0.000 
#
# Total GULP energy -793628.401617 kJ/mol
# GULP energy per Si atom -12400.443775 kJ/mol
# Density = 1.774035 g / cm^3
# Si number density = 17.780819 Si / 1000 Ang^3
#
#
#
# Elastic Constant Matrix: (Units=GPa)
#
#
# Indices 1 2 3 4 5 6 
#
# 1 161.2738 234.7509 119.8581 0.0000 0.0000 0.0000
# 2 234.7509 645.1367 301.4083 0.0000 0.0000 0.0000
# 3 119.8581 301.4083 178.0014 0.0000 0.0000 0.0000
# 4 0.0000 0.0000 0.0000 26.9082 0.0000 0.0000
# 5 0.0000 0.0000 0.0000 0.0000 24.7285 0.0000
# 6 0.0000 0.0000 0.0000 0.0000 0.0000 37.9269
#
#
#
# Elastic Compliance Matrix: (Units=1/GPa)
#
#
# Indices 1 2 3 4 5 6 
#
# 1 0.013686 -0.003229 -0.003748 0.000000 0.000000 0.000000
# 2 -0.003229 0.008182 -0.011681 0.000000 0.000000 0.000000
# 3 -0.003748 -0.011681 0.027920 0.000000 0.000000 0.000000
# 4 0.000000 0.000000 0.000000 0.037163 0.000000 0.000000
# 5 0.000000 0.000000 0.000000 0.000000 0.040439 0.000000
# 6 0.000000 0.000000 0.000000 0.000000 0.000000 0.026366
#
#
# Mechanical properties :
#
#
# Convention : Reuss Voigt Hill
#
# Bulk Modulus (GPa) = 80.16916 255.16073 167.66495
# Shear Modulus (GPa) = 25.61067 39.80570 32.70818
#
# Velocity S-wave (km/s) = 3.79932 4.73661 4.29362
# Velocity P-wave (km/s) = 8.02694 13.18062 10.91239
#
# Compressibility (1/GPa) = 0.01247362
#
# Stress axis : x y z
#
# Youngs Moduli (GPa) = 73.06480 122.21591 35.81637
#
# Poissons Ratio (x) = 0.39466 0.13424
# Poissons Ratio (y) = 0.23594 0.41835
# Poissons Ratio (z) = 0.27384 1.42755
#
# Static dielectric constant tensor:
#      x y z
#    x 3.411260 0.000000 0.000000 
#    y 0.000000 3.406040 0.000000 
#    z 0.000000 0.000000 3.157560 
# 
# 
# High freq. dielectric constant tensor:
#      x y z
#    x 1.692040 0.000000 0.000000 
#    y 0.000000 1.690170 0.000000 
#    z 0.000000 0.000000 1.676200 
# 
# From -- ./inp_files/10949.got.cif
#   From: 2010.06.25/outbox.cif.g09.slc.cpg/sg58_6_cif.got.tgz:10949.got - 2010.06.26 21:38:00.
