data_PCOD8237376
_publ_section_title
;
Structure prediction by ZEFSAII (Michael W. Deem and Ramdas Pophale) SiO2 
 PCOD8237376
Probable space group: P N N M
;
_chemical_formula_sum "Si O2"
_cell_formula_units_Z 56
_cell_length_a 24.651392
_cell_length_b 14.116510
_cell_length_c 9.091581
_cell_angle_alpha 90.000000
_cell_angle_beta 90.000000
_cell_angle_gamma 90.000000
_cell_volume 3163.794016
_symmetry_space_group_name_H-M "P N N M"
_symmetry_group_IT_number 58
_symmetry_cell_setting 'orthorhombic'
loop_
_space_group_symop_operation_xyz
x,y,z
-x,-y,z
1/2+x,1/2-y,1/2-z
1/2-x,1/2+y,1/2-z
-x,-y,-z
x,y,-z
1/2-x,1/2+y,1/2+z
1/2+x,1/2-y,1/2+z
loop_
_atom_site_type_symbol
_atom_site_label
_atom_site_fract_x
_atom_site_fract_y
_atom_site_fract_z
Si Si1 0.391470 0.150014 0.333794
Si Si2 0.285640 0.257954 0.328180
Si Si3 0.107941 0.297818 0.326825
Si Si4 0.496478 0.108286 0.826043
Si Si5 0.333907 0.958188 0.665642
Si Si6 0.182244 0.167795 0.169797
Si Si7 0.730069 0.526532 0.666652
O O1 0.403609 0.182984 0.500000
O O2 0.340939 0.209468 0.269339
O O3 0.445168 0.165112 0.237553
O O4 0.378938 0.038830 0.327667
O O5 0.276936 0.233686 0.500000
O O6 0.234469 0.219149 0.239464
O O7 0.293807 0.369836 0.300289
O O8 0.110669 0.284091 0.500000
O O9 0.151998 0.375349 0.278677
O O10 0.126336 0.200545 0.248552
O O11 0.048877 0.332138 0.274126
O O12 0.500000 0.000000 0.766647
O O13 0.491430 0.106706 0.000000
O O14 0.328710 0.918377 0.500000
O O15 0.276993 0.000895 0.718707
O O16 0.184414 0.054045 0.189013
O O17 0.180075 0.197340 0.000000
O O18 0.752922 0.521748 0.500000
#
# Coordination Sequence:
#
# PCOD8237376 Si02
#       7
#     8   8   8   8   8   8   8
#     4  10  21  34  52  79 110 141 175 218 266 314
#     4  10  20  36  54  76 107 145 177 212 267 320
#     4  11  22  36  53  75 107 147 179 215 268 320
#     4  10  21  36  54  76 104 140 180 216 263 325
#     4  11  20  30  50  82 112 139 176 217 258 315
#     4  11  22  34  52  81 108 139 181 221 260 314
#     4  10  21  35  53  76 109 147 178 212 262 318
#
# _framework density 17.700267
#
# number of rings (size 3 to 8) (size 9 to 14) (size 15 to 20)
#    0.000    1.571    4.286    1.286    0.000    3.143 
#    0.000    0.000    0.000    0.857    0.000    6.000 
#    0.000    0.000    0.000    0.000    0.000    0.000 
#
# Total GULP energy -694403.224574 kJ/mol
# GULP energy per Si atom -12400.057582 kJ/mol
# Density = 1.765998 g / cm^3
# Si number density = 17.700267 Si / 1000 Ang^3
#
#
#
# Elastic Constant Matrix: (Units=GPa)
#
#
# Indices 1 2 3 4 5 6 
#
# 1 93.5022 22.1534 34.1888 0.0000 0.0000 0.0000
# 2 22.1534 73.3923 22.5658 0.0000 0.0000 0.0000
# 3 34.1888 22.5658 56.7275 0.0000 0.0000 0.0000
# 4 0.0000 0.0000 0.0000 23.1419 0.0000 0.0000
# 5 0.0000 0.0000 0.0000 0.0000 31.0889 0.0000
# 6 0.0000 0.0000 0.0000 0.0000 0.0000 29.2322
#
#
#
# Elastic Compliance Matrix: (Units=1/GPa)
#
#
# Indices 1 2 3 4 5 6 
#
# 1 0.013935 -0.001850 -0.007662 0.000000 0.000000 0.000000
# 2 -0.001850 0.015770 -0.005158 0.000000 0.000000 0.000000
# 3 -0.007662 -0.005158 0.024298 0.000000 0.000000 0.000000
# 4 0.000000 0.000000 0.000000 0.043212 0.000000 0.000000
# 5 0.000000 0.000000 0.000000 0.000000 0.032166 0.000000
# 6 0.000000 0.000000 0.000000 0.000000 0.000000 0.034209
#
#
# Mechanical properties :
#
#
# Convention : Reuss Voigt Hill
#
# Bulk Modulus (GPa) = 40.54909 42.38198 41.46553
# Shear Modulus (GPa) = 24.85693 26.34020 25.59856
#
# Velocity S-wave (km/s) = 3.75150 3.86181 3.80705
# Velocity P-wave (km/s) = 6.45937 6.62427 6.54234
#
# Compressibility (1/GPa) = 0.02466147
#
# Stress axis : x y z
#
# Youngs Moduli (GPa) = 71.76138 63.41221 41.15573
#
# Poissons Ratio (x) = 0.11733 0.31535
# Poissons Ratio (y) = 0.13278 0.21228
# Poissons Ratio (z) = 0.54987 0.32708
#
# Static dielectric constant tensor:
#      x y z
#    x 3.237230 0.000000 0.000000 
#    y 0.000000 3.341740 0.000000 
#    z 0.000000 0.000000 3.291890 
# 
# 
# High freq. dielectric constant tensor:
#      x y z
#    x 1.667890 0.000000 0.000000 
#    y 0.000000 1.674840 0.000000 
#    z 0.000000 0.000000 1.688340 
# 
# From -- ./inp_files/10124.got.cif
#   From: 2010.06.25/outbox.cif.g09.slc.cpg/sg58_6_cif.got.tgz:10124.got - 2010.06.26 21:38:00.
