data_PCOD8237055
_publ_section_title
;
Structure prediction by ZEFSAII (Michael W. Deem and Ramdas Pophale) SiO2 
 PCOD8237055
Probable space group: P N N M
;
_chemical_formula_sum "Si O2"
_cell_formula_units_Z 64
_cell_length_a 22.115392
_cell_length_b 15.947682
_cell_length_c 9.324592
_cell_angle_alpha 90.000000
_cell_angle_beta 90.000000
_cell_angle_gamma 90.000000
_cell_volume 3288.683256
_symmetry_space_group_name_H-M "P N N M"
_symmetry_group_IT_number 58
_symmetry_cell_setting 'orthorhombic'
loop_
_space_group_symop_operation_xyz
x,y,z
-x,-y,z
1/2+x,1/2-y,1/2-z
1/2-x,1/2+y,1/2-z
-x,-y,-z
x,y,-z
1/2-x,1/2+y,1/2+z
1/2+x,1/2-y,1/2+z
loop_
_atom_site_type_symbol
_atom_site_label
_atom_site_fract_x
_atom_site_fract_y
_atom_site_fract_z
Si Si1 0.673337 0.091783 0.161993
Si Si2 0.280281 0.720556 0.160683
Si Si3 0.987725 0.907782 0.839133
Si Si4 0.464696 0.917634 0.829474
Si Si5 0.712976 0.551950 0.836387
Si Si6 0.967560 0.251019 0.333473
Si Si7 0.652631 0.412562 0.660269
Si Si8 0.828596 0.240087 0.339386
O O1 0.690531 0.188541 0.162301
O O2 0.605191 0.079324 0.221944
O O3 0.720782 0.044179 0.263840
O O4 0.678091 0.055761 0.000000
O O5 0.319671 0.668497 0.268821
O O6 0.211936 0.715948 0.219010
O O7 0.280531 0.683356 0.000000
O O8 0.917249 0.892972 0.844678
O O9 0.016576 0.834716 0.745605
O O10 0.015800 0.904032 0.000000
O O11 0.000000 0.000000 0.771778
O O12 0.496253 0.831976 0.771912
O O13 0.500000 0.000000 0.770453
O O14 0.467733 0.916289 0.000000
O O15 0.666147 0.493307 0.754936
O O16 0.681411 0.641286 0.824985
O O17 0.720831 0.523019 0.000000
O O18 0.982953 0.237388 0.500000
O O19 0.896840 0.267659 0.309125
O O20 0.678398 0.425977 0.500000
O O21 0.809592 0.268643 0.500000
#
# Coordination Sequence:
#
# PCOD8237055 Si02
#       8
#     8   8   8   8   8   8   8   8
#     4   9  18  34  55  77 102 137 178 218 268 323
#     4  10  20  34  54  79 107 139 178 225 272 325
#     4  10  22  38  56  81 113 148 185 227 279 339
#     4   9  18  33  54  80 108 140 182 228 270 318
#     4  10  20  34  53  77 106 138 174 221 272 323
#     4  10  20  35  57  83 112 149 190 230 272 323
#     4  11  22  35  53  78 108 141 179 222 273 332
#     4   9  19  35  54  79 109 141 180 224 273 327
#
# _framework density 19.460674999999998
#
# number of rings (size 3 to 8) (size 9 to 14) (size 15 to 20)
#    0.000    2.250    0.000    2.625    0.000    4.750 
#    0.000    3.125    0.000    1.500    0.000    0.000 
#    0.000    0.000    0.000    0.000    0.000    0.000 
#
# Total GULP energy -793488.295249 kJ/mol
# GULP energy per Si atom -12398.254613 kJ/mol
# Density = 1.941638 g / cm^3
# Si number density = 19.460675 Si / 1000 Ang^3
#
#
#
# Elastic Constant Matrix: (Units=GPa)
#
#
# Indices 1 2 3 4 5 6 
#
# 1 63.2179 4.4484 22.7862 0.0000 0.0000 0.0000
# 2 4.4484 61.9163 21.1249 0.0000 0.0000 0.0000
# 3 22.7862 21.1249 90.9310 0.0000 0.0000 0.0000
# 4 0.0000 0.0000 0.0000 31.2391 0.0000 0.0000
# 5 0.0000 0.0000 0.0000 0.0000 38.5129 0.0000
# 6 0.0000 0.0000 0.0000 0.0000 0.0000 25.6668
#
#
#
# Elastic Compliance Matrix: (Units=1/GPa)
#
#
# Indices 1 2 3 4 5 6 
#
# 1 0.017393 0.000258 -0.004418 0.000000 0.000000 0.000000
# 2 0.000258 0.017545 -0.004141 0.000000 0.000000 0.000000
# 3 -0.004418 -0.004141 0.013066 0.000000 0.000000 0.000000
# 4 0.000000 0.000000 0.000000 0.032011 0.000000 0.000000
# 5 0.000000 0.000000 0.000000 0.000000 0.025965 0.000000
# 6 0.000000 0.000000 0.000000 0.000000 0.000000 0.038961
#
#
# Mechanical properties :
#
#
# Convention : Reuss Voigt Hill
#
# Bulk Modulus (GPa) = 31.84510 34.75382 33.29946
# Shear Modulus (GPa) = 29.06789 30.26412 29.66601
#
# Velocity S-wave (km/s) = 3.86900 3.94781 3.90860
# Velocity P-wave (km/s) = 6.02978 6.21912 6.12518
#
# Compressibility (1/GPa) = 0.03140201
#
# Stress axis : x y z
#
# Youngs Moduli (GPa) = 57.49543 56.99622 76.53175
#
# Poissons Ratio (x) = -0.01470 0.33814
# Poissons Ratio (y) = -0.01483 0.31689
# Poissons Ratio (z) = 0.25403 0.23600
#
# Static dielectric constant tensor:
#      x y z
#    x 3.624300 0.000000 0.000000 
#    y 0.000000 3.576740 0.000000 
#    z 0.000000 0.000000 3.668970 
# 
# 
# High freq. dielectric constant tensor:
#      x y z
#    x 1.766220 0.000000 0.000000 
#    y 0.000000 1.754650 0.000000 
#    z 0.000000 0.000000 1.745710 
# 
# From -- ./inp_files/10097.got.cif
#   From: 2010.06.25/outbox.cif.g09.slc.cpg/sg58_6_cif.got.tgz:10097.got - 2010.06.26 21:38:00.
