data_PCOD8237189
_publ_section_title
;
Structure prediction by ZEFSAII (Michael W. Deem and Ramdas Pophale) SiO2 
 PCOD8237189
Probable space group: P N N M
;
_chemical_formula_sum "Si O2"
_cell_formula_units_Z 48
_cell_length_a 16.199448
_cell_length_b 8.626401
_cell_length_c 18.685619
_cell_angle_alpha 90.000000
_cell_angle_beta 90.000000
_cell_angle_gamma 90.000000
_cell_volume 2611.183231
_symmetry_space_group_name_H-M "P N N M"
_symmetry_group_IT_number 58
_symmetry_cell_setting 'orthorhombic'
loop_
_space_group_symop_operation_xyz
x,y,z
-x,-y,z
1/2+x,1/2-y,1/2-z
1/2-x,1/2+y,1/2-z
-x,-y,-z
x,y,-z
1/2-x,1/2+y,1/2+z
1/2+x,1/2-y,1/2+z
loop_
_atom_site_type_symbol
_atom_site_label
_atom_site_fract_x
_atom_site_fract_y
_atom_site_fract_z
Si Si1 0.469678 0.670468 0.215704
Si Si2 0.226010 0.373460 0.320451
Si Si3 0.647493 0.346767 0.083008
Si Si4 0.684129 0.322024 0.694565
Si Si5 0.420975 0.089660 0.843791
Si Si6 0.294994 0.307108 0.918639
O O1 0.500000 0.500000 0.229319
O O2 0.428520 0.682809 0.136609
O O3 0.409770 0.707653 0.282549
O O4 0.544765 0.792710 0.217072
O O5 0.218184 0.280253 0.396183
O O6 0.301041 0.494525 0.318573
O O7 0.240998 0.245020 0.259020
O O8 0.139797 0.466245 0.306278
O O9 0.678575 0.518922 0.098879
O O10 0.621179 0.325418 0.000000
O O11 0.710887 0.230010 0.623889
O O12 0.369388 0.187882 0.901853
O O13 0.500000 0.000000 0.878840
O O14 0.270344 0.286748 0.000000
#
# Coordination Sequence:
#
# PCOD8237189 Si02
#       6
#     8   8   8   8   8   8
#     4  11  21  36  54  81 116 146 183 225 277 334
#     4  10  21  33  54  76 110 145 186 229 266 335
#     4  10  20  35  53  78 112 150 182 218 273 332
#     4  10  20  35  53  78 108 146 186 230 274 320
#     4  11  20  35  51  84 110 145 179 220 277 334
#     4  10  22  37  55  77 110 150 186 226 276 332
#
# _framework density 18.382470999999999
#
# number of rings (size 3 to 8) (size 9 to 14) (size 15 to 20)
#    0.000    1.667    5.000    2.000    2.333    4.000 
#    0.000    0.000    0.000    0.500    0.000    2.333 
#    0.000    0.000    0.000    0.000    0.000    0.000 
#
# Total GULP energy -594760.689265 kJ/mol
# GULP energy per Si atom -12390.847693 kJ/mol
# Density = 1.834063 g / cm^3
# Si number density = 18.382471 Si / 1000 Ang^3
#
#
#
# Elastic Constant Matrix: (Units=GPa)
#
#
# Indices 1 2 3 4 5 6 
#
# 1 48.4316 23.7814 41.4997 0.0000 0.0000 0.0000
# 2 23.7814 112.1273 34.6135 0.0000 0.0000 0.0000
# 3 41.4997 34.6135 72.1745 0.0000 0.0000 0.0000
# 4 0.0000 0.0000 0.0000 25.6428 0.0000 0.0000
# 5 0.0000 0.0000 0.0000 0.0000 27.6111 0.0000
# 6 0.0000 0.0000 0.0000 0.0000 0.0000 33.5638
#
#
#
# Elastic Compliance Matrix: (Units=1/GPa)
#
#
# Indices 1 2 3 4 5 6 
#
# 1 0.040963 -0.001663 -0.022756 0.000000 0.000000 0.000000
# 2 -0.001663 0.010536 -0.004096 0.000000 0.000000 0.000000
# 3 -0.022756 -0.004096 0.028904 0.000000 0.000000 0.000000
# 4 0.000000 0.000000 0.000000 0.038997 0.000000 0.000000
# 5 0.000000 0.000000 0.000000 0.000000 0.036217 0.000000
# 6 0.000000 0.000000 0.000000 0.000000 0.000000 0.029794
#
#
# Mechanical properties :
#
#
# Convention : Reuss Voigt Hill
#
# Bulk Modulus (GPa) = 42.78578 48.05808 45.42193
# Shear Modulus (GPa) = 19.98135 26.21947 23.10041
#
# Velocity S-wave (km/s) = 3.30051 3.78078 3.54878
# Velocity P-wave (km/s) = 6.15226 6.72750 6.44630
#
# Compressibility (1/GPa) = 0.02337225
#
# Stress axis : x y z
#
# Youngs Moduli (GPa) = 24.41215 94.91489 34.59705
#
# Poissons Ratio (x) = 0.15788 0.78728
# Poissons Ratio (y) = 0.04061 0.14172
# Poissons Ratio (z) = 0.55552 0.38880
#
# Static dielectric constant tensor:
#      x y z
#    x 3.271080 0.000000 0.000000 
#    y 0.000000 3.975270 0.000000 
#    z 0.000000 0.000000 3.166610 
# 
# 
# High freq. dielectric constant tensor:
#      x y z
#    x 1.682360 0.000000 0.000000 
#    y 0.000000 1.750860 0.000000 
#    z 0.000000 0.000000 1.677650 
# 
# From -- ./inp_files/19989.got.cif
#   From: 2010.06.25/outbox.cif.g09.slc.cpg/sg58_10_cif.got.tgz:19989.got - 2010.06.26 21:38:00.
