data_PCOD8237756
_publ_section_title
;
Structure prediction by ZEFSAII (Michael W. Deem and Ramdas Pophale) SiO2 
 PCOD8237756
Probable space group: P N N M
;
_chemical_formula_sum "Si O2"
_cell_formula_units_Z 48
_cell_length_a 9.838882
_cell_length_b 8.928561
_cell_length_c 28.010612
_cell_angle_alpha 90.000000
_cell_angle_beta 90.000000
_cell_angle_gamma 90.000000
_cell_volume 2460.649860
_symmetry_space_group_name_H-M "P N N M"
_symmetry_group_IT_number 58
_symmetry_cell_setting 'orthorhombic'
loop_
_space_group_symop_operation_xyz
x,y,z
-x,-y,z
1/2+x,1/2-y,1/2-z
1/2-x,1/2+y,1/2-z
-x,-y,-z
x,y,-z
1/2-x,1/2+y,1/2+z
1/2+x,1/2-y,1/2+z
loop_
_atom_site_type_symbol
_atom_site_label
_atom_site_fract_x
_atom_site_fract_y
_atom_site_fract_z
Si Si1 0.507978 0.676828 0.551518
Si Si2 0.268105 0.835231 0.895730
Si Si3 0.842203 0.822811 0.786979
Si Si4 0.655294 0.676067 0.292110
Si Si5 0.745935 0.314196 0.390302
Si Si6 0.513539 0.676483 0.054894
O O1 0.500000 0.500000 0.547943
O O2 0.475213 0.749666 0.500000
O O3 0.658605 0.724696 0.566422
O O4 0.403167 0.729159 0.591259
O O5 0.216071 0.786217 0.843830
O O6 0.406849 0.756358 0.910303
O O7 0.287077 0.013625 0.898590
O O8 0.757334 0.755823 0.743857
O O9 0.759622 0.774242 0.834413
O O10 0.999266 0.764652 0.787349
O O11 0.843298 0.000542 0.782374
O O12 0.843336 0.210821 0.421080
O O13 0.500000 0.500000 0.055596
O O14 0.505219 0.736244 0.000000
#
# Coordination Sequence:
#
# PCOD8237756 Si02
#       6
#     8   8   8   8   8   8
#     4   9  16  30  58  89 110 136 181 237 292 339
#     4  10  20  38  62  87 115 149 194 245 289 341
#     4  10  22  40  61  88 120 152 192 241 293 348
#     4  10  22  40  61  88 120 152 192 241 293 348
#     4  10  20  38  62  87 115 149 194 245 289 341
#     4  11  25  41  56  83 124 162 195 237 292 351
#
# _framework density 19.507041000000001
#
# number of rings (size 3 to 8) (size 9 to 14) (size 15 to 20)
#    0.000    2.000    1.667    1.500    2.333    4.667 
#    0.000    0.833    0.000    3.000    0.000    0.000 
#    0.000    0.000    0.000    0.000    0.000    0.000 
#
# Total GULP energy -595030.056591 kJ/mol
# GULP energy per Si atom -12396.459512 kJ/mol
# Density = 1.946264 g / cm^3
# Si number density = 19.507041 Si / 1000 Ang^3
#
#
#
# Elastic Constant Matrix: (Units=GPa)
#
#
# Indices 1 2 3 4 5 6 
#
# 1 93.3767 22.7832 45.1066 0.0000 0.0000 0.0000
# 2 22.7832 32.7130 34.4440 0.0000 0.0000 0.0000
# 3 45.1066 34.4440 133.0584 0.0000 0.0000 0.0000
# 4 0.0000 0.0000 0.0000 11.0533 0.0000 0.0000
# 5 0.0000 0.0000 0.0000 0.0000 28.4550 0.0000
# 6 0.0000 0.0000 0.0000 0.0000 0.0000 21.8273
#
#
#
# Elastic Compliance Matrix: (Units=1/GPa)
#
#
# Indices 1 2 3 4 5 6 
#
# 1 0.013717 -0.006402 -0.002993 0.000000 0.000000 0.000000
# 2 -0.006402 0.045011 -0.009481 0.000000 0.000000 0.000000
# 3 -0.002993 -0.009481 0.010984 0.000000 0.000000 0.000000
# 4 0.000000 0.000000 0.000000 0.090471 0.000000 0.000000
# 5 0.000000 0.000000 0.000000 0.000000 0.035143 0.000000
# 6 0.000000 0.000000 0.000000 0.000000 0.000000 0.045814
#
#
# Mechanical properties :
#
#
# Convention : Reuss Voigt Hill
#
# Bulk Modulus (GPa) = 31.28946 51.53506 41.41226
# Shear Modulus (GPa) = 17.26839 22.72140 19.99490
#
# Velocity S-wave (km/s) = 2.97852 3.41659 3.20505
# Velocity P-wave (km/s) = 5.28240 6.48384 5.91371
#
# Compressibility (1/GPa) = 0.03195964
#
# Stress axis : x y z
#
# Youngs Moduli (GPa) = 72.90171 22.21691 91.03822
#
# Poissons Ratio (x) = 0.14224 0.27246
# Poissons Ratio (y) = 0.46674 0.86316
# Poissons Ratio (z) = 0.21818 0.21064
#
# Static dielectric constant tensor:
#      x y z
#    x 3.791240 0.000000 0.000000 
#    y 0.000000 3.224350 0.000000 
#    z 0.000000 0.000000 3.853080 
# 
# 
# High freq. dielectric constant tensor:
#      x y z
#    x 1.773410 0.000000 0.000000 
#    y 0.000000 1.725740 0.000000 
#    z 0.000000 0.000000 1.778300 
# 
# From -- ./inp_files/4333.got.cif
#   From: 2010.06.25/outbox.cif.g09.slc.cpg/sg58_3_cif.got.tgz:4333.got - 2010.06.26 21:38:00.
