data_PCOD8237434
_publ_section_title
;
Structure prediction by ZEFSAII (Michael W. Deem and Ramdas Pophale) SiO2 
 PCOD8237434
Probable space group: P N N M
;
_chemical_formula_sum "Si O2"
_cell_formula_units_Z 48
_cell_length_a 13.871145
_cell_length_b 20.207819
_cell_length_c 9.077558
_cell_angle_alpha 90.000000
_cell_angle_beta 90.000000
_cell_angle_gamma 90.000000
_cell_volume 2544.490228
_symmetry_space_group_name_H-M "P N N M"
_symmetry_group_IT_number 58
_symmetry_cell_setting 'orthorhombic'
loop_
_space_group_symop_operation_xyz
x,y,z
-x,-y,z
1/2+x,1/2-y,1/2-z
1/2-x,1/2+y,1/2-z
-x,-y,-z
x,y,-z
1/2-x,1/2+y,1/2+z
1/2+x,1/2-y,1/2+z
loop_
_atom_site_type_symbol
_atom_site_label
_atom_site_fract_x
_atom_site_fract_y
_atom_site_fract_z
Si Si1 0.539419 0.677818 0.829218
Si Si2 0.940973 0.684024 0.328175
Si Si3 0.254119 0.859756 0.327935
Si Si4 0.067841 0.562451 0.664992
Si Si5 0.433360 0.561095 0.327236
Si Si6 0.251918 0.011054 0.326123
O O1 0.498278 0.749523 0.790416
O O2 0.652912 0.675622 0.791396
O O3 0.483285 0.627518 0.726391
O O4 0.522839 0.659016 0.000000
O O5 0.919940 0.676596 0.500000
O O6 0.837740 0.682566 0.248897
O O7 0.007546 0.624106 0.272074
O O8 0.276247 0.859909 0.500000
O O9 0.252152 0.935300 0.268019
O O10 0.108280 0.577496 0.500000
O O11 0.151839 0.548699 0.780037
O O12 0.000000 0.500000 0.657821
O O13 0.500000 0.500000 0.283035
O O14 0.414654 0.565420 0.500000
O O15 0.332926 0.552614 0.246036
O O16 0.239289 0.012922 0.500000
#
# Coordination Sequence:
#
# PCOD8237434 Si02
#       6
#     8   8   8   8   8   8
#     4  10  22  41  61  85 119 158 197 241 297 358
#     4  10  22  39  61  87 119 158 199 243 297 356
#     4  10  21  37  59  85 118 158 197 244 301 353
#     4  10  20  36  58  86 120 155 194 246 297 347
#     4  11  23  38  60  89 117 150 195 245 294 350
#     4  11  22  36  60  90 119 156 200 247 295 352
#
# _framework density 18.864291000000001
#
# number of rings (size 3 to 8) (size 9 to 14) (size 15 to 20)
#    0.000    1.667    3.333    1.000    0.000    5.000 
#    0.000    1.667    0.000    0.000    0.000    0.000 
#    0.000    0.000    0.000    0.000    0.000    0.000 
#
# Total GULP energy -595407.569485 kJ/mol
# GULP energy per Si atom -12404.324364 kJ/mol
# Density = 1.882135 g / cm^3
# Si number density = 18.864291 Si / 1000 Ang^3
#
#
#
# Elastic Constant Matrix: (Units=GPa)
#
#
# Indices 1 2 3 4 5 6 
#
# 1 142.1003 65.1534 47.2780 0.0000 0.0000 0.0000
# 2 65.1534 119.1568 38.5061 0.0000 0.0000 0.0000
# 3 47.2780 38.5061 49.2815 0.0000 0.0000 0.0000
# 4 0.0000 0.0000 0.0000 28.7025 0.0000 0.0000
# 5 0.0000 0.0000 0.0000 0.0000 37.0374 0.0000
# 6 0.0000 0.0000 0.0000 0.0000 0.0000 34.3413
#
#
#
# Elastic Compliance Matrix: (Units=1/GPa)
#
#
# Indices 1 2 3 4 5 6 
#
# 1 0.011388 -0.003607 -0.008107 0.000000 0.000000 0.000000
# 2 -0.003607 0.012370 -0.006204 0.000000 0.000000 0.000000
# 3 -0.008107 -0.006204 0.032917 0.000000 0.000000 0.000000
# 4 0.000000 0.000000 0.000000 0.034840 0.000000 0.000000
# 5 0.000000 0.000000 0.000000 0.000000 0.027000 0.000000
# 6 0.000000 0.000000 0.000000 0.000000 0.000000 0.029119
#
#
# Mechanical properties :
#
#
# Convention : Reuss Voigt Hill
#
# Bulk Modulus (GPa) = 47.99006 68.04594 58.01800
# Shear Modulus (GPa) = 26.25808 30.65631 28.45720
#
# Velocity S-wave (km/s) = 3.73493 4.03562 3.88818
# Velocity P-wave (km/s) = 6.64036 7.60688 7.13999
#
# Compressibility (1/GPa) = 0.02083765
#
# Stress axis : x y z
#
# Youngs Moduli (GPa) = 87.80802 80.84260 30.37964
#
# Poissons Ratio (x) = 0.29162 0.24629
# Poissons Ratio (y) = 0.31675 0.18849
# Poissons Ratio (z) = 0.71185 0.50158
#
# Static dielectric constant tensor:
#      x y z
#    x 3.571200 0.000000 0.000000 
#    y 0.000000 3.517340 0.000000 
#    z 0.000000 0.000000 3.430350 
# 
# 
# High freq. dielectric constant tensor:
#      x y z
#    x 1.743320 0.000000 0.000000 
#    y 0.000000 1.733240 0.000000 
#    z 0.000000 0.000000 1.729140 
# 
# From -- ./inp_files/5856.got.cif
#   From: 2010.06.25/outbox.cif.g09.slc.cpg/sg58_3_cif.got.tgz:5856.got - 2010.06.26 21:38:00.
