data_PCOD8237938
_publ_section_title
;
Structure prediction by ZEFSAII (Michael W. Deem and Ramdas Pophale) SiO2 
 PCOD8237938
Probable space group: P N N M
;
_chemical_formula_sum "Si O2"
_cell_formula_units_Z 32
_cell_length_a 8.643582
_cell_length_b 5.212177
_cell_length_c 31.680742
_cell_angle_alpha 90.000000
_cell_angle_beta 90.000000
_cell_angle_gamma 90.000000
_cell_volume 1427.276965
_symmetry_space_group_name_H-M "P N N M"
_symmetry_group_IT_number 58
_symmetry_cell_setting 'orthorhombic'
loop_
_space_group_symop_operation_xyz
x,y,z
-x,-y,z
1/2+x,1/2-y,1/2-z
1/2-x,1/2+y,1/2-z
-x,-y,-z
x,y,-z
1/2-x,1/2+y,1/2+z
1/2+x,1/2-y,1/2+z
loop_
_atom_site_type_symbol
_atom_site_label
_atom_site_fract_x
_atom_site_fract_y
_atom_site_fract_z
Si Si1 0.816055 0.977741 0.452277
Si Si2 0.102627 0.249249 0.733486
Si Si3 0.817545 0.474788 0.593422
Si Si4 0.675305 0.469269 0.681586
O O1 0.760119 0.928666 0.500000
O O2 0.749580 0.248265 0.435850
O O3 0.749804 0.746525 0.423024
O O4 0.000000 0.000000 0.450003
O O5 0.248808 0.270701 0.701462
O O6 0.175397 0.241775 0.780695
O O7 0.000000 0.500000 0.726800
O O8 0.000000 0.000000 0.723473
O O9 0.774156 0.394900 0.640930
O O10 0.000000 0.500000 0.590144
O O11 0.500000 0.500000 0.666165
#
# Coordination Sequence:
#
# PCOD8237938 Si02
#       4
#     8   8   8   8
#     4   9  18  35  59  86 114 149 196 247 298 356
#     4  11  25  44  65  89 124 170 217 263 311 367
#     4  10  21  35  58  88 118 152 195 249 302 360
#     4  11  24  41  63  91 125 164 209 256 309 367
#
# _framework density 22.420318000000002
#
# number of rings (size 3 to 8) (size 9 to 14) (size 15 to 20)
#    0.000    1.750    0.000    4.500    0.000   14.000 
#    0.000    1.250    0.000    4.500    0.000    0.000 
#    0.000    0.000    0.000    0.000    0.000    0.000 
#
# Total GULP energy -396556.758211 kJ/mol
# GULP energy per Si atom -12392.398694 kJ/mol
# Density = 2.236929 g / cm^3
# Si number density = 22.420318 Si / 1000 Ang^3
#
#
#
# Elastic Constant Matrix: (Units=GPa)
#
#
# Indices 1 2 3 4 5 6 
#
# 1 43.6309 48.8814 13.8078 0.0000 0.0000 0.0000
# 2 48.8814 162.6943 51.0503 0.0000 0.0000 0.0000
# 3 13.8078 51.0503 130.7163 0.0000 0.0000 0.0000
# 4 0.0000 0.0000 0.0000 41.9269 0.0000 0.0000
# 5 0.0000 0.0000 0.0000 0.0000 12.7862 0.0000
# 6 0.0000 0.0000 0.0000 0.0000 0.0000 17.9494
#
#
#
# Elastic Compliance Matrix: (Units=1/GPa)
#
#
# Indices 1 2 3 4 5 6 
#
# 1 0.034573 -0.010532 0.000461 0.000000 0.000000 0.000000
# 2 -0.010532 0.010213 -0.002876 0.000000 0.000000 0.000000
# 3 0.000461 -0.002876 0.008725 0.000000 0.000000 0.000000
# 4 0.000000 0.000000 0.000000 0.023851 0.000000 0.000000
# 5 0.000000 0.000000 0.000000 0.000000 0.078209 0.000000
# 6 0.000000 0.000000 0.000000 0.000000 0.000000 0.055712
#
#
# Mechanical properties :
#
#
# Convention : Reuss Voigt Hill
#
# Bulk Modulus (GPa) = 36.20968 62.72451 49.46709
# Shear Modulus (GPa) = 20.29354 29.41930 24.85642
#
# Velocity S-wave (km/s) = 3.01182 3.62632 3.33326
# Velocity P-wave (km/s) = 5.31791 6.75063 6.07664
#
# Compressibility (1/GPa) = 0.02761693
#
# Stress axis : x y z
#
# Youngs Moduli (GPa) = 28.92411 97.91056 114.61680
#
# Poissons Ratio (x) = 1.03122 -0.05287
# Poissons Ratio (y) = 0.30464 0.32966
# Poissons Ratio (z) = -0.01334 0.28161
#
# Static dielectric constant tensor:
#      x y z
#    x 4.019530 0.000000 0.000000 
#    y 0.000000 4.771520 0.000000 
#    z 0.000000 0.000000 3.963600 
# 
# 
# High freq. dielectric constant tensor:
#      x y z
#    x 1.857330 0.000000 0.000000 
#    y 0.000000 1.886760 0.000000 
#    z 0.000000 0.000000 1.881370 
# 
# From -- ./inp_files/33956.got.cif
#   From: 2010.06.25/outbox.cif.g09.slc.cpg/sg58_17_cif.got.tgz:33956.got - 2010.06.26 21:38:00.
