data_PCOD8237940
_publ_section_title
;
Structure prediction by ZEFSAII (Michael W. Deem and Ramdas Pophale) SiO2 
 PCOD8237940
Probable space group: P N N M
;
_chemical_formula_sum "Si O2"
_cell_formula_units_Z 56
_cell_length_a 16.541429
_cell_length_b 5.161714
_cell_length_c 30.601295
_cell_angle_alpha 90.000000
_cell_angle_beta 90.000000
_cell_angle_gamma 90.000000
_cell_volume 2612.803615
_symmetry_space_group_name_H-M "P N N M"
_symmetry_group_IT_number 58
_symmetry_cell_setting 'orthorhombic'
loop_
_space_group_symop_operation_xyz
x,y,z
-x,-y,z
1/2+x,1/2-y,1/2-z
1/2-x,1/2+y,1/2-z
-x,-y,-z
x,y,-z
1/2-x,1/2+y,1/2+z
1/2+x,1/2-y,1/2+z
loop_
_atom_site_type_symbol
_atom_site_label
_atom_site_fract_x
_atom_site_fract_y
_atom_site_fract_z
Si Si1 0.141552 0.397253 0.655197
Si Si2 0.541132 0.249280 0.703200
Si Si3 0.469848 0.253354 0.607019
Si Si4 0.085002 0.891253 0.389737
Si Si5 0.265310 0.385364 0.051290
Si Si6 0.697671 0.165999 0.248754
Si Si7 0.708779 0.606697 0.596313
O O1 0.080584 0.617413 0.636296
O O2 0.144716 0.421073 0.707222
O O3 0.231841 0.438858 0.636856
O O4 0.115250 0.107981 0.643753
O O5 0.500000 0.500000 0.725391
O O6 0.523747 0.250104 0.651401
O O7 0.637301 0.240703 0.711605
O O8 0.500000 0.000000 0.725363
O O9 0.500000 0.500000 0.578947
O O10 0.375129 0.286502 0.616119
O O11 0.500000 0.000000 0.580625
O O12 0.144006 0.845948 0.430648
O O13 0.000000 0.000000 0.408082
O O14 0.238227 0.675407 0.062519
O O15 0.204150 0.168753 0.071098
O O16 0.267835 0.348034 0.000000
O O17 0.749113 0.420812 0.236413
#
# Coordination Sequence:
#
# PCOD8237940 Si02
#       7
#     8   8   8   8   8   8   8
#     4  10  23  38  59  88 121 170 209 254 301 384
#     4  10  23  40  58  87 119 161 203 269 312 361
#     4  10  21  35  61  86 116 152 207 256 297 362
#     4  10  21  40  63  91 124 164 209 250 303 374
#     4  10  21  39  64  96 125 159 202 252 313 375
#     4  12  26  40  62  90 128 166 211 268 327 368
#     4  10  21  38  62  88 124 164 206 246 311 369
#
# _framework density 21.432914
#
# number of rings (size 3 to 8) (size 9 to 14) (size 15 to 20)
#    0.000    1.714    0.000    3.429    8.000    2.000 
#    0.000    0.000    0.000   13.714    0.000    0.000 
#    0.000    0.000    0.000    0.000    0.000    0.000 
#
# Total GULP energy -694099.499598 kJ/mol
# GULP energy per Si atom -12394.633921 kJ/mol
# Density = 2.138413 g / cm^3
# Si number density = 21.432914 Si / 1000 Ang^3
#
#
#
# Elastic Constant Matrix: (Units=GPa)
#
#
# Indices 1 2 3 4 5 6 
#
# 1 103.8443 31.6224 13.0742 0.0000 0.0000 0.0000
# 2 31.6224 163.4163 7.6926 0.0000 0.0000 0.0000
# 3 13.0742 7.6926 72.7881 0.0000 0.0000 0.0000
# 4 0.0000 0.0000 0.0000 17.2443 0.0000 0.0000
# 5 0.0000 0.0000 0.0000 0.0000 15.7249 0.0000
# 6 0.0000 0.0000 0.0000 0.0000 0.0000 45.2836
#
#
#
# Elastic Compliance Matrix: (Units=1/GPa)
#
#
# Indices 1 2 3 4 5 6 
#
# 1 0.010431 -0.001940 -0.001669 0.000000 0.000000 0.000000
# 2 -0.001940 0.006511 -0.000340 0.000000 0.000000 0.000000
# 3 -0.001669 -0.000340 0.014074 0.000000 0.000000 0.000000
# 4 0.000000 0.000000 0.000000 0.057990 0.000000 0.000000
# 5 0.000000 0.000000 0.000000 0.000000 0.063593 0.000000
# 6 0.000000 0.000000 0.000000 0.000000 0.000000 0.022083
#
#
# Mechanical properties :
#
#
# Convention : Reuss Voigt Hill
#
# Bulk Modulus (GPa) = 43.25382 49.42522 46.33952
# Shear Modulus (GPa) = 26.27645 34.82787 30.55216
#
# Velocity S-wave (km/s) = 3.50521 4.03547 3.77965
# Velocity P-wave (km/s) = 6.05036 6.69506 6.38085
#
# Compressibility (1/GPa) = 0.02311934
#
# Stress axis : x y z
#
# Youngs Moduli (GPa) = 95.87183 153.59314 71.05250
#
# Poissons Ratio (x) = 0.29795 0.11855
# Poissons Ratio (y) = 0.18598 0.02413
# Poissons Ratio (z) = 0.15996 0.05217
#
# Static dielectric constant tensor:
#      x y z
#    x 3.878790 0.000000 0.000000 
#    y 0.000000 6.087000 0.000000 
#    z 0.000000 0.000000 3.324100 
# 
# 
# High freq. dielectric constant tensor:
#      x y z
#    x 1.839500 0.000000 0.000000 
#    y 0.000000 1.877980 0.000000 
#    z 0.000000 0.000000 1.795740 
# 
# From -- ./inp_files/35037.got.cif
#   From: 2010.06.25/outbox.cif.g09.slc.cpg/sg58_18_cif.got.tgz:35037.got - 2010.06.26 21:38:00.
