data_PCOD8237826
_publ_section_title
;
Structure prediction by ZEFSAII (Michael W. Deem and Ramdas Pophale) SiO2 
 PCOD8237826
Probable space group: P N N M
;
_chemical_formula_sum "Si O2"
_cell_formula_units_Z 64
_cell_length_a 24.329873
_cell_length_b 14.703004
_cell_length_c 8.892157
_cell_angle_alpha 90.000000
_cell_angle_beta 90.000000
_cell_angle_gamma 90.000000
_cell_volume 3180.922143
_symmetry_space_group_name_H-M "P N N M"
_symmetry_group_IT_number 58
_symmetry_cell_setting 'orthorhombic'
loop_
_space_group_symop_operation_xyz
x,y,z
-x,-y,z
1/2+x,1/2-y,1/2-z
1/2-x,1/2+y,1/2-z
-x,-y,-z
x,y,-z
1/2-x,1/2+y,1/2+z
1/2+x,1/2-y,1/2+z
loop_
_atom_site_type_symbol
_atom_site_label
_atom_site_fract_x
_atom_site_fract_y
_atom_site_fract_z
Si Si1 0.264360 0.667078 0.321866
Si Si2 0.556894 0.753528 0.823565
Si Si3 0.670586 0.506839 0.677953
Si Si4 0.348853 0.146909 0.670443
Si Si5 0.483852 0.899735 0.327122
Si Si6 0.050398 0.933889 0.824070
Si Si7 0.636275 0.054781 0.666901
Si Si8 0.234095 0.360773 0.675762
O O1 0.263600 0.672722 0.500000
O O2 0.309133 0.592530 0.265018
O O3 0.206107 0.632894 0.263733
O O4 0.277071 0.766135 0.258056
O O5 0.614579 0.774387 0.742957
O O6 0.511025 0.826486 0.780773
O O7 0.536644 0.655860 0.768989
O O8 0.566420 0.754178 0.000000
O O9 0.673756 0.507050 0.500000
O O10 0.608207 0.523195 0.733369
O O11 0.711189 0.587447 0.736707
O O12 0.334902 0.176545 0.500000
O O13 0.381279 0.051418 0.677129
O O14 0.502647 0.883710 0.500000
O O15 0.418446 0.886269 0.309051
O O16 0.500000 0.000000 0.272539
O O17 0.053960 0.910253 0.000000
O O18 0.000000 0.000000 0.789100
O O19 0.660747 0.073966 0.500000
O O20 0.681260 0.076987 0.792064
O O21 0.239001 0.342308 0.500000
#
# Coordination Sequence:
#
# PCOD8237826 Si02
#       8
#     8   8   8   8   8   8   8   8
#     4  11  22  38  60  90 124 162 206 257 313 368
#     4  12  25  39  61  94 128 165 205 257 316 374
#     4   9  20  39  62  88 121 158 203 255 305 360
#     4  11  21  38  62  89 121 160 208 256 306 368
#     4  10  20  39  62  87 120 162 206 251 303 365
#     4  10  22  43  69  91 116 162 217 264 307 362
#     4  10  21  37  60  87 119 158 202 253 305 361
#     4  11  22  38  59  88 126 166 204 249 307 372
#
# _framework density 20.119951
#
# number of rings (size 3 to 8) (size 9 to 14) (size 15 to 20)
#    0.000    1.500    2.500    3.000    0.000    3.500 
#    0.000    4.375    0.000    0.000    0.000    0.000 
#    0.000    0.000    0.000    0.000    0.000    0.000 
#
# Total GULP energy -793729.560305 kJ/mol
# GULP energy per Si atom -12402.024380 kJ/mol
# Density = 2.007416 g / cm^3
# Si number density = 20.119951 Si / 1000 Ang^3
#
#
#
# Elastic Constant Matrix: (Units=GPa)
#
#
# Indices 1 2 3 4 5 6 
#
# 1 114.6229 54.1668 32.5311 0.0000 0.0000 0.0000
# 2 54.1668 132.9100 49.6181 0.0000 0.0000 0.0000
# 3 32.5311 49.6181 79.9024 0.0000 0.0000 0.0000
# 4 0.0000 0.0000 0.0000 27.5715 0.0000 0.0000
# 5 0.0000 0.0000 0.0000 0.0000 29.6692 0.0000
# 6 0.0000 0.0000 0.0000 0.0000 0.0000 30.5300
#
#
#
# Elastic Compliance Matrix: (Units=1/GPa)
#
#
# Indices 1 2 3 4 5 6 
#
# 1 0.011101 -0.003693 -0.002226 0.000000 0.000000 0.000000
# 2 -0.003693 0.011023 -0.005342 0.000000 0.000000 0.000000
# 3 -0.002226 -0.005342 0.016739 0.000000 0.000000 0.000000
# 4 0.000000 0.000000 0.000000 0.036269 0.000000 0.000000
# 5 0.000000 0.000000 0.000000 0.000000 0.033705 0.000000
# 6 0.000000 0.000000 0.000000 0.000000 0.000000 0.032755
#
#
# Mechanical properties :
#
#
# Convention : Reuss Voigt Hill
#
# Bulk Modulus (GPa) = 61.19561 66.67414 63.93488
# Shear Modulus (GPa) = 29.48783 30.29543 29.89163
#
# Velocity S-wave (km/s) = 3.83247 3.88460 3.85862
# Velocity P-wave (km/s) = 7.07568 7.30277 7.19012
#
# Compressibility (1/GPa) = 0.01634104
#
# Stress axis : x y z
#
# Youngs Moduli (GPa) = 90.07881 90.71827 59.74172
#
# Poissons Ratio (x) = 0.33504 0.13301
# Poissons Ratio (y) = 0.33268 0.31911
# Poissons Ratio (z) = 0.20055 0.48458
#
# Static dielectric constant tensor:
#      x y z
#    x 3.716580 0.000000 0.000000 
#    y 0.000000 3.753660 0.000000 
#    z 0.000000 0.000000 3.464180 
# 
# 
# High freq. dielectric constant tensor:
#      x y z
#    x 1.790240 0.000000 0.000000 
#    y 0.000000 1.791440 0.000000 
#    z 0.000000 0.000000 1.768260 
# 
# From -- ./inp_files/9920.got.cif
#   From: 2010.06.25/outbox.cif.g09.slc.cpg/sg58_5_cif.got.tgz:9920.got - 2010.06.26 21:38:00.
