data_PCOD8237087
_publ_section_title
;
Structure prediction by ZEFSAII (Michael W. Deem and Ramdas Pophale) SiO2 
 PCOD8237087
Probable space group: P N N M
;
_chemical_formula_sum "Si O2"
_cell_formula_units_Z 64
_cell_length_a 12.697609
_cell_length_b 27.582097
_cell_length_c 9.469726
_cell_angle_alpha 90.000000
_cell_angle_beta 90.000000
_cell_angle_gamma 90.000000
_cell_volume 3316.550727
_symmetry_space_group_name_H-M "P N N M"
_symmetry_group_IT_number 58
_symmetry_cell_setting 'orthorhombic'
loop_
_space_group_symop_operation_xyz
x,y,z
-x,-y,z
1/2+x,1/2-y,1/2-z
1/2-x,1/2+y,1/2-z
-x,-y,-z
x,y,-z
1/2-x,1/2+y,1/2+z
1/2+x,1/2-y,1/2+z
loop_
_atom_site_type_symbol
_atom_site_label
_atom_site_fract_x
_atom_site_fract_y
_atom_site_fract_z
Si Si1 0.104650 0.026392 0.839267
Si Si2 0.477986 0.156998 0.165463
Si Si3 0.172784 0.302958 0.165360
Si Si4 0.436934 0.638480 0.338950
Si Si5 0.743833 0.535610 0.838741
Si Si6 0.865188 0.132383 0.341559
Si Si7 0.243609 0.698836 0.666831
Si Si8 0.554689 0.051112 0.162980
O O1 0.090096 0.082806 0.824165
O O2 0.203522 0.012008 0.742170
O O3 0.130018 0.010886 0.000000
O O4 0.000000 0.000000 0.785100
O O5 0.567828 0.186891 0.246543
O O6 0.367483 0.178297 0.225014
O O7 0.481709 0.098543 0.192180
O O8 0.491841 0.167974 0.000000
O O9 0.254091 0.345133 0.203225
O O10 0.232206 0.253774 0.212142
O O11 0.142839 0.301737 0.000000
O O12 0.456483 0.653931 0.500000
O O13 0.542938 0.651968 0.257420
O O14 0.339429 0.667134 0.270944
O O15 0.649385 0.574637 0.830220
O O16 0.845754 0.557264 0.763473
O O17 0.771868 0.522656 0.000000
O O18 0.894659 0.148356 0.500000
O O19 0.240804 0.692518 0.500000
O O20 0.500000 0.000000 0.201841
O O21 0.590907 0.050346 0.000000
#
# Coordination Sequence:
#
# PCOD8237087 Si02
#       8
#     8   8   8   8   8   8   8   8
#     4  10  20  34  54  81 113 148 186 232 280 329
#     4  10  21  39  62  88 116 147 192 242 286 341
#     4  10  21  40  61  82 114 153 189 232 289 344
#     4  10  21  37  59  84 113 149 193 240 283 336
#     4  11  22  36  55  81 115 152 189 230 281 343
#     4  10  21  36  56  82 115 150 185 232 285 341
#     4   9  21  39  60  85 114 151 189 237 294 338
#     4  10  22  38  60  86 112 149 194 241 288 339
#
# _framework density 19.297156999999999
#
# number of rings (size 3 to 8) (size 9 to 14) (size 15 to 20)
#    0.000    2.000    2.500    0.375    3.500    2.000 
#    0.000    1.250    0.000    0.000    0.000    0.000 
#    0.000    0.000    0.000    0.000    0.000    0.000 
#
# Total GULP energy -793564.247748 kJ/mol
# GULP energy per Si atom -12399.441371 kJ/mol
# Density = 1.925324 g / cm^3
# Si number density = 19.297157 Si / 1000 Ang^3
#
#
#
# Elastic Constant Matrix: (Units=GPa)
#
#
# Indices 1 2 3 4 5 6 
#
# 1 126.5922 39.6750 59.9004 0.0000 0.0000 0.0000
# 2 39.6750 80.4854 31.1203 0.0000 0.0000 0.0000
# 3 59.9004 31.1203 72.2136 0.0000 0.0000 0.0000
# 4 0.0000 0.0000 0.0000 10.7010 0.0000 0.0000
# 5 0.0000 0.0000 0.0000 0.0000 25.0896 0.0000
# 6 0.0000 0.0000 0.0000 0.0000 0.0000 33.4249
#
#
#
# Elastic Compliance Matrix: (Units=1/GPa)
#
#
# Indices 1 2 3 4 5 6 
#
# 1 0.013506 -0.002791 -0.010000 0.000000 0.000000 0.000000
# 2 -0.002791 0.015486 -0.004358 0.000000 0.000000 0.000000
# 3 -0.010000 -0.004358 0.024021 0.000000 0.000000 0.000000
# 4 0.000000 0.000000 0.000000 0.093449 0.000000 0.000000
# 5 0.000000 0.000000 0.000000 0.000000 0.039857 0.000000
# 6 0.000000 0.000000 0.000000 0.000000 0.000000 0.029918
#
#
# Mechanical properties :
#
#
# Convention : Reuss Voigt Hill
#
# Bulk Modulus (GPa) = 53.43759 60.07584 56.75671
# Shear Modulus (GPa) = 19.47233 23.74946 21.61090
#
# Velocity S-wave (km/s) = 3.18004 3.51197 3.35012
# Velocity P-wave (km/s) = 6.42150 6.90252 6.66635
#
# Compressibility (1/GPa) = 0.01871342
#
# Stress axis : x y z
#
# Youngs Moduli (GPa) = 74.04104 64.57597 41.62993
#
# Poissons Ratio (x) = 0.18023 0.41631
# Poissons Ratio (y) = 0.20665 0.18144
# Poissons Ratio (z) = 0.74043 0.28144
#
# Static dielectric constant tensor:
#      x y z
#    x 3.819510 0.000000 0.000000 
#    y 0.000000 3.659910 0.000000 
#    z 0.000000 0.000000 3.376820 
# 
# 
# High freq. dielectric constant tensor:
#      x y z
#    x 1.751970 0.000000 0.000000 
#    y 0.000000 1.757770 0.000000 
#    z 0.000000 0.000000 1.730600 
# 
# From -- ./inp_files/4695.got.cif
#   From: 2010.06.25/outbox.cif.g09.slc.cpg/sg58_3_cif.got.tgz:4695.got - 2010.06.26 21:38:00.
