data_PCOD8237950
_publ_section_title
;
Structure prediction by ZEFSAII (Michael W. Deem and Ramdas Pophale) SiO2 
 PCOD8237950
Probable space group: P N N M
;
_chemical_formula_sum "Si O2"
_cell_formula_units_Z 48
_cell_length_a 23.881269
_cell_length_b 11.805208
_cell_length_c 9.263456
_cell_angle_alpha 90.000000
_cell_angle_beta 90.000000
_cell_angle_gamma 90.000000
_cell_volume 2611.584528
_symmetry_space_group_name_H-M "P N N M"
_symmetry_group_IT_number 58
_symmetry_cell_setting 'orthorhombic'
loop_
_space_group_symop_operation_xyz
x,y,z
-x,-y,z
1/2+x,1/2-y,1/2-z
1/2-x,1/2+y,1/2-z
-x,-y,-z
x,y,-z
1/2-x,1/2+y,1/2+z
1/2+x,1/2-y,1/2+z
loop_
_atom_site_type_symbol
_atom_site_label
_atom_site_fract_x
_atom_site_fract_y
_atom_site_fract_z
Si Si1 0.121622 0.024274 0.332129
Si Si2 0.335106 0.098362 0.168095
Si Si3 0.360949 0.871573 0.330229
Si Si4 0.422479 0.286678 0.828956
Si Si5 0.951859 0.759103 0.331514
Si Si6 0.709622 0.344925 0.665395
O O1 0.135155 0.012230 0.500000
O O2 0.074260 0.117776 0.302237
O O3 0.179808 0.057145 0.257064
O O4 0.099663 0.905980 0.266014
O O5 0.382018 0.186160 0.221760
O O6 0.275426 0.156486 0.197076
O O7 0.339254 0.987249 0.263456
O O8 0.342986 0.067302 0.000000
O O9 0.370008 0.886124 0.500000
O O10 0.419732 0.836981 0.258172
O O11 0.314162 0.778031 0.292185
O O12 0.484818 0.261135 0.772401
O O13 0.424112 0.297500 0.000000
O O14 0.948643 0.726805 0.500000
O O15 0.696326 0.372321 0.500000
#
# Coordination Sequence:
#
# PCOD8237950 Si02
#       6
#     8   8   8   8   8   8
#     4   9  17  31  56  83 105 133 174 220 264 307
#     4  10  21  36  53  75 103 139 177 214 256 310
#     4  10  21  37  55  76 105 140 174 213 263 313
#     4   9  18  32  54  81 107 136 175 219 261 305
#     4   9  17  33  56  81 106 136 175 218 260 309
#     4   9  20  36  53  74 104 138 172 212 263 315
#
# _framework density 18.379646000000001
#
# number of rings (size 3 to 8) (size 9 to 14) (size 15 to 20)
#    0.000    2.667    0.000    1.000    2.333    4.000 
#    0.000    5.833    0.000    4.000    0.000    0.000 
#    0.000    0.000    0.000    0.000    0.000    0.000 
#
# Total GULP energy -595309.910453 kJ/mol
# GULP energy per Si atom -12402.289801 kJ/mol
# Density = 1.833781 g / cm^3
# Si number density = 18.379646 Si / 1000 Ang^3
#
#
#
# Elastic Constant Matrix: (Units=GPa)
#
#
# Indices 1 2 3 4 5 6 
#
# 1 128.9807 60.6589 43.0350 0.0000 0.0000 0.0000
# 2 60.6589 107.5623 42.8132 0.0000 0.0000 0.0000
# 3 43.0350 42.8132 53.5832 0.0000 0.0000 0.0000
# 4 0.0000 0.0000 0.0000 16.6114 0.0000 0.0000
# 5 0.0000 0.0000 0.0000 0.0000 25.4128 0.0000
# 6 0.0000 0.0000 0.0000 0.0000 0.0000 23.5035
#
#
#
# Elastic Compliance Matrix: (Units=1/GPa)
#
#
# Indices 1 2 3 4 5 6 
#
# 1 0.011764 -0.004213 -0.006081 0.000000 0.000000 0.000000
# 2 -0.004213 0.015142 -0.008714 0.000000 0.000000 0.000000
# 3 -0.006081 -0.008714 0.030509 0.000000 0.000000 0.000000
# 4 0.000000 0.000000 0.000000 0.060200 0.000000 0.000000
# 5 0.000000 0.000000 0.000000 0.000000 0.039350 0.000000
# 6 0.000000 0.000000 0.000000 0.000000 0.000000 0.042547
#
#
# Mechanical properties :
#
#
# Convention : Reuss Voigt Hill
#
# Bulk Modulus (GPa) = 51.55514 64.79339 58.17426
# Shear Modulus (GPa) = 20.49221 22.68016 21.58618
#
# Velocity S-wave (km/s) = 3.34269 3.51662 3.43076
# Velocity P-wave (km/s) = 6.55814 7.19848 6.88576
#
# Compressibility (1/GPa) = 0.01939671
#
# Stress axis : x y z
#
# Youngs Moduli (GPa) = 85.00674 66.04315 32.77673
#
# Poissons Ratio (x) = 0.27827 0.19933
# Poissons Ratio (y) = 0.35818 0.28562
# Poissons Ratio (z) = 0.51696 0.57551
#
# Static dielectric constant tensor:
#      x y z
#    x 3.549340 0.000000 0.000000 
#    y 0.000000 3.398080 0.000000 
#    z 0.000000 0.000000 3.195480 
# 
# 
# High freq. dielectric constant tensor:
#      x y z
#    x 1.721500 0.000000 0.000000 
#    y 0.000000 1.714390 0.000000 
#    z 0.000000 0.000000 1.688630 
# 
# From -- ./inp_files/4181.got.cif
#   From: 2010.06.25/outbox.cif.g09.slc.cpg/sg58_3_cif.got.tgz:4181.got - 2010.06.26 21:38:00.
