data_PCOD8237034
_publ_section_title
;
Structure prediction by ZEFSAII (Michael W. Deem and Ramdas Pophale) SiO2 
 PCOD8237034
Probable space group: P N N M
;
_chemical_formula_sum "Si O2"
_cell_formula_units_Z 64
_cell_length_a 30.107306
_cell_length_b 14.400964
_cell_length_c 8.530895
_cell_angle_alpha 90.000000
_cell_angle_beta 90.000000
_cell_angle_gamma 90.000000
_cell_volume 3698.776229
_symmetry_space_group_name_H-M "P N N M"
_symmetry_group_IT_number 58
_symmetry_cell_setting 'orthorhombic'
loop_
_space_group_symop_operation_xyz
x,y,z
-x,-y,z
1/2+x,1/2-y,1/2-z
1/2-x,1/2+y,1/2-z
-x,-y,-z
x,y,-z
1/2-x,1/2+y,1/2+z
1/2+x,1/2-y,1/2+z
loop_
_atom_site_type_symbol
_atom_site_label
_atom_site_fract_x
_atom_site_fract_y
_atom_site_fract_z
Si Si1 0.137341 0.175856 0.178197
Si Si2 0.047563 0.094688 0.183584
Si Si3 0.767101 0.506137 0.678966
Si Si4 0.366766 0.322965 0.682553
Si Si5 0.324554 0.500378 0.821339
Si Si6 0.800247 0.308583 0.679317
Si Si7 0.785920 0.713180 0.320141
Si Si8 0.453540 0.393266 0.184927
O O1 0.084584 0.174031 0.218365
O O2 0.165437 0.244540 0.286847
O O3 0.152237 0.070140 0.201972
O O4 0.145812 0.205947 0.000000
O O5 0.000727 0.134837 0.241280
O O6 0.059357 0.999328 0.274103
O O7 0.045638 0.070640 0.000000
O O8 0.748791 0.507078 0.500000
O O9 0.727939 0.491065 0.801934
O O10 0.800341 0.419907 0.702557
O O11 0.790519 0.603927 0.718188
O O12 0.366296 0.346115 0.500000
O O13 0.338528 0.397113 0.779073
O O14 0.341334 0.226505 0.715021
O O15 0.417238 0.322390 0.744902
O O16 0.337570 0.523886 0.000000
O O17 0.809757 0.282274 0.500000
O O18 0.752615 0.263353 0.721973
O O19 0.773726 0.730330 0.500000
O O20 0.455858 0.381705 0.000000
#
# Coordination Sequence:
#
# PCOD8237034 Si02
#       8
#     8   8   8   8   8   8   8   8
#     4  11  22  35  52  75 107 144 178 216 260 312
#     4  10  20  34  52  74 106 142 173 211 266 314
#     4  10  22  38  53  71 105 142 176 220 267 307
#     4  12  23  36  52  74 107 142 178 216 264 317
#     4  12  22  31  51  76 103 139 181 220 258 308
#     4  11  22  36  54  76 103 138 180 221 263 310
#     4  11  22  35  53  77 105 140 180 219 261 311
#     4  11  21  33  52  77 105 136 176 217 258 310
#
# _framework density 17.30302
#
# number of rings (size 3 to 8) (size 9 to 14) (size 15 to 20)
#    0.000    1.000    3.750    5.625    0.000    2.500 
#    0.000    0.000    0.000    0.000    0.000    0.875 
#    0.000    7.000    0.000    0.000    0.000    0.000 
#
# Total GULP energy -793661.880382 kJ/mol
# GULP energy per Si atom -12400.966881 kJ/mol
# Density = 1.726364 g / cm^3
# Si number density = 17.303020 Si / 1000 Ang^3
#
#
#
# Elastic Constant Matrix: (Units=GPa)
#
#
# Indices 1 2 3 4 5 6 
#
# 1 101.7373 26.2351 29.8674 0.0000 0.0000 0.0000
# 2 26.2351 67.9093 19.1449 0.0000 0.0000 0.0000
# 3 29.8674 19.1449 65.9554 0.0000 0.0000 0.0000
# 4 0.0000 0.0000 0.0000 19.4524 0.0000 0.0000
# 5 0.0000 0.0000 0.0000 0.0000 24.1536 0.0000
# 6 0.0000 0.0000 0.0000 0.0000 0.0000 21.8802
#
#
#
# Elastic Compliance Matrix: (Units=1/GPa)
#
#
# Indices 1 2 3 4 5 6 
#
# 1 0.012010 -0.003383 -0.004457 0.000000 0.000000 0.000000
# 2 -0.003383 0.016991 -0.003400 0.000000 0.000000 0.000000
# 3 -0.004457 -0.003400 0.018167 0.000000 0.000000 0.000000
# 4 0.000000 0.000000 0.000000 0.051407 0.000000 0.000000
# 5 0.000000 0.000000 0.000000 0.000000 0.041402 0.000000
# 6 0.000000 0.000000 0.000000 0.000000 0.000000 0.045703
#
#
# Mechanical properties :
#
#
# Convention : Reuss Voigt Hill
#
# Bulk Modulus (GPa) = 40.50508 42.89965 41.70236
# Shear Modulus (GPa) = 23.10649 23.78756 23.44703
#
# Velocity S-wave (km/s) = 3.65828 3.71180 3.68514
# Velocity P-wave (km/s) = 6.42683 6.57396 6.50081
#
# Compressibility (1/GPa) = 0.02468826
#
# Stress axis : x y z
#
# Youngs Moduli (GPa) = 83.26368 58.85433 55.04565
#
# Poissons Ratio (x) = 0.19913 0.24531
# Poissons Ratio (y) = 0.28171 0.18715
# Poissons Ratio (z) = 0.37107 0.20010
#
# Static dielectric constant tensor:
#      x y z
#    x 3.348320 0.000000 0.000000 
#    y 0.000000 3.080100 0.000000 
#    z 0.000000 0.000000 3.309250 
# 
# 
# High freq. dielectric constant tensor:
#      x y z
#    x 1.660690 0.000000 0.000000 
#    y 0.000000 1.635720 0.000000 
#    z 0.000000 0.000000 1.685570 
# 
# From -- ./inp_files/11142.got.cif
#   From: 2010.06.25/outbox.cif.g09.slc.cpg/sg58_6_cif.got.tgz:11142.got - 2010.06.26 21:38:00.
