data_PCOD8237526
_publ_section_title
;
Structure prediction by ZEFSAII (Michael W. Deem and Ramdas Pophale) SiO2 
 PCOD8237526
Probable space group: P N N M
;
_chemical_formula_sum "Si O2"
_cell_formula_units_Z 48
_cell_length_a 10.027362
_cell_length_b 27.804339
_cell_length_c 8.385098
_cell_angle_alpha 90.000000
_cell_angle_beta 90.000000
_cell_angle_gamma 90.000000
_cell_volume 2337.800308
_symmetry_space_group_name_H-M "P N N M"
_symmetry_group_IT_number 58
_symmetry_cell_setting 'orthorhombic'
loop_
_space_group_symop_operation_xyz
x,y,z
-x,-y,z
1/2+x,1/2-y,1/2-z
1/2-x,1/2+y,1/2-z
-x,-y,-z
x,y,-z
1/2-x,1/2+y,1/2+z
1/2+x,1/2-y,1/2+z
loop_
_atom_site_type_symbol
_atom_site_label
_atom_site_fract_x
_atom_site_fract_y
_atom_site_fract_z
Si Si1 0.156907 0.548988 0.685819
Si Si2 0.769951 0.149295 0.686542
Si Si3 0.481102 0.698493 0.684101
Si Si4 0.632219 0.051254 0.315214
Si Si5 0.266834 0.146858 0.316251
Si Si6 0.984618 0.698082 0.316027
O O1 0.188883 0.546815 0.500000
O O2 0.201634 0.498984 0.767690
O O3 0.242938 0.591319 0.764920
O O4 0.000078 0.558663 0.710906
O O5 0.773331 0.160311 0.500000
O O6 0.913885 0.157956 0.763478
O O7 0.734209 0.093985 0.722718
O O8 0.665600 0.185415 0.767414
O O9 0.498166 0.711929 0.500000
O O10 0.333270 0.678582 0.711999
O O11 0.508926 0.745750 0.787662
O O12 0.589684 0.050768 0.500000
O O13 0.227050 0.151814 0.500000
O O14 0.416193 0.166042 0.289564
O O15 0.010072 0.685831 0.500000
#
# Coordination Sequence:
#
# PCOD8237526 Si02
#       6
#     8   8   8   8   8   8
#     4  11  21  35  60  92 124 156 201 252 303 359
#     4  11  23  41  64  92 125 162 204 250 304 362
#     4  12  26  43  62  88 125 164 204 252 308 365
#     4  10  20  36  61  90 123 159 200 249 303 359
#     4  12  24  42  64  90 124 162 206 254 307 363
#     4  12  24  41  65  92 122 160 208 254 302 359
#
# _framework density 20.532121
#
# number of rings (size 3 to 8) (size 9 to 14) (size 15 to 20)
#    0.000    0.667    1.667    9.000    0.000    2.000 
#    0.000    0.833    0.000    5.000    0.000    0.000 
#    0.000    0.000    0.000    0.000    0.000    0.000 
#
# Total GULP energy -595630.842708 kJ/mol
# GULP energy per Si atom -12408.975890 kJ/mol
# Density = 2.048539 g / cm^3
# Si number density = 20.532121 Si / 1000 Ang^3
#
#
#
# Elastic Constant Matrix: (Units=GPa)
#
#
# Indices 1 2 3 4 5 6 
#
# 1 56.1377 21.6453 18.2395 0.0000 0.0000 0.0000
# 2 21.6453 115.4796 25.0322 0.0000 0.0000 0.0000
# 3 18.2395 25.0322 101.2230 0.0000 0.0000 0.0000
# 4 0.0000 0.0000 0.0000 29.7689 0.0000 0.0000
# 5 0.0000 0.0000 0.0000 0.0000 32.3216 0.0000
# 6 0.0000 0.0000 0.0000 0.0000 0.0000 21.4355
#
#
#
# Elastic Compliance Matrix: (Units=1/GPa)
#
#
# Indices 1 2 3 4 5 6 
#
# 1 0.019934 -0.003125 -0.002819 0.000000 0.000000 0.000000
# 2 -0.003125 0.009640 -0.001821 0.000000 0.000000 0.000000
# 3 -0.002819 -0.001821 0.010837 0.000000 0.000000 0.000000
# 4 0.000000 0.000000 0.000000 0.033592 0.000000 0.000000
# 5 0.000000 0.000000 0.000000 0.000000 0.030939 0.000000
# 6 0.000000 0.000000 0.000000 0.000000 0.000000 0.046652
#
#
# Mechanical properties :
#
#
# Convention : Reuss Voigt Hill
#
# Bulk Modulus (GPa) = 40.19084 44.74160 42.46622
# Shear Modulus (GPa) = 28.50318 30.56673 29.53496
#
# Velocity S-wave (km/s) = 3.72993 3.86259 3.79684
# Velocity P-wave (km/s) = 6.17794 6.45996 6.32052
#
# Compressibility (1/GPa) = 0.02488129
#
# Stress axis : x y z
#
# Youngs Moduli (GPa) = 50.16460 103.73391 92.27270
#
# Poissons Ratio (x) = 0.32421 0.26013
# Poissons Ratio (y) = 0.15678 0.16801
# Poissons Ratio (z) = 0.14142 0.18888
#
# Static dielectric constant tensor:
#      x y z
#    x 3.455240 0.000000 0.000000 
#    y 0.000000 3.965410 0.000000 
#    z 0.000000 0.000000 3.754600 
# 
# 
# High freq. dielectric constant tensor:
#      x y z
#    x 1.777730 0.000000 0.000000 
#    y 0.000000 1.819270 0.000000 
#    z 0.000000 0.000000 1.818990 
# 
# From -- ./inp_files/2961.got.cif
#   From: 2010.06.25/outbox.cif.g09.slc.cpg/sg58_2_cif.got.tgz:2961.got - 2010.06.26 21:38:00.
