data_PCOD8237684
_publ_section_title
;
Structure prediction by ZEFSAII (Michael W. Deem and Ramdas Pophale) SiO2 
 PCOD8237684
Probable space group: P N N M
;
_chemical_formula_sum "Si O2"
_cell_formula_units_Z 48
_cell_length_a 8.941801
_cell_length_b 30.555114
_cell_length_c 8.729752
_cell_angle_alpha 90.000000
_cell_angle_beta 90.000000
_cell_angle_gamma 90.000000
_cell_volume 2385.123190
_symmetry_space_group_name_H-M "P N N M"
_symmetry_group_IT_number 58
_symmetry_cell_setting 'orthorhombic'
loop_
_space_group_symop_operation_xyz
x,y,z
-x,-y,z
1/2+x,1/2-y,1/2-z
1/2-x,1/2+y,1/2-z
-x,-y,-z
x,y,-z
1/2-x,1/2+y,1/2+z
1/2+x,1/2-y,1/2+z
loop_
_atom_site_type_symbol
_atom_site_label
_atom_site_fract_x
_atom_site_fract_y
_atom_site_fract_z
Si Si1 0.912207 0.708250 0.676289
Si Si2 0.905874 0.203642 0.676645
Si Si3 0.077237 0.953504 0.324178
Si Si4 0.586610 0.374450 0.320526
Si Si5 0.587567 0.871206 0.681238
Si Si6 0.917735 0.542962 0.182101
O O1 0.902314 0.694018 0.500000
O O2 0.990880 0.754507 0.696586
O O3 0.001568 0.671777 0.767722
O O4 0.750087 0.714436 0.745973
O O5 0.881040 0.191264 0.500000
O O6 0.977588 0.162894 0.761492
O O7 0.073831 0.936963 0.500000
O O8 0.985316 0.920921 0.218017
O O9 0.246521 0.956334 0.261762
O O10 0.000000 0.000000 0.309376
O O11 0.608859 0.369514 0.500000
O O12 0.745769 0.369925 0.242070
O O13 0.593969 0.872463 0.500000
O O14 0.501967 0.914044 0.744930
O O15 0.000000 0.500000 0.249603
O O16 0.922740 0.541430 0.000000
#
# Coordination Sequence:
#
# PCOD8237684 Si02
#       6
#     8   8   8   8   8   8
#     4  11  24  41  63  92 124 157 198 251 306 357
#     4  11  24  42  64  89 120 160 203 244 297 367
#     4  10  20  37  63  91 120 157 202 249 301 367
#     4  12  25  40  60  87 122 159 201 256 310 358
#     4  11  22  38  62  88 119 160 204 249 301 364
#     4   9  18  34  58  88 117 149 194 244 291 346
#
# _framework density 20.124745999999998
#
# number of rings (size 3 to 8) (size 9 to 14) (size 15 to 20)
#    0.000    1.333    0.000    6.000    0.000    9.667 
#    0.000    0.833    0.000    3.500    0.000    0.000 
#    0.000    0.000    0.000    0.000    0.000    0.000 
#
# Total GULP energy -595472.654888 kJ/mol
# GULP energy per Si atom -12405.680310 kJ/mol
# Density = 2.007894 g / cm^3
# Si number density = 20.124746 Si / 1000 Ang^3
#
#
#
# Elastic Constant Matrix: (Units=GPa)
#
#
# Indices 1 2 3 4 5 6 
#
# 1 143.0865 23.3020 42.8486 0.0000 0.0000 0.0000
# 2 23.3020 84.0880 39.5068 0.0000 0.0000 0.0000
# 3 42.8486 39.5068 89.0642 0.0000 0.0000 0.0000
# 4 0.0000 0.0000 0.0000 18.4761 0.0000 0.0000
# 5 0.0000 0.0000 0.0000 0.0000 31.5822 0.0000
# 6 0.0000 0.0000 0.0000 0.0000 0.0000 32.5058
#
#
#
# Elastic Compliance Matrix: (Units=1/GPa)
#
#
# Indices 1 2 3 4 5 6 
#
# 1 0.008184 -0.000528 -0.003703 0.000000 0.000000 0.000000
# 2 -0.000528 0.015057 -0.006425 0.000000 0.000000 0.000000
# 3 -0.003703 -0.006425 0.015859 0.000000 0.000000 0.000000
# 4 0.000000 0.000000 0.000000 0.054124 0.000000 0.000000
# 5 0.000000 0.000000 0.000000 0.000000 0.031663 0.000000
# 6 0.000000 0.000000 0.000000 0.000000 0.000000 0.030764
#
#
# Mechanical properties :
#
#
# Convention : Reuss Voigt Hill
#
# Bulk Modulus (GPa) = 56.21685 58.61707 57.41696
# Shear Modulus (GPa) = 27.33843 30.55157 28.94500
#
# Velocity S-wave (km/s) = 3.68971 3.90052 3.79658
# Velocity P-wave (km/s) = 6.79314 7.03388 6.91456
#
# Compressibility (1/GPa) = 0.01778826
#
# Stress axis : x y z
#
# Youngs Moduli (GPa) = 122.19494 66.41303 63.05452
#
# Poissons Ratio (x) = 0.03507 0.23348
# Poissons Ratio (y) = 0.06453 0.40513
# Poissons Ratio (z) = 0.45247 0.42670
#
# Static dielectric constant tensor:
#      x y z
#    x 3.901130 0.000000 0.000000 
#    y 0.000000 3.826000 0.000000 
#    z 0.000000 0.000000 3.741770 
# 
# 
# High freq. dielectric constant tensor:
#      x y z
#    x 1.808660 0.000000 0.000000 
#    y 0.000000 1.804030 0.000000 
#    z 0.000000 0.000000 1.773950 
# 
# From -- ./inp_files/2893.got.cif
#   From: 2010.06.25/outbox.cif.g09.slc.cpg/sg58_2_cif.got.tgz:2893.got - 2010.06.26 21:38:00.
