data_PCOD8237831
_publ_section_title
;
Structure prediction by ZEFSAII (Michael W. Deem and Ramdas Pophale) SiO2 
 PCOD8237831
Probable space group: P N N M
;
_chemical_formula_sum "Si O2"
_cell_formula_units_Z 40
_cell_length_a 10.505151
_cell_length_b 7.439113
_cell_length_c 26.231774
_cell_angle_alpha 90.000000
_cell_angle_beta 90.000000
_cell_angle_gamma 90.000000
_cell_volume 2049.987047
_symmetry_space_group_name_H-M "P N N M"
_symmetry_group_IT_number 58
_symmetry_cell_setting 'orthorhombic'
loop_
_space_group_symop_operation_xyz
x,y,z
-x,-y,z
1/2+x,1/2-y,1/2-z
1/2-x,1/2+y,1/2-z
-x,-y,-z
x,y,-z
1/2-x,1/2+y,1/2+z
1/2+x,1/2-y,1/2+z
loop_
_atom_site_type_symbol
_atom_site_label
_atom_site_fract_x
_atom_site_fract_y
_atom_site_fract_z
Si Si1 0.139150 0.960063 0.373511
Si Si2 0.373097 0.881027 0.557493
Si Si3 0.771358 0.253573 0.810642
Si Si4 0.723980 0.835221 0.804356
Si Si5 0.471854 0.700133 0.351770
O O1 0.245996 0.970177 0.418154
O O2 0.132066 0.766879 0.344572
O O3 0.162759 0.113810 0.330740
O O4 0.000000 0.000000 0.397694
O O5 0.339846 0.822343 0.500000
O O6 0.414144 0.709439 0.591132
O O7 0.500000 0.000000 0.558810
O O8 0.814606 0.296019 0.753255
O O9 0.896656 0.306798 0.844186
O O10 0.724949 0.047702 0.817134
O O11 0.862000 0.738879 0.812392
O O12 0.500000 0.500000 0.336285
#
# Coordination Sequence:
#
# PCOD8237831 Si02
#       5
#     8   8   8   8   8
#     4  11  24  39  56  86 122 156 195 237 292 354
#     4  10  20  39  64  86 107 147 200 249 299 343
#     4  11  20  36  55  83 121 157 193 237 281 344
#     4  10  22  34  56  85 115 163 195 229 284 349
#     4   9  20  36  56  85 116 145 197 242 288 346
#
# _framework density 19.512319000000002
#
# number of rings (size 3 to 8) (size 9 to 14) (size 15 to 20)
#    0.000    1.800    4.000    0.000    2.800    1.600 
#    0.000    0.000    0.000    0.000    0.000    5.600 
#    0.000    0.000    0.000    0.000    0.000    0.000 
#
# Total GULP energy -495583.271710 kJ/mol
# GULP energy per Si atom -12389.581793 kJ/mol
# Density = 1.946791 g / cm^3
# Si number density = 19.512319 Si / 1000 Ang^3
#
#
#
# Elastic Constant Matrix: (Units=GPa)
#
#
# Indices 1 2 3 4 5 6 
#
# 1 111.9544 16.4381 47.1958 0.0000 0.0000 0.0000
# 2 16.4381 56.5783 19.1838 0.0000 0.0000 0.0000
# 3 47.1958 19.1838 125.5616 0.0000 0.0000 0.0000
# 4 0.0000 0.0000 0.0000 18.7682 0.0000 0.0000
# 5 0.0000 0.0000 0.0000 0.0000 24.0029 0.0000
# 6 0.0000 0.0000 0.0000 0.0000 0.0000 22.0107
#
#
#
# Elastic Compliance Matrix: (Units=1/GPa)
#
#
# Indices 1 2 3 4 5 6 
#
# 1 0.010796 -0.001857 -0.003774 0.000000 0.000000 0.000000
# 2 -0.001857 0.018960 -0.002199 0.000000 0.000000 0.000000
# 3 -0.003774 -0.002199 0.009719 0.000000 0.000000 0.000000
# 4 0.000000 0.000000 0.000000 0.053282 0.000000 0.000000
# 5 0.000000 0.000000 0.000000 0.000000 0.041662 0.000000
# 6 0.000000 0.000000 0.000000 0.000000 0.000000 0.045432
#
#
# Mechanical properties :
#
#
# Convention : Reuss Voigt Hill
#
# Bulk Modulus (GPa) = 41.99110 51.08107 46.53608
# Shear Modulus (GPa) = 24.57630 27.04147 25.80888
#
# Velocity S-wave (km/s) = 3.55283 3.72676 3.64084
# Velocity P-wave (km/s) = 6.19655 6.68985 6.44792
#
# Compressibility (1/GPa) = 0.02381457
#
# Stress axis : x y z
#
# Youngs Moduli (GPa) = 92.62751 52.74366 102.89330
#
# Poissons Ratio (x) = 0.09794 0.38834
# Poissons Ratio (y) = 0.17200 0.22624
# Poissons Ratio (z) = 0.34960 0.11597
#
# Static dielectric constant tensor:
#      x y z
#    x 3.870800 0.000000 0.000000 
#    y 0.000000 3.522380 0.000000 
#    z 0.000000 0.000000 3.497690 
# 
# 
# High freq. dielectric constant tensor:
#      x y z
#    x 1.764190 0.000000 0.000000 
#    y 0.000000 1.753410 0.000000 
#    z 0.000000 0.000000 1.741210 
# 
# From -- ./inp_files/31269.got.cif
#   From: 2010.06.25/outbox.cif.g09.slc.cpg/sg58_16_cif.got.tgz:31269.got - 2010.06.26 21:38:00.
