data_PCOD8237584
_publ_section_title
;
Structure prediction by ZEFSAII (Michael W. Deem and Ramdas Pophale) SiO2 
 PCOD8237584
Probable space group: P N N M
;
_chemical_formula_sum "Si O2"
_cell_formula_units_Z 64
_cell_length_a 23.531629
_cell_length_b 15.217511
_cell_length_c 8.766341
_cell_angle_alpha 90.000000
_cell_angle_beta 90.000000
_cell_angle_gamma 90.000000
_cell_volume 3139.163797
_symmetry_space_group_name_H-M "P N N M"
_symmetry_group_IT_number 58
_symmetry_cell_setting 'orthorhombic'
loop_
_space_group_symop_operation_xyz
x,y,z
-x,-y,z
1/2+x,1/2-y,1/2-z
1/2-x,1/2+y,1/2-z
-x,-y,-z
x,y,-z
1/2-x,1/2+y,1/2+z
1/2+x,1/2-y,1/2+z
loop_
_atom_site_type_symbol
_atom_site_label
_atom_site_fract_x
_atom_site_fract_y
_atom_site_fract_z
Si Si1 0.049721 0.432530 0.181529
Si Si2 0.622970 0.637917 0.324193
Si Si3 0.189139 0.194261 0.821559
Si Si4 0.197853 0.701530 0.174819
Si Si5 0.670021 0.992692 0.320716
Si Si6 0.713883 0.504478 0.680456
Si Si7 0.925388 0.750323 0.319730
Si Si8 0.499330 0.397648 0.679840
O O1 0.110778 0.468050 0.241098
O O2 0.041935 0.334590 0.250040
O O3 0.000000 0.500000 0.236573
O O4 0.047754 0.424881 0.000000
O O5 0.616818 0.610471 0.500000
O O6 0.644992 0.735380 0.300944
O O7 0.666100 0.568337 0.249042
O O8 0.560538 0.636081 0.252909
O O9 0.249760 0.236235 0.776875
O O10 0.140059 0.246692 0.733780
O O11 0.194512 0.092720 0.769094
O O12 0.177191 0.204029 0.000000
O O13 0.173032 0.608767 0.228239
O O14 0.218671 0.699320 0.000000
O O15 0.673052 0.006697 0.500000
O O16 0.725630 0.037057 0.246937
O O17 0.718942 0.512460 0.500000
O O18 0.928417 0.743316 0.500000
O O19 0.952556 0.842032 0.264645
O O20 0.500000 0.500000 0.721553
O O21 0.508053 0.382306 0.500000
#
# Coordination Sequence:
#
# PCOD8237584 Si02
#       8
#     8   8   8   8   8   8   8   8
#     4  10  23  42  65  88 116 158 208 258 307 367
#     4   9  18  32  57  86 114 148 190 237 290 356
#     4  10  20  37  59  83 116 155 200 244 292 357
#     4   9  18  33  55  85 118 150 186 235 300 363
#     4   9  19  35  56  84 115 150 192 239 295 353
#     4   9  18  34  57  87 118 153 189 233 291 354
#     4  12  26  41  61  90 125 163 204 255 310 363
#     4  10  21  40  66  92 120 160 208 252 298 361
#
# _framework density 20.387594
#
# number of rings (size 3 to 8) (size 9 to 14) (size 15 to 20)
#    0.000    2.250    0.000    2.250    3.500    3.500 
#    0.000    1.250    0.000    0.000    0.000    0.000 
#    0.000    0.000    0.000    0.000    0.000    0.000 
#
# Total GULP energy -793469.368090 kJ/mol
# GULP energy per Si atom -12397.958876 kJ/mol
# Density = 2.034119 g / cm^3
# Si number density = 20.387594 Si / 1000 Ang^3
#
#
#
# Elastic Constant Matrix: (Units=GPa)
#
#
# Indices 1 2 3 4 5 6 
#
# 1 111.8286 35.7484 27.1331 0.0000 0.0000 0.0000
# 2 35.7484 80.8525 28.5769 0.0000 0.0000 0.0000
# 3 27.1331 28.5769 49.1204 0.0000 0.0000 0.0000
# 4 0.0000 0.0000 0.0000 20.6323 0.0000 0.0000
# 5 0.0000 0.0000 0.0000 0.0000 29.0954 0.0000
# 6 0.0000 0.0000 0.0000 0.0000 0.0000 34.2008
#
#
#
# Elastic Compliance Matrix: (Units=1/GPa)
#
#
# Indices 1 2 3 4 5 6 
#
# 1 0.011033 -0.003429 -0.004099 0.000000 0.000000 0.000000
# 2 -0.003429 0.016636 -0.007784 0.000000 0.000000 0.000000
# 3 -0.004099 -0.007784 0.027151 0.000000 0.000000 0.000000
# 4 0.000000 0.000000 0.000000 0.048468 0.000000 0.000000
# 5 0.000000 0.000000 0.000000 0.000000 0.034370 0.000000
# 6 0.000000 0.000000 0.000000 0.000000 0.000000 0.029239
#
#
# Mechanical properties :
#
#
# Convention : Reuss Voigt Hill
#
# Bulk Modulus (GPa) = 41.33154 47.19092 44.26123
# Shear Modulus (GPa) = 24.32068 26.80856 25.56462
#
# Velocity S-wave (km/s) = 3.45761 3.63015 3.54493
# Velocity P-wave (km/s) = 6.02138 6.38497 6.20583
#
# Compressibility (1/GPa) = 0.02419460
#
# Stress axis : x y z
#
# Youngs Moduli (GPa) = 90.63592 60.11200 36.83103
#
# Poissons Ratio (x) = 0.20614 0.15099
# Poissons Ratio (y) = 0.31082 0.28669
# Poissons Ratio (z) = 0.37155 0.46790
#
# Static dielectric constant tensor:
#      x y z
#    x 3.954240 0.000000 0.000000 
#    y 0.000000 3.795680 0.000000 
#    z 0.000000 0.000000 3.402100 
# 
# 
# High freq. dielectric constant tensor:
#      x y z
#    x 1.808090 0.000000 0.000000 
#    y 0.000000 1.803010 0.000000 
#    z 0.000000 0.000000 1.764290 
# 
# From -- ./inp_files/10001.got.cif
#   From: 2010.06.25/outbox.cif.g09.slc.cpg/sg58_6_cif.got.tgz:10001.got - 2010.06.26 21:38:00.
