data_PCOD8237238
_publ_section_title
;
Structure prediction by ZEFSAII (Michael W. Deem and Ramdas Pophale) SiO2 
 PCOD8237238
Probable space group: P N N M
;
_chemical_formula_sum "Si O2"
_cell_formula_units_Z 64
_cell_length_a 27.851232
_cell_length_b 12.868757
_cell_length_c 9.303664
_cell_angle_alpha 90.000000
_cell_angle_beta 90.000000
_cell_angle_gamma 90.000000
_cell_volume 3334.533069
_symmetry_space_group_name_H-M "P N N M"
_symmetry_group_IT_number 58
_symmetry_cell_setting 'orthorhombic'
loop_
_space_group_symop_operation_xyz
x,y,z
-x,-y,z
1/2+x,1/2-y,1/2-z
1/2-x,1/2+y,1/2-z
-x,-y,-z
x,y,-z
1/2-x,1/2+y,1/2+z
1/2+x,1/2-y,1/2+z
loop_
_atom_site_type_symbol
_atom_site_label
_atom_site_fract_x
_atom_site_fract_y
_atom_site_fract_z
Si Si1 0.400584 0.556216 0.832566
Si Si2 0.335009 0.231856 0.663369
Si Si3 0.831072 0.816807 0.160963
Si Si4 0.319780 0.997517 0.668359
Si Si5 0.078224 0.823498 0.669742
Si Si6 0.474022 0.738064 0.167194
Si Si7 0.093405 0.366621 0.157764
Si Si8 0.735770 0.172444 0.832690
O O1 0.352870 0.583056 0.741748
O O2 0.417857 0.443123 0.783014
O O3 0.443827 0.634791 0.797972
O O4 0.386769 0.559917 0.000000
O O5 0.353693 0.232115 0.500000
O O6 0.313891 0.118547 0.702096
O O7 0.379231 0.256154 0.765075
O O8 0.293038 0.316460 0.684784
O O9 0.872380 0.732211 0.151261
O O10 0.787483 0.771404 0.253709
O O11 0.813652 0.847647 0.000000
O O12 0.311730 0.970550 0.500000
O O13 0.373857 0.962253 0.714366
O O14 0.280049 0.935794 0.760388
O O15 0.081207 0.813479 0.500000
O O16 0.027610 0.779287 0.727104
O O17 0.451355 0.841041 0.239535
O O18 0.474618 0.761621 0.000000
O O19 0.072583 0.391876 0.000000
O O20 0.720422 0.173512 0.000000
#
# Coordination Sequence:
#
# PCOD8237238 Si02
#       8
#     8   8   8   8   8   8   8   8
#     4   9  17  31  52  77 107 141 175 214 261 311
#     4  10  23  40  55  75 106 141 175 214 259 310
#     4   9  17  30  50  78 108 136 171 213 257 307
#     4   9  19  38  59  77 103 138 173 211 258 309
#     4  10  21  35  51  74 105 141 179 218 262 311
#     4   9  17  31  52  77 105 137 173 214 259 307
#     4   8  15  29  51  76  98 126 168 212 253 302
#     4  10  20  35  56  81 105 133 174 217 260 310
#
# _framework density 19.193092
#
# number of rings (size 3 to 8) (size 9 to 14) (size 15 to 20)
#    0.000    2.750    0.000    1.875    0.000    8.000 
#    0.000    4.375    0.000    7.500    0.000    0.000 
#    0.000    0.000    0.000    0.000    0.000    0.000 
#
# Total GULP energy -793506.129815 kJ/mol
# GULP energy per Si atom -12398.533278 kJ/mol
# Density = 1.914941 g / cm^3
# Si number density = 19.193092 Si / 1000 Ang^3
#
#
#
# Elastic Constant Matrix: (Units=GPa)
#
#
# Indices 1 2 3 4 5 6 
#
# 1 69.4067 33.5192 32.6818 0.0000 0.0000 0.0000
# 2 33.5192 63.9469 30.3151 0.0000 0.0000 0.0000
# 3 32.6818 30.3151 66.9512 0.0000 0.0000 0.0000
# 4 0.0000 0.0000 0.0000 27.4172 0.0000 0.0000
# 5 0.0000 0.0000 0.0000 0.0000 29.6280 0.0000
# 6 0.0000 0.0000 0.0000 0.0000 0.0000 23.7297
#
#
#
# Elastic Compliance Matrix: (Units=1/GPa)
#
#
# Indices 1 2 3 4 5 6 
#
# 1 0.021517 -0.008021 -0.006872 0.000000 0.000000 0.000000
# 2 -0.008021 0.022902 -0.006455 0.000000 0.000000 0.000000
# 3 -0.006872 -0.006455 0.021213 0.000000 0.000000 0.000000
# 4 0.000000 0.000000 0.000000 0.036473 0.000000 0.000000
# 5 0.000000 0.000000 0.000000 0.000000 0.033752 0.000000
# 6 0.000000 0.000000 0.000000 0.000000 0.000000 0.042141
#
#
# Mechanical properties :
#
#
# Convention : Reuss Voigt Hill
#
# Bulk Modulus (GPa) = 43.59552 43.70412 43.64982
# Shear Modulus (GPa) = 21.89720 23.07423 22.48571
#
# Velocity S-wave (km/s) = 3.38137 3.47106 3.42651
# Velocity P-wave (km/s) = 6.16509 6.23575 6.20052
#
# Compressibility (1/GPa) = 0.02293814
#
# Stress axis : x y z
#
# Youngs Moduli (GPa) = 46.47444 43.66373 47.14062
#
# Poissons Ratio (x) = 0.35023 0.32393
# Poissons Ratio (y) = 0.37278 0.30427
# Poissons Ratio (z) = 0.31935 0.28183
#
# Static dielectric constant tensor:
#      x y z
#    x 3.473120 0.000000 0.000000 
#    y 0.000000 3.401560 0.000000 
#    z 0.000000 0.000000 3.576130 
# 
# 
# High freq. dielectric constant tensor:
#      x y z
#    x 1.737370 0.000000 0.000000 
#    y 0.000000 1.733380 0.000000 
#    z 0.000000 0.000000 1.742840 
# 
# From -- ./inp_files/10969.got.cif
#   From: 2010.06.25/outbox.cif.g09.slc.cpg/sg58_6_cif.got.tgz:10969.got - 2010.06.26 21:38:00.
