data_PCOD8237248
_publ_section_title
;
Structure prediction by ZEFSAII (Michael W. Deem and Ramdas Pophale) SiO2 
 PCOD8237248
Probable space group: P N N M
;
_chemical_formula_sum "Si O2"
_cell_formula_units_Z 64
_cell_length_a 16.958012
_cell_length_b 21.606369
_cell_length_c 8.706082
_cell_angle_alpha 90.000000
_cell_angle_beta 90.000000
_cell_angle_gamma 90.000000
_cell_volume 3189.917715
_symmetry_space_group_name_H-M "P N N M"
_symmetry_group_IT_number 58
_symmetry_cell_setting 'orthorhombic'
loop_
_space_group_symop_operation_xyz
x,y,z
-x,-y,z
1/2+x,1/2-y,1/2-z
1/2-x,1/2+y,1/2-z
-x,-y,-z
x,y,-z
1/2-x,1/2+y,1/2+z
1/2+x,1/2-y,1/2+z
loop_
_atom_site_type_symbol
_atom_site_label
_atom_site_fract_x
_atom_site_fract_y
_atom_site_fract_z
Si Si1 0.545960 0.815523 0.182985
Si Si2 0.090923 0.821474 0.318488
Si Si3 0.200844 0.620901 0.322995
Si Si4 0.675381 0.278329 0.330277
Si Si5 0.375388 0.839425 0.822753
Si Si6 0.221295 0.901024 0.182590
Si Si7 0.448675 0.613830 0.325314
Si Si8 0.178949 0.030391 0.320113
O O1 0.565513 0.746413 0.244320
O O2 0.611283 0.866470 0.231920
O O3 0.462571 0.839747 0.255005
O O4 0.542080 0.811183 0.000000
O O5 0.103978 0.820961 0.500000
O O6 0.172149 0.840917 0.236243
O O7 0.025819 0.873157 0.275533
O O8 0.205823 0.599087 0.500000
O O9 0.242570 0.687061 0.301826
O O10 0.241946 0.568128 0.222678
O O11 0.675143 0.247737 0.500000
O O12 0.665016 0.226935 0.201612
O O13 0.605031 0.326259 0.315406
O O14 0.313144 0.891221 0.765546
O O15 0.389481 0.849921 0.000000
O O16 0.188526 0.960188 0.269499
O O17 0.214427 0.909192 0.000000
O O18 0.473704 0.599051 0.500000
O O19 0.399589 0.555887 0.260989
O O20 0.165786 0.034693 0.500000
#
# Coordination Sequence:
#
# PCOD8237248 Si02
#       8
#     8   8   8   8   8   8   8   8
#     4   9  18  34  58  88 119 148 184 231 282 339
#     4  11  21  36  60  89 122 151 187 234 282 336
#     4   9  18  35  58  82 111 149 189 230 281 338
#     4   9  17  30  52  81 113 146 179 220 278 340
#     4  10  20  35  56  82 113 150 189 232 281 338
#     4  11  24  40  57  80 114 154 195 237 285 341
#     4  10  20  36  58  86 118 152 186 226 281 340
#     4  11  23  40  60  82 110 148 199 244 283 332
#
# _framework density 20.063212
#
# number of rings (size 3 to 8) (size 9 to 14) (size 15 to 20)
#    0.000    2.000    1.250    3.750    0.000    4.500 
#    0.000    5.000    0.000    3.750    0.000    0.000 
#    0.000    0.000    0.000    0.000    0.000    0.000 
#
# Total GULP energy -793421.293947 kJ/mol
# GULP energy per Si atom -12397.207718 kJ/mol
# Density = 2.001755 g / cm^3
# Si number density = 20.063212 Si / 1000 Ang^3
#
#
#
# Elastic Constant Matrix: (Units=GPa)
#
#
# Indices 1 2 3 4 5 6 
#
# 1 112.1915 12.0337 11.8475 0.0000 0.0000 0.0000
# 2 12.0337 35.5443 5.0136 0.0000 0.0000 0.0000
# 3 11.8475 5.0136 45.6274 0.0000 0.0000 0.0000
# 4 0.0000 0.0000 0.0000 24.3805 0.0000 0.0000
# 5 0.0000 0.0000 0.0000 0.0000 22.4270 0.0000
# 6 0.0000 0.0000 0.0000 0.0000 0.0000 18.4409
#
#
#
# Elastic Compliance Matrix: (Units=1/GPa)
#
#
# Indices 1 2 3 4 5 6 
#
# 1 0.009450 -0.002898 -0.002135 0.000000 0.000000 0.000000
# 2 -0.002898 0.029466 -0.002485 0.000000 0.000000 0.000000
# 3 -0.002135 -0.002485 0.022744 0.000000 0.000000 0.000000
# 4 0.000000 0.000000 0.000000 0.041016 0.000000 0.000000
# 5 0.000000 0.000000 0.000000 0.000000 0.044589 0.000000
# 6 0.000000 0.000000 0.000000 0.000000 0.000000 0.054227
#
#
# Mechanical properties :
#
#
# Convention : Reuss Voigt Hill
#
# Bulk Modulus (GPa) = 21.44891 27.90588 24.67739
# Shear Modulus (GPa) = 21.54520 24.01422 22.77971
#
# Velocity S-wave (km/s) = 3.28054 3.46342 3.37322
# Velocity P-wave (km/s) = 5.00631 5.47109 5.24386
#
# Compressibility (1/GPa) = 0.04662242
#
# Stress axis : x y z
#
# Youngs Moduli (GPa) = 105.82387 33.93783 43.96727
#
# Poissons Ratio (x) = 0.09835 0.09388
# Poissons Ratio (y) = 0.30668 0.10927
# Poissons Ratio (z) = 0.22596 0.08434
#
# Static dielectric constant tensor:
#      x y z
#    x 4.182560 0.000000 0.000000 
#    y 0.000000 3.455730 0.000000 
#    z 0.000000 0.000000 3.477450 
# 
# 
# High freq. dielectric constant tensor:
#      x y z
#    x 1.798070 0.000000 0.000000 
#    y 0.000000 1.762550 0.000000 
#    z 0.000000 0.000000 1.764210 
# 
# From -- ./inp_files/8364.got.cif
#   From: 2010.06.25/outbox.cif.g09.slc.cpg/sg58_5_cif.got.tgz:8364.got - 2010.06.26 21:38:00.
