data_PCOD8237067
_publ_section_title
;
Structure prediction by ZEFSAII (Michael W. Deem and Ramdas Pophale) SiO2 
 PCOD8237067
Probable space group: P N N M
;
_chemical_formula_sum "Si O2"
_cell_formula_units_Z 64
_cell_length_a 20.542309
_cell_length_b 18.618708
_cell_length_c 8.672638
_cell_angle_alpha 90.000000
_cell_angle_beta 90.000000
_cell_angle_gamma 90.000000
_cell_volume 3317.034722
_symmetry_space_group_name_H-M "P N N M"
_symmetry_group_IT_number 58
_symmetry_cell_setting 'orthorhombic'
loop_
_space_group_symop_operation_xyz
x,y,z
-x,-y,z
1/2+x,1/2-y,1/2-z
1/2-x,1/2+y,1/2-z
-x,-y,-z
x,y,-z
1/2-x,1/2+y,1/2+z
1/2+x,1/2-y,1/2+z
loop_
_atom_site_type_symbol
_atom_site_label
_atom_site_fract_x
_atom_site_fract_y
_atom_site_fract_z
Si Si1 0.058459 0.047971 0.182848
Si Si2 0.323651 0.297903 0.818773
Si Si3 0.686150 0.211804 0.817457
Si Si4 0.447319 0.205314 0.182232
Si Si5 0.679288 0.050267 0.818637
Si Si6 0.062472 0.543180 0.316209
Si Si7 0.566454 0.290972 0.317467
Si Si8 0.175661 0.950647 0.181327
O O1 0.053903 0.128724 0.247906
O O2 0.126870 0.013104 0.233939
O O3 0.053057 0.049549 0.000000
O O4 0.000000 0.000000 0.252607
O O5 0.259615 0.269223 0.732034
O O6 0.383424 0.248219 0.766136
O O7 0.342255 0.378567 0.771969
O O8 0.311205 0.292972 0.000000
O O9 0.669122 0.131429 0.757773
O O10 0.637237 0.266975 0.738963
O O11 0.680078 0.217820 0.000000
O O12 0.440043 0.124358 0.245276
O O13 0.511386 0.238448 0.256256
O O14 0.456979 0.206976 0.000000
O O15 0.751652 0.023121 0.775453
O O16 0.626329 0.996273 0.745977
O O17 0.669492 0.051427 0.000000
O O18 0.064750 0.543377 0.500000
O O19 0.000000 0.500000 0.255387
O O20 0.565659 0.290753 0.500000
O O21 0.170153 0.933148 0.000000
#
# Coordination Sequence:
#
# PCOD8237067 Si02
#       8
#     8   8   8   8   8   8   8   8
#     4   9  18  32  51  75 101 133 176 221 261 309
#     4  10  20  34  53  80 112 141 174 217 266 319
#     4  10  20  36  57  79 107 142 179 218 265 321
#     4  10  21  35  53  78 107 139 174 216 266 320
#     4   8  15  28  50  76  96 124 168 214 253 297
#     4   9  16  28  49  74  97 126 171 219 255 295
#     4  11  22  35  55  81 108 139 178 225 270 315
#     4   9  17  32  54  76 100 134 176 216 258 311
#
# _framework density 19.294339999999998
#
# number of rings (size 3 to 8) (size 9 to 14) (size 15 to 20)
#    0.000    2.500    0.000    3.375    0.000    5.000 
#    0.000    5.000    0.000    9.750    0.000    0.000 
#    0.000    0.000    0.000    0.000    0.000    0.000 
#
# Total GULP energy -793587.027985 kJ/mol
# GULP energy per Si atom -12399.797312 kJ/mol
# Density = 1.925043 g / cm^3
# Si number density = 19.294340 Si / 1000 Ang^3
#
#
#
# Elastic Constant Matrix: (Units=GPa)
#
#
# Indices 1 2 3 4 5 6 
#
# 1 124.7290 59.6379 9.9437 0.0000 0.0000 0.0000
# 2 59.6379 102.7303 6.3609 0.0000 0.0000 0.0000
# 3 9.9437 6.3609 14.5955 0.0000 0.0000 0.0000
# 4 0.0000 0.0000 0.0000 22.0032 0.0000 0.0000
# 5 0.0000 0.0000 0.0000 0.0000 24.9413 0.0000
# 6 0.0000 0.0000 0.0000 0.0000 0.0000 43.0756
#
#
#
# Elastic Compliance Matrix: (Units=1/GPa)
#
#
# Indices 1 2 3 4 5 6 
#
# 1 0.011447 -0.006334 -0.005039 0.000000 0.000000 0.000000
# 2 -0.006334 0.013508 -0.001572 0.000000 0.000000 0.000000
# 3 -0.005039 -0.001572 0.072632 0.000000 0.000000 0.000000
# 4 0.000000 0.000000 0.000000 0.045448 0.000000 0.000000
# 5 0.000000 0.000000 0.000000 0.000000 0.040094 0.000000
# 6 0.000000 0.000000 0.000000 0.000000 0.000000 0.023215
#
#
# Mechanical properties :
#
#
# Convention : Reuss Voigt Hill
#
# Bulk Modulus (GPa) = 13.94715 43.77111 28.85913
# Shear Modulus (GPa) = 19.52103 29.07816 24.29960
#
# Velocity S-wave (km/s) = 3.18425 3.88633 3.55267
# Velocity P-wave (km/s) = 4.55671 6.54777 5.64078
#
# Compressibility (1/GPa) = 0.07169923
#
# Stress axis : x y z
#
# Youngs Moduli (GPa) = 87.35599 74.02808 13.76797
#
# Poissons Ratio (x) = 0.46886 0.06937
# Poissons Ratio (y) = 0.55327 0.02165
# Poissons Ratio (z) = 0.44016 0.11639
#
# Static dielectric constant tensor:
#      x y z
#    x 3.761630 0.000000 0.000000 
#    y 0.000000 3.759890 0.000000 
#    z 0.000000 0.000000 3.149400 
# 
# 
# High freq. dielectric constant tensor:
#      x y z
#    x 1.767970 0.000000 0.000000 
#    y 0.000000 1.753630 0.000000 
#    z 0.000000 0.000000 1.711770 
# 
# From -- ./inp_files/9288.got.cif
#   From: 2010.06.25/outbox.cif.g09.slc.cpg/sg58_5_cif.got.tgz:9288.got - 2010.06.26 21:38:00.
