data_PCOD8237313
_publ_section_title
;
Structure prediction by ZEFSAII (Michael W. Deem and Ramdas Pophale) SiO2 
 PCOD8237313
Probable space group: P N N M
;
_chemical_formula_sum "Si O2"
_cell_formula_units_Z 64
_cell_length_a 20.091008
_cell_length_b 13.199691
_cell_length_c 13.002300
_cell_angle_alpha 90.000000
_cell_angle_beta 90.000000
_cell_angle_gamma 90.000000
_cell_volume 3448.146216
_symmetry_space_group_name_H-M "P N N M"
_symmetry_group_IT_number 58
_symmetry_cell_setting 'orthorhombic'
loop_
_space_group_symop_operation_xyz
x,y,z
-x,-y,z
1/2+x,1/2-y,1/2-z
1/2-x,1/2+y,1/2-z
-x,-y,-z
x,y,-z
1/2-x,1/2+y,1/2+z
1/2+x,1/2-y,1/2+z
loop_
_atom_site_type_symbol
_atom_site_label
_atom_site_fract_x
_atom_site_fract_y
_atom_site_fract_z
Si Si1 0.392826 0.861244 0.688371
Si Si2 0.980873 0.115232 0.703294
Si Si3 0.025528 0.732346 0.882626
Si Si4 0.217459 0.097611 0.309357
Si Si5 0.772471 0.771495 0.116507
Si Si6 0.137443 0.577284 0.118503
Si Si7 0.835244 0.108070 0.619084
Si Si8 0.101062 0.234560 0.384807
O O1 0.461272 0.838309 0.630311
O O2 0.334691 0.802953 0.629157
O O3 0.397152 0.829004 0.807518
O O4 0.378900 0.980395 0.688292
O O5 0.978959 0.167154 0.814613
O O6 0.911644 0.127453 0.644700
O O7 0.036114 0.166296 0.631987
O O8 0.000000 0.000000 0.723064
O O9 0.089687 0.668483 0.847684
O O10 0.031974 0.768202 0.000000
O O11 0.221431 0.131599 0.190384
O O12 0.287607 0.113385 0.364578
O O13 0.165636 0.165401 0.371381
O O14 0.194645 0.981035 0.310407
O O15 0.705220 0.710339 0.142888
O O16 0.770984 0.812515 0.000000
O O17 0.125664 0.547646 0.000000
O O18 0.827116 0.076471 0.500000
O O19 0.099718 0.278489 0.500000
#
# Coordination Sequence:
#
# PCOD8237313 Si02
#       8
#     8   8   8   8   8   8   8   8
#     4  10  20  35  58  83 106 139 185 227 271 330
#     4  11  22  36  55  82 112 146 184 226 273 326
#     4  10  22  37  55  81 112 145 182 226 275 324
#     4  11  21  34  57  83 109 140 183 227 269 322
#     4  10  21  37  56  79 112 147 181 222 275 327
#     4  11  20  35  59  83 108 141 184 230 273 320
#     4  11  21  36  59  83 108 143 185 227 270 321
#     4  10  21  37  56  81 110 142 181 227 276 323
#
# _framework density 18.560697999999999
#
# number of rings (size 3 to 8) (size 9 to 14) (size 15 to 20)
#    0.000    1.500    2.500    3.750    0.000    1.750 
#    0.000    1.250    0.000    6.750    0.000    0.000 
#    0.000    0.000    0.000    0.000    0.000    0.000 
#
# Total GULP energy -793954.906393 kJ/mol
# GULP energy per Si atom -12405.545412 kJ/mol
# Density = 1.851845 g / cm^3
# Si number density = 18.560698 Si / 1000 Ang^3
#
#
#
# Elastic Constant Matrix: (Units=GPa)
#
#
# Indices 1 2 3 4 5 6 
#
# 1 145.0560 34.1962 33.4816 0.0000 0.0000 0.0000
# 2 34.1962 56.2710 60.4987 0.0000 0.0000 0.0000
# 3 33.4816 60.4987 115.9414 0.0000 0.0000 0.0000
# 4 0.0000 0.0000 0.0000 22.7562 0.0000 0.0000
# 5 0.0000 0.0000 0.0000 0.0000 22.5400 0.0000
# 6 0.0000 0.0000 0.0000 0.0000 0.0000 24.7959
#
#
#
# Elastic Compliance Matrix: (Units=1/GPa)
#
#
# Indices 1 2 3 4 5 6 
#
# 1 0.008060 -0.005457 0.000520 0.000000 0.000000 0.000000
# 2 -0.005457 0.044177 -0.021476 0.000000 0.000000 0.000000
# 3 0.000520 -0.021476 0.019681 0.000000 0.000000 0.000000
# 4 0.000000 0.000000 0.000000 0.043944 0.000000 0.000000
# 5 0.000000 0.000000 0.000000 0.000000 0.044366 0.000000
# 6 0.000000 0.000000 0.000000 0.000000 0.000000 0.040329
#
#
# Mechanical properties :
#
#
# Convention : Reuss Voigt Hill
#
# Bulk Modulus (GPa) = 52.37780 63.73570 58.05675
# Shear Modulus (GPa) = 19.24948 26.62456 22.93702
#
# Velocity S-wave (km/s) = 3.22391 3.79153 3.51919
# Velocity P-wave (km/s) = 6.49147 7.31992 6.91811
#
# Compressibility (1/GPa) = 0.01909206
#
# Stress axis : x y z
#
# Youngs Moduli (GPa) = 124.06295 22.63628 50.81054
#
# Poissons Ratio (x) = 0.12354 -0.02642
# Poissons Ratio (y) = 0.67707 1.09119
# Poissons Ratio (z) = -0.06452 0.48613
#
# Static dielectric constant tensor:
#      x y z
#    x 3.703240 0.000000 0.000000 
#    y 0.000000 3.233440 0.000000 
#    z 0.000000 0.000000 3.352050 
# 
# 
# High freq. dielectric constant tensor:
#      x y z
#    x 1.744730 0.000000 0.000000 
#    y 0.000000 1.704820 0.000000 
#    z 0.000000 0.000000 1.717640 
# 
# From -- ./inp_files/16542.got.cif
#   From: 2010.06.25/outbox.cif.g09.slc.cpg/sg58_9_cif.got.tgz:16542.got - 2010.06.26 21:38:00.
