data_PCOD8237781
_publ_section_title
;
Structure prediction by ZEFSAII (Michael W. Deem and Ramdas Pophale) SiO2 
 PCOD8237781
Probable space group: P N N M
;
_chemical_formula_sum "Si O2"
_cell_formula_units_Z 40
_cell_length_a 6.371532
_cell_length_b 14.136757
_cell_length_c 19.402266
_cell_angle_alpha 90.000000
_cell_angle_beta 90.000000
_cell_angle_gamma 90.000000
_cell_volume 1747.616417
_symmetry_space_group_name_H-M "P N N M"
_symmetry_group_IT_number 58
_symmetry_cell_setting 'orthorhombic'
loop_
_space_group_symop_operation_xyz
x,y,z
-x,-y,z
1/2+x,1/2-y,1/2-z
1/2-x,1/2+y,1/2-z
-x,-y,-z
x,y,-z
1/2-x,1/2+y,1/2+z
1/2+x,1/2-y,1/2+z
loop_
_atom_site_type_symbol
_atom_site_label
_atom_site_fract_x
_atom_site_fract_y
_atom_site_fract_z
Si Si1 0.069630 0.726081 0.078723
Si Si2 0.763633 0.433154 0.286875
Si Si3 0.790913 0.133594 0.816356
Si Si4 0.350324 0.582975 0.137312
Si Si5 0.680870 0.733053 0.178554
O O1 0.217351 0.807417 0.112581
O O2 0.182799 0.622638 0.081930
O O3 0.852423 0.721339 0.119297
O O4 0.025143 0.752858 0.000000
O O5 0.529355 0.401491 0.305315
O O6 0.775181 0.452671 0.204639
O O7 0.902987 0.343191 0.313786
O O8 0.160830 0.465941 0.319485
O O9 0.723033 0.200178 0.751840
O O10 0.500000 0.500000 0.106859
O O11 0.482754 0.673781 0.157817
#
# Coordination Sequence:
#
# PCOD8237781 Si02
#       5
#     8   8   8   8   8
#     4  11  25  40  60  92 127 159 199 252 313 366
#     4   9  16  33  61  96 112 150 212 251 292 351
#     4   9  17  35  63  86 121 157 201 251 297 356
#     4  11  21  38  61  84 122 160 202 251 301 359
#     4  10  20  38  64  87 118 157 205 254 295 356
#
# _framework density 22.888317000000001
#
# number of rings (size 3 to 8) (size 9 to 14) (size 15 to 20)
#    0.000    2.000    6.000    0.000    0.000    2.000 
#    0.000   12.000    0.000    1.200    0.000    0.000 
#    0.000    0.000    0.000    0.000    0.000    0.000 
#
# Total GULP energy -495828.184520 kJ/mol
# GULP energy per Si atom -12395.704613 kJ/mol
# Density = 2.283622 g / cm^3
# Si number density = 22.888317 Si / 1000 Ang^3
#
#
#
# Elastic Constant Matrix: (Units=GPa)
#
#
# Indices 1 2 3 4 5 6 
#
# 1 32.2591 36.3412 26.3405 0.0000 0.0000 0.0000
# 2 36.3412 162.1574 43.1370 0.0000 0.0000 0.0000
# 3 26.3405 43.1370 142.7061 0.0000 0.0000 0.0000
# 4 0.0000 0.0000 0.0000 19.1561 0.0000 0.0000
# 5 0.0000 0.0000 0.0000 0.0000 24.2689 0.0000
# 6 0.0000 0.0000 0.0000 0.0000 0.0000 50.7382
#
#
#
# Elastic Compliance Matrix: (Units=1/GPa)
#
#
# Indices 1 2 3 4 5 6 
#
# 1 0.045462 -0.008652 -0.005776 0.000000 0.000000 0.000000
# 2 -0.008652 0.008353 -0.000928 0.000000 0.000000 0.000000
# 3 -0.005776 -0.000928 0.008354 0.000000 0.000000 0.000000
# 4 0.000000 0.000000 0.000000 0.052203 0.000000 0.000000
# 5 0.000000 0.000000 0.000000 0.000000 0.041205 0.000000
# 6 0.000000 0.000000 0.000000 0.000000 0.000000 0.019709
#
#
# Mechanical properties :
#
#
# Convention : Reuss Voigt Hill
#
# Bulk Modulus (GPa) = 31.78936 60.97332 46.38134
# Shear Modulus (GPa) = 23.09649 34.25288 28.67469
#
# Velocity S-wave (km/s) = 3.18007 3.87269 3.54334
# Velocity P-wave (km/s) = 5.23477 6.83332 6.08675
#
# Compressibility (1/GPa) = 0.03145707
#
# Stress axis : x y z
#
# Youngs Moduli (GPa) = 21.99630 119.72191 119.70293
#
# Poissons Ratio (x) = 1.03584 0.69141
# Poissons Ratio (y) = 0.19031 0.11107
# Poissons Ratio (z) = 0.12705 0.11109
#
# Static dielectric constant tensor:
#      x y z
#    x 4.404440 0.000000 0.000000 
#    y 0.000000 5.232270 0.000000 
#    z 0.000000 0.000000 3.565630 
# 
# 
# High freq. dielectric constant tensor:
#      x y z
#    x 1.935530 0.000000 0.000000 
#    y 0.000000 1.935030 0.000000 
#    z 0.000000 0.000000 1.832550 
# 
# From -- ./inp_files/24164.got.cif
#   From: 2010.06.25/outbox.cif.g09.slc.cpg/sg58_13_cif.got.tgz:24164.got - 2010.06.26 21:38:00.
