data_PCOD8237518
_publ_section_title
;
Structure prediction by ZEFSAII (Michael W. Deem and Ramdas Pophale) SiO2 
 PCOD8237518
Probable space group: P N N M
;
_chemical_formula_sum "Si O2"
_cell_formula_units_Z 56
_cell_length_a 14.774648
_cell_length_b 22.148393
_cell_length_c 8.631883
_cell_angle_alpha 90.000000
_cell_angle_beta 90.000000
_cell_angle_gamma 90.000000
_cell_volume 2824.651733
_symmetry_space_group_name_H-M "P N N M"
_symmetry_group_IT_number 58
_symmetry_cell_setting 'orthorhombic'
loop_
_space_group_symop_operation_xyz
x,y,z
-x,-y,z
1/2+x,1/2-y,1/2-z
1/2-x,1/2+y,1/2-z
-x,-y,-z
x,y,-z
1/2-x,1/2+y,1/2+z
1/2+x,1/2-y,1/2+z
loop_
_atom_site_type_symbol
_atom_site_label
_atom_site_fract_x
_atom_site_fract_y
_atom_site_fract_z
Si Si1 0.653442 0.904095 0.183283
Si Si2 0.660758 0.035146 0.175801
Si Si3 0.493494 0.430152 0.817346
Si Si4 0.317396 0.782712 0.680007
Si Si5 0.845109 0.852741 0.817258
Si Si6 0.188365 0.876078 0.184031
Si Si7 0.468019 0.860274 0.176545
O O1 0.747194 0.875785 0.232416
O O2 0.570643 0.861865 0.241614
O O3 0.649266 0.970812 0.260064
O O4 0.640164 0.908789 0.000000
O O5 0.742084 0.073949 0.251808
O O6 0.566631 0.070775 0.183012
O O7 0.691139 0.023114 0.000000
O O8 0.500000 0.500000 0.756596
O O9 0.582875 0.393570 0.772021
O O10 0.410429 0.392676 0.745450
O O11 0.481247 0.430421 0.000000
O O12 0.294327 0.780348 0.500000
O O13 0.343692 0.716195 0.740516
O O14 0.227728 0.810869 0.761305
O O15 0.407896 0.820352 0.710661
O O16 0.863785 0.858644 0.000000
O O17 0.185918 0.874457 0.000000
O O18 0.460208 0.835443 0.000000
#
# Coordination Sequence:
#
# PCOD8237518 Si02
#       7
#     8   8   8   8   8   8   8
#     4   9  16  29  51  77 103 131 171 223 269 315
#     4   8  14  26  49  81 108 129 163 215 267 318
#     4  11  24  40  59  86 119 153 190 240 301 352
#     4  10  21  37  54  78 113 147 186 235 282 330
#     4  10  22  38  56  79 108 148 195 237 278 333
#     4  10  20  36  61  86 109 146 191 231 278 341
#     4   9  17  30  52  80 106 137 176 216 269 335
#
# _framework density 19.825454000000001
#
# number of rings (size 3 to 8) (size 9 to 14) (size 15 to 20)
#    0.000    2.429    0.000    3.429    0.000    6.286 
#    0.000    2.143    0.000    7.714    0.000    0.000 
#    0.000    0.000    0.000    0.000    0.000    0.000 
#
# Total GULP energy -694072.407824 kJ/mol
# GULP energy per Si atom -12394.150140 kJ/mol
# Density = 1.978033 g / cm^3
# Si number density = 19.825454 Si / 1000 Ang^3
#
#
#
# Elastic Constant Matrix: (Units=GPa)
#
#
# Indices 1 2 3 4 5 6 
#
# 1 138.3684 53.5445 22.2306 0.0000 0.0000 0.0000
# 2 53.5445 137.0843 28.2863 0.0000 0.0000 0.0000
# 3 22.2306 28.2863 45.7158 0.0000 0.0000 0.0000
# 4 0.0000 0.0000 0.0000 21.0096 0.0000 0.0000
# 5 0.0000 0.0000 0.0000 0.0000 26.2850 0.0000
# 6 0.0000 0.0000 0.0000 0.0000 0.0000 23.2332
#
#
#
# Elastic Compliance Matrix: (Units=1/GPa)
#
#
# Indices 1 2 3 4 5 6 
#
# 1 0.008747 -0.002911 -0.002453 0.000000 0.000000 0.000000
# 2 -0.002911 0.009331 -0.004358 0.000000 0.000000 0.000000
# 3 -0.002453 -0.004358 0.025763 0.000000 0.000000 0.000000
# 4 0.000000 0.000000 0.000000 0.047597 0.000000 0.000000
# 5 0.000000 0.000000 0.000000 0.000000 0.038045 0.000000
# 6 0.000000 0.000000 0.000000 0.000000 0.000000 0.043042
#
#
# Mechanical properties :
#
#
# Convention : Reuss Voigt Hill
#
# Bulk Modulus (GPa) = 40.98532 58.81014 49.89773
# Shear Modulus (GPa) = 24.98733 28.57937 26.78335
#
# Velocity S-wave (km/s) = 3.55401 3.80089 3.67953
# Velocity P-wave (km/s) = 6.12857 6.99934 6.57838
#
# Compressibility (1/GPa) = 0.02439898
#
# Stress axis : x y z
#
# Youngs Moduli (GPa) = 114.31867 107.17079 38.81462
#
# Poissons Ratio (x) = 0.31193 0.09520
# Poissons Ratio (y) = 0.33274 0.16916
# Poissons Ratio (z) = 0.28040 0.46706
#
# Static dielectric constant tensor:
#      x y z
#    x 3.723380 0.000000 0.000000 
#    y 0.000000 3.809160 0.000000 
#    z 0.000000 0.000000 3.241300 
# 
# 
# High freq. dielectric constant tensor:
#      x y z
#    x 1.782940 0.000000 0.000000 
#    y 0.000000 1.777690 0.000000 
#    z 0.000000 0.000000 1.736570 
# 
# From -- ./inp_files/6473.got.cif
#   From: 2010.06.25/outbox.cif.g09.slc.cpg/sg58_4_cif.got.tgz:6473.got - 2010.06.26 21:38:00.
