data_PCOD8237914
_publ_section_title
;
Structure prediction by ZEFSAII (Michael W. Deem and Ramdas Pophale) SiO2 
 PCOD8237914
Probable space group: P N N M
;
_chemical_formula_sum "Si O2"
_cell_formula_units_Z 48
_cell_length_a 30.414738
_cell_length_b 9.285490
_cell_length_c 9.145046
_cell_angle_alpha 90.000000
_cell_angle_beta 90.000000
_cell_angle_gamma 90.000000
_cell_volume 2582.704984
_symmetry_space_group_name_H-M "P N N M"
_symmetry_group_IT_number 58
_symmetry_cell_setting 'orthorhombic'
loop_
_space_group_symop_operation_xyz
x,y,z
-x,-y,z
1/2+x,1/2-y,1/2-z
1/2-x,1/2+y,1/2-z
-x,-y,-z
x,y,-z
1/2-x,1/2+y,1/2+z
1/2+x,1/2-y,1/2+z
loop_
_atom_site_type_symbol
_atom_site_label
_atom_site_fract_x
_atom_site_fract_y
_atom_site_fract_z
Si Si1 0.135476 0.590391 0.166122
Si Si2 0.288550 0.611824 0.328538
Si Si3 0.958568 0.094343 0.671694
Si Si4 0.206710 0.414113 0.327934
Si Si5 0.629294 0.580913 0.328352
Si Si6 0.963864 0.385527 0.166608
O O1 0.162022 0.485117 0.271177
O O2 0.142164 0.755995 0.216365
O O3 0.084518 0.545209 0.180151
O O4 0.152230 0.570042 0.000000
O O5 0.289088 0.645385 0.500000
O O6 0.247015 0.515962 0.283519
O O7 0.285633 0.759496 0.242274
O O8 0.332080 0.525834 0.280729
O O9 0.950633 0.093080 0.500000
O O10 0.914867 0.030807 0.747080
O O11 0.968796 0.254431 0.723637
O O12 0.000000 0.000000 0.719036
O O13 0.203358 0.392968 0.500000
O O14 0.619685 0.575719 0.500000
O O15 0.000000 0.500000 0.215327
O O16 0.971620 0.332716 0.000000
#
# Coordination Sequence:
#
# PCOD8237914 Si02
#       6
#     8   8   8   8   8   8
#     4   9  18  35  57  80 108 139 175 222 267 309
#     4  10  22  39  57  79 108 141 177 219 264 310
#     4  10  21  35  52  79 113 143 173 217 272 320
#     4  11  23  37  56  82 109 140 177 215 263 321
#     4   9  19  37  59  79 102 139 184 222 259 310
#     4   9  19  36  57  79 104 141 186 223 259 311
#
# _framework density 18.585165
#
# number of rings (size 3 to 8) (size 9 to 14) (size 15 to 20)
#    0.000    2.333    0.000    3.000    0.000    9.000 
#    0.000    5.000    0.000    0.000    0.000    0.000 
#    0.000    0.000    0.000    0.000    0.000    0.000 
#
# Total GULP energy -595340.039503 kJ/mol
# GULP energy per Si atom -12402.917490 kJ/mol
# Density = 1.854286 g / cm^3
# Si number density = 18.585165 Si / 1000 Ang^3
#
#
#
# Elastic Constant Matrix: (Units=GPa)
#
#
# Indices 1 2 3 4 5 6 
#
# 1 134.7881 79.7101 55.1616 0.0000 0.0000 0.0000
# 2 79.7101 118.1889 51.0310 0.0000 0.0000 0.0000
# 3 55.1616 51.0310 54.7757 0.0000 0.0000 0.0000
# 4 0.0000 0.0000 0.0000 32.9503 0.0000 0.0000
# 5 0.0000 0.0000 0.0000 0.0000 23.6293 0.0000
# 6 0.0000 0.0000 0.0000 0.0000 0.0000 37.5423
#
#
#
# Elastic Compliance Matrix: (Units=1/GPa)
#
#
# Indices 1 2 3 4 5 6 
#
# 1 0.014731 -0.005905 -0.009333 0.000000 0.000000 0.000000
# 2 -0.005905 0.016522 -0.009446 0.000000 0.000000 0.000000
# 3 -0.009333 -0.009446 0.036455 0.000000 0.000000 0.000000
# 4 0.000000 0.000000 0.000000 0.030349 0.000000 0.000000
# 5 0.000000 0.000000 0.000000 0.000000 0.042320 0.000000
# 6 0.000000 0.000000 0.000000 0.000000 0.000000 0.026637
#
#
# Mechanical properties :
#
#
# Convention : Reuss Voigt Hill
#
# Bulk Modulus (GPa) = 54.52589 75.50646 65.01618
# Shear Modulus (GPa) = 22.47238 26.94771 24.71005
#
# Velocity S-wave (km/s) = 3.48107 3.81196 3.65027
# Velocity P-wave (km/s) = 6.74975 7.75179 7.26806
#
# Compressibility (1/GPa) = 0.01833991
#
# Stress axis : x y z
#
# Youngs Moduli (GPa) = 67.88550 60.52526 27.43078
#
# Poissons Ratio (x) = 0.35740 0.25602
# Poissons Ratio (y) = 0.40086 0.25911
# Poissons Ratio (z) = 0.63359 0.57172
#
# Static dielectric constant tensor:
#      x y z
#    x 3.592650 0.000000 0.000000 
#    y 0.000000 3.359480 0.000000 
#    z 0.000000 0.000000 3.345560 
# 
# 
# High freq. dielectric constant tensor:
#      x y z
#    x 1.734830 0.000000 0.000000 
#    y 0.000000 1.717100 0.000000 
#    z 0.000000 0.000000 1.718650 
# 
# From -- ./inp_files/2907.got.cif
#   From: 2010.06.25/outbox.cif.g09.slc.cpg/sg58_2_cif.got.tgz:2907.got - 2010.06.26 21:38:00.
