data_PCOD8237571
_publ_section_title
;
Structure prediction by ZEFSAII (Michael W. Deem and Ramdas Pophale) SiO2 
 PCOD8237571
Probable space group: P N N M
;
_chemical_formula_sum "Si O2"
_cell_formula_units_Z 64
_cell_length_a 9.206932
_cell_length_b 14.085169
_cell_length_c 25.902158
_cell_angle_alpha 90.000000
_cell_angle_beta 90.000000
_cell_angle_gamma 90.000000
_cell_volume 3359.022756
_symmetry_space_group_name_H-M "P N N M"
_symmetry_group_IT_number 58
_symmetry_cell_setting 'orthorhombic'
loop_
_space_group_symop_operation_xyz
x,y,z
-x,-y,z
1/2+x,1/2-y,1/2-z
1/2-x,1/2+y,1/2-z
-x,-y,-z
x,y,-z
1/2-x,1/2+y,1/2+z
1/2+x,1/2-y,1/2+z
loop_
_atom_site_type_symbol
_atom_site_label
_atom_site_fract_x
_atom_site_fract_y
_atom_site_fract_z
Si Si1 0.410260 0.909605 0.223195
Si Si2 0.394926 0.583099 0.556055
Si Si3 0.073914 0.906271 0.773015
Si Si4 0.851637 0.549751 0.556499
Si Si5 0.409216 0.908820 0.341322
Si Si6 0.066163 0.901250 0.654522
Si Si7 0.048583 0.775534 0.865037
Si Si8 0.115138 0.276608 0.632530
O O1 0.241323 0.932157 0.220981
O O2 0.453433 0.888076 0.282030
O O3 0.441578 0.819615 0.186843
O O4 0.500000 0.000000 0.202128
O O5 0.500000 0.500000 0.542191
O O6 0.351867 0.630647 0.500000
O O7 0.255383 0.529819 0.582680
O O8 0.483736 0.654958 0.592032
O O9 0.026577 0.883902 0.714504
O O10 0.022273 0.819363 0.808350
O O11 0.000000 0.000000 0.794846
O O12 0.787200 0.579899 0.500000
O O13 0.888140 0.642446 0.589492
O O14 0.000000 0.500000 0.546457
O O15 0.238128 0.914284 0.352188
O O16 0.460375 0.819841 0.374196
O O17 0.500000 0.000000 0.360700
O O18 0.992304 0.813784 0.622439
O O19 0.000000 0.000000 0.634310
O O20 0.217169 0.745637 0.868024
#
# Coordination Sequence:
#
# PCOD8237571 Si02
#       8
#     8   8   8   8   8   8   8   8
#     4   9  19  33  50  76 109 144 180 225 269 320
#     4  10  20  37  58  83 115 145 175 217 273 330
#     4   9  19  32  50  76 109 144 181 223 269 319
#     4  10  22  38  57  84 117 145 174 219 274 332
#     4  10  21  37  54  75 106 144 188 230 273 317
#     4  10  21  37  53  74 107 146 185 231 273 316
#     4  11  21  32  55  81 108 145 185 223 267 329
#     4  11  21  33  54  81 110 144 185 221 271 327
#
# _framework density 19.053160999999999
#
# number of rings (size 3 to 8) (size 9 to 14) (size 15 to 20)
#    0.000    2.000    1.250    2.250    3.500    2.000 
#    0.000    0.000    0.000    0.750    0.000    0.000 
#    0.000    0.000    0.000    0.000    0.000    0.000 
#
# Total GULP energy -792865.253103 kJ/mol
# GULP energy per Si atom -12388.519580 kJ/mol
# Density = 1.900980 g / cm^3
# Si number density = 19.053161 Si / 1000 Ang^3
#
#
#
# Elastic Constant Matrix: (Units=GPa)
#
#
# Indices 1 2 3 4 5 6 
#
# 1 95.3387 61.3017 19.4584 0.0000 0.0000 0.0000
# 2 61.3017 118.8889 25.9299 0.0000 0.0000 0.0000
# 3 19.4584 25.9299 39.8743 0.0000 0.0000 0.0000
# 4 0.0000 0.0000 0.0000 23.9459 0.0000 0.0000
# 5 0.0000 0.0000 0.0000 0.0000 20.7073 0.0000
# 6 0.0000 0.0000 0.0000 0.0000 0.0000 43.2075
#
#
#
# Elastic Compliance Matrix: (Units=1/GPa)
#
#
# Indices 1 2 3 4 5 6 
#
# 1 0.015962 -0.007611 -0.002840 0.000000 0.000000 0.000000
# 2 -0.007611 0.013430 -0.005020 0.000000 0.000000 0.000000
# 3 -0.002840 -0.005020 0.029729 0.000000 0.000000 0.000000
# 4 0.000000 0.000000 0.000000 0.041761 0.000000 0.000000
# 5 0.000000 0.000000 0.000000 0.000000 0.048292 0.000000
# 6 0.000000 0.000000 0.000000 0.000000 0.000000 0.023144
#
#
# Mechanical properties :
#
#
# Convention : Reuss Voigt Hill
#
# Bulk Modulus (GPa) = 35.48584 51.94246 43.71415
# Shear Modulus (GPa) = 23.51238 27.39960 25.45599
#
# Velocity S-wave (km/s) = 3.51670 3.79629 3.65917
# Velocity P-wave (km/s) = 5.92914 6.82179 6.39107
#
# Compressibility (1/GPa) = 0.02818025
#
# Stress axis : x y z
#
# Youngs Moduli (GPa) = 62.64695 74.45756 33.63733
#
# Poissons Ratio (x) = 0.56671 0.09553
# Poissons Ratio (y) = 0.47682 0.16884
# Poissons Ratio (z) = 0.17792 0.37374
#
# Static dielectric constant tensor:
#      x y z
#    x 3.555870 0.000000 0.000000 
#    y 0.000000 3.550330 0.000000 
#    z 0.000000 0.000000 3.356170 
# 
# 
# High freq. dielectric constant tensor:
#      x y z
#    x 1.755390 0.000000 0.000000 
#    y 0.000000 1.732380 0.000000 
#    z 0.000000 0.000000 1.710590 
# 
# From -- ./inp_files/34786.got.cif
#   From: 2010.06.25/outbox.cif.g09.slc.cpg/sg58_18_cif.got.tgz:34786.got - 2010.06.26 21:38:00.
