data_PCOD8237286
_publ_section_title
;
Structure prediction by ZEFSAII (Michael W. Deem and Ramdas Pophale) SiO2 
 PCOD8237286
Probable space group: P N N M
;
_chemical_formula_sum "Si O2"
_cell_formula_units_Z 64
_cell_length_a 14.745654
_cell_length_b 24.552192
_cell_length_c 8.935315
_cell_angle_alpha 90.000000
_cell_angle_beta 90.000000
_cell_angle_gamma 90.000000
_cell_volume 3234.924717
_symmetry_space_group_name_H-M "P N N M"
_symmetry_group_IT_number 58
_symmetry_cell_setting 'orthorhombic'
loop_
_space_group_symop_operation_xyz
x,y,z
-x,-y,z
1/2+x,1/2-y,1/2-z
1/2-x,1/2+y,1/2-z
-x,-y,-z
x,y,-z
1/2-x,1/2+y,1/2+z
1/2+x,1/2-y,1/2+z
loop_
_atom_site_type_symbol
_atom_site_label
_atom_site_fract_x
_atom_site_fract_y
_atom_site_fract_z
Si Si1 0.494528 0.829447 0.822270
Si Si2 0.761450 0.051685 0.827617
Si Si3 0.934251 0.868970 0.830825
Si Si4 0.861516 0.764450 0.322673
Si Si5 0.096342 0.023391 0.675650
Si Si6 0.167622 0.737650 0.325093
Si Si7 0.945107 0.551660 0.322609
Si Si8 0.633064 0.656093 0.334098
O O1 0.412022 0.790619 0.765821
O O2 0.592202 0.805955 0.770067
O O3 0.482190 0.890675 0.757107
O O4 0.491401 0.830262 0.000000
O O5 0.658664 0.043101 0.775976
O O6 0.783110 0.115570 0.806824
O O7 0.823435 0.016956 0.718124
O O8 0.777074 0.033873 0.000000
O O9 0.917941 0.814679 0.738578
O O10 0.883261 0.919627 0.756706
O O11 0.041953 0.879864 0.826004
O O12 0.898206 0.862139 0.000000
O O13 0.860539 0.766661 0.500000
O O14 0.759760 0.769991 0.264669
O O15 0.096142 0.033577 0.500000
O O16 0.000000 0.000000 0.730327
O O17 0.186960 0.731319 0.500000
O O18 0.130396 0.797899 0.292032
O O19 0.955446 0.553519 0.500000
O O20 0.000000 0.500000 0.256018
O O21 0.642329 0.682885 0.500000
#
# Coordination Sequence:
#
# PCOD8237286 Si02
#       8
#     8   8   8   8   8   8   8   8
#     4   9  19  36  57  81 117 156 195 243 300 360
#     4  10  20  36  60  87 115 154 202 249 299 356
#     4  11  22  37  59  85 116 153 199 249 296 355
#     4  11  22  39  59  84 121 161 196 242 305 364
#     4  11  23  37  56  84 121 159 194 237 299 364
#     4  11  22  36  58  88 119 157 203 248 297 359
#     4   9  18  34  58  86 113 147 195 247 294 344
#     4  10  20  35  57  84 116 153 197 248 302 358
#
# _framework density 19.784078000000001
#
# number of rings (size 3 to 8) (size 9 to 14) (size 15 to 20)
#    0.000    1.750    2.500    2.250    0.000    4.500 
#    0.000    2.500    0.000    1.875    0.000    0.000 
#    0.000    0.000    0.000    0.000    0.000    0.000 
#
# Total GULP energy -793630.025291 kJ/mol
# GULP energy per Si atom -12400.469145 kJ/mol
# Density = 1.973905 g / cm^3
# Si number density = 19.784078 Si / 1000 Ang^3
#
#
#
# Elastic Constant Matrix: (Units=GPa)
#
#
# Indices 1 2 3 4 5 6 
#
# 1 132.1877 70.4541 34.3279 0.0000 0.0000 0.0000
# 2 70.4541 135.9514 36.0110 0.0000 0.0000 0.0000
# 3 34.3279 36.0110 61.4653 0.0000 0.0000 0.0000
# 4 0.0000 0.0000 0.0000 29.2203 0.0000 0.0000
# 5 0.0000 0.0000 0.0000 0.0000 26.8365 0.0000
# 6 0.0000 0.0000 0.0000 0.0000 0.0000 33.9549
#
#
#
# Elastic Compliance Matrix: (Units=1/GPa)
#
#
# Indices 1 2 3 4 5 6 
#
# 1 0.010995 -0.004819 -0.003317 0.000000 0.000000 0.000000
# 2 -0.004819 0.010819 -0.003647 0.000000 0.000000 0.000000
# 3 -0.003317 -0.003647 0.020259 0.000000 0.000000 0.000000
# 4 0.000000 0.000000 0.000000 0.034223 0.000000 0.000000
# 5 0.000000 0.000000 0.000000 0.000000 0.037263 0.000000
# 6 0.000000 0.000000 0.000000 0.000000 0.000000 0.029451
#
#
# Mechanical properties :
#
#
# Convention : Reuss Voigt Hill
#
# Bulk Modulus (GPa) = 54.03727 67.91005 60.97366
# Shear Modulus (GPa) = 28.94442 30.58977 29.76710
#
# Velocity S-wave (km/s) = 3.82909 3.93642 3.88312
# Velocity P-wave (km/s) = 6.84997 7.42029 7.14082
#
# Compressibility (1/GPa) = 0.01850575
#
# Stress axis : x y z
#
# Youngs Moduli (GPa) = 90.95000 92.42873 49.36155
#
# Poissons Ratio (x) = 0.44544 0.16374
# Poissons Ratio (y) = 0.43832 0.18003
# Poissons Ratio (z) = 0.30169 0.33710
#
# Static dielectric constant tensor:
#      x y z
#    x 3.727270 0.000000 0.000000 
#    y 0.000000 3.753660 0.000000 
#    z 0.000000 0.000000 3.367040 
# 
# 
# High freq. dielectric constant tensor:
#      x y z
#    x 1.777480 0.000000 0.000000 
#    y 0.000000 1.775200 0.000000 
#    z 0.000000 0.000000 1.744690 
# 
# From -- ./inp_files/6769.got.cif
#   From: 2010.06.25/outbox.cif.g09.slc.cpg/sg58_4_cif.got.tgz:6769.got - 2010.06.26 21:38:00.
