data_PCOD8237225
_publ_section_title
;
Structure prediction by ZEFSAII (Michael W. Deem and Ramdas Pophale) SiO2 
 PCOD8237225
Probable space group: P N N M
;
_chemical_formula_sum "Si O2"
_cell_formula_units_Z 64
_cell_length_a 9.077552
_cell_length_b 14.244762
_cell_length_c 24.472160
_cell_angle_alpha 90.000000
_cell_angle_beta 90.000000
_cell_angle_gamma 90.000000
_cell_volume 3164.435488
_symmetry_space_group_name_H-M "P N N M"
_symmetry_group_IT_number 58
_symmetry_cell_setting 'orthorhombic'
loop_
_space_group_symop_operation_xyz
x,y,z
-x,-y,z
1/2+x,1/2-y,1/2-z
1/2-x,1/2+y,1/2-z
-x,-y,-z
x,y,-z
1/2-x,1/2+y,1/2+z
1/2+x,1/2-y,1/2+z
loop_
_atom_site_type_symbol
_atom_site_label
_atom_site_fract_x
_atom_site_fract_y
_atom_site_fract_z
Si Si1 0.688861 0.578298 0.359768
Si Si2 0.183605 0.855486 0.744622
Si Si3 0.676328 0.999177 0.331256
Si Si4 0.160595 0.962570 0.437477
Si Si5 0.335313 0.659315 0.759943
Si Si6 0.434509 0.899714 0.061485
Si Si7 0.629873 0.372634 0.362399
Si Si8 0.192315 0.746140 0.560200
O O1 0.711177 0.571408 0.294403
O O2 0.813531 0.630424 0.394204
O O3 0.673632 0.474518 0.386065
O O4 0.544110 0.641337 0.366288
O O5 0.261945 0.902491 0.692547
O O6 0.263722 0.761662 0.765557
O O7 0.011773 0.839131 0.729168
O O8 0.720327 0.994076 0.395451
O O9 0.500000 0.000000 0.325260
O O10 0.751464 0.910982 0.300835
O O11 0.206072 0.988772 0.500000
O O12 0.147511 0.851840 0.429099
O O13 0.000000 0.000000 0.422753
O O14 0.305948 0.628170 0.698282
O O15 0.550819 0.818027 0.066711
O O16 0.500000 0.000000 0.078757
O O17 0.369206 0.905295 0.000000
O O18 0.688751 0.285265 0.396057
O O19 0.261291 0.733318 0.500000
#
# Coordination Sequence:
#
# PCOD8237225 Si02
#       8
#     8   8   8   8   8   8   8   8
#     4  10  21  35  56  83 121 161 201 245 305 359
#     4  11  23  41  61  91 127 165 208 262 314 374
#     4  12  25  41  65  96 127 165 211 259 318 384
#     4  10  23  45  70  93 120 161 211 264 323 380
#     4  11  23  41  63  90 128 167 211 260 315 375
#     4  10  20  35  55  86 122 156 198 247 294 356
#     4  10  20  37  57  83 121 163 201 251 301 363
#     4  10  21  38  62  90 121 161 206 252 309 372
#
# _framework density 20.224775000000001
#
# number of rings (size 3 to 8) (size 9 to 14) (size 15 to 20)
#    0.000    1.500    2.500    2.625    0.000    6.250 
#    0.000    1.250    0.000    3.000    0.000    0.000 
#    0.000    0.000    0.000    0.000    0.000    0.000 
#
# Total GULP energy -793440.562739 kJ/mol
# GULP energy per Si atom -12397.508793 kJ/mol
# Density = 2.017874 g / cm^3
# Si number density = 20.224775 Si / 1000 Ang^3
#
#
#
# Elastic Constant Matrix: (Units=GPa)
#
#
# Indices 1 2 3 4 5 6 
#
# 1 124.9427 42.1387 71.6385 0.0000 0.0000 0.0000
# 2 42.1387 98.4864 40.1266 0.0000 0.0000 0.0000
# 3 71.6385 40.1266 118.6310 0.0000 0.0000 0.0000
# 4 0.0000 0.0000 0.0000 39.0664 0.0000 0.0000
# 5 0.0000 0.0000 0.0000 0.0000 42.0174 0.0000
# 6 0.0000 0.0000 0.0000 0.0000 0.0000 28.4618
#
#
#
# Elastic Compliance Matrix: (Units=1/GPa)
#
#
# Indices 1 2 3 4 5 6 
#
# 1 0.012836 -0.002707 -0.006836 0.000000 0.000000 0.000000
# 2 -0.002707 0.012348 -0.002542 0.000000 0.000000 0.000000
# 3 -0.006836 -0.002542 0.013417 0.000000 0.000000 0.000000
# 4 0.000000 0.000000 0.000000 0.025597 0.000000 0.000000
# 5 0.000000 0.000000 0.000000 0.000000 0.023800 0.000000
# 6 0.000000 0.000000 0.000000 0.000000 0.000000 0.035135
#
#
# Mechanical properties :
#
#
# Convention : Reuss Voigt Hill
#
# Bulk Modulus (GPa) = 69.29208 72.20752 70.74980
# Shear Modulus (GPa) = 32.87040 34.45286 33.66163
#
# Velocity S-wave (km/s) = 4.03582 4.13182 4.08410
# Velocity P-wave (km/s) = 7.48682 7.65132 7.56951
#
# Compressibility (1/GPa) = 0.01443166
#
# Stress axis : x y z
#
# Youngs Moduli (GPa) = 77.90553 80.98790 74.53097
#
# Poissons Ratio (x) = 0.21923 0.50948
# Poissons Ratio (y) = 0.21089 0.18945
# Poissons Ratio (z) = 0.53254 0.20586
#
# Static dielectric constant tensor:
#      x y z
#    x 3.617550 0.000000 0.000000 
#    y 0.000000 3.758750 0.000000 
#    z 0.000000 0.000000 3.900010 
# 
# 
# High freq. dielectric constant tensor:
#      x y z
#    x 1.783070 0.000000 0.000000 
#    y 0.000000 1.793130 0.000000 
#    z 0.000000 0.000000 1.797020 
# 
# From -- ./inp_files/31638.got.cif
#   From: 2010.06.25/outbox.cif.g09.slc.cpg/sg58_16_cif.got.tgz:31638.got - 2010.06.26 21:38:00.
