data_PCOD8237402
_publ_section_title
;
Structure prediction by ZEFSAII (Michael W. Deem and Ramdas Pophale) SiO2 
 PCOD8237402
Probable space group: P N N M
;
_chemical_formula_sum "Si O2"
_cell_formula_units_Z 64
_cell_length_a 16.860182
_cell_length_b 21.933578
_cell_length_c 8.770497
_cell_angle_alpha 90.000000
_cell_angle_beta 90.000000
_cell_angle_gamma 90.000000
_cell_volume 3243.365899
_symmetry_space_group_name_H-M "P N N M"
_symmetry_group_IT_number 58
_symmetry_cell_setting 'orthorhombic'
loop_
_space_group_symop_operation_xyz
x,y,z
-x,-y,z
1/2+x,1/2-y,1/2-z
1/2-x,1/2+y,1/2-z
-x,-y,-z
x,y,-z
1/2-x,1/2+y,1/2+z
1/2+x,1/2-y,1/2+z
loop_
_atom_site_type_symbol
_atom_site_label
_atom_site_fract_x
_atom_site_fract_y
_atom_site_fract_z
Si Si1 0.438931 0.619416 0.679250
Si Si2 0.181033 0.208068 0.323170
Si Si3 0.953287 0.312061 0.177424
Si Si4 0.134578 0.324852 0.826192
Si Si5 0.189994 0.632362 0.680447
Si Si6 0.807281 0.970320 0.178837
Si Si7 0.580204 0.681090 0.177469
Si Si8 0.722081 0.596606 0.827643
O O1 0.457261 0.617324 0.500000
O O2 0.385280 0.677685 0.716738
O O3 0.390412 0.559453 0.736600
O O4 0.521014 0.626912 0.769526
O O5 0.168872 0.191335 0.500000
O O6 0.172158 0.279588 0.296985
O O7 0.267294 0.188564 0.264744
O O8 0.900772 0.362555 0.265830
O O9 0.937433 0.243354 0.233628
O O10 0.042397 0.334628 0.210632
O O11 0.932898 0.314118 0.000000
O O12 0.185117 0.387008 0.804852
O O13 0.145393 0.300814 0.000000
O O14 0.196357 0.640712 0.500000
O O15 0.231578 0.569452 0.736602
O O16 0.800569 0.039876 0.224142
O O17 0.808404 0.965549 0.000000
O O18 0.668211 0.655655 0.212722
O O19 0.567772 0.695019 0.000000
O O20 0.704750 0.576283 0.000000
#
# Coordination Sequence:
#
# PCOD8237402 Si02
#       8
#     8   8   8   8   8   8   8   8
#     4  10  20  36  57  83 117 155 189 234 289 338
#     4  11  20  32  56  87 114 146 190 232 285 349
#     4  11  22  36  59  89 118 150 192 238 290 350
#     4  10  21  38  57  81 117 154 188 234 296 348
#     4  10  21  38  59  82 114 151 189 238 293 340
#     4   9  21  40  60  81 109 151 199 241 284 341
#     4  11  22  36  57  88 122 153 191 236 293 352
#     4  10  23  40  58  81 113 154 191 238 292 343
#
# _framework density 19.732586999999999
#
# number of rings (size 3 to 8) (size 9 to 14) (size 15 to 20)
#    0.000    1.750    1.250    4.125    0.000    6.500 
#    0.000    3.125    0.000    3.750    0.000    0.000 
#    0.000    0.000    0.000    0.000    0.000    0.000 
#
# Total GULP energy -793498.142447 kJ/mol
# GULP energy per Si atom -12398.408476 kJ/mol
# Density = 1.968767 g / cm^3
# Si number density = 19.732587 Si / 1000 Ang^3
#
#
#
# Elastic Constant Matrix: (Units=GPa)
#
#
# Indices 1 2 3 4 5 6 
#
# 1 108.1255 22.1509 22.0472 0.0000 0.0000 0.0000
# 2 22.1509 50.1422 9.4247 0.0000 0.0000 0.0000
# 3 22.0472 9.4247 52.1782 0.0000 0.0000 0.0000
# 4 0.0000 0.0000 0.0000 30.1899 0.0000 0.0000
# 5 0.0000 0.0000 0.0000 0.0000 30.4252 0.0000
# 6 0.0000 0.0000 0.0000 0.0000 0.0000 21.1379
#
#
#
# Elastic Compliance Matrix: (Units=1/GPa)
#
#
# Indices 1 2 3 4 5 6 
#
# 1 0.010870 -0.004077 -0.003857 0.000000 0.000000 0.000000
# 2 -0.004077 0.022173 -0.002282 0.000000 0.000000 0.000000
# 3 -0.003857 -0.002282 0.021207 0.000000 0.000000 0.000000
# 4 0.000000 0.000000 0.000000 0.033124 0.000000 0.000000
# 5 0.000000 0.000000 0.000000 0.000000 0.032868 0.000000
# 6 0.000000 0.000000 0.000000 0.000000 0.000000 0.047308
#
#
# Mechanical properties :
#
#
# Convention : Reuss Voigt Hill
#
# Bulk Modulus (GPa) = 29.56979 35.29905 32.43442
# Shear Modulus (GPa) = 25.09349 26.80547 25.94948
#
# Velocity S-wave (km/s) = 3.56993 3.68970 3.63031
# Velocity P-wave (km/s) = 5.65776 6.00661 5.83479
#
# Compressibility (1/GPa) = 0.03381830
#
# Stress axis : x y z
#
# Youngs Moduli (GPa) = 91.99513 45.09904 47.15444
#
# Poissons Ratio (x) = 0.18388 0.18186
# Poissons Ratio (y) = 0.37508 0.10762
# Poissons Ratio (z) = 0.35479 0.10293
#
# Static dielectric constant tensor:
#      x y z
#    x 3.932950 0.000000 0.000000 
#    y 0.000000 3.325000 0.000000 
#    z 0.000000 0.000000 3.531080 
# 
# 
# High freq. dielectric constant tensor:
#      x y z
#    x 1.778950 0.000000 0.000000 
#    y 0.000000 1.743460 0.000000 
#    z 0.000000 0.000000 1.770520 
# 
# From -- ./inp_files/8423.got.cif
#   From: 2010.06.25/outbox.cif.g09.slc.cpg/sg58_5_cif.got.tgz:8423.got - 2010.06.26 21:38:00.
