data_PCOD8237108
_publ_section_title
;
Structure prediction by ZEFSAII (Michael W. Deem and Ramdas Pophale) SiO2 
 PCOD8237108
Probable space group: P N N M
;
_chemical_formula_sum "Si O2"
_cell_formula_units_Z 64
_cell_length_a 15.034950
_cell_length_b 23.697942
_cell_length_c 9.167115
_cell_angle_alpha 90.000000
_cell_angle_beta 90.000000
_cell_angle_gamma 90.000000
_cell_volume 3266.218993
_symmetry_space_group_name_H-M "P N N M"
_symmetry_group_IT_number 58
_symmetry_cell_setting 'orthorhombic'
loop_
_space_group_symop_operation_xyz
x,y,z
-x,-y,z
1/2+x,1/2-y,1/2-z
1/2-x,1/2+y,1/2-z
-x,-y,-z
x,y,-z
1/2-x,1/2+y,1/2+z
1/2+x,1/2-y,1/2+z
loop_
_atom_site_type_symbol
_atom_site_label
_atom_site_fract_x
_atom_site_fract_y
_atom_site_fract_z
Si Si1 0.924892 0.331887 0.673470
Si Si2 0.579243 0.248497 0.165867
Si Si3 0.237246 0.747357 0.326376
Si Si4 0.750813 0.021251 0.830879
Si Si5 0.488020 0.365234 0.163041
Si Si6 0.907388 0.968932 0.662071
Si Si7 0.317098 0.359754 0.669365
Si Si8 0.578927 0.960462 0.174201
O O1 0.923460 0.330208 0.500000
O O2 0.835830 0.298747 0.728924
O O3 0.925401 0.396079 0.733696
O O4 0.017976 0.303080 0.726176
O O5 0.664466 0.263640 0.263323
O O6 0.511867 0.300193 0.171558
O O7 0.611612 0.236367 0.000000
O O8 0.242876 0.747253 0.500000
O O9 0.209440 0.808717 0.272209
O O10 0.749269 0.088504 0.801438
O O11 0.839451 0.992290 0.777019
O O12 0.666330 0.990427 0.759830
O O13 0.747969 0.009157 0.000000
O O14 0.575734 0.402632 0.193455
O O15 0.414713 0.380491 0.283719
O O16 0.451487 0.379812 0.000000
O O17 0.868687 0.978322 0.500000
O O18 0.000000 0.000000 0.682173
O O19 0.316750 0.341824 0.500000
O O20 0.500000 0.000000 0.233438
O O21 0.577598 0.958936 0.000000
#
# Coordination Sequence:
#
# PCOD8237108 Si02
#       8
#     8   8   8   8   8   8   8   8
#     4   9  19  37  60  84 115 151 189 237 290 347
#     4  10  21  38  60  84 113 150 192 239 292 347
#     4  11  23  39  59  87 118 153 193 237 294 354
#     4  10  22  36  56  87 116 148 194 246 290 337
#     4  10  20  37  57  81 117 157 193 232 289 355
#     4  10  20  34  55  81 115 158 192 222 281 356
#     4  11  22  36  57  86 117 150 194 244 295 346
#     4   9  19  36  59  84 111 147 192 241 291 340
#
# _framework density 19.594522999999999
#
# number of rings (size 3 to 8) (size 9 to 14) (size 15 to 20)
#    0.000    2.000    2.500    0.750    3.500    1.750 
#    0.000    0.000    0.000    1.125    0.000    0.000 
#    0.000    0.000    0.000    0.000    0.000    0.000 
#
# Total GULP energy -793333.057482 kJ/mol
# GULP energy per Si atom -12395.829023 kJ/mol
# Density = 1.954992 g / cm^3
# Si number density = 19.594523 Si / 1000 Ang^3
#
#
#
# Elastic Constant Matrix: (Units=GPa)
#
#
# Indices 1 2 3 4 5 6 
#
# 1 96.8077 49.4212 29.3355 0.0000 0.0000 0.0000
# 2 49.4212 132.5188 32.6070 0.0000 0.0000 0.0000
# 3 29.3355 32.6070 38.1939 0.0000 0.0000 0.0000
# 4 0.0000 0.0000 0.0000 20.5258 0.0000 0.0000
# 5 0.0000 0.0000 0.0000 0.0000 16.4529 0.0000
# 6 0.0000 0.0000 0.0000 0.0000 0.0000 30.3751
#
#
#
# Elastic Compliance Matrix: (Units=1/GPa)
#
#
# Indices 1 2 3 4 5 6 
#
# 1 0.014577 -0.003395 -0.008298 0.000000 0.000000 0.000000
# 2 -0.003395 0.010343 -0.006223 0.000000 0.000000 0.000000
# 3 -0.008298 -0.006223 0.037869 0.000000 0.000000 0.000000
# 4 0.000000 0.000000 0.000000 0.048719 0.000000 0.000000
# 5 0.000000 0.000000 0.000000 0.000000 0.060779 0.000000
# 6 0.000000 0.000000 0.000000 0.000000 0.000000 0.032922
#
#
# Mechanical properties :
#
#
# Convention : Reuss Voigt Hill
#
# Bulk Modulus (GPa) = 37.09570 54.47200 45.78385
# Shear Modulus (GPa) = 19.99782 23.88120 21.93951
#
# Velocity S-wave (km/s) = 3.19812 3.49488 3.34979
# Velocity P-wave (km/s) = 5.71052 6.64421 6.19498
#
# Compressibility (1/GPa) = 0.02695730
#
# Stress axis : x y z
#
# Youngs Moduli (GPa) = 68.59954 96.68121 26.40712
#
# Poissons Ratio (x) = 0.32819 0.21914
# Poissons Ratio (y) = 0.23287 0.16433
# Poissons Ratio (z) = 0.56926 0.60165
#
# Static dielectric constant tensor:
#      x y z
#    x 3.775690 0.000000 0.000000 
#    y 0.000000 3.913680 0.000000 
#    z 0.000000 0.000000 3.334280 
# 
# 
# High freq. dielectric constant tensor:
#      x y z
#    x 1.763120 0.000000 0.000000 
#    y 0.000000 1.781060 0.000000 
#    z 0.000000 0.000000 1.727350 
# 
# From -- ./inp_files/6758.got.cif
#   From: 2010.06.25/outbox.cif.g09.slc.cpg/sg58_4_cif.got.tgz:6758.got - 2010.06.26 21:38:00.
