data_PCOD8237337
_publ_section_title
;
Structure prediction by ZEFSAII (Michael W. Deem and Ramdas Pophale) SiO2 
 PCOD8237337
Probable space group: P N N M
;
_chemical_formula_sum "Si O2"
_cell_formula_units_Z 56
_cell_length_a 21.574721
_cell_length_b 14.440662
_cell_length_c 8.568217
_cell_angle_alpha 90.000000
_cell_angle_beta 90.000000
_cell_angle_gamma 90.000000
_cell_volume 2669.455885
_symmetry_space_group_name_H-M "P N N M"
_symmetry_group_IT_number 58
_symmetry_cell_setting 'orthorhombic'
loop_
_space_group_symop_operation_xyz
x,y,z
-x,-y,z
1/2+x,1/2-y,1/2-z
1/2-x,1/2+y,1/2-z
-x,-y,-z
x,y,-z
1/2-x,1/2+y,1/2+z
1/2+x,1/2-y,1/2+z
loop_
_atom_site_type_symbol
_atom_site_label
_atom_site_fract_x
_atom_site_fract_y
_atom_site_fract_z
Si Si1 0.571818 0.503268 0.318181
Si Si2 0.458263 0.133045 0.823161
Si Si3 0.860608 0.830411 0.680058
Si Si4 0.352464 0.028983 0.323378
Si Si5 0.271469 0.176135 0.820006
Si Si6 0.117501 0.810790 0.678412
Si Si7 0.414280 0.847906 0.321788
O O1 0.500000 0.500000 0.262373
O O2 0.576307 0.479411 0.500000
O O3 0.612286 0.430295 0.222105
O O4 0.603103 0.602808 0.288894
O O5 0.421306 0.068572 0.703571
O O6 0.439037 0.239826 0.799343
O O7 0.530543 0.121794 0.791386
O O8 0.443369 0.101912 0.000000
O O9 0.873798 0.809236 0.500000
O O10 0.787576 0.822704 0.709500
O O11 0.894258 0.755683 0.786566
O O12 0.331356 0.050538 0.500000
O O13 0.305029 0.077151 0.204670
O O14 0.356428 0.918229 0.294433
O O15 0.318135 0.259724 0.774011
O O16 0.251302 0.183557 0.000000
O O17 0.121681 0.845265 0.500000
O O18 0.437191 0.853057 0.500000
#
# Coordination Sequence:
#
# PCOD8237337 Si02
#       7
#     8   8   8   8   8   8   8
#     4  11  24  41  63  91 122 159 202 249 302 359
#     4  10  20  35  58  89 123 156 193 238 286 342
#     4  12  26  42  62  86 116 155 198 247 300 356
#     4  10  21  37  59  87 120 157 194 236 288 345
#     4  10  22  42  64  87 118 153 196 248 297 352
#     4   9  20  38  61  88 118 155 195 241 296 349
#     4  11  23  38  57  84 119 155 192 238 291 345
#
# _framework density 20.978058000000001
#
# number of rings (size 3 to 8) (size 9 to 14) (size 15 to 20)
#    0.000    1.571    0.000    5.571    0.000   12.000 
#    0.000    1.429    0.000    0.000    0.000    0.000 
#    0.000    0.000    0.000    0.000    0.000    0.000 
#
# Total GULP energy -694562.546661 kJ/mol
# GULP energy per Si atom -12402.902619 kJ/mol
# Density = 2.093031 g / cm^3
# Si number density = 20.978058 Si / 1000 Ang^3
#
#
#
# Elastic Constant Matrix: (Units=GPa)
#
#
# Indices 1 2 3 4 5 6 
#
# 1 74.4348 -1.8047 18.1727 0.0000 0.0000 0.0000
# 2 -1.8047 64.2867 31.9523 0.0000 0.0000 0.0000
# 3 18.1727 31.9523 68.0800 0.0000 0.0000 0.0000
# 4 0.0000 0.0000 0.0000 34.7729 0.0000 0.0000
# 5 0.0000 0.0000 0.0000 0.0000 30.4690 0.0000
# 6 0.0000 0.0000 0.0000 0.0000 0.0000 19.7185
#
#
#
# Elastic Compliance Matrix: (Units=1/GPa)
#
#
# Indices 1 2 3 4 5 6 
#
# 1 0.014833 0.003110 -0.005419 0.000000 0.000000 0.000000
# 2 0.003110 0.020940 -0.010658 0.000000 0.000000 0.000000
# 3 -0.005419 -0.010658 0.021137 0.000000 0.000000 0.000000
# 4 0.000000 0.000000 0.000000 0.028758 0.000000 0.000000
# 5 0.000000 0.000000 0.000000 0.000000 0.032820 0.000000
# 6 0.000000 0.000000 0.000000 0.000000 0.000000 0.050714
#
#
# Mechanical properties :
#
#
# Convention : Reuss Voigt Hill
#
# Bulk Modulus (GPa) = 32.28312 33.71578 32.99945
# Shear Modulus (GPa) = 24.33547 27.55750 25.94648
#
# Velocity S-wave (km/s) = 3.40964 3.62834 3.52069
# Velocity P-wave (km/s) = 5.56087 5.80172 5.68257
#
# Compressibility (1/GPa) = 0.03097594
#
# Stress axis : x y z
#
# Youngs Moduli (GPa) = 67.41743 47.75574 47.30998
#
# Poissons Ratio (x) = -0.14851 0.25637
# Poissons Ratio (y) = -0.20965 0.50422
# Poissons Ratio (z) = 0.36533 0.50898
#
# Static dielectric constant tensor:
#      x y z
#    x 3.746750 0.000000 0.000000 
#    y 0.000000 3.790560 0.000000 
#    z 0.000000 0.000000 3.694240 
# 
# 
# High freq. dielectric constant tensor:
#      x y z
#    x 1.814930 0.000000 0.000000 
#    y 0.000000 1.826640 0.000000 
#    z 0.000000 0.000000 1.824910 
# 
# From -- ./inp_files/9061.got.cif
#   From: 2010.06.25/outbox.cif.g09.slc.cpg/sg58_5_cif.got.tgz:9061.got - 2010.06.26 21:38:00.
