data_PCOD8237461
_publ_section_title
;
Structure prediction by ZEFSAII (Michael W. Deem and Ramdas Pophale) SiO2 
 PCOD8237461
Probable space group: P N N M
;
_chemical_formula_sum "Si O2"
_cell_formula_units_Z 64
_cell_length_a 19.512649
_cell_length_b 8.418165
_cell_length_c 18.221616
_cell_angle_alpha 90.000000
_cell_angle_beta 90.000000
_cell_angle_gamma 90.000000
_cell_volume 2993.095379
_symmetry_space_group_name_H-M "P N N M"
_symmetry_group_IT_number 58
_symmetry_cell_setting 'orthorhombic'
loop_
_space_group_symop_operation_xyz
x,y,z
-x,-y,z
1/2+x,1/2-y,1/2-z
1/2-x,1/2+y,1/2-z
-x,-y,-z
x,y,-z
1/2-x,1/2+y,1/2+z
1/2+x,1/2-y,1/2+z
loop_
_atom_site_type_symbol
_atom_site_label
_atom_site_fract_x
_atom_site_fract_y
_atom_site_fract_z
Si Si1 0.775151 0.298385 0.327811
Si Si2 0.615933 0.685737 0.079398
Si Si3 0.617504 0.786330 0.416420
Si Si4 0.324977 0.433519 0.706046
Si Si5 0.154545 0.361296 0.087636
Si Si6 0.973847 0.835844 0.916449
Si Si7 0.424410 0.571671 0.817947
Si Si8 0.971866 0.668185 0.417913
O O1 0.842292 0.325150 0.379005
O O2 0.743276 0.467828 0.310690
O O3 0.724232 0.186693 0.373385
O O4 0.801440 0.214270 0.254573
O O5 0.621984 0.522964 0.123887
O O6 0.536378 0.719550 0.071475
O O7 0.649419 0.659982 0.000000
O O8 0.641316 0.754783 0.500000
O O9 0.646181 0.639565 0.369127
O O10 0.535048 0.791287 0.411091
O O11 0.641696 0.957446 0.387999
O O12 0.381897 0.552665 0.742148
O O13 0.093929 0.245376 0.118418
O O14 0.160022 0.348818 0.000000
O O15 0.955027 0.878386 0.000000
O O16 0.000000 0.000000 0.877554
O O17 0.500000 0.500000 0.804612
O O18 0.426513 0.750752 0.852830
O O19 0.936406 0.653021 0.500000
O O20 0.000000 0.500000 0.389565
#
# Coordination Sequence:
#
# PCOD8237461 Si02
#       8
#     8   8   8   8   8   8   8   8
#     4  11  23  38  55  78 112 151 190 230 275 343
#     4   9  18  34  57  82 108 142 182 224 272 332
#     4  10  21  38  59  83 111 144 191 249 298 337
#     4  11  24  39  57  79 112 155 197 240 288 346
#     4  10  20  36  59  85 114 149 188 235 291 347
#     4   9  17  31  55  86 114 141 180 231 285 338
#     4   9  19  36  57  81 111 148 186 228 281 342
#     4   9  17  32  58  91 119 141 176 231 288 340
#
# _framework density 21.382546000000001
#
# number of rings (size 3 to 8) (size 9 to 14) (size 15 to 20)
#    0.000    2.250    0.000    2.625    0.000    7.500 
#    0.000    1.250    0.000    6.750    0.000    0.000 
#    0.000    0.500    0.000    0.000    0.000    0.000 
#
# Total GULP energy -793082.150142 kJ/mol
# GULP energy per Si atom -12391.908596 kJ/mol
# Density = 2.133388 g / cm^3
# Si number density = 21.382546 Si / 1000 Ang^3
#
#
#
# Elastic Constant Matrix: (Units=GPa)
#
#
# Indices 1 2 3 4 5 6 
#
# 1 52.1994 1.3133 21.5852 0.0000 0.0000 0.0000
# 2 1.3133 81.5624 33.5497 0.0000 0.0000 0.0000
# 3 21.5852 33.5497 88.8875 0.0000 0.0000 0.0000
# 4 0.0000 0.0000 0.0000 29.4488 0.0000 0.0000
# 5 0.0000 0.0000 0.0000 0.0000 13.6981 0.0000
# 6 0.0000 0.0000 0.0000 0.0000 0.0000 36.9495
#
#
#
# Elastic Compliance Matrix: (Units=1/GPa)
#
#
# Indices 1 2 3 4 5 6 
#
# 1 0.021608 0.002143 -0.006056 0.000000 0.000000 0.000000
# 2 0.002143 0.014727 -0.006079 0.000000 0.000000 0.000000
# 3 -0.006056 -0.006079 0.015015 0.000000 0.000000 0.000000
# 4 0.000000 0.000000 0.000000 0.033957 0.000000 0.000000
# 5 0.000000 0.000000 0.000000 0.000000 0.073003 0.000000
# 6 0.000000 0.000000 0.000000 0.000000 0.000000 0.027064
#
#
# Mechanical properties :
#
#
# Convention : Reuss Voigt Hill
#
# Bulk Modulus (GPa) = 31.88171 37.28285 34.58228
# Shear Modulus (GPa) = 23.16832 27.09936 25.13384
#
# Velocity S-wave (km/s) = 3.29525 3.56386 3.43218
# Velocity P-wave (km/s) = 5.42409 5.86590 5.64932
#
# Compressibility (1/GPa) = 0.03136595
#
# Stress axis : x y z
#
# Youngs Moduli (GPa) = 46.27993 67.90478 66.59916
#
# Poissons Ratio (x) = -0.14553 0.40333
# Poissons Ratio (y) = -0.09919 0.40484
# Poissons Ratio (z) = 0.28027 0.41278
#
# Static dielectric constant tensor:
#      x y z
#    x 3.864080 0.000000 0.000000 
#    y 0.000000 3.775620 0.000000 
#    z 0.000000 0.000000 3.958410 
# 
# 
# High freq. dielectric constant tensor:
#      x y z
#    x 1.830070 0.000000 0.000000 
#    y 0.000000 1.830220 0.000000 
#    z 0.000000 0.000000 1.836650 
# 
# From -- ./inp_files/27557.got.cif
#   From: 2010.06.25/outbox.cif.g09.slc.cpg/sg58_14_cif.got.tgz:27557.got - 2010.06.26 21:38:00.
