data_PCOD8237409
_publ_section_title
;
Structure prediction by ZEFSAII (Michael W. Deem and Ramdas Pophale) SiO2 
 PCOD8237409
Probable space group: P N N M
;
_chemical_formula_sum "Si O2"
_cell_formula_units_Z 40
_cell_length_a 9.490424
_cell_length_b 24.726213
_cell_length_c 9.041559
_cell_angle_alpha 90.000000
_cell_angle_beta 90.000000
_cell_angle_gamma 90.000000
_cell_volume 2121.712536
_symmetry_space_group_name_H-M "P N N M"
_symmetry_group_IT_number 58
_symmetry_cell_setting 'orthorhombic'
loop_
_space_group_symop_operation_xyz
x,y,z
-x,-y,z
1/2+x,1/2-y,1/2-z
1/2-x,1/2+y,1/2-z
-x,-y,-z
x,y,-z
1/2-x,1/2+y,1/2+z
1/2+x,1/2-y,1/2+z
loop_
_atom_site_type_symbol
_atom_site_label
_atom_site_fract_x
_atom_site_fract_y
_atom_site_fract_z
Si Si1 0.848463 0.405976 0.173323
Si Si2 0.690905 0.196914 0.330795
Si Si3 0.138946 0.411694 0.326982
Si Si4 0.659391 0.489004 0.327880
Si Si5 0.129460 0.717435 0.167284
O O1 0.715234 0.438261 0.235028
O O2 0.821456 0.343036 0.207918
O O3 0.991282 0.426341 0.250697
O O4 0.867172 0.415919 0.000000
O O5 0.720277 0.180926 0.500000
O O6 0.706946 0.143230 0.233811
O O7 0.802968 0.241026 0.280515
O O8 0.537376 0.222688 0.312781
O O9 0.111152 0.405423 0.500000
O O10 0.248322 0.458774 0.290422
O O11 0.500000 0.500000 0.277747
O O12 0.667195 0.473822 0.500000
O O13 0.174765 0.731868 0.000000
#
# Coordination Sequence:
#
# PCOD8237409 Si02
#       5
#     8   8   8   8   8
#     4  10  21  37  57  81 109 142 182 225 267 318
#     4  10  21  36  56  82 109 140 180 223 266 315
#     4  10  20  36  58  80 106 143 182 220 266 322
#     4  10  22  38  55  79 110 143 180 222 272 326
#     4   9  20  37  54  78 110 141 176 217 265 319
#
# _framework density 18.852695000000001
#
# number of rings (size 3 to 8) (size 9 to 14) (size 15 to 20)
#    0.000    2.200    0.000    3.600    0.000   10.800 
#    0.000    6.000    0.000    0.000    0.000    0.000 
#    0.000    0.000    0.000    0.000    0.000    0.000 
#
# Total GULP energy -496189.366491 kJ/mol
# GULP energy per Si atom -12404.734162 kJ/mol
# Density = 1.880979 g / cm^3
# Si number density = 18.852695 Si / 1000 Ang^3
#
#
#
# Elastic Constant Matrix: (Units=GPa)
#
#
# Indices 1 2 3 4 5 6 
#
# 1 36.9881 5.9463 6.5975 0.0000 0.0000 0.0000
# 2 5.9463 38.5505 9.9923 0.0000 0.0000 0.0000
# 3 6.5975 9.9923 54.7332 0.0000 0.0000 0.0000
# 4 0.0000 0.0000 0.0000 34.1464 0.0000 0.0000
# 5 0.0000 0.0000 0.0000 0.0000 29.0836 0.0000
# 6 0.0000 0.0000 0.0000 0.0000 0.0000 31.6580
#
#
#
# Elastic Compliance Matrix: (Units=1/GPa)
#
#
# Indices 1 2 3 4 5 6 
#
# 1 0.028105 -0.003629 -0.002725 0.000000 0.000000 0.000000
# 2 -0.003629 0.027697 -0.004619 0.000000 0.000000 0.000000
# 3 -0.002725 -0.004619 0.019442 0.000000 0.000000 0.000000
# 4 0.000000 0.000000 0.000000 0.029286 0.000000 0.000000
# 5 0.000000 0.000000 0.000000 0.000000 0.034384 0.000000
# 6 0.000000 0.000000 0.000000 0.000000 0.000000 0.031588
#
#
# Mechanical properties :
#
#
# Convention : Reuss Voigt Hill
#
# Bulk Modulus (GPa) = 18.76236 19.48267 19.12251
# Shear Modulus (GPa) = 23.78534 26.15999 24.97267
#
# Velocity S-wave (km/s) = 3.55581 3.72909 3.64348
# Velocity P-wave (km/s) = 5.17997 5.37569 5.27874
#
# Compressibility (1/GPa) = 0.05329821
#
# Stress axis : x y z
#
# Youngs Moduli (GPa) = 35.58063 36.10502 51.43445
#
# Poissons Ratio (x) = 0.13101 0.14018
# Poissons Ratio (y) = 0.12911 0.23758
# Poissons Ratio (z) = 0.09697 0.16677
#
# Static dielectric constant tensor:
#      x y z
#    x 3.420870 0.000000 0.000000 
#    y 0.000000 3.443530 0.000000 
#    z 0.000000 0.000000 3.510940 
# 
# 
# High freq. dielectric constant tensor:
#      x y z
#    x 1.728880 0.000000 0.000000 
#    y 0.000000 1.737300 0.000000 
#    z 0.000000 0.000000 1.741460 
# 
# From -- ./inp_files/2394.got.cif
#   From: 2010.06.25/outbox.cif.g09.slc.cpg/sg58_2_cif.got.tgz:2394.got - 2010.06.26 21:38:00.
