data_PCOD8237828
_publ_section_title
;
Structure prediction by ZEFSAII (Michael W. Deem and Ramdas Pophale) SiO2 
 PCOD8237828
Probable space group: P N N M
;
_chemical_formula_sum "Si O2"
_cell_formula_units_Z 48
_cell_length_a 9.624180
_cell_length_b 28.079294
_cell_length_c 8.695326
_cell_angle_alpha 90.000000
_cell_angle_beta 90.000000
_cell_angle_gamma 90.000000
_cell_volume 2349.826461
_symmetry_space_group_name_H-M "P N N M"
_symmetry_group_IT_number 58
_symmetry_cell_setting 'orthorhombic'
loop_
_space_group_symop_operation_xyz
x,y,z
-x,-y,z
1/2+x,1/2-y,1/2-z
1/2-x,1/2+y,1/2-z
-x,-y,-z
x,y,-z
1/2-x,1/2+y,1/2+z
1/2+x,1/2-y,1/2+z
loop_
_atom_site_type_symbol
_atom_site_label
_atom_site_fract_x
_atom_site_fract_y
_atom_site_fract_z
Si Si1 0.211303 0.888851 0.682465
Si Si2 0.772224 0.395626 0.826382
Si Si3 0.832319 0.706227 0.318346
Si Si4 0.547188 0.048476 0.673988
Si Si5 0.971224 0.946182 0.820390
Si Si6 0.639807 0.793507 0.318475
O O1 0.223632 0.883659 0.500000
O O2 0.248612 0.838676 0.755318
O O3 0.316662 0.928694 0.750882
O O4 0.059910 0.906540 0.730575
O O5 0.686087 0.430562 0.715278
O O6 0.777751 0.341274 0.767169
O O7 0.930581 0.411761 0.821046
O O8 0.712476 0.399163 0.000000
O O9 0.840615 0.702726 0.500000
O O10 0.740389 0.751159 0.264850
O O11 0.988647 0.710937 0.257271
O O12 0.587660 0.034326 0.500000
O O13 0.500000 0.000000 0.761158
O O14 0.003282 0.943068 0.000000
O O15 0.000000 0.000000 0.760340
O O16 0.614754 0.794278 0.500000
#
# Coordination Sequence:
#
# PCOD8237828 Si02
#       6
#     8   8   8   8   8   8
#     4  11  22  40  65  90 122 163 207 255 306 367
#     4  10  20  39  63  88 121 158 206 258 303 366
#     4  11  24  41  64  95 128 161 203 255 314 371
#     4   9  17  32  59  90 114 144 194 251 299 351
#     4  11  25  42  59  89 131 168 206 256 314 371
#     4  10  23  43  64  91 123 161 208 255 304 368
#
# _framework density 20.427040999999999
#
# number of rings (size 3 to 8) (size 9 to 14) (size 15 to 20)
#    0.000    1.667    1.667    2.500    2.333    4.667 
#    0.000    0.000    0.000    3.500    0.000    0.000 
#    0.000    0.000    0.000    0.000    0.000    0.000 
#
# Total GULP energy -595176.067932 kJ/mol
# GULP energy per Si atom -12399.501415 kJ/mol
# Density = 2.038055 g / cm^3
# Si number density = 20.427041 Si / 1000 Ang^3
#
#
#
# Elastic Constant Matrix: (Units=GPa)
#
#
# Indices 1 2 3 4 5 6 
#
# 1 78.3643 27.5606 24.1328 0.0000 0.0000 0.0000
# 2 27.5606 132.6112 33.9091 0.0000 0.0000 0.0000
# 3 24.1328 33.9091 40.2124 0.0000 0.0000 0.0000
# 4 0.0000 0.0000 0.0000 27.9854 0.0000 0.0000
# 5 0.0000 0.0000 0.0000 0.0000 29.4947 0.0000
# 6 0.0000 0.0000 0.0000 0.0000 0.0000 39.9997
#
#
#
# Elastic Compliance Matrix: (Units=1/GPa)
#
#
# Indices 1 2 3 4 5 6 
#
# 1 0.015777 -0.001094 -0.008546 0.000000 0.000000 0.000000
# 2 -0.001094 0.009690 -0.007514 0.000000 0.000000 0.000000
# 3 -0.008546 -0.007514 0.036333 0.000000 0.000000 0.000000
# 4 0.000000 0.000000 0.000000 0.035733 0.000000 0.000000
# 5 0.000000 0.000000 0.000000 0.000000 0.033904 0.000000
# 6 0.000000 0.000000 0.000000 0.000000 0.000000 0.025000
#
#
# Mechanical properties :
#
#
# Convention : Reuss Voigt Hill
#
# Bulk Modulus (GPa) = 36.37471 46.93255 41.65363
# Shear Modulus (GPa) = 25.01118 30.53499 27.77309
#
# Velocity S-wave (km/s) = 3.50296 3.87050 3.69131
# Velocity P-wave (km/s) = 5.84866 6.55743 6.21316
#
# Compressibility (1/GPa) = 0.02749163
#
# Stress axis : x y z
#
# Youngs Moduli (GPa) = 63.38149 103.20355 27.52292
#
# Poissons Ratio (x) = 0.11288 0.23522
# Poissons Ratio (y) = 0.06932 0.20682
# Poissons Ratio (z) = 0.54168 0.77551
#
# Static dielectric constant tensor:
#      x y z
#    x 3.677100 0.000000 0.000000 
#    y 0.000000 4.000520 0.000000 
#    z 0.000000 0.000000 3.471690 
# 
# 
# High freq. dielectric constant tensor:
#      x y z
#    x 1.806870 0.000000 0.000000 
#    y 0.000000 1.818130 0.000000 
#    z 0.000000 0.000000 1.773700 
# 
# From -- ./inp_files/2931.got.cif
#   From: 2010.06.25/outbox.cif.g09.slc.cpg/sg58_2_cif.got.tgz:2931.got - 2010.06.26 21:38:00.
