data_PCOD8237662
_publ_section_title
;
Structure prediction by ZEFSAII (Michael W. Deem and Ramdas Pophale) SiO2 
 PCOD8237662
Probable space group: P N N M
;
_chemical_formula_sum "Si O2"
_cell_formula_units_Z 64
_cell_length_a 19.151712
_cell_length_b 18.568008
_cell_length_c 9.019294
_cell_angle_alpha 90.000000
_cell_angle_beta 90.000000
_cell_angle_gamma 90.000000
_cell_volume 3207.343397
_symmetry_space_group_name_H-M "P N N M"
_symmetry_group_IT_number 58
_symmetry_cell_setting 'orthorhombic'
loop_
_space_group_symop_operation_xyz
x,y,z
-x,-y,z
1/2+x,1/2-y,1/2-z
1/2-x,1/2+y,1/2-z
-x,-y,-z
x,y,-z
1/2-x,1/2+y,1/2+z
1/2+x,1/2-y,1/2+z
loop_
_atom_site_type_symbol
_atom_site_label
_atom_site_fract_x
_atom_site_fract_y
_atom_site_fract_z
Si Si1 0.032038 0.807576 0.825599
Si Si2 0.679613 0.631034 0.672638
Si Si3 0.843498 0.449128 0.674781
Si Si4 0.795146 0.980294 0.326333
Si Si5 0.401686 0.913028 0.669045
Si Si6 0.604862 0.354018 0.829184
Si Si7 0.679846 0.209036 0.828787
Si Si8 0.949664 0.353630 0.168878
O O1 0.105459 0.839870 0.769693
O O2 0.027716 0.724871 0.774444
O O3 0.967288 0.850350 0.758614
O O4 0.026118 0.814446 0.000000
O O5 0.676986 0.610261 0.500000
O O6 0.697560 0.560152 0.764020
O O7 0.738315 0.692425 0.701286
O O8 0.835532 0.450165 0.500000
O O9 0.768491 0.439875 0.748293
O O10 0.878630 0.523023 0.725627
O O11 0.889303 0.381391 0.724249
O O12 0.779995 0.985000 0.500000
O O13 0.862928 0.931988 0.292095
O O14 0.378389 0.928710 0.500000
O O15 0.367039 0.839451 0.722433
O O16 0.484934 0.907012 0.678654
O O17 0.660979 0.291536 0.787796
O O18 0.585077 0.347449 0.000000
O O19 0.661659 0.192059 0.000000
O O20 0.921309 0.349939 0.000000
#
# Coordination Sequence:
#
# PCOD8237662 Si02
#       8
#     8   8   8   8   8   8   8   8
#     4  10  22  41  65  91 122 162 204 252 303 361
#     4  10  22  40  64  91 121 160 203 249 306 361
#     4  12  25  39  58  89 125 162 204 250 301 361
#     4  11  24  42  64  89 120 161 205 253 307 360
#     4  11  21  37  62  90 121 160 202 245 299 362
#     4  10  23  41  64  91 122 162 203 251 305 359
#     4  10  20  37  62  89 120 156 199 247 302 360
#     4  10  22  39  60  89 125 162 202 246 298 362
#
# _framework density 19.95421
#
# number of rings (size 3 to 8) (size 9 to 14) (size 15 to 20)
#    0.000    1.500    2.500    2.250    1.750    5.000 
#    0.000    2.500    0.000    0.000    0.000    0.000 
#    0.000    0.000    0.000    0.000    0.000    0.000 
#
# Total GULP energy -793821.107685 kJ/mol
# GULP energy per Si atom -12403.454808 kJ/mol
# Density = 1.990879 g / cm^3
# Si number density = 19.954210 Si / 1000 Ang^3
#
#
#
# Elastic Constant Matrix: (Units=GPa)
#
#
# Indices 1 2 3 4 5 6 
#
# 1 129.2033 25.7228 47.0095 0.0000 0.0000 0.0000
# 2 25.7228 39.4947 19.7184 0.0000 0.0000 0.0000
# 3 47.0095 19.7184 79.7549 0.0000 0.0000 0.0000
# 4 0.0000 0.0000 0.0000 13.7012 0.0000 0.0000
# 5 0.0000 0.0000 0.0000 0.0000 34.4050 0.0000
# 6 0.0000 0.0000 0.0000 0.0000 0.0000 34.4190
#
#
#
# Elastic Compliance Matrix: (Units=1/GPa)
#
#
# Indices 1 2 3 4 5 6 
#
# 1 0.010444 -0.004254 -0.005104 0.000000 0.000000 0.000000
# 2 -0.004254 0.030618 -0.005063 0.000000 0.000000 0.000000
# 3 -0.005104 -0.005063 0.016799 0.000000 0.000000 0.000000
# 4 0.000000 0.000000 0.000000 0.072986 0.000000 0.000000
# 5 0.000000 0.000000 0.000000 0.000000 0.029066 0.000000
# 6 0.000000 0.000000 0.000000 0.000000 0.000000 0.029054
#
#
# Mechanical properties :
#
#
# Convention : Reuss Voigt Hill
#
# Bulk Modulus (GPa) = 34.45984 48.15048 41.30516
# Shear Modulus (GPa) = 21.97998 26.90518 24.44258
#
# Velocity S-wave (km/s) = 3.32252 3.67597 3.50370
# Velocity P-wave (km/s) = 5.65913 6.49614 6.09203
#
# Compressibility (1/GPa) = 0.02901929
#
# Stress axis : x y z
#
# Youngs Moduli (GPa) = 95.75187 32.66065 59.52886
#
# Poissons Ratio (x) = 0.13893 0.30384
# Poissons Ratio (y) = 0.40729 0.30138
# Poissons Ratio (z) = 0.48873 0.16535
#
# Static dielectric constant tensor:
#      x y z
#    x 3.781340 0.000000 0.000000 
#    y 0.000000 3.641390 0.000000 
#    z 0.000000 0.000000 3.565810 
# 
# 
# High freq. dielectric constant tensor:
#      x y z
#    x 1.787290 0.000000 0.000000 
#    y 0.000000 1.779110 0.000000 
#    z 0.000000 0.000000 1.773950 
# 
# From -- ./inp_files/9278.got.cif
#   From: 2010.06.25/outbox.cif.g09.slc.cpg/sg58_5_cif.got.tgz:9278.got - 2010.06.26 21:38:00.
