data_PCOD8237595
_publ_section_title
;
Structure prediction by ZEFSAII (Michael W. Deem and Ramdas Pophale) SiO2 
 PCOD8237595
Probable space group: P N N M
;
_chemical_formula_sum "Si O2"
_cell_formula_units_Z 48
_cell_length_a 10.538253
_cell_length_b 31.194476
_cell_length_c 7.770078
_cell_angle_alpha 90.000000
_cell_angle_beta 90.000000
_cell_angle_gamma 90.000000
_cell_volume 2554.298769
_symmetry_space_group_name_H-M "P N N M"
_symmetry_group_IT_number 58
_symmetry_cell_setting 'orthorhombic'
loop_
_space_group_symop_operation_xyz
x,y,z
-x,-y,z
1/2+x,1/2-y,1/2-z
1/2-x,1/2+y,1/2-z
-x,-y,-z
x,y,-z
1/2-x,1/2+y,1/2+z
1/2+x,1/2-y,1/2+z
loop_
_atom_site_type_symbol
_atom_site_label
_atom_site_fract_x
_atom_site_fract_y
_atom_site_fract_z
Si Si1 0.300206 0.505617 0.000000
Si Si2 0.844222 0.379595 0.693345
Si Si3 0.048819 0.128956 0.192561
Si Si4 0.859801 0.287457 0.698018
Si Si5 0.876076 0.471950 0.302189
Si Si6 0.020054 0.927196 0.500000
Si Si7 0.917003 0.772752 0.801028
O O1 0.222899 0.505703 0.176807
O O2 0.390199 0.546634 0.000000
O O3 0.365421 0.459780 0.000000
O O4 0.894457 0.376762 0.500000
O O5 0.693714 0.385357 0.705567
O O6 0.884566 0.334542 0.785797
O O7 0.903919 0.423461 0.770316
O O8 0.968022 0.102392 0.330518
O O9 0.036647 0.179204 0.235076
O O10 0.996553 0.119623 0.000000
O O11 0.824651 0.296824 0.500000
O O12 0.983705 0.258377 0.707719
O O13 0.728032 0.266572 0.772187
O O14 0.823912 0.469926 0.500000
O O15 0.000000 0.500000 0.293682
O O16 0.924476 0.760554 0.000000
#
# Coordination Sequence:
#
# PCOD8237595 Si02
#       7
#     4   8   8   8   8   4   8
#     4  11  23  36  52  86 119 131 186 240 274 331
#     4   8  15  32  54  77 103 137 184 227 263 317
#     4   9  18  35  56  77 108 145 186 225 262 328
#     4   9  18  33  54  78 110 142 177 228 275 323
#     4  10  20  37  60  79 106 149 189 230 280 327
#     4  11  22  34  56  84 110 148 178 224 283 336
#     4   9  19  35  53  80 110 139 182 229 270 327
#
# _framework density 18.791848999999999
#
# number of rings (size 3 to 8) (size 9 to 14) (size 15 to 20)
#    0.000    2.667    1.667    2.250    1.167    1.333 
#    6.000    3.333    0.000    4.000    0.000    0.000 
#    0.000    0.000    0.000    0.000    0.000    0.000 
#
# Total GULP energy -594649.813092 kJ/mol
# GULP energy per Si atom -12388.537773 kJ/mol
# Density = 1.874908 g / cm^3
# Si number density = 18.791849 Si / 1000 Ang^3
#
#
#
# Elastic Constant Matrix: (Units=GPa)
#
#
# Indices 1 2 3 4 5 6 
#
# 1 77.5642 53.2691 34.9541 0.0000 0.0000 0.0000
# 2 53.2691 115.0834 48.8300 0.0000 0.0000 0.0000
# 3 34.9541 48.8300 73.1624 0.0000 0.0000 0.0000
# 4 0.0000 0.0000 0.0000 25.8819 0.0000 0.0000
# 5 0.0000 0.0000 0.0000 0.0000 23.3194 0.0000
# 6 0.0000 0.0000 0.0000 0.0000 0.0000 28.2555
#
#
#
# Elastic Compliance Matrix: (Units=1/GPa)
#
#
# Indices 1 2 3 4 5 6 
#
# 1 0.020001 -0.007259 -0.004711 0.000000 0.000000 0.000000
# 2 -0.007259 0.014757 -0.006381 0.000000 0.000000 0.000000
# 3 -0.004711 -0.006381 0.020178 0.000000 0.000000 0.000000
# 4 0.000000 0.000000 0.000000 0.038637 0.000000 0.000000
# 5 0.000000 0.000000 0.000000 0.000000 0.042883 0.000000
# 6 0.000000 0.000000 0.000000 0.000000 0.000000 0.035391
#
#
# Mechanical properties :
#
#
# Convention : Reuss Voigt Hill
#
# Bulk Modulus (GPa) = 54.84334 59.99071 57.41702
# Shear Modulus (GPa) = 23.29640 24.07515 23.68578
#
# Velocity S-wave (km/s) = 3.52477 3.58320 3.55410
# Velocity P-wave (km/s) = 6.76855 7.00801 6.88932
#
# Compressibility (1/GPa) = 0.01823375
#
# Stress axis : x y z
#
# Youngs Moduli (GPa) = 49.99817 67.76552 49.56010
#
# Poissons Ratio (x) = 0.49191 0.23346
# Poissons Ratio (y) = 0.36294 0.31624
# Poissons Ratio (z) = 0.23553 0.43240
#
# Static dielectric constant tensor:
#      x y z
#    x 3.122630 0.000000 0.000000 
#    y 0.000000 3.647960 0.000000 
#    z 0.000000 0.000000 3.439480 
# 
# 
# High freq. dielectric constant tensor:
#      x y z
#    x 1.692460 0.000000 0.000000 
#    y 0.000000 1.743540 0.000000 
#    z 0.000000 0.000000 1.721940 
# 
# From -- ./inp_files/3073.got.cif
#   From: 2010.06.25/outbox.cif.g09.slc.cpg/sg58_2_cif.got.tgz:3073.got - 2010.06.26 21:38:00.
