data_PCOD8237407
_publ_section_title
;
Structure prediction by ZEFSAII (Michael W. Deem and Ramdas Pophale) SiO2 
 PCOD8237407
Probable space group: P N N M
;
_chemical_formula_sum "Si O2"
_cell_formula_units_Z 48
_cell_length_a 14.388387
_cell_length_b 19.874303
_cell_length_c 8.939053
_cell_angle_alpha 90.000000
_cell_angle_beta 90.000000
_cell_angle_gamma 90.000000
_cell_volume 2556.204113
_symmetry_space_group_name_H-M "P N N M"
_symmetry_group_IT_number 58
_symmetry_cell_setting 'orthorhombic'
loop_
_space_group_symop_operation_xyz
x,y,z
-x,-y,z
1/2+x,1/2-y,1/2-z
1/2-x,1/2+y,1/2-z
-x,-y,-z
x,y,-z
1/2-x,1/2+y,1/2+z
1/2+x,1/2-y,1/2+z
loop_
_atom_site_type_symbol
_atom_site_label
_atom_site_fract_x
_atom_site_fract_y
_atom_site_fract_z
Si Si1 0.343863 0.923774 0.173990
Si Si2 0.022207 0.623666 0.826864
Si Si3 0.157962 0.169759 0.677312
Si Si4 0.981252 0.220945 0.826426
Si Si5 0.293318 0.073969 0.825879
Si Si6 0.226484 0.797538 0.822546
O O1 0.440086 0.922876 0.264258
O O2 0.275121 0.865806 0.233943
O O3 0.294119 0.994356 0.203560
O O4 0.367932 0.913061 0.000000
O O5 0.994617 0.700985 0.801527
O O6 0.116149 0.609153 0.739910
O O7 0.038944 0.607180 0.000000
O O8 0.159752 0.165095 0.500000
O O9 0.201815 0.102217 0.745247
O O10 0.216796 0.233436 0.738491
O O11 0.052420 0.175844 0.732695
O O12 0.878715 0.204982 0.762222
O O13 0.988997 0.201203 0.000000
O O14 0.288582 0.090918 0.000000
O O15 0.224551 0.793985 0.000000
#
# Coordination Sequence:
#
# PCOD8237407 Si02
#       6
#     8   8   8   8   8   8
#     4  10  21  38  58  82 113 154 194 232 283 338
#     4  11  21  34  56  87 119 149 184 233 290 342
#     4  11  21  37  60  84 112 148 187 233 283 331
#     4  10  20  36  57  85 113 142 185 233 280 335
#     4  11  23  37  56  83 116 152 192 233 280 343
#     4   9  18  36  59  80 108 145 190 233 272 329
#
# _framework density 18.777843000000001
#
# number of rings (size 3 to 8) (size 9 to 14) (size 15 to 20)
#    0.000    1.667    3.333    2.000    0.000    4.000 
#    0.000    1.667    0.000    5.000    0.000    0.000 
#    0.000    0.000    0.000    0.000    0.000    0.000 
#
# Total GULP energy -595425.077072 kJ/mol
# GULP energy per Si atom -12404.689106 kJ/mol
# Density = 1.873510 g / cm^3
# Si number density = 18.777843 Si / 1000 Ang^3
#
#
#
# Elastic Constant Matrix: (Units=GPa)
#
#
# Indices 1 2 3 4 5 6 
#
# 1 90.5311 9.0478 22.6346 0.0000 0.0000 0.0000
# 2 9.0478 54.4236 25.1220 0.0000 0.0000 0.0000
# 3 22.6346 25.1220 66.1650 0.0000 0.0000 0.0000
# 4 0.0000 0.0000 0.0000 25.5040 0.0000 0.0000
# 5 0.0000 0.0000 0.0000 0.0000 31.0891 0.0000
# 6 0.0000 0.0000 0.0000 0.0000 0.0000 30.2990
#
#
#
# Elastic Compliance Matrix: (Units=1/GPa)
#
#
# Indices 1 2 3 4 5 6 
#
# 1 0.012080 -0.000122 -0.004086 0.000000 0.000000 0.000000
# 2 -0.000122 0.022280 -0.008418 0.000000 0.000000 0.000000
# 3 -0.004086 -0.008418 0.019708 0.000000 0.000000 0.000000
# 4 0.000000 0.000000 0.000000 0.039210 0.000000 0.000000
# 5 0.000000 0.000000 0.000000 0.000000 0.032166 0.000000
# 6 0.000000 0.000000 0.000000 0.000000 0.000000 0.033004
#
#
# Mechanical properties :
#
#
# Convention : Reuss Voigt Hill
#
# Bulk Modulus (GPa) = 34.70308 36.08094 35.39201
# Shear Modulus (GPa) = 25.86591 27.66608 26.76600
#
# Velocity S-wave (km/s) = 3.71545 3.84257 3.77955
# Velocity P-wave (km/s) = 6.07677 6.24047 6.15916
#
# Compressibility (1/GPa) = 0.02881588
#
# Stress axis : x y z
#
# Youngs Moduli (GPa) = 82.78331 44.88256 50.74165
#
# Poissons Ratio (x) = 0.00548 0.20733
# Poissons Ratio (y) = 0.01011 0.42713
# Poissons Ratio (z) = 0.33826 0.37781
#
# Static dielectric constant tensor:
#      x y z
#    x 3.517940 0.000000 0.000000 
#    y 0.000000 3.470010 0.000000 
#    z 0.000000 0.000000 3.322450 
# 
# 
# High freq. dielectric constant tensor:
#      x y z
#    x 1.732330 0.000000 0.000000 
#    y 0.000000 1.724500 0.000000 
#    z 0.000000 0.000000 1.718770 
# 
# From -- ./inp_files/5766.got.cif
#   From: 2010.06.25/outbox.cif.g09.slc.cpg/sg58_3_cif.got.tgz:5766.got - 2010.06.26 21:38:00.
