data_PCOD8237289
_publ_section_title
;
Structure prediction by ZEFSAII (Michael W. Deem and Ramdas Pophale) SiO2 
 PCOD8237289
Probable space group: P N N M
;
_chemical_formula_sum "Si O2"
_cell_formula_units_Z 64
_cell_length_a 24.936104
_cell_length_b 14.425761
_cell_length_c 8.736315
_cell_angle_alpha 90.000000
_cell_angle_beta 90.000000
_cell_angle_gamma 90.000000
_cell_volume 3142.647121
_symmetry_space_group_name_H-M "P N N M"
_symmetry_group_IT_number 58
_symmetry_cell_setting 'orthorhombic'
loop_
_space_group_symop_operation_xyz
x,y,z
-x,-y,z
1/2+x,1/2-y,1/2-z
1/2-x,1/2+y,1/2-z
-x,-y,-z
x,y,-z
1/2-x,1/2+y,1/2+z
1/2+x,1/2-y,1/2+z
loop_
_atom_site_type_symbol
_atom_site_label
_atom_site_fract_x
_atom_site_fract_y
_atom_site_fract_z
Si Si1 0.051731 0.447103 0.320085
Si Si2 0.647665 0.578744 0.178887
Si Si3 0.208668 0.219719 0.820443
Si Si4 0.180702 0.752619 0.821957
Si Si5 0.650679 0.956824 0.324371
Si Si6 0.742896 0.485913 0.675902
Si Si7 0.906959 0.750279 0.317773
Si Si8 0.552277 0.448747 0.818464
O O1 0.044793 0.443508 0.500000
O O2 0.102988 0.507628 0.279788
O O3 0.059456 0.340411 0.262106
O O4 0.000000 0.500000 0.247161
O O5 0.637697 0.685758 0.224584
O O6 0.700334 0.562613 0.279664
O O7 0.601200 0.511808 0.237859
O O8 0.657885 0.564341 0.000000
O O9 0.258664 0.269521 0.738442
O O10 0.152316 0.255103 0.753486
O O11 0.214562 0.111145 0.784216
O O12 0.210528 0.241631 0.000000
O O13 0.159957 0.650288 0.788696
O O14 0.178705 0.777173 0.000000
O O15 0.637116 0.977476 0.500000
O O16 0.705242 0.008410 0.278107
O O17 0.760090 0.491761 0.500000
O O18 0.900202 0.752550 0.500000
O O19 0.938781 0.842897 0.260399
O O20 0.500000 0.500000 0.748400
O O21 0.547747 0.448055 0.000000
#
# Coordination Sequence:
#
# PCOD8237289 Si02
#       8
#     8   8   8   8   8   8   8   8
#     4  10  23  41  62  88 118 158 205 254 306 359
#     4  11  21  34  57  88 121 158 200 245 293 354
#     4  10  20  35  57  86 118 154 200 246 294 354
#     4  10  22  38  57  84 122 163 199 243 306 364
#     4  10  22  40  61  85 116 157 202 251 303 357
#     4  10  20  35  57  84 120 157 192 243 300 357
#     4  10  20  37  60  85 117 155 196 247 302 354
#     4   9  19  36  59  88 119 156 200 243 293 354
#
# _framework density 20.364996999999999
#
# number of rings (size 3 to 8) (size 9 to 14) (size 15 to 20)
#    0.000    2.000    1.250    1.875    1.750    4.250 
#    0.000    2.500    0.000    3.375    0.000    0.000 
#    0.000    0.000    0.000    0.000    0.000    0.000 
#
# Total GULP energy -793433.871774 kJ/mol
# GULP energy per Si atom -12397.404246 kJ/mol
# Density = 2.031865 g / cm^3
# Si number density = 20.364997 Si / 1000 Ang^3
#
#
#
# Elastic Constant Matrix: (Units=GPa)
#
#
# Indices 1 2 3 4 5 6 
#
# 1 117.7602 77.4594 14.2992 0.0000 0.0000 0.0000
# 2 77.4594 111.9805 27.8190 0.0000 0.0000 0.0000
# 3 14.2992 27.8190 24.2072 0.0000 0.0000 0.0000
# 4 0.0000 0.0000 0.0000 29.0087 0.0000 0.0000
# 5 0.0000 0.0000 0.0000 0.0000 25.3204 0.0000
# 6 0.0000 0.0000 0.0000 0.0000 0.0000 33.0800
#
#
#
# Elastic Compliance Matrix: (Units=1/GPa)
#
#
# Indices 1 2 3 4 5 6 
#
# 1 0.015932 -0.012152 0.004554 0.000000 0.000000 0.000000
# 2 -0.012152 0.021767 -0.017837 0.000000 0.000000 0.000000
# 3 0.004554 -0.017837 0.059118 0.000000 0.000000 0.000000
# 4 0.000000 0.000000 0.000000 0.034472 0.000000 0.000000
# 5 0.000000 0.000000 0.000000 0.000000 0.039494 0.000000
# 6 0.000000 0.000000 0.000000 0.000000 0.000000 0.030230
#
#
# Mechanical properties :
#
#
# Convention : Reuss Voigt Hill
#
# Bulk Modulus (GPa) = 21.76379 54.78924 38.27651
# Shear Modulus (GPa) = 18.71272 26.43983 22.57628
#
# Velocity S-wave (km/s) = 3.03457 3.60710 3.33315
# Velocity P-wave (km/s) = 4.79460 6.65659 5.80080
#
# Compressibility (1/GPa) = 0.04594788
#
# Stress axis : x y z
#
# Youngs Moduli (GPa) = 62.76667 45.94125 16.91534
#
# Poissons Ratio (x) = 0.55827 -0.07703
# Poissons Ratio (y) = 0.76273 0.30171
# Poissons Ratio (z) = -0.28583 0.81943
#
# Static dielectric constant tensor:
#      x y z
#    x 3.712950 0.000000 0.000000 
#    y 0.000000 4.011970 0.000000 
#    z 0.000000 0.000000 3.444030 
# 
# 
# High freq. dielectric constant tensor:
#      x y z
#    x 1.785390 0.000000 0.000000 
#    y 0.000000 1.814150 0.000000 
#    z 0.000000 0.000000 1.778750 
# 
# From -- ./inp_files/10003.got.cif
#   From: 2010.06.25/outbox.cif.g09.slc.cpg/sg58_6_cif.got.tgz:10003.got - 2010.06.26 21:38:00.
