data_PCOD8237070
_publ_section_title
;
Structure prediction by ZEFSAII (Michael W. Deem and Ramdas Pophale) SiO2 
 PCOD8237070
Probable space group: P N N M
;
_chemical_formula_sum "Si O2"
_cell_formula_units_Z 64
_cell_length_a 27.281210
_cell_length_b 12.752981
_cell_length_c 9.306172
_cell_angle_alpha 90.000000
_cell_angle_beta 90.000000
_cell_angle_gamma 90.000000
_cell_volume 3237.773143
_symmetry_space_group_name_H-M "P N N M"
_symmetry_group_IT_number 58
_symmetry_cell_setting 'orthorhombic'
loop_
_space_group_symop_operation_xyz
x,y,z
-x,-y,z
1/2+x,1/2-y,1/2-z
1/2-x,1/2+y,1/2-z
-x,-y,-z
x,y,-z
1/2-x,1/2+y,1/2+z
1/2+x,1/2-y,1/2+z
loop_
_atom_site_type_symbol
_atom_site_label
_atom_site_fract_x
_atom_site_fract_y
_atom_site_fract_z
Si Si1 0.845880 0.417131 0.330892
Si Si2 0.714179 0.121736 0.171859
Si Si3 0.835161 0.802146 0.842550
Si Si4 0.941763 0.728957 0.156375
Si Si5 0.055880 0.474493 0.668276
Si Si6 0.532541 0.408614 0.837697
Si Si7 0.689483 0.691775 0.832736
Si Si8 0.143219 0.017142 0.340934
O O1 0.842926 0.409755 0.500000
O O2 0.809832 0.510653 0.278275
O O3 0.903314 0.437825 0.288383
O O4 0.827565 0.304753 0.268333
O O5 0.680058 0.213323 0.231357
O O6 0.766636 0.140430 0.242880
O O7 0.717376 0.128938 0.000000
O O8 0.892599 0.793649 0.867914
O O9 0.824105 0.916039 0.772247
O O10 0.808590 0.795227 0.000000
O O11 0.928463 0.626531 0.244521
O O12 0.978056 0.803414 0.246809
O O13 0.964846 0.701655 0.000000
O O14 0.059365 0.449101 0.500000
O O15 0.000000 0.500000 0.712657
O O16 0.500000 0.500000 0.768668
O O17 0.587845 0.446406 0.832699
O O18 0.515484 0.384083 0.000000
O O19 0.645716 0.607754 0.811269
O O20 0.704531 0.703113 0.000000
O O21 0.164482 0.040197 0.500000
#
# Coordination Sequence:
#
# PCOD8237070 Si02
#       8
#     8   8   8   8   8   8   8   8
#     4   9  20  39  60  85 119 153 188 242 298 346
#     4  11  22  37  59  84 112 147 191 238 288 341
#     4  10  20  35  57  81 108 146 189 234 285 339
#     4  10  20  34  53  80 113 149 187 236 291 344
#     4  10  20  36  61  88 113 150 198 243 291 352
#     4   9  18  33  56  84 112 149 195 240 283 335
#     4  10  22  39  57  82 118 156 190 232 293 354
#     4   9  19  35  56  83 116 148 184 234 287 339
#
# _framework density 19.766672
#
# number of rings (size 3 to 8) (size 9 to 14) (size 15 to 20)
#    0.000    2.250    1.250    1.125    1.750    3.000 
#    0.000    5.000    0.000    1.500    0.000    0.000 
#    0.000    0.000    0.000    0.000    0.000    0.000 
#
# Total GULP energy -793040.012068 kJ/mol
# GULP energy per Si atom -12391.250189 kJ/mol
# Density = 1.972168 g / cm^3
# Si number density = 19.766672 Si / 1000 Ang^3
#
#
#
# Elastic Constant Matrix: (Units=GPa)
#
#
# Indices 1 2 3 4 5 6 
#
# 1 60.3647 34.6948 23.6665 0.0000 0.0000 0.0000
# 2 34.6948 147.9420 47.2247 0.0000 0.0000 0.0000
# 3 23.6665 47.2247 77.7043 0.0000 0.0000 0.0000
# 4 0.0000 0.0000 0.0000 17.2864 0.0000 0.0000
# 5 0.0000 0.0000 0.0000 0.0000 16.0240 0.0000
# 6 0.0000 0.0000 0.0000 0.0000 0.0000 31.1362
#
#
#
# Elastic Compliance Matrix: (Units=1/GPa)
#
#
# Indices 1 2 3 4 5 6 
#
# 1 0.020122 -0.003428 -0.004045 0.000000 0.000000 0.000000
# 2 -0.003428 0.008970 -0.004408 0.000000 0.000000 0.000000
# 3 -0.004045 -0.004408 0.016780 0.000000 0.000000 0.000000
# 4 0.000000 0.000000 0.000000 0.057849 0.000000 0.000000
# 5 0.000000 0.000000 0.000000 0.000000 0.062406 0.000000
# 6 0.000000 0.000000 0.000000 0.000000 0.000000 0.032117
#
#
# Mechanical properties :
#
#
# Convention : Reuss Voigt Hill
#
# Bulk Modulus (GPa) = 45.22645 55.24253 50.23449
# Shear Modulus (GPa) = 21.79821 24.91765 23.35793
#
# Velocity S-wave (km/s) = 3.32441 3.55433 3.44129
# Velocity P-wave (km/s) = 6.13722 6.69719 6.42331
#
# Compressibility (1/GPa) = 0.02211096
#
# Stress axis : x y z
#
# Youngs Moduli (GPa) = 49.69670 111.48004 59.59400
#
# Poissons Ratio (x) = 0.38211 0.24109
# Poissons Ratio (y) = 0.17034 0.26267
# Poissons Ratio (z) = 0.20105 0.49137
#
# Static dielectric constant tensor:
#      x y z
#    x 3.630120 0.000000 0.000000 
#    y 0.000000 3.853180 0.000000 
#    z 0.000000 0.000000 3.801610 
# 
# 
# High freq. dielectric constant tensor:
#      x y z
#    x 1.754620 0.000000 0.000000 
#    y 0.000000 1.776730 0.000000 
#    z 0.000000 0.000000 1.759210 
# 
# From -- ./inp_files/4725.got.cif
#   From: 2010.06.25/outbox.cif.g09.slc.cpg/sg58_3_cif.got.tgz:4725.got - 2010.06.26 21:38:00.
