data_PCOD8237379
_publ_section_title
;
Structure prediction by ZEFSAII (Michael W. Deem and Ramdas Pophale) SiO2 
 PCOD8237379
Probable space group: P N N M
;
_chemical_formula_sum "Si O2"
_cell_formula_units_Z 64
_cell_length_a 9.224129
_cell_length_b 16.971989
_cell_length_c 20.817713
_cell_angle_alpha 90.000000
_cell_angle_beta 90.000000
_cell_angle_gamma 90.000000
_cell_volume 3259.050774
_symmetry_space_group_name_H-M "P N N M"
_symmetry_group_IT_number 58
_symmetry_cell_setting 'orthorhombic'
loop_
_space_group_symop_operation_xyz
x,y,z
-x,-y,z
1/2+x,1/2-y,1/2-z
1/2-x,1/2+y,1/2-z
-x,-y,-z
x,y,-z
1/2-x,1/2+y,1/2+z
1/2+x,1/2-y,1/2+z
loop_
_atom_site_type_symbol
_atom_site_label
_atom_site_fract_x
_atom_site_fract_y
_atom_site_fract_z
Si Si1 0.928958 0.377142 0.298390
Si Si2 0.801692 0.155292 0.428580
Si Si3 0.941410 0.747276 0.613812
Si Si4 0.304961 0.364593 0.427844
Si Si5 0.338578 0.478434 0.173341
Si Si6 0.002539 0.273553 0.927088
Si Si7 0.723792 0.034662 0.808935
Si Si8 0.702326 0.855797 0.666487
O O1 0.816652 0.443769 0.323053
O O2 0.869844 0.336417 0.234423
O O3 0.944339 0.306579 0.348275
O O4 0.084813 0.416046 0.286768
O O5 0.781951 0.117715 0.500000
O O6 0.786210 0.090943 0.372999
O O7 0.674409 0.219121 0.415597
O O8 0.958262 0.197279 0.429711
O O9 0.834977 0.692825 0.572031
O O10 0.846469 0.802451 0.660975
O O11 0.316421 0.400820 0.500000
O O12 0.448767 0.314777 0.409363
O O13 0.292688 0.433144 0.374985
O O14 0.500000 0.500000 0.153502
O O15 0.333832 0.455512 0.249028
O O16 0.234327 0.551923 0.160866
O O17 0.915259 0.338496 0.887588
O O18 0.958804 0.290638 0.000000
#
# Coordination Sequence:
#
# PCOD8237379 Si02
#       8
#     8   8   8   8   8   8   8   8
#     4   9  19  35  57  85 114 147 193 233 289 344
#     4  11  23  38  56  82 115 152 190 237 288 341
#     4  10  20  36  55  84 114 149 187 237 289 335
#     4   9  18  37  62  87 113 149 191 233 286 346
#     4  11  22  39  54  81 114 147 193 236 289 341
#     4   9  20  36  56  83 112 146 190 235 286 342
#     4   9  19  37  59  84 116 151 186 240 289 342
#     4  10  20  37  56  80 109 150 190 238 283 343
#
# _framework density 19.637619999999998
#
# number of rings (size 3 to 8) (size 9 to 14) (size 15 to 20)
#    0.000    2.250    1.250    1.125    0.000    6.750 
#    4.500    6.875    0.000    0.375    0.000    0.000 
#    0.000    0.000    0.000    0.000    0.000    0.000 
#
# Total GULP energy -793479.186066 kJ/mol
# GULP energy per Si atom -12398.112282 kJ/mol
# Density = 1.959292 g / cm^3
# Si number density = 19.637620 Si / 1000 Ang^3
#
#
#
# Elastic Constant Matrix: (Units=GPa)
#
#
# Indices 1 2 3 4 5 6 
#
# 1 77.6285 19.3945 36.6197 0.0000 0.0000 0.0000
# 2 19.3945 70.9920 50.0155 0.0000 0.0000 0.0000
# 3 36.6197 50.0155 115.3955 0.0000 0.0000 0.0000
# 4 0.0000 0.0000 0.0000 24.0103 0.0000 0.0000
# 5 0.0000 0.0000 0.0000 0.0000 27.1726 0.0000
# 6 0.0000 0.0000 0.0000 0.0000 0.0000 25.0350
#
#
#
# Elastic Compliance Matrix: (Units=1/GPa)
#
#
# Indices 1 2 3 4 5 6 
#
# 1 0.015208 -0.001086 -0.004355 0.000000 0.000000 0.000000
# 2 -0.001086 0.020356 -0.008478 0.000000 0.000000 0.000000
# 3 -0.004355 -0.008478 0.013723 0.000000 0.000000 0.000000
# 4 0.000000 0.000000 0.000000 0.041649 0.000000 0.000000
# 5 0.000000 0.000000 0.000000 0.000000 0.036802 0.000000
# 6 0.000000 0.000000 0.000000 0.000000 0.000000 0.039944
#
#
# Mechanical properties :
#
#
# Convention : Reuss Voigt Hill
#
# Bulk Modulus (GPa) = 46.62652 52.89726 49.76189
# Shear Modulus (GPa) = 24.67078 25.77599 25.22339
#
# Velocity S-wave (km/s) = 3.54828 3.62689 3.58780
# Velocity P-wave (km/s) = 6.37041 6.67340 6.52366
#
# Compressibility (1/GPa) = 0.02144702
#
# Stress axis : x y z
#
# Youngs Moduli (GPa) = 65.75596 49.12597 72.87283
#
# Poissons Ratio (x) = 0.05337 0.31738
# Poissons Ratio (y) = 0.07143 0.61782
# Poissons Ratio (z) = 0.28638 0.41649
#
# Static dielectric constant tensor:
#      x y z
#    x 3.618340 0.000000 0.000000 
#    y 0.000000 3.540340 0.000000 
#    z 0.000000 0.000000 3.502210 
# 
# 
# High freq. dielectric constant tensor:
#      x y z
#    x 1.768490 0.000000 0.000000 
#    y 0.000000 1.753960 0.000000 
#    z 0.000000 0.000000 1.764100 
# 
# From -- ./inp_files/29127.got.cif
#   From: 2010.06.25/outbox.cif.g09.slc.cpg/sg58_15_cif.got.tgz:29127.got - 2010.06.26 21:38:00.
