data_PCOD8237952
_publ_section_title
;
Structure prediction by ZEFSAII (Michael W. Deem and Ramdas Pophale) SiO2 
 PCOD8237952
Probable space group: P N N M
;
_chemical_formula_sum "Si O2"
_cell_formula_units_Z 56
_cell_length_a 23.054415
_cell_length_b 13.977030
_cell_length_c 9.140957
_cell_angle_alpha 90.000000
_cell_angle_beta 90.000000
_cell_angle_gamma 90.000000
_cell_volume 2945.511142
_symmetry_space_group_name_H-M "P N N M"
_symmetry_group_IT_number 58
_symmetry_cell_setting 'orthorhombic'
loop_
_space_group_symop_operation_xyz
x,y,z
-x,-y,z
1/2+x,1/2-y,1/2-z
1/2-x,1/2+y,1/2-z
-x,-y,-z
x,y,-z
1/2-x,1/2+y,1/2+z
1/2+x,1/2-y,1/2+z
loop_
_atom_site_type_symbol
_atom_site_label
_atom_site_fract_x
_atom_site_fract_y
_atom_site_fract_z
Si Si1 0.485318 0.603983 0.668289
Si Si2 0.543603 0.780453 0.827610
Si Si3 0.835364 0.522528 0.831787
Si Si4 0.068340 0.385529 0.331434
Si Si5 0.620623 0.282773 0.663505
Si Si6 0.738160 0.204045 0.333134
Si Si7 0.163965 0.690931 0.169929
O O1 0.500000 0.500000 0.733110
O O2 0.506008 0.611559 0.500000
O O3 0.518795 0.682921 0.760863
O O4 0.415053 0.618276 0.680995
O O5 0.500222 0.870854 0.796645
O O6 0.604118 0.803297 0.754633
O O7 0.551381 0.765209 0.000000
O O8 0.898693 0.530286 0.754993
O O9 0.789508 0.603121 0.777143
O O10 0.810430 0.416108 0.805201
O O11 0.847677 0.542506 0.000000
O O12 0.077944 0.408164 0.500000
O O13 0.098793 0.286523 0.289930
O O14 0.607347 0.240481 0.500000
O O15 0.690285 0.289874 0.679961
O O16 0.760225 0.194508 0.500000
O O17 0.791818 0.230353 0.230909
O O18 0.153296 0.712297 0.000000
#
# Coordination Sequence:
#
# PCOD8237952 Si02
#       7
#     8   8   8   8   8   8   8
#     4   9  17  32  55  82 113 145 184 229 269 324
#     4  10  21  36  53  78 114 148 178 223 280 328
#     4   9  20  38  58  79 107 143 181 222 277 335
#     4   9  17  30  53  81 106 134 174 217 260 318
#     4   8  15  30  52  75 103 141 176 215 269 318
#     4   9  18  36  57  75 104 143 182 225 276 329
#     4  11  23  38  56  80 110 144 186 231 274 328
#
# _framework density 19.011980999999999
#
# number of rings (size 3 to 8) (size 9 to 14) (size 15 to 20)
#    0.000    2.714    0.000    2.143    0.000    6.000 
#    2.571    2.857    0.000    0.000    0.000    0.000 
#    0.000    0.000    0.000    0.000    0.000    0.000 
#
# Total GULP energy -693841.988225 kJ/mol
# GULP energy per Si atom -12390.035504 kJ/mol
# Density = 1.896871 g / cm^3
# Si number density = 19.011981 Si / 1000 Ang^3
#
#
#
# Elastic Constant Matrix: (Units=GPa)
#
#
# Indices 1 2 3 4 5 6 
#
# 1 94.0321 26.8395 47.2272 0.0000 0.0000 0.0000
# 2 26.8395 64.0884 28.9724 0.0000 0.0000 0.0000
# 3 47.2272 28.9724 75.0446 0.0000 0.0000 0.0000
# 4 0.0000 0.0000 0.0000 19.6694 0.0000 0.0000
# 5 0.0000 0.0000 0.0000 0.0000 29.9796 0.0000
# 6 0.0000 0.0000 0.0000 0.0000 0.0000 26.5536
#
#
#
# Elastic Compliance Matrix: (Units=1/GPa)
#
#
# Indices 1 2 3 4 5 6 
#
# 1 0.015896 -0.002586 -0.009005 0.000000 0.000000 0.000000
# 2 -0.002586 0.019323 -0.005833 0.000000 0.000000 0.000000
# 3 -0.009005 -0.005833 0.021244 0.000000 0.000000 0.000000
# 4 0.000000 0.000000 0.000000 0.050840 0.000000 0.000000
# 5 0.000000 0.000000 0.000000 0.000000 0.033356 0.000000
# 6 0.000000 0.000000 0.000000 0.000000 0.000000 0.037660
#
#
# Mechanical properties :
#
#
# Convention : Reuss Voigt Hill
#
# Bulk Modulus (GPa) = 46.26281 48.80482 47.53382
# Shear Modulus (GPa) = 22.68893 23.91557 23.30225
#
# Velocity S-wave (km/s) = 3.45831 3.55057 3.50474
# Velocity P-wave (km/s) = 6.35082 6.52188 6.43692
#
# Compressibility (1/GPa) = 0.02161563
#
# Stress axis : x y z
#
# Youngs Moduli (GPa) = 62.91085 51.75121 47.07148
#
# Poissons Ratio (x) = 0.13383 0.42388
# Poissons Ratio (y) = 0.16269 0.27455
# Poissons Ratio (z) = 0.56651 0.30185
#
# Static dielectric constant tensor:
#      x y z
#    x 3.549960 0.000000 0.000000 
#    y 0.000000 3.433510 0.000000 
#    z 0.000000 0.000000 3.465690 
# 
# 
# High freq. dielectric constant tensor:
#      x y z
#    x 1.732370 0.000000 0.000000 
#    y 0.000000 1.720500 0.000000 
#    z 0.000000 0.000000 1.739550 
# 
# From -- ./inp_files/9058.got.cif
#   From: 2010.06.25/outbox.cif.g09.slc.cpg/sg58_5_cif.got.tgz:9058.got - 2010.06.26 21:38:00.
