data_PCOD8237112
_publ_section_title
;
Structure prediction by ZEFSAII (Michael W. Deem and Ramdas Pophale) SiO2 
 PCOD8237112
Probable space group: P N N M
;
_chemical_formula_sum "Si O2"
_cell_formula_units_Z 64
_cell_length_a 17.601116
_cell_length_b 20.379200
_cell_length_c 9.237066
_cell_angle_alpha 90.000000
_cell_angle_beta 90.000000
_cell_angle_gamma 90.000000
_cell_volume 3313.304752
_symmetry_space_group_name_H-M "P N N M"
_symmetry_group_IT_number 58
_symmetry_cell_setting 'orthorhombic'
loop_
_space_group_symop_operation_xyz
x,y,z
-x,-y,z
1/2+x,1/2-y,1/2-z
1/2-x,1/2+y,1/2-z
-x,-y,-z
x,y,-z
1/2-x,1/2+y,1/2+z
1/2+x,1/2-y,1/2+z
loop_
_atom_site_type_symbol
_atom_site_label
_atom_site_fract_x
_atom_site_fract_y
_atom_site_fract_z
Si Si1 0.157393 0.002700 0.166909
Si Si2 0.922974 0.111599 0.665080
Si Si3 0.089997 0.248841 0.839727
Si Si4 0.331552 0.002513 0.166296
Si Si5 0.897299 0.874474 0.665101
Si Si6 0.573332 0.105529 0.669324
Si Si7 0.398678 0.119074 0.330194
Si Si8 0.910200 0.235372 0.839567
O O1 0.104361 0.950529 0.245530
O O2 0.244416 0.980827 0.182585
O O3 0.147208 0.073119 0.239948
O O4 0.132357 0.007422 0.000000
O O5 0.895819 0.104633 0.500000
O O6 0.885961 0.178200 0.728925
O O7 0.013307 0.112964 0.677112
O O8 0.124562 0.197590 0.725322
O O9 0.109039 0.323280 0.792162
O O10 0.000058 0.242048 0.846801
O O11 0.123390 0.234513 0.000000
O O12 0.342556 0.072812 0.241391
O O13 0.383304 0.948315 0.239846
O O14 0.355531 0.008871 0.000000
O O15 0.869435 0.878868 0.500000
O O16 0.583232 0.090329 0.500000
O O17 0.485132 0.102561 0.713149
O O18 0.386542 0.107502 0.500000
O O19 0.377279 0.194259 0.288985
O O20 0.879581 0.217186 0.000000
#
# Coordination Sequence:
#
# PCOD8237112 Si02
#       8
#     8   8   8   8   8   8   8   8
#     4  11  24  39  52  70 102 143 182 215 252 306
#     4  10  20  34  55  83 108 130 165 214 263 309
#     4   8  15  30  53  80 107 134 166 205 251 306
#     4  11  24  37  50  74 106 139 178 221 260 300
#     4  10  20  34  55  83 108 130 165 214 263 309
#     4   9  18  34  57  82 106 136 174 211 252 309
#     4   9  18  34  57  82 106 136 174 211 252 309
#     4   8  15  30  53  80 107 134 166 205 251 306
#
# _framework density 19.316061999999999
#
# number of rings (size 3 to 8) (size 9 to 14) (size 15 to 20)
#    0.000    2.500    0.000    3.750    0.000    8.000 
#    0.000    3.750    0.000    0.000    0.000    0.000 
#    0.000    0.000    0.000    0.000    0.000    0.000 
#
# Total GULP energy -793584.333662 kJ/mol
# GULP energy per Si atom -12399.755213 kJ/mol
# Density = 1.927210 g / cm^3
# Si number density = 19.316062 Si / 1000 Ang^3
#
#
#
# Elastic Constant Matrix: (Units=GPa)
#
#
# Indices 1 2 3 4 5 6 
#
# 1 22.7830 8.8532 21.2182 0.0000 0.0000 0.0000
# 2 8.8532 107.2561 55.3251 0.0000 0.0000 0.0000
# 3 21.2182 55.3251 116.7498 0.0000 0.0000 0.0000
# 4 0.0000 0.0000 0.0000 31.8796 0.0000 0.0000
# 5 0.0000 0.0000 0.0000 0.0000 23.1545 0.0000
# 6 0.0000 0.0000 0.0000 0.0000 0.0000 6.4434
#
#
#
# Elastic Compliance Matrix: (Units=1/GPa)
#
#
# Indices 1 2 3 4 5 6 
#
# 1 0.052885 0.000784 -0.009983 0.000000 0.000000 0.000000
# 2 0.000784 0.012351 -0.005996 0.000000 0.000000 0.000000
# 3 -0.009983 -0.005996 0.013221 0.000000 0.000000 0.000000
# 4 0.000000 0.000000 0.000000 0.031368 0.000000 0.000000
# 5 0.000000 0.000000 0.000000 0.000000 0.043188 0.000000
# 6 0.000000 0.000000 0.000000 0.000000 0.000000 0.155197
#
#
# Mechanical properties :
#
#
# Convention : Reuss Voigt Hill
#
# Bulk Modulus (GPa) = 20.80366 46.39800 33.60083
# Shear Modulus (GPa) = 14.09954 23.05502 18.57728
#
# Velocity S-wave (km/s) = 2.70467 3.45855 3.10458
# Velocity P-wave (km/s) = 4.53290 6.32624 5.50311
#
# Compressibility (1/GPa) = 0.04806846
#
# Stress axis : x y z
#
# Youngs Moduli (GPa) = 18.90896 80.96252 75.63848
#
# Poissons Ratio (x) = -0.06349 0.75509
# Poissons Ratio (y) = -0.01483 0.45349
# Poissons Ratio (z) = 0.18877 0.48542
#
# Static dielectric constant tensor:
#      x y z
#    x 3.158930 0.000000 0.000000 
#    y 0.000000 3.794870 0.000000 
#    z 0.000000 0.000000 3.652850 
# 
# 
# High freq. dielectric constant tensor:
#      x y z
#    x 1.713830 0.000000 0.000000 
#    y 0.000000 1.767360 0.000000 
#    z 0.000000 0.000000 1.755010 
# 
# From -- ./inp_files/8238.got.cif
#   From: 2010.06.25/outbox.cif.g09.slc.cpg/sg58_5_cif.got.tgz:8238.got - 2010.06.26 21:38:00.
