data_PCOD8237384
_publ_section_title
;
Structure prediction by ZEFSAII (Michael W. Deem and Ramdas Pophale) SiO2 
 PCOD8237384
Probable space group: P N N M
;
_chemical_formula_sum "Si O2"
_cell_formula_units_Z 48
_cell_length_a 28.858450
_cell_length_b 9.129748
_cell_length_c 9.609743
_cell_angle_alpha 90.000000
_cell_angle_beta 90.000000
_cell_angle_gamma 90.000000
_cell_volume 2531.882603
_symmetry_space_group_name_H-M "P N N M"
_symmetry_group_IT_number 58
_symmetry_cell_setting 'orthorhombic'
loop_
_space_group_symop_operation_xyz
x,y,z
-x,-y,z
1/2+x,1/2-y,1/2-z
1/2-x,1/2+y,1/2-z
-x,-y,-z
x,y,-z
1/2-x,1/2+y,1/2+z
1/2+x,1/2-y,1/2+z
loop_
_atom_site_type_symbol
_atom_site_label
_atom_site_fract_x
_atom_site_fract_y
_atom_site_fract_z
Si Si1 0.215207 0.287423 0.838372
Si Si2 0.484403 0.335004 0.154516
Si Si3 0.298371 0.497456 0.160435
Si Si4 0.620257 0.711563 0.162173
Si Si5 0.133954 0.509616 0.836668
Si Si6 0.462135 0.875398 0.656349
O O1 0.262877 0.368026 0.799849
O O2 0.173914 0.396403 0.797939
O O3 0.210822 0.139290 0.752138
O O4 0.213141 0.244441 0.000000
O O5 0.500000 0.500000 0.149686
O O6 0.432153 0.319986 0.212913
O O7 0.521998 0.257985 0.250064
O O8 0.486420 0.266040 0.000000
O O9 0.349898 0.435444 0.188430
O O10 0.291462 0.543204 0.000000
O O11 0.642358 0.842081 0.251654
O O12 0.622398 0.755095 0.000000
O O13 0.085866 0.438696 0.786153
O O14 0.133045 0.548205 0.000000
O O15 0.455702 0.816193 0.500000
O O16 0.500000 0.000000 0.663957
#
# Coordination Sequence:
#
# PCOD8237384 Si02
#       6
#     8   8   8   8   8   8
#     4  10  22  39  59  85 113 143 181 226 274 329
#     4  10  22  37  54  79 112 148 186 229 274 324
#     4  10  22  39  59  84 114 144 181 228 275 327
#     4  10  21  37  56  81 111 145 186 228 273 327
#     4  10  21  37  57  82 112 144 184 229 274 326
#     4  10  20  36  56  80 110 146 186 228 271 322
#
# _framework density 18.958226
#
# number of rings (size 3 to 8) (size 9 to 14) (size 15 to 20)
#    0.000    2.000    1.667    1.000    2.333    3.333 
#    0.000    0.000    0.000    0.000    0.000    0.000 
#    0.000    0.000    0.000    0.000    0.000    0.000 
#
# Total GULP energy -595339.949732 kJ/mol
# GULP energy per Si atom -12402.915619 kJ/mol
# Density = 1.891508 g / cm^3
# Si number density = 18.958226 Si / 1000 Ang^3
#
#
#
# Elastic Constant Matrix: (Units=GPa)
#
#
# Indices 1 2 3 4 5 6 
#
# 1 81.8869 28.8779 24.7200 0.0000 0.0000 0.0000
# 2 28.8779 108.3365 60.6611 0.0000 0.0000 0.0000
# 3 24.7200 60.6611 69.1704 0.0000 0.0000 0.0000
# 4 0.0000 0.0000 0.0000 39.6333 0.0000 0.0000
# 5 0.0000 0.0000 0.0000 0.0000 63.0544 0.0000
# 6 0.0000 0.0000 0.0000 0.0000 0.0000 30.1374
#
#
#
# Elastic Compliance Matrix: (Units=1/GPa)
#
#
# Indices 1 2 3 4 5 6 
#
# 1 0.013867 -0.001811 -0.003368 0.000000 0.000000 0.000000
# 2 -0.001811 0.018373 -0.015466 0.000000 0.000000 0.000000
# 3 -0.003368 -0.015466 0.029224 0.000000 0.000000 0.000000
# 4 0.000000 0.000000 0.000000 0.025231 0.000000 0.000000
# 5 0.000000 0.000000 0.000000 0.000000 0.015859 0.000000
# 6 0.000000 0.000000 0.000000 0.000000 0.000000 0.033181
#
#
# Mechanical properties :
#
#
# Convention : Reuss Voigt Hill
#
# Bulk Modulus (GPa) = 49.56512 54.21242 51.88877
# Shear Modulus (GPa) = 27.21103 36.24067 31.72585
#
# Velocity S-wave (km/s) = 3.79267 4.37694 4.09523
# Velocity P-wave (km/s) = 6.73648 7.36215 7.05625
#
# Compressibility (1/GPa) = 0.02017548
#
# Stress axis : x y z
#
# Youngs Moduli (GPa) = 72.11258 54.42841 34.21880
#
# Poissons Ratio (x) = 0.09854 0.11525
# Poissons Ratio (y) = 0.13056 0.52921
# Poissons Ratio (z) = 0.24288 0.84176
#
# Static dielectric constant tensor:
#      x y z
#    x -1.504410 0.000000 0.000000 
#    y 0.000000 3.225520 0.000000 
#    z 0.000000 0.000000 3.512330 
# 
# 
# High freq. dielectric constant tensor:
#      x y z
#    x 1.755540 0.000000 0.000000 
#    y 0.000000 1.731670 0.000000 
#    z 0.000000 0.000000 1.731200 
# 
# From -- ./inp_files/2850.got.cif
#   From: 2010.06.25/outbox.cif.g09.slc.cpg/sg58_2_cif.got.tgz:2850.got - 2010.06.26 21:38:00.
