data_PCOD8237973
_publ_section_title
;
Structure prediction by ZEFSAII (Michael W. Deem and Ramdas Pophale) SiO2 
 PCOD8237973
Probable space group: P N N M
;
_chemical_formula_sum "Si O2"
_cell_formula_units_Z 48
_cell_length_a 11.846023
_cell_length_b 23.335071
_cell_length_c 9.031234
_cell_angle_alpha 90.000000
_cell_angle_beta 90.000000
_cell_angle_gamma 90.000000
_cell_volume 2496.484035
_symmetry_space_group_name_H-M "P N N M"
_symmetry_group_IT_number 58
_symmetry_cell_setting 'orthorhombic'
loop_
_space_group_symop_operation_xyz
x,y,z
-x,-y,z
1/2+x,1/2-y,1/2-z
1/2-x,1/2+y,1/2-z
-x,-y,-z
x,y,-z
1/2-x,1/2+y,1/2+z
1/2+x,1/2-y,1/2+z
loop_
_atom_site_type_symbol
_atom_site_label
_atom_site_fract_x
_atom_site_fract_y
_atom_site_fract_z
Si Si1 0.108255 0.722528 0.324763
Si Si2 0.994516 0.933618 0.176749
Si Si3 0.666621 0.650017 0.174490
Si Si4 0.423027 0.842980 0.328600
Si Si5 0.234498 0.121051 0.168194
Si Si6 0.042450 0.562766 0.334654
O O1 0.105281 0.715502 0.500000
O O2 0.126666 0.787281 0.274610
O O3 0.206731 0.678864 0.262738
O O4 0.985302 0.707230 0.261068
O O5 0.882161 0.901365 0.242235
O O6 0.101867 0.899910 0.239580
O O7 0.996634 0.931639 0.000000
O O8 0.000000 0.000000 0.230183
O O9 0.795883 0.648094 0.224454
O O10 0.650601 0.640477 0.000000
O O11 0.428546 0.826811 0.500000
O O12 0.485897 0.901836 0.295679
O O13 0.322313 0.068073 0.180839
O O14 0.204649 0.135709 0.000000
O O15 0.007851 0.584730 0.500000
O O16 0.000000 0.500000 0.308069
#
# Coordination Sequence:
#
# PCOD8237973 Si02
#       6
#     8   8   8   8   8   8
#     4   9  19  38  60  80 108 147 189 229 282 344
#     4  10  22  37  58  86 114 150 197 236 273 335
#     4  10  23  39  57  82 115 151 182 228 290 343
#     4  10  21  36  55  83 115 142 180 232 284 332
#     4   8  16  33  55  80 109 141 179 231 279 319
#     4   9  18  33  58  82 107 146 185 224 274 330
#
# _framework density 19.227039999999999
#
# number of rings (size 3 to 8) (size 9 to 14) (size 15 to 20)
#    0.000    2.667    0.000    1.500    4.667    2.667 
#    0.000    3.333    0.000    0.000    0.000    0.000 
#    0.000    0.000    0.000    0.000    0.000    0.000 
#
# Total GULP energy -594817.741645 kJ/mol
# GULP energy per Si atom -12392.036284 kJ/mol
# Density = 1.918328 g / cm^3
# Si number density = 19.227040 Si / 1000 Ang^3
#
#
#
# Elastic Constant Matrix: (Units=GPa)
#
#
# Indices 1 2 3 4 5 6 
#
# 1 136.6584 56.4811 31.8232 0.0000 0.0000 0.0000
# 2 56.4811 114.5352 23.5537 0.0000 0.0000 0.0000
# 3 31.8232 23.5537 24.9298 0.0000 0.0000 0.0000
# 4 0.0000 0.0000 0.0000 20.9239 0.0000 0.0000
# 5 0.0000 0.0000 0.0000 0.0000 26.7800 0.0000
# 6 0.0000 0.0000 0.0000 0.0000 0.0000 21.6332
#
#
#
# Elastic Compliance Matrix: (Units=1/GPa)
#
#
# Indices 1 2 3 4 5 6 
#
# 1 0.011303 -0.003235 -0.011371 0.000000 0.000000 0.000000
# 2 -0.003235 0.011762 -0.006983 0.000000 0.000000 0.000000
# 3 -0.011371 -0.006983 0.061226 0.000000 0.000000 0.000000
# 4 0.000000 0.000000 0.000000 0.047792 0.000000 0.000000
# 5 0.000000 0.000000 0.000000 0.000000 0.037341 0.000000
# 6 0.000000 0.000000 0.000000 0.000000 0.000000 0.046225
#
#
# Mechanical properties :
#
#
# Convention : Reuss Voigt Hill
#
# Bulk Modulus (GPa) = 24.32418 55.53770 39.93094
# Shear Modulus (GPa) = 18.34640 24.81845 21.58242
#
# Velocity S-wave (km/s) = 3.09236 3.59668 3.35401
# Velocity P-wave (km/s) = 5.04269 6.79677 5.98435
#
# Compressibility (1/GPa) = 0.04111135
#
# Stress axis : x y z
#
# Youngs Moduli (GPa) = 88.47489 85.01635 16.33297
#
# Poissons Ratio (x) = 0.27505 0.18573
# Poissons Ratio (y) = 0.28624 0.11406
# Poissons Ratio (z) = 1.00607 0.59369
#
# Static dielectric constant tensor:
#      x y z
#    x 3.713290 0.000000 0.000000 
#    y 0.000000 3.810480 0.000000 
#    z 0.000000 0.000000 3.214510 
# 
# 
# High freq. dielectric constant tensor:
#      x y z
#    x 1.756660 0.000000 0.000000 
#    y 0.000000 1.752840 0.000000 
#    z 0.000000 0.000000 1.715580 
# 
# From -- ./inp_files/4224.got.cif
#   From: 2010.06.25/outbox.cif.g09.slc.cpg/sg58_3_cif.got.tgz:4224.got - 2010.06.26 21:38:00.
