data_PCOD8237607
_publ_section_title
;
Structure prediction by ZEFSAII (Michael W. Deem and Ramdas Pophale) SiO2 
 PCOD8237607
Probable space group: P N N M
;
_chemical_formula_sum "Si O2"
_cell_formula_units_Z 32
_cell_length_a 15.354303
_cell_length_b 12.913484
_cell_length_c 7.741499
_cell_angle_alpha 90.000000
_cell_angle_beta 90.000000
_cell_angle_gamma 90.000000
_cell_volume 1534.965425
_symmetry_space_group_name_H-M "P N N M"
_symmetry_group_IT_number 58
_symmetry_cell_setting 'orthorhombic'
loop_
_space_group_symop_operation_xyz
x,y,z
-x,-y,z
1/2+x,1/2-y,1/2-z
1/2-x,1/2+y,1/2-z
-x,-y,-z
x,y,-z
1/2-x,1/2+y,1/2+z
1/2+x,1/2-y,1/2+z
loop_
_atom_site_type_symbol
_atom_site_label
_atom_site_fract_x
_atom_site_fract_y
_atom_site_fract_z
Si Si1 0.890937 0.757179 0.803946
Si Si2 0.638126 0.977404 0.000000
Si Si3 0.509520 0.167632 0.000000
Si Si4 0.402958 0.508190 0.301185
Si Si5 0.268077 0.927859 0.307048
O O1 0.969694 0.731309 0.673814
O O2 0.864825 0.876249 0.776450
O O3 0.806041 0.686401 0.763789
O O4 0.924529 0.739114 0.000000
O O5 0.696653 0.987497 0.828559
O O6 0.592256 0.864621 0.000000
O O7 0.565856 0.064683 0.000000
O O8 0.500000 0.500000 0.220129
O O9 0.407472 0.474677 0.500000
O O10 0.337246 0.428705 0.205999
O O11 0.297019 0.960129 0.500000
#
# Coordination Sequence:
#
# PCOD8237607 Si02
#       5
#     8   4   4   8   8
#     4   9  20  38  57  84 119 151 191 240 287 343
#     4   9  18  36  57  86 114 149 193 234 290 340
#     4   9  18  34  61  82 116 155 183 236 290 347
#     4  10  21  40  61  84 118 155 194 243 290 344
#     4  10  20  37  60  84 115 152 192 240 289 345
#
# _framework density 20.847373000000001
#
# number of rings (size 3 to 8) (size 9 to 14) (size 15 to 20)
#    0.000    2.500    1.250    0.000    1.750    1.500 
#    4.500    5.000    0.000    0.000    0.000    0.000 
#    0.000    0.000    0.000    0.000    0.000    0.000 
#
# Total GULP energy -396667.719430 kJ/mol
# GULP energy per Si atom -12395.866232 kJ/mol
# Density = 2.079992 g / cm^3
# Si number density = 20.847373 Si / 1000 Ang^3
#
#
#
# Elastic Constant Matrix: (Units=GPa)
#
#
# Indices 1 2 3 4 5 6 
#
# 1 117.3577 46.7458 38.2868 0.0000 0.0000 0.0000
# 2 46.7458 73.5550 34.3941 0.0000 0.0000 0.0000
# 3 38.2868 34.3941 113.0547 0.0000 0.0000 0.0000
# 4 0.0000 0.0000 0.0000 16.0966 0.0000 0.0000
# 5 0.0000 0.0000 0.0000 0.0000 15.4535 0.0000
# 6 0.0000 0.0000 0.0000 0.0000 0.0000 29.6635
#
#
#
# Elastic Compliance Matrix: (Units=1/GPa)
#
#
# Indices 1 2 3 4 5 6 
#
# 1 0.011783 -0.006555 -0.001996 0.000000 0.000000 0.000000
# 2 -0.006555 0.019497 -0.003711 0.000000 0.000000 0.000000
# 3 -0.001996 -0.003711 0.010650 0.000000 0.000000 0.000000
# 4 0.000000 0.000000 0.000000 0.062125 0.000000 0.000000
# 5 0.000000 0.000000 0.000000 0.000000 0.064710 0.000000
# 6 0.000000 0.000000 0.000000 0.000000 0.000000 0.033711
#
#
# Mechanical properties :
#
#
# Convention : Reuss Voigt Hill
#
# Bulk Modulus (GPa) = 57.45553 60.31339 58.88446
# Shear Modulus (GPa) = 21.47730 24.54543 23.01137
#
# Velocity S-wave (km/s) = 3.21318 3.43503 3.32596
# Velocity P-wave (km/s) = 6.43319 6.68777 6.56172
#
# Compressibility (1/GPa) = 0.01740477
#
# Stress axis : x y z
#
# Youngs Moduli (GPa) = 84.86653 51.29099 93.89283
#
# Poissons Ratio (x) = 0.33621 0.18743
# Poissons Ratio (y) = 0.55630 0.34848
# Poissons Ratio (z) = 0.16942 0.19036
#
# Static dielectric constant tensor:
#      x y z
#    x 3.859240 0.000000 0.000000 
#    y 0.000000 3.620910 0.000000 
#    z 0.000000 0.000000 3.863140 
# 
# 
# High freq. dielectric constant tensor:
#      x y z
#    x 1.804480 0.000000 0.000000 
#    y 0.000000 1.795530 0.000000 
#    z 0.000000 0.000000 1.821630 
# 
# From -- ./inp_files/3538.got.cif
#   From: 2010.06.25/outbox.cif.g09.slc.cpg/sg58_2_cif.got.tgz:3538.got - 2010.06.26 21:38:00.
