data_PCOD8237862
_publ_section_title
;
Structure prediction by ZEFSAII (Michael W. Deem and Ramdas Pophale) SiO2 
 PCOD8237862
Probable space group: P N N M
;
_chemical_formula_sum "Si O2"
_cell_formula_units_Z 48
_cell_length_a 8.805023
_cell_length_b 9.396703
_cell_length_c 27.983804
_cell_angle_alpha 90.000000
_cell_angle_beta 90.000000
_cell_angle_gamma 90.000000
_cell_volume 2315.329181
_symmetry_space_group_name_H-M "P N N M"
_symmetry_group_IT_number 58
_symmetry_cell_setting 'orthorhombic'
loop_
_space_group_symop_operation_xyz
x,y,z
-x,-y,z
1/2+x,1/2-y,1/2-z
1/2-x,1/2+y,1/2-z
-x,-y,-z
x,y,-z
1/2-x,1/2+y,1/2+z
1/2+x,1/2-y,1/2+z
loop_
_atom_site_type_symbol
_atom_site_label
_atom_site_fract_x
_atom_site_fract_y
_atom_site_fract_z
Si Si1 0.000000 0.500000 0.838816
Si Si2 0.500000 0.500000 0.833401
Si Si3 0.651708 0.092510 0.500000
Si Si4 0.250466 0.373554 0.101473
Si Si5 0.761877 0.838039 0.279773
Si Si6 0.319725 0.977441 0.196794
Si Si7 0.657166 0.429503 0.500000
Si Si8 0.169233 0.550329 0.406446
O O1 0.085740 0.386048 0.873043
O O2 0.118327 0.589430 0.806579
O O3 0.636818 0.537851 0.867126
O O4 0.571533 0.375720 0.800906
O O5 0.745035 0.058079 0.451784
O O6 0.624752 0.261768 0.500000
O O7 0.500000 0.000000 0.500000
O O8 0.319050 0.217720 0.100665
O O9 0.757747 0.667338 0.279198
O O10 0.757668 0.892042 0.225099
O O11 0.500000 0.000000 0.198770
O O12 0.265418 0.976390 0.141529
O O13 0.500000 0.500000 0.500000
O O14 0.739134 0.491734 0.453359
O O15 0.000000 0.500000 0.416110
#
# Coordination Sequence:
#
# PCOD8237862 Si02
#       8
#     4   4   4   8   8   8   4   8
#     4  10  22  41  64  90 134 169 216 262 330 388
#     4  10  22  39  60  94 132 173 222 262 328 384
#     4  10  20  40  63  94 125 166 210 271 334 382
#     4  10  21  40  65  92 130 169 215 270 329 391
#     4  11  25  41  66  93 134 176 218 272 322 395
#     4  11  25  42  65  96 133 171 224 265 331 387
#     4  10  23  43  65  96 124 164 216 271 326 390
#     4  10  22  42  66  89 130 168 216 264 328 388
#
# _framework density 20.731393000000001
#
# number of rings (size 3 to 8) (size 9 to 14) (size 15 to 20)
#    0.000    1.667    1.667    2.250    7.000    3.000 
#    4.500    0.000    0.000    0.000    0.000    0.000 
#    0.000    0.000    0.000    0.000    0.000    0.000 
#
# Total GULP energy -594941.069864 kJ/mol
# GULP energy per Si atom -12394.605622 kJ/mol
# Density = 2.068421 g / cm^3
# Si number density = 20.731393 Si / 1000 Ang^3
#
#
#
# Elastic Constant Matrix: (Units=GPa)
#
#
# Indices 1 2 3 4 5 6 
#
# 1 100.7589 39.5362 58.5313 0.0000 0.0000 0.0000
# 2 39.5362 91.2229 46.8885 0.0000 0.0000 0.0000
# 3 58.5313 46.8885 172.3895 0.0000 0.0000 0.0000
# 4 0.0000 0.0000 0.0000 29.7430 0.0000 0.0000
# 5 0.0000 0.0000 0.0000 0.0000 25.7928 0.0000
# 6 0.0000 0.0000 0.0000 0.0000 0.0000 36.5791
#
#
#
# Elastic Compliance Matrix: (Units=1/GPa)
#
#
# Indices 1 2 3 4 5 6 
#
# 1 0.013554 -0.004079 -0.003493 0.000000 0.000000 0.000000
# 2 -0.004079 0.013971 -0.002415 0.000000 0.000000 0.000000
# 3 -0.003493 -0.002415 0.007644 0.000000 0.000000 0.000000
# 4 0.000000 0.000000 0.000000 0.033621 0.000000 0.000000
# 5 0.000000 0.000000 0.000000 0.000000 0.038770 0.000000
# 6 0.000000 0.000000 0.000000 0.000000 0.000000 0.027338
#
#
# Mechanical properties :
#
#
# Convention : Reuss Voigt Hill
#
# Bulk Modulus (GPa) = 65.80931 72.69814 69.25372
# Shear Modulus (GPa) = 31.26215 33.05067 32.15641
#
# Velocity S-wave (km/s) = 3.88746 3.99712 3.94267
# Velocity P-wave (km/s) = 7.20850 7.51302 7.36233
#
# Compressibility (1/GPa) = 0.01519542
#
# Stress axis : x y z
#
# Youngs Moduli (GPa) = 73.77828 71.57442 130.82985
#
# Poissons Ratio (x) = 0.29197 0.45692
# Poissons Ratio (y) = 0.30096 0.31597
# Poissons Ratio (z) = 0.25767 0.17286
#
# Static dielectric constant tensor:
#      x y z
#    x 4.237680 0.000000 0.000000 
#    y 0.000000 3.567300 0.000000 
#    z 0.000000 0.000000 4.155360 
# 
# 
# High freq. dielectric constant tensor:
#      x y z
#    x 1.809770 0.000000 0.000000 
#    y 0.000000 1.800640 0.000000 
#    z 0.000000 0.000000 1.836510 
# 
# From -- ./inp_files/34661.got.cif
#   From: 2010.06.25/outbox.cif.g09.slc.cpg/sg58_18_cif.got.tgz:34661.got - 2010.06.26 21:38:00.
