data_PCOD8237431
_publ_section_title
;
Structure prediction by ZEFSAII (Michael W. Deem and Ramdas Pophale) SiO2 
 PCOD8237431
Probable space group: P N N M
;
_chemical_formula_sum "Si O2"
_cell_formula_units_Z 48
_cell_length_a 9.386905
_cell_length_b 28.550208
_cell_length_c 8.896652
_cell_angle_alpha 90.000000
_cell_angle_beta 90.000000
_cell_angle_gamma 90.000000
_cell_volume 2384.285745
_symmetry_space_group_name_H-M "P N N M"
_symmetry_group_IT_number 58
_symmetry_cell_setting 'orthorhombic'
loop_
_space_group_symop_operation_xyz
x,y,z
-x,-y,z
1/2+x,1/2-y,1/2-z
1/2-x,1/2+y,1/2-z
-x,-y,-z
x,y,-z
1/2-x,1/2+y,1/2+z
1/2+x,1/2-y,1/2+z
loop_
_atom_site_type_symbol
_atom_site_label
_atom_site_fract_x
_atom_site_fract_y
_atom_site_fract_z
Si Si1 0.723358 0.716394 0.176905
Si Si2 0.026144 0.697297 0.323218
Si Si3 0.359209 0.022896 0.829796
Si Si4 0.902064 0.040441 0.169275
Si Si5 0.979257 0.133996 0.322619
Si Si6 0.296978 0.118945 0.322287
O O1 0.648450 0.765329 0.217310
O O2 0.616052 0.676572 0.239354
O O3 0.874850 0.713439 0.257994
O O4 0.748780 0.710839 0.000000
O O5 0.006634 0.691707 0.500000
O O6 0.075648 0.648029 0.253782
O O7 0.305494 0.064981 0.726274
O O8 0.500000 0.000000 0.760579
O O9 0.256190 0.978585 0.829794
O O10 0.381515 0.041798 0.000000
O O11 0.907523 0.086533 0.267841
O O12 0.955787 0.052089 0.000000
O O13 0.000000 0.000000 0.241207
O O14 0.977546 0.133863 0.500000
O O15 0.143107 0.138544 0.267569
O O16 0.314667 0.122532 0.500000
#
# Coordination Sequence:
#
# PCOD8237431 Si02
#       6
#     8   8   8   8   8   8
#     4  10  23  43  64  91 123 156 196 246 299 358
#     4  11  24  42  66  92 123 159 199 246 301 359
#     4  10  22  39  58  84 122 161 204 253 301 358
#     4  10  20  36  58  85 118 157 201 248 294 352
#     4  10  22  39  61  88 121 158 199 248 300 357
#     4  11  23  40  62  89 123 162 205 251 302 358
#
# _framework density 20.131816000000001
#
# number of rings (size 3 to 8) (size 9 to 14) (size 15 to 20)
#    0.000    1.667    1.667    2.000    2.333    5.333 
#    0.000    0.000    0.000    0.000    0.000    0.000 
#    0.000    0.000    0.000    0.000    0.000    0.000 
#
# Total GULP energy -595288.664660 kJ/mol
# GULP energy per Si atom -12401.847180 kJ/mol
# Density = 2.008600 g / cm^3
# Si number density = 20.131816 Si / 1000 Ang^3
#
#
#
# Elastic Constant Matrix: (Units=GPa)
#
#
# Indices 1 2 3 4 5 6 
#
# 1 129.5742 30.2885 46.8277 0.0000 0.0000 0.0000
# 2 30.2885 78.9140 26.4421 0.0000 0.0000 0.0000
# 3 46.8277 26.4421 47.7118 0.0000 0.0000 0.0000
# 4 0.0000 0.0000 0.0000 29.1825 0.0000 0.0000
# 5 0.0000 0.0000 0.0000 0.0000 31.7136 0.0000
# 6 0.0000 0.0000 0.0000 0.0000 0.0000 39.8884
#
#
#
# Elastic Compliance Matrix: (Units=1/GPa)
#
#
# Indices 1 2 3 4 5 6 
#
# 1 0.012002 -0.000810 -0.011330 0.000000 0.000000 0.000000
# 2 -0.000810 0.015617 -0.007860 0.000000 0.000000 0.000000
# 3 -0.011330 -0.007860 0.036436 0.000000 0.000000 0.000000
# 4 0.000000 0.000000 0.000000 0.034267 0.000000 0.000000
# 5 0.000000 0.000000 0.000000 0.000000 0.031532 0.000000
# 6 0.000000 0.000000 0.000000 0.000000 0.000000 0.025070
#
#
# Mechanical properties :
#
#
# Convention : Reuss Voigt Hill
#
# Bulk Modulus (GPa) = 41.57408 51.47962 46.52685
# Shear Modulus (GPa) = 24.63767 30.33303 27.48535
#
# Velocity S-wave (km/s) = 3.50211 3.88586 3.69896
# Velocity P-wave (km/s) = 6.08677 6.76461 6.43462
#
# Compressibility (1/GPa) = 0.02405345
#
# Stress axis : x y z
#
# Youngs Moduli (GPa) = 83.32160 64.03481 27.44565
#
# Poissons Ratio (x) = 0.05186 0.31097
# Poissons Ratio (y) = 0.06748 0.21572
# Poissons Ratio (z) = 0.94407 0.50330
#
# Static dielectric constant tensor:
#      x y z
#    x 3.832580 0.000000 0.000000 
#    y 0.000000 3.687460 0.000000 
#    z 0.000000 0.000000 3.535950 
# 
# 
# High freq. dielectric constant tensor:
#      x y z
#    x 1.801390 0.000000 0.000000 
#    y 0.000000 1.791620 0.000000 
#    z 0.000000 0.000000 1.774730 
# 
# From -- ./inp_files/2909.got.cif
#   From: 2010.06.25/outbox.cif.g09.slc.cpg/sg58_2_cif.got.tgz:2909.got - 2010.06.26 21:38:00.
