data_PCOD8237652
_publ_section_title
;
Structure prediction by ZEFSAII (Michael W. Deem and Ramdas Pophale) SiO2 
 PCOD8237652
Probable space group: P N N M
;
_chemical_formula_sum "Si O2"
_cell_formula_units_Z 48
_cell_length_a 30.770041
_cell_length_b 10.420983
_cell_length_c 7.678437
_cell_angle_alpha 90.000000
_cell_angle_beta 90.000000
_cell_angle_gamma 90.000000
_cell_volume 2462.122107
_symmetry_space_group_name_H-M "P N N M"
_symmetry_group_IT_number 58
_symmetry_cell_setting 'orthorhombic'
loop_
_space_group_symop_operation_xyz
x,y,z
-x,-y,z
1/2+x,1/2-y,1/2-z
1/2-x,1/2+y,1/2-z
-x,-y,-z
x,y,-z
1/2-x,1/2+y,1/2+z
1/2+x,1/2-y,1/2+z
loop_
_atom_site_type_symbol
_atom_site_label
_atom_site_fract_x
_atom_site_fract_y
_atom_site_fract_z
Si Si1 0.481988 0.799471 0.500000
Si Si2 0.376698 0.166341 0.199665
Si Si3 0.275514 0.185166 0.801179
Si Si4 0.036561 0.106924 0.301076
Si Si5 0.070551 0.549280 0.000000
Si Si6 0.618889 0.542749 0.205535
Si Si7 0.286446 0.463943 0.198171
O O1 0.477761 0.721522 0.321961
O O2 0.529520 0.858465 0.500000
O O3 0.443834 0.902837 0.500000
O O4 0.325332 0.145444 0.222044
O O5 0.401138 0.068848 0.326058
O O6 0.389630 0.309906 0.258084
O O7 0.390606 0.139311 0.000000
O O8 0.267829 0.329414 0.721920
O O9 0.246394 0.081746 0.701086
O O10 0.260275 0.176451 0.000000
O O11 0.042380 0.157181 0.500000
O O12 0.081088 0.047988 0.219697
O O13 0.000000 0.000000 0.296236
O O14 0.666400 0.499802 0.280142
O O15 0.616614 0.529480 0.000000
O O16 0.296755 0.424653 0.000000
#
# Coordination Sequence:
#
# PCOD8237652 Si02
#       7
#     4   8   8   8   4   8   8
#     4  11  25  40  54  86 125 141 192 248 278 345
#     4   9  19  38  61  81 109 147 194 235 273 339
#     4   9  19  36  54  81 112 144 192 237 280 343
#     4  10  20  37  62  87 113 149 189 236 296 344
#     4  11  24  40  58  82 112 160 194 224 289 348
#     4   8  16  34  57  82 110 142 185 235 287 339
#     4   9  18  34  54  77 112 149 183 235 286 336
#
# _framework density 19.495377000000001
#
# number of rings (size 3 to 8) (size 9 to 14) (size 15 to 20)
#    0.000    2.667    0.000    3.250    1.167    4.000 
#    9.000    1.667    0.000    0.000    0.000    0.000 
#    0.000    0.000    0.000    0.000    0.000    0.000 
#
# Total GULP energy -594941.616254 kJ/mol
# GULP energy per Si atom -12394.617005 kJ/mol
# Density = 1.945100 g / cm^3
# Si number density = 19.495377 Si / 1000 Ang^3
#
#
#
# Elastic Constant Matrix: (Units=GPa)
#
#
# Indices 1 2 3 4 5 6 
#
# 1 80.6960 44.0762 25.4863 0.0000 0.0000 0.0000
# 2 44.0762 91.2832 31.9093 0.0000 0.0000 0.0000
# 3 25.4863 31.9093 76.3026 0.0000 0.0000 0.0000
# 4 0.0000 0.0000 0.0000 33.1239 0.0000 0.0000
# 5 0.0000 0.0000 0.0000 0.0000 12.8509 0.0000
# 6 0.0000 0.0000 0.0000 0.0000 0.0000 32.5311
#
#
#
# Elastic Compliance Matrix: (Units=1/GPa)
#
#
# Indices 1 2 3 4 5 6 
#
# 1 0.017285 -0.007411 -0.002674 0.000000 0.000000 0.000000
# 2 -0.007411 0.016008 -0.004219 0.000000 0.000000 0.000000
# 3 -0.002674 -0.004219 0.015763 0.000000 0.000000 0.000000
# 4 0.000000 0.000000 0.000000 0.030190 0.000000 0.000000
# 5 0.000000 0.000000 0.000000 0.000000 0.077815 0.000000
# 6 0.000000 0.000000 0.000000 0.000000 0.000000 0.030740
#
#
# Mechanical properties :
#
#
# Convention : Reuss Voigt Hill
#
# Bulk Modulus (GPa) = 48.90556 50.13617 49.52087
# Shear Modulus (GPa) = 22.39884 25.48852 23.94368
#
# Velocity S-wave (km/s) = 3.39327 3.61974 3.50833
# Velocity P-wave (km/s) = 6.36337 6.57593 6.47052
#
# Compressibility (1/GPa) = 0.02044757
#
# Stress axis : x y z
#
# Youngs Moduli (GPa) = 57.85449 62.46764 63.43850
#
# Poissons Ratio (x) = 0.46296 0.16964
# Poissons Ratio (y) = 0.42877 0.26765
# Poissons Ratio (z) = 0.15471 0.26356
#
# Static dielectric constant tensor:
#      x y z
#    x 3.702070 0.000000 0.000000 
#    y 0.000000 3.425260 0.000000 
#    z 0.000000 0.000000 3.408840 
# 
# 
# High freq. dielectric constant tensor:
#      x y z
#    x 1.767260 0.000000 0.000000 
#    y 0.000000 1.742130 0.000000 
#    z 0.000000 0.000000 1.751790 
# 
# From -- ./inp_files/3044.got.cif
#   From: 2010.06.25/outbox.cif.g09.slc.cpg/sg58_2_cif.got.tgz:3044.got - 2010.06.26 21:38:00.
