data_PCOD8237349
_publ_section_title
;
Structure prediction by ZEFSAII (Michael W. Deem and Ramdas Pophale) SiO2 
 PCOD8237349
Probable space group: P N N M
;
_chemical_formula_sum "Si O2"
_cell_formula_units_Z 64
_cell_length_a 28.993988
_cell_length_b 11.988545
_cell_length_c 8.934513
_cell_angle_alpha 90.000000
_cell_angle_beta 90.000000
_cell_angle_gamma 90.000000
_cell_volume 3105.598567
_symmetry_space_group_name_H-M "P N N M"
_symmetry_group_IT_number 58
_symmetry_cell_setting 'orthorhombic'
loop_
_space_group_symop_operation_xyz
x,y,z
-x,-y,z
1/2+x,1/2-y,1/2-z
1/2-x,1/2+y,1/2-z
-x,-y,-z
x,y,-z
1/2-x,1/2+y,1/2+z
1/2+x,1/2-y,1/2+z
loop_
_atom_site_type_symbol
_atom_site_label
_atom_site_fract_x
_atom_site_fract_y
_atom_site_fract_z
Si Si1 0.067153 0.015242 0.333212
Si Si2 0.322500 0.012523 0.827863
Si Si3 0.938416 0.207700 0.826173
Si Si4 0.779678 0.041518 0.828658
Si Si5 0.617323 0.162634 0.677088
Si Si6 0.834239 0.259938 0.823473
Si Si7 0.662365 0.368032 0.170198
Si Si8 0.972593 0.746059 0.673280
O O1 0.056547 0.968625 0.500000
O O2 0.120388 0.046385 0.319959
O O3 0.035907 0.122655 0.300704
O O4 0.055595 0.922556 0.211500
O O5 0.313877 0.136244 0.766267
O O6 0.275100 0.942888 0.811310
O O7 0.362584 0.955286 0.730920
O O8 0.338141 0.017569 0.000000
O O9 0.887722 0.246901 0.778067
O O10 0.976620 0.280892 0.737810
O O11 0.947337 0.225162 0.000000
O O12 0.805260 0.152302 0.769673
O O13 0.793628 0.932565 0.734044
O O14 0.794083 0.019431 0.000000
O O15 0.614859 0.166190 0.500000
O O16 0.651562 0.258457 0.734682
O O17 0.565841 0.174745 0.740950
O O18 0.828304 0.278838 0.000000
O O19 0.671842 0.329804 0.000000
O O20 0.969507 0.713392 0.500000
#
# Coordination Sequence:
#
# PCOD8237349 Si02
#       8
#     8   8   8   8   8   8   8   8
#     4   9  18  32  51  81 121 161 197 244 302 359
#     4  11  25  43  65  92 122 161 211 259 310 370
#     4  11  21  34  57  87 121 163 207 253 308 368
#     4  10  22  41  63  91 125 161 203 253 310 372
#     4  11  23  41  64  89 123 163 207 255 311 370
#     4  10  23  43  63  89 127 166 206 256 312 367
#     4  10  20  35  59  90 124 161 202 249 303 362
#     4  10  21  37  58  87 124 162 205 256 309 367
#
# _framework density 20.607942999999999
#
# number of rings (size 3 to 8) (size 9 to 14) (size 15 to 20)
#    0.000    1.750    1.250    3.750    1.750    6.500 
#    0.000    0.625    0.000    3.750    0.000    0.000 
#    0.000    0.000    0.000    0.000    0.000    0.000 
#
# Total GULP energy -793845.545210 kJ/mol
# GULP energy per Si atom -12403.836644 kJ/mol
# Density = 2.056104 g / cm^3
# Si number density = 20.607943 Si / 1000 Ang^3
#
#
#
# Elastic Constant Matrix: (Units=GPa)
#
#
# Indices 1 2 3 4 5 6 
#
# 1 98.5010 31.5406 46.3470 0.0000 0.0000 0.0000
# 2 31.5406 59.5873 29.3561 0.0000 0.0000 0.0000
# 3 46.3470 29.3561 112.4928 0.0000 0.0000 0.0000
# 4 0.0000 0.0000 0.0000 31.3137 0.0000 0.0000
# 5 0.0000 0.0000 0.0000 0.0000 30.8196 0.0000
# 6 0.0000 0.0000 0.0000 0.0000 0.0000 15.6928
#
#
#
# Elastic Compliance Matrix: (Units=1/GPa)
#
#
# Indices 1 2 3 4 5 6 
#
# 1 0.013865 -0.005192 -0.004357 0.000000 0.000000 0.000000
# 2 -0.005192 0.021202 -0.003394 0.000000 0.000000 0.000000
# 3 -0.004357 -0.003394 0.011570 0.000000 0.000000 0.000000
# 4 0.000000 0.000000 0.000000 0.031935 0.000000 0.000000
# 5 0.000000 0.000000 0.000000 0.000000 0.032447 0.000000
# 6 0.000000 0.000000 0.000000 0.000000 0.000000 0.063724
#
#
# Mechanical properties :
#
#
# Convention : Reuss Voigt Hill
#
# Bulk Modulus (GPa) = 48.19071 53.89647 51.04359
# Shear Modulus (GPa) = 24.09092 26.45437 25.27265
#
# Velocity S-wave (km/s) = 3.42279 3.58676 3.50573
# Velocity P-wave (km/s) = 6.24948 6.58507 6.41947
#
# Compressibility (1/GPa) = 0.02075089
#
# Stress axis : x y z
#
# Youngs Moduli (GPa) = 72.12380 47.16446 86.42784
#
# Poissons Ratio (x) = 0.24489 0.37660
# Poissons Ratio (y) = 0.37449 0.29331
# Poissons Ratio (z) = 0.31427 0.16006
#
# Static dielectric constant tensor:
#      x y z
#    x 3.821070 0.000000 0.000000 
#    y 0.000000 3.448630 0.000000 
#    z 0.000000 0.000000 3.691060 
# 
# 
# High freq. dielectric constant tensor:
#      x y z
#    x 1.816280 0.000000 0.000000 
#    y 0.000000 1.784780 0.000000 
#    z 0.000000 0.000000 1.807680 
# 
# From -- ./inp_files/10985.got.cif
#   From: 2010.06.25/outbox.cif.g09.slc.cpg/sg58_6_cif.got.tgz:10985.got - 2010.06.26 21:38:00.
