data_PCOD8237479
_publ_section_title
;
Structure prediction by ZEFSAII (Michael W. Deem and Ramdas Pophale) SiO2 
 PCOD8237479
Probable space group: P N N M
;
_chemical_formula_sum "Si O2"
_cell_formula_units_Z 48
_cell_length_a 10.411950
_cell_length_b 24.875568
_cell_length_c 9.165407
_cell_angle_alpha 90.000000
_cell_angle_beta 90.000000
_cell_angle_gamma 90.000000
_cell_volume 2373.869470
_symmetry_space_group_name_H-M "P N N M"
_symmetry_group_IT_number 58
_symmetry_cell_setting 'orthorhombic'
loop_
_space_group_symop_operation_xyz
x,y,z
-x,-y,z
1/2+x,1/2-y,1/2-z
1/2-x,1/2+y,1/2-z
-x,-y,-z
x,y,-z
1/2-x,1/2+y,1/2+z
1/2+x,1/2-y,1/2+z
loop_
_atom_site_type_symbol
_atom_site_label
_atom_site_fract_x
_atom_site_fract_y
_atom_site_fract_z
Si Si1 0.494274 0.560898 0.334156
Si Si2 0.350280 0.784539 0.673445
Si Si3 0.143562 0.487728 0.841874
Si Si4 0.736723 0.402886 0.170521
Si Si5 0.773444 0.608776 0.666199
Si Si6 0.853691 0.290992 0.829038
O O1 0.500000 0.500000 0.266945
O O2 0.447311 0.555797 0.500000
O O3 0.399492 0.601297 0.250357
O O4 0.626836 0.591787 0.320339
O O5 0.336820 0.783839 0.500000
O O6 0.302854 0.841333 0.731655
O O7 0.256064 0.740272 0.740934
O O8 0.500569 0.774863 0.717449
O O9 0.205129 0.541121 0.772820
O O10 0.144981 0.441143 0.723096
O O11 0.000000 0.500000 0.879683
O O12 0.208290 0.472209 0.000000
O O13 0.832022 0.353798 0.208665
O O14 0.710791 0.404078 0.000000
O O15 0.811602 0.622275 0.500000
O O16 0.833359 0.279019 0.000000
#
# Coordination Sequence:
#
# PCOD8237479 Si02
#       6
#     8   8   8   8   8   8
#     4  10  21  38  58  87 128 166 202 250 308 366
#     4  11  25  45  69  94 126 167 210 264 323 378
#     4  10  20  36  59  87 121 160 201 250 312 377
#     4  10  21  37  61  89 121 160 204 254 305 369
#     4  11  23  39  61  89 125 164 207 260 310 373
#     4  10  24  46  67  94 129 163 209 264 318 378
#
# _framework density 20.22015
#
# number of rings (size 3 to 8) (size 9 to 14) (size 15 to 20)
#    0.000    1.667    1.667    2.000    2.333    6.667 
#    0.000    1.667    0.000    0.000    0.000    0.000 
#    0.000    0.000    0.000    0.000    0.000    0.000 
#
# Total GULP energy -595032.326907 kJ/mol
# GULP energy per Si atom -12396.506811 kJ/mol
# Density = 2.017413 g / cm^3
# Si number density = 20.220150 Si / 1000 Ang^3
#
#
#
# Elastic Constant Matrix: (Units=GPa)
#
#
# Indices 1 2 3 4 5 6 
#
# 1 75.0335 23.2490 35.5361 0.0000 0.0000 0.0000
# 2 23.2490 89.7877 37.3988 0.0000 0.0000 0.0000
# 3 35.5361 37.3988 58.8923 0.0000 0.0000 0.0000
# 4 0.0000 0.0000 0.0000 39.3772 0.0000 0.0000
# 5 0.0000 0.0000 0.0000 0.0000 18.5384 0.0000
# 6 0.0000 0.0000 0.0000 0.0000 0.0000 36.6286
#
#
#
# Elastic Compliance Matrix: (Units=1/GPa)
#
#
# Indices 1 2 3 4 5 6 
#
# 1 0.018662 -0.000193 -0.011139 0.000000 0.000000 0.000000
# 2 -0.000193 0.015145 -0.009501 0.000000 0.000000 0.000000
# 3 -0.011139 -0.009501 0.029735 0.000000 0.000000 0.000000
# 4 0.000000 0.000000 0.000000 0.025395 0.000000 0.000000
# 5 0.000000 0.000000 0.000000 0.000000 0.053942 0.000000
# 6 0.000000 0.000000 0.000000 0.000000 0.000000 0.027301
#
#
# Mechanical properties :
#
#
# Convention : Reuss Voigt Hill
#
# Bulk Modulus (GPa) = 45.71029 46.23124 45.97076
# Shear Modulus (GPa) = 22.81667 27.41081 25.11374
#
# Velocity S-wave (km/s) = 3.36283 3.68587 3.52805
# Velocity P-wave (km/s) = 6.14276 6.40529 6.27540
#
# Compressibility (1/GPa) = 0.02187691
#
# Stress axis : x y z
#
# Youngs Moduli (GPa) = 53.58375 66.02932 33.63055
#
# Poissons Ratio (x) = 0.01273 0.37460
# Poissons Ratio (y) = 0.01033 0.31953
# Poissons Ratio (z) = 0.59685 0.62736
#
# Static dielectric constant tensor:
#      x y z
#    x 3.767000 0.000000 0.000000 
#    y 0.000000 3.778120 0.000000 
#    z 0.000000 0.000000 3.730480 
# 
# 
# High freq. dielectric constant tensor:
#      x y z
#    x 1.796130 0.000000 0.000000 
#    y 0.000000 1.792510 0.000000 
#    z 0.000000 0.000000 1.787690 
# 
# From -- ./inp_files/4250.got.cif
#   From: 2010.06.25/outbox.cif.g09.slc.cpg/sg58_3_cif.got.tgz:4250.got - 2010.06.26 21:38:00.
