data_PCOD8237271
_publ_section_title
;
Structure prediction by ZEFSAII (Michael W. Deem and Ramdas Pophale) SiO2 
 PCOD8237271
Probable space group: P N N M
;
_chemical_formula_sum "Si O2"
_cell_formula_units_Z 48
_cell_length_a 9.332798
_cell_length_b 30.351794
_cell_length_c 9.154712
_cell_angle_alpha 90.000000
_cell_angle_beta 90.000000
_cell_angle_gamma 90.000000
_cell_volume 2593.229290
_symmetry_space_group_name_H-M "P N N M"
_symmetry_group_IT_number 58
_symmetry_cell_setting 'orthorhombic'
loop_
_space_group_symop_operation_xyz
x,y,z
-x,-y,z
1/2+x,1/2-y,1/2-z
1/2-x,1/2+y,1/2-z
-x,-y,-z
x,y,-z
1/2-x,1/2+y,1/2+z
1/2+x,1/2-y,1/2+z
loop_
_atom_site_type_symbol
_atom_site_label
_atom_site_fract_x
_atom_site_fract_y
_atom_site_fract_z
Si Si1 0.085405 0.542096 0.171805
Si Si2 0.414198 0.380538 0.672641
Si Si3 0.895354 0.208004 0.329950
Si Si4 0.914163 0.614711 0.666392
Si Si5 0.415681 0.544207 0.829869
Si Si6 0.890406 0.714073 0.666471
O O1 0.251050 0.537461 0.215767
O O2 0.000000 0.500000 0.235354
O O3 0.020301 0.586604 0.235413
O O4 0.065641 0.544688 0.000000
O O5 0.432774 0.376639 0.500000
O O6 0.456763 0.333847 0.742906
O O7 0.250797 0.392539 0.715158
O O8 0.520852 0.416836 0.733903
O O9 0.891752 0.196068 0.500000
O O10 0.738611 0.221436 0.277154
O O11 0.992245 0.249941 0.295620
O O12 0.934377 0.599647 0.500000
O O13 0.958019 0.665627 0.688387
O O14 0.500000 0.500000 0.790888
O O15 0.431719 0.556281 0.000000
O O16 0.833535 0.718351 0.500000
#
# Coordination Sequence:
#
# PCOD8237271 Si02
#       6
#     8   8   8   8   8   8
#     4  10  21  36  55  80 107 137 175 218 264 315
#     4  10  21  37  56  79 109 143 181 224 270 320
#     4  10  20  35  57  82 109 144 183 222 269 322
#     4   9  19  36  55  76 105 140 176 217 265 316
#     4  10  21  37  57  81 109 141 179 222 268 323
#     4   9  20  37  54  78 111 142 178 223 268 319
#
# _framework density 18.509739
#
# number of rings (size 3 to 8) (size 9 to 14) (size 15 to 20)
#    0.000    2.333    0.000    3.000    0.000    8.667 
#    0.000    3.333    0.000    0.000    0.000    0.000 
#    0.000    0.000    0.000    0.000    0.000    0.000 
#
# Total GULP energy -595340.646870 kJ/mol
# GULP energy per Si atom -12402.930143 kJ/mol
# Density = 1.846761 g / cm^3
# Si number density = 18.509739 Si / 1000 Ang^3
#
#
#
# Elastic Constant Matrix: (Units=GPa)
#
#
# Indices 1 2 3 4 5 6 
#
# 1 120.5027 86.6121 55.6440 0.0000 0.0000 0.0000
# 2 86.6121 138.1033 59.9505 0.0000 0.0000 0.0000
# 3 55.6440 59.9505 65.9893 0.0000 0.0000 0.0000
# 4 0.0000 0.0000 0.0000 51.1900 0.0000 0.0000
# 5 0.0000 0.0000 0.0000 0.0000 29.7905 0.0000
# 6 0.0000 0.0000 0.0000 0.0000 0.0000 38.1074
#
#
#
# Elastic Compliance Matrix: (Units=1/GPa)
#
#
# Indices 1 2 3 4 5 6 
#
# 1 0.017231 -0.007429 -0.007780 0.000000 0.000000 0.000000
# 2 -0.007429 0.015159 -0.007508 0.000000 0.000000 0.000000
# 3 -0.007780 -0.007508 0.028535 0.000000 0.000000 0.000000
# 4 0.000000 0.000000 0.000000 0.019535 0.000000 0.000000
# 5 0.000000 0.000000 0.000000 0.000000 0.033568 0.000000
# 6 0.000000 0.000000 0.000000 0.000000 0.000000 0.026242
#
#
# Mechanical properties :
#
#
# Convention : Reuss Voigt Hill
#
# Bulk Modulus (GPa) = 64.55258 81.00095 72.77677
# Shear Modulus (GPa) = 26.19622 31.97683 29.08653
#
# Velocity S-wave (km/s) = 3.76608 4.16091 3.96841
# Velocity P-wave (km/s) = 7.33906 8.18172 7.77182
#
# Compressibility (1/GPa) = 0.01549125
#
# Stress axis : x y z
#
# Youngs Moduli (GPa) = 58.03518 65.96709 35.04449
#
# Poissons Ratio (x) = 0.49007 0.27266
# Poissons Ratio (y) = 0.43114 0.26310
# Poissons Ratio (z) = 0.45154 0.49525
#
# Static dielectric constant tensor:
#      x y z
#    x 3.385810 0.000000 0.000000 
#    y 0.000000 3.498770 0.000000 
#    z 0.000000 0.000000 3.384550 
# 
# 
# High freq. dielectric constant tensor:
#      x y z
#    x 1.714660 0.000000 0.000000 
#    y 0.000000 1.728970 0.000000 
#    z 0.000000 0.000000 1.719260 
# 
# From -- ./inp_files/2870.got.cif
#   From: 2010.06.25/outbox.cif.g09.slc.cpg/sg58_2_cif.got.tgz:2870.got - 2010.06.26 21:38:00.
