data_PCOD8237060
_publ_section_title
;
Structure prediction by ZEFSAII (Michael W. Deem and Ramdas Pophale) SiO2 
 PCOD8237060
Probable space group: P N N M
;
_chemical_formula_sum "Si O2"
_cell_formula_units_Z 56
_cell_length_a 14.628052
_cell_length_b 21.665785
_cell_length_c 9.155098
_cell_angle_alpha 90.000000
_cell_angle_beta 90.000000
_cell_angle_gamma 90.000000
_cell_volume 2901.509001
_symmetry_space_group_name_H-M "P N N M"
_symmetry_group_IT_number 58
_symmetry_cell_setting 'orthorhombic'
loop_
_space_group_symop_operation_xyz
x,y,z
-x,-y,z
1/2+x,1/2-y,1/2-z
1/2-x,1/2+y,1/2-z
-x,-y,-z
x,y,-z
1/2-x,1/2+y,1/2+z
1/2+x,1/2-y,1/2+z
loop_
_atom_site_type_symbol
_atom_site_label
_atom_site_fract_x
_atom_site_fract_y
_atom_site_fract_z
Si Si1 0.155679 0.540553 0.664140
Si Si2 0.525853 0.850901 0.832111
Si Si3 0.669668 0.646538 0.172566
Si Si4 0.505851 0.429746 0.826548
Si Si5 0.330223 0.224189 0.327177
Si Si6 0.201675 0.113337 0.672136
Si Si7 0.664235 0.098433 0.833803
O O1 0.189324 0.553768 0.500000
O O2 0.068421 0.582274 0.702120
O O3 0.240609 0.556024 0.767937
O O4 0.124840 0.470300 0.683990
O O5 0.571833 0.800649 0.727261
O O6 0.417959 0.854141 0.798493
O O7 0.542598 0.831198 0.000000
O O8 0.579050 0.611360 0.229138
O O9 0.685917 0.710595 0.253657
O O10 0.755673 0.605085 0.216776
O O11 0.666682 0.657286 0.000000
O O12 0.500000 0.500000 0.764033
O O13 0.597627 0.394783 0.771286
O O14 0.504055 0.433202 0.000000
O O15 0.332664 0.231902 0.500000
O O16 0.247805 0.178139 0.277457
O O17 0.204294 0.108570 0.500000
O O18 0.699368 0.109482 0.000000
#
# Coordination Sequence:
#
# PCOD8237060 Si02
#       7
#     8   8   8   8   8   8   8
#     4   9  17  31  53  82 111 137 170 213 261 316
#     4   9  18  34  56  79 106 142 179 213 257 319
#     4  11  23  37  55  78 105 140 183 228 270 320
#     4   9  18  34  56  80 104 134 176 223 270 321
#     4  10  21  37  55  78 108 139 176 223 273 323
#     4   9  18  34  56  78 103 139 177 215 266 324
#     4  10  20  34  53  78 109 142 173 212 265 317
#
# _framework density 19.300301999999999
#
# number of rings (size 3 to 8) (size 9 to 14) (size 15 to 20)
#    0.000    2.429    0.000    2.143    0.000    5.714 
#    0.000    4.286    0.000    8.143    0.000    0.000 
#    0.000    0.000    0.000    0.000    0.000    0.000 
#
# Total GULP energy -694304.154136 kJ/mol
# GULP energy per Si atom -12398.288467 kJ/mol
# Density = 1.925637 g / cm^3
# Si number density = 19.300302 Si / 1000 Ang^3
#
#
#
# Elastic Constant Matrix: (Units=GPa)
#
#
# Indices 1 2 3 4 5 6 
#
# 1 120.3844 29.0954 30.7207 0.0000 0.0000 0.0000
# 2 29.0954 78.6218 24.9491 0.0000 0.0000 0.0000
# 3 30.7207 24.9491 43.8181 0.0000 0.0000 0.0000
# 4 0.0000 0.0000 0.0000 29.8773 0.0000 0.0000
# 5 0.0000 0.0000 0.0000 0.0000 27.9114 0.0000
# 6 0.0000 0.0000 0.0000 0.0000 0.0000 20.4725
#
#
#
# Elastic Compliance Matrix: (Units=1/GPa)
#
#
# Indices 1 2 3 4 5 6 
#
# 1 0.010335 -0.001862 -0.006186 0.000000 0.000000 0.000000
# 2 -0.001862 0.015859 -0.007725 0.000000 0.000000 0.000000
# 3 -0.006186 -0.007725 0.031557 0.000000 0.000000 0.000000
# 4 0.000000 0.000000 0.000000 0.033470 0.000000 0.000000
# 5 0.000000 0.000000 0.000000 0.000000 0.035828 0.000000
# 6 0.000000 0.000000 0.000000 0.000000 0.000000 0.048846
#
#
# Mechanical properties :
#
#
# Convention : Reuss Voigt Hill
#
# Bulk Modulus (GPa) = 38.15829 45.81719 41.98774
# Shear Modulus (GPa) = 23.12930 26.18949 24.65939
#
# Velocity S-wave (km/s) = 3.46553 3.68767 3.57833
# Velocity P-wave (km/s) = 5.98556 6.47476 6.23496
#
# Compressibility (1/GPa) = 0.02620662
#
# Stress axis : x y z
#
# Youngs Moduli (GPa) = 96.75592 63.05415 31.68881
#
# Poissons Ratio (x) = 0.11739 0.19603
# Poissons Ratio (y) = 0.18014 0.24479
# Poissons Ratio (z) = 0.59853 0.48708
#
# Static dielectric constant tensor:
#      x y z
#    x 3.731570 0.000000 0.000000 
#    y 0.000000 3.549650 0.000000 
#    z 0.000000 0.000000 3.382340 
# 
# 
# High freq. dielectric constant tensor:
#      x y z
#    x 1.753960 0.000000 0.000000 
#    y 0.000000 1.752210 0.000000 
#    z 0.000000 0.000000 1.730200 
# 
# From -- ./inp_files/6398.got.cif
#   From: 2010.06.25/outbox.cif.g09.slc.cpg/sg58_4_cif.got.tgz:6398.got - 2010.06.26 21:38:00.
