data_PCOD8237531
_publ_section_title
;
Structure prediction by ZEFSAII (Michael W. Deem and Ramdas Pophale) SiO2 
 PCOD8237531
Probable space group: P N N M
;
_chemical_formula_sum "Si O2"
_cell_formula_units_Z 36
_cell_length_a 5.108287
_cell_length_b 13.594147
_cell_length_c 23.507995
_cell_angle_alpha 90.000000
_cell_angle_beta 90.000000
_cell_angle_gamma 90.000000
_cell_volume 1632.461099
_symmetry_space_group_name_H-M "P N N M"
_symmetry_group_IT_number 58
_symmetry_cell_setting 'orthorhombic'
loop_
_space_group_symop_operation_xyz
x,y,z
-x,-y,z
1/2+x,1/2-y,1/2-z
1/2-x,1/2+y,1/2-z
-x,-y,-z
x,y,-z
1/2-x,1/2+y,1/2+z
1/2+x,1/2-y,1/2+z
loop_
_atom_site_type_symbol
_atom_site_label
_atom_site_fract_x
_atom_site_fract_y
_atom_site_fract_z
Si Si1 0.246778 0.569126 0.000000
Si Si2 0.292736 0.220294 0.398114
Si Si3 0.195141 0.773407 0.677428
Si Si4 0.407464 0.899236 0.223096
Si Si5 0.752900 0.061245 0.899504
O O1 0.500000 0.500000 0.000000
O O2 0.233557 0.637423 0.054908
O O3 0.000000 0.500000 0.000000
O O4 0.576418 0.218512 0.368665
O O5 0.246996 0.328492 0.426052
O O6 0.078014 0.194425 0.350674
O O7 0.234855 0.841617 0.731780
O O8 0.160292 0.662375 0.700939
O O9 0.229741 0.925414 0.168605
O O10 0.500000 0.000000 0.252659
O O11 0.500000 0.000000 0.919091
O O12 0.000000 0.000000 0.922015
#
# Coordination Sequence:
#
# PCOD8237531 Si02
#       5
#     4   8   8   8   8
#     4  12  28  50  72  92 122 172 226 280 340 382
#     4  11  24  44  64  90 126 165 217 277 321 377
#     4  11  23  39  63  94 130 169 214 260 315 385
#     4  10  21  37  59  90 130 170 203 247 309 382
#     4  10  20  36  61  92 125 161 194 240 314 386
#
# _framework density 22.052591
#
# number of rings (size 3 to 8) (size 9 to 14) (size 15 to 20)
#    0.000    1.333    0.000    8.000    0.000    6.222 
#    0.000    3.333    0.000    0.000    0.000    0.778 
#    0.000    0.000    0.000    0.000    0.000    0.000 
#
# Total GULP energy -446381.833701 kJ/mol
# GULP energy per Si atom -12399.495381 kJ/mol
# Density = 2.200240 g / cm^3
# Si number density = 22.052591 Si / 1000 Ang^3
#
#
#
# Elastic Constant Matrix: (Units=GPa)
#
#
# Indices 1 2 3 4 5 6 
#
# 1 142.3575 69.3420 34.9606 0.0000 0.0000 0.0000
# 2 69.3420 182.3212 64.7087 0.0000 0.0000 0.0000
# 3 34.9606 64.7087 70.6588 0.0000 0.0000 0.0000
# 4 0.0000 0.0000 0.0000 35.5212 0.0000 0.0000
# 5 0.0000 0.0000 0.0000 0.0000 23.9951 0.0000
# 6 0.0000 0.0000 0.0000 0.0000 0.0000 35.4199
#
#
#
# Elastic Compliance Matrix: (Units=1/GPa)
#
#
# Indices 1 2 3 4 5 6 
#
# 1 0.008792 -0.002667 -0.001908 0.000000 0.000000 0.000000
# 2 -0.002667 0.008935 -0.006863 0.000000 0.000000 0.000000
# 3 -0.001908 -0.006863 0.021382 0.000000 0.000000 0.000000
# 4 0.000000 0.000000 0.000000 0.028152 0.000000 0.000000
# 5 0.000000 0.000000 0.000000 0.000000 0.041675 0.000000
# 6 0.000000 0.000000 0.000000 0.000000 0.000000 0.028233
#
#
# Mechanical properties :
#
#
# Convention : Reuss Voigt Hill
#
# Bulk Modulus (GPa) = 61.60241 81.48445 71.54343
# Shear Modulus (GPa) = 30.21968 34.07567 32.14768
#
# Velocity S-wave (km/s) = 3.70583 3.93517 3.82222
# Velocity P-wave (km/s) = 6.80484 7.59458 7.21053
#
# Compressibility (1/GPa) = 0.01623313
#
# Stress axis : x y z
#
# Youngs Moduli (GPa) = 113.73869 111.92128 46.76902
#
# Poissons Ratio (x) = 0.29846 0.08924
# Poissons Ratio (y) = 0.30331 0.32098
# Poissons Ratio (z) = 0.21701 0.76812
#
# Static dielectric constant tensor:
#      x y z
#    x 4.076710 0.000000 0.000000 
#    y 0.000000 4.500600 0.000000 
#    z 0.000000 0.000000 3.730490 
# 
# 
# High freq. dielectric constant tensor:
#      x y z
#    x 1.878090 0.000000 0.000000 
#    y 0.000000 1.886070 0.000000 
#    z 0.000000 0.000000 1.841460 
# 
# From -- ./inp_files/30841.got.cif
#   From: 2010.06.25/outbox.cif.g09.slc.cpg/sg58_16_cif.got.tgz:30841.got - 2010.06.26 21:38:00.
