data_PCOD8237163
_publ_section_title
;
Structure prediction by ZEFSAII (Michael W. Deem and Ramdas Pophale) SiO2 
 PCOD8237163
Probable space group: P N N M
;
_chemical_formula_sum "Si O2"
_cell_formula_units_Z 48
_cell_length_a 23.040899
_cell_length_b 11.730777
_cell_length_c 9.128215
_cell_angle_alpha 90.000000
_cell_angle_beta 90.000000
_cell_angle_gamma 90.000000
_cell_volume 2467.243763
_symmetry_space_group_name_H-M "P N N M"
_symmetry_group_IT_number 58
_symmetry_cell_setting 'orthorhombic'
loop_
_space_group_symop_operation_xyz
x,y,z
-x,-y,z
1/2+x,1/2-y,1/2-z
1/2-x,1/2+y,1/2-z
-x,-y,-z
x,y,-z
1/2-x,1/2+y,1/2+z
1/2+x,1/2-y,1/2+z
loop_
_atom_site_type_symbol
_atom_site_label
_atom_site_fract_x
_atom_site_fract_y
_atom_site_fract_z
Si Si1 0.549178 0.920190 0.837240
Si Si2 0.565661 0.499456 0.326529
Si Si3 0.657374 0.082008 0.839866
Si Si4 0.883803 0.241224 0.173025
Si Si5 0.220204 0.633204 0.673470
Si Si6 0.651585 0.306835 0.326752
O O1 0.561375 0.814231 0.730933
O O2 0.500000 0.000000 0.765655
O O3 0.606312 0.992870 0.853990
O O4 0.529629 0.877521 0.000000
O O5 0.500000 0.500000 0.260638
O O6 0.561135 0.490205 0.500000
O O7 0.601727 0.611754 0.282479
O O8 0.602102 0.391629 0.263825
O O9 0.639850 0.179010 0.726428
O O10 0.710351 0.000845 0.786512
O O11 0.670682 0.136265 0.000000
O O12 0.823470 0.279986 0.245797
O O13 0.878462 0.257476 0.000000
O O14 0.212710 0.652816 0.500000
O O15 0.284827 0.658260 0.729880
O O16 0.649570 0.308623 0.500000
#
# Coordination Sequence:
#
# PCOD8237163 Si02
#       6
#     8   8   8   8   8   8
#     4   9  19  36  57  78 109 149 179 216 275 332
#     4   9  20  37  55  80 114 149 181 221 280 334
#     4   9  19  35  54  78 108 139 176 223 273 321
#     4  10  20  34  58  85 108 141 185 233 273 320
#     4   9  20  38  57  79 110 147 180 222 282 337
#     4  10  21  36  58  81 107 146 185 223 272 331
#
# _framework density 19.454908
#
# number of rings (size 3 to 8) (size 9 to 14) (size 15 to 20)
#    0.000    2.667    0.000    1.500    4.667    3.667 
#    0.000    1.667    0.000    2.500    0.000    0.000 
#    0.000    0.000    0.000    0.000    0.000    0.000 
#
# Total GULP energy -594953.097661 kJ/mol
# GULP energy per Si atom -12394.856201 kJ/mol
# Density = 1.941063 g / cm^3
# Si number density = 19.454908 Si / 1000 Ang^3
#
#
#
# Elastic Constant Matrix: (Units=GPa)
#
#
# Indices 1 2 3 4 5 6 
#
# 1 75.1964 31.3314 22.6541 0.0000 0.0000 0.0000
# 2 31.3314 113.6113 31.1369 0.0000 0.0000 0.0000
# 3 22.6541 31.1369 40.1732 0.0000 0.0000 0.0000
# 4 0.0000 0.0000 0.0000 30.1756 0.0000 0.0000
# 5 0.0000 0.0000 0.0000 0.0000 19.7524 0.0000
# 6 0.0000 0.0000 0.0000 0.0000 0.0000 14.9877
#
#
#
# Elastic Compliance Matrix: (Units=1/GPa)
#
#
# Indices 1 2 3 4 5 6 
#
# 1 0.016583 -0.002553 -0.007373 0.000000 0.000000 0.000000
# 2 -0.002553 0.011569 -0.007527 0.000000 0.000000 0.000000
# 3 -0.007373 -0.007527 0.034884 0.000000 0.000000 0.000000
# 4 0.000000 0.000000 0.000000 0.033139 0.000000 0.000000
# 5 0.000000 0.000000 0.000000 0.000000 0.050627 0.000000
# 6 0.000000 0.000000 0.000000 0.000000 0.000000 0.066722
#
#
# Mechanical properties :
#
#
# Convention : Reuss Voigt Hill
#
# Bulk Modulus (GPa) = 35.54860 44.35840 39.95350
# Shear Modulus (GPa) = 19.39439 22.57368 20.98403
#
# Velocity S-wave (km/s) = 3.16078 3.41002 3.28777
# Velocity P-wave (km/s) = 5.62429 6.19310 5.91554
#
# Compressibility (1/GPa) = 0.02813050
#
# Stress axis : x y z
#
# Youngs Moduli (GPa) = 60.30143 86.43920 28.66638
#
# Poissons Ratio (x) = 0.22065 0.21136
# Poissons Ratio (y) = 0.15393 0.21578
# Poissons Ratio (z) = 0.44461 0.65064
#
# Static dielectric constant tensor:
#      x y z
#    x 4.021950 0.000000 0.000000 
#    y 0.000000 3.868830 0.000000 
#    z 0.000000 0.000000 3.397680 
# 
# 
# High freq. dielectric constant tensor:
#      x y z
#    x 1.765650 0.000000 0.000000 
#    y 0.000000 1.758360 0.000000 
#    z 0.000000 0.000000 1.729290 
# 
# From -- ./inp_files/4259.got.cif
#   From: 2010.06.25/outbox.cif.g09.slc.cpg/sg58_3_cif.got.tgz:4259.got - 2010.06.26 21:38:00.
