data_PCOD8237896
_publ_section_title
;
Structure prediction by ZEFSAII (Michael W. Deem and Ramdas Pophale) SiO2 
 PCOD8237896
Probable space group: P N N M
;
_chemical_formula_sum "Si O2"
_cell_formula_units_Z 56
_cell_length_a 15.023605
_cell_length_b 11.393083
_cell_length_c 17.258297
_cell_angle_alpha 90.000000
_cell_angle_beta 90.000000
_cell_angle_gamma 90.000000
_cell_volume 2954.019490
_symmetry_space_group_name_H-M "P N N M"
_symmetry_group_IT_number 58
_symmetry_cell_setting 'orthorhombic'
loop_
_space_group_symop_operation_xyz
x,y,z
-x,-y,z
1/2+x,1/2-y,1/2-z
1/2-x,1/2+y,1/2-z
-x,-y,-z
x,y,-z
1/2-x,1/2+y,1/2+z
1/2+x,1/2-y,1/2+z
loop_
_atom_site_type_symbol
_atom_site_label
_atom_site_fract_x
_atom_site_fract_y
_atom_site_fract_z
Si Si1 0.403731 0.480742 0.589379
Si Si2 0.337956 0.341750 0.829781
Si Si3 0.312599 0.588865 0.909494
Si Si4 0.207666 0.794028 0.154635
Si Si5 0.247853 0.642249 0.411274
Si Si6 0.637457 0.069289 0.088157
Si Si7 0.009328 0.241545 0.586883
O O1 0.500000 0.500000 0.630083
O O2 0.413046 0.511028 0.500000
O O3 0.369516 0.347542 0.599655
O O4 0.330039 0.569283 0.626077
O O5 0.323050 0.475003 0.855578
O O6 0.329995 0.313309 0.740026
O O7 0.260779 0.266166 0.870145
O O8 0.436379 0.300394 0.853043
O O9 0.229283 0.660940 0.872261
O O10 0.402916 0.662689 0.903478
O O11 0.293420 0.557453 0.000000
O O12 0.298172 0.867076 0.148284
O O13 0.268303 0.667182 0.500000
O O14 0.153191 0.570643 0.401532
O O15 0.537622 0.120584 0.101338
O O16 0.667136 0.104014 0.000000
O O17 0.970057 0.227237 0.500000
#
# Coordination Sequence:
#
# PCOD8237896 Si02
#       7
#     8   8   8   8   8   8   8
#     4   9  18  36  62  82  99 133 186 241 278 321
#     4  12  23  31  52  86 120 145 180 233 289 329
#     4  10  21  39  60  79 112 161 196 223 272 349
#     4  10  21  34  53  80 113 145 187 225 281 334
#     4   9  18  33  54  81 109 139 180 224 277 335
#     4   8  16  35  60  76 103 149 188 228 270 334
#     4   9  18  35  57  84 112 147 189 224 271 343
#
# _framework density 18.957221000000001
#
# number of rings (size 3 to 8) (size 9 to 14) (size 15 to 20)
#    0.000    2.429    0.000    4.714    4.000    2.857 
#    2.571    2.143    0.000    0.857    0.000    4.000 
#    0.000    0.000    0.000    0.000    0.000    0.000 
#
# Total GULP energy -693836.320104 kJ/mol
# GULP energy per Si atom -12389.934288 kJ/mol
# Density = 1.891407 g / cm^3
# Si number density = 18.957221 Si / 1000 Ang^3
#
#
#
# Elastic Constant Matrix: (Units=GPa)
#
#
# Indices 1 2 3 4 5 6 
#
# 1 68.1088 3.7933 14.3980 0.0000 0.0000 0.0000
# 2 3.7933 55.0838 4.3620 0.0000 0.0000 0.0000
# 3 14.3980 4.3620 57.8483 0.0000 0.0000 0.0000
# 4 0.0000 0.0000 0.0000 23.9229 0.0000 0.0000
# 5 0.0000 0.0000 0.0000 0.0000 25.3735 0.0000
# 6 0.0000 0.0000 0.0000 0.0000 0.0000 21.7432
#
#
#
# Elastic Compliance Matrix: (Units=1/GPa)
#
#
# Indices 1 2 3 4 5 6 
#
# 1 0.015530 -0.000768 -0.003807 0.000000 0.000000 0.000000
# 2 -0.000768 0.018301 -0.001189 0.000000 0.000000 0.000000
# 3 -0.003807 -0.001189 0.018324 0.000000 0.000000 0.000000
# 4 0.000000 0.000000 0.000000 0.041801 0.000000 0.000000
# 5 0.000000 0.000000 0.000000 0.000000 0.039411 0.000000
# 6 0.000000 0.000000 0.000000 0.000000 0.000000 0.045991
#
#
# Mechanical properties :
#
#
# Convention : Reuss Voigt Hill
#
# Bulk Modulus (GPa) = 24.61438 25.12751 24.87094
# Shear Modulus (GPa) = 24.45836 24.77378 24.61607
#
# Velocity S-wave (km/s) = 3.59581 3.61893 3.60739
# Velocity P-wave (km/s) = 5.50020 5.54489 5.52259
#
# Compressibility (1/GPa) = 0.04062666
#
# Stress axis : x y z
#
# Youngs Moduli (GPa) = 64.39137 54.64131 54.57359
#
# Poissons Ratio (x) = 0.04196 0.20778
# Poissons Ratio (y) = 0.04945 0.06488
# Poissons Ratio (z) = 0.24516 0.06496
#
# Static dielectric constant tensor:
#      x y z
#    x 3.602670 0.000000 0.000000 
#    y 0.000000 3.653980 0.000000 
#    z 0.000000 0.000000 3.357220 
# 
# 
# High freq. dielectric constant tensor:
#      x y z
#    x 1.726830 0.000000 0.000000 
#    y 0.000000 1.736930 0.000000 
#    z 0.000000 0.000000 1.717340 
# 
# From -- ./inp_files/22191.got.cif
#   From: 2010.06.25/outbox.cif.g09.slc.cpg/sg58_12_cif.got.tgz:22191.got - 2010.06.26 21:38:00.
