data_PCOD8237811
_publ_section_title
;
Structure prediction by ZEFSAII (Michael W. Deem and Ramdas Pophale) SiO2 
 PCOD8237811
Probable space group: P N N M
;
_chemical_formula_sum "Si O2"
_cell_formula_units_Z 40
_cell_length_a 12.301581
_cell_length_b 16.727055
_cell_length_c 9.506009
_cell_angle_alpha 90.000000
_cell_angle_beta 90.000000
_cell_angle_gamma 90.000000
_cell_volume 1956.044076
_symmetry_space_group_name_H-M "P N N M"
_symmetry_group_IT_number 58
_symmetry_cell_setting 'orthorhombic'
loop_
_space_group_symop_operation_xyz
x,y,z
-x,-y,z
1/2+x,1/2-y,1/2-z
1/2-x,1/2+y,1/2-z
-x,-y,-z
x,y,-z
1/2-x,1/2+y,1/2+z
1/2+x,1/2-y,1/2+z
loop_
_atom_site_type_symbol
_atom_site_label
_atom_site_fract_x
_atom_site_fract_y
_atom_site_fract_z
Si Si1 0.236969 0.952840 0.762334
Si Si2 0.121011 0.179283 0.000000
Si Si3 0.427144 0.423016 0.500000
Si Si4 0.915262 0.277671 0.500000
Si Si5 0.688550 0.941714 0.000000
Si Si6 0.376406 0.532311 0.000000
Si Si7 0.658441 0.280816 0.000000
Si Si8 0.740303 0.222134 0.714281
O O1 0.140913 0.919905 0.858757
O O2 0.290887 0.871788 0.702996
O O3 0.188501 0.005019 0.637184
O O4 0.320795 0.004377 0.858132
O O5 0.191597 0.097550 0.000000
O O6 0.144186 0.231098 0.137116
O O7 0.995598 0.157994 0.000000
O O8 0.500000 0.500000 0.500000
O O9 0.903110 0.374075 0.500000
O O10 0.856201 0.240670 0.638386
O O11 0.043510 0.265182 0.500000
O O12 0.500000 0.500000 0.000000
O O13 0.375298 0.627267 0.000000
O O14 0.736105 0.255244 0.127950
#
# Coordination Sequence:
#
# PCOD8237811 Si02
#       8
#     8   4   4   4   4   4   4   8
#     4  11  21  37  58  89 123 163 200 263 314 366
#     4  10  20  39  56  82 124 163 192 255 318 376
#     4  11  21  32  62  88 115 157 210 247 318 384
#     4  10  23  43  61  90 132 173 201 261 327 372
#     4   9  19  38  60  76 116 160 207 233 301 384
#     4  12  23  31  59  95 128 144 196 272 338 357
#     4  12  24  40  66  98 123 168 214 260 321 383
#     4  10  23  40  57  88 130 162 212 256 309 383
#
# _framework density 20.449438000000001
#
# number of rings (size 3 to 8) (size 9 to 14) (size 15 to 20)
#    0.000    1.600    2.000    6.600    5.600    0.000 
#    0.000    2.000    0.000    0.000    0.000    8.400 
#    0.000    0.000    0.000    0.000    0.000    0.000 
#
# Total GULP energy -495877.826197 kJ/mol
# GULP energy per Si atom -12396.945655 kJ/mol
# Density = 2.040289 g / cm^3
# Si number density = 20.449438 Si / 1000 Ang^3
#
#
#
# Elastic Constant Matrix: (Units=GPa)
#
#
# Indices 1 2 3 4 5 6 
#
# 1 48.3075 4.7329 20.0894 0.0000 0.0000 0.0000
# 2 4.7329 103.8125 9.9495 0.0000 0.0000 0.0000
# 3 20.0894 9.9495 130.6159 0.0000 0.0000 0.0000
# 4 0.0000 0.0000 0.0000 55.1536 0.0000 0.0000
# 5 0.0000 0.0000 0.0000 0.0000 8.3511 0.0000
# 6 0.0000 0.0000 0.0000 0.0000 0.0000 33.9745
#
#
#
# Elastic Compliance Matrix: (Units=1/GPa)
#
#
# Indices 1 2 3 4 5 6 
#
# 1 0.022164 -0.000689 -0.003356 0.000000 0.000000 0.000000
# 2 -0.000689 0.009725 -0.000635 0.000000 0.000000 0.000000
# 3 -0.003356 -0.000635 0.008221 0.000000 0.000000 0.000000
# 4 0.000000 0.000000 0.000000 0.018131 0.000000 0.000000
# 5 0.000000 0.000000 0.000000 0.000000 0.119745 0.000000
# 6 0.000000 0.000000 0.000000 0.000000 0.000000 0.029434
#
#
# Mechanical properties :
#
#
# Convention : Reuss Voigt Hill
#
# Bulk Modulus (GPa) = 32.52091 39.14217 35.83154
# Shear Modulus (GPa) = 22.02356 36.02678 29.02517
#
# Velocity S-wave (km/s) = 3.28529 4.20187 3.77153
# Velocity P-wave (km/s) = 5.50713 6.53632 6.04367
#
# Compressibility (1/GPa) = 0.03074944
#
# Stress axis : x y z
#
# Youngs Moduli (GPa) = 45.11813 102.82780 121.64497
#
# Poissons Ratio (x) = 0.07083 0.40830
# Poissons Ratio (y) = 0.03108 0.07723
# Poissons Ratio (z) = 0.15144 0.06528
#
# Static dielectric constant tensor:
#      x y z
#    x 3.622220 0.000000 0.000000 
#    y 0.000000 4.065460 0.000000 
#    z 0.000000 0.000000 3.951620 
# 
# 
# High freq. dielectric constant tensor:
#      x y z
#    x 1.759040 0.000000 0.000000 
#    y 0.000000 1.822150 0.000000 
#    z 0.000000 0.000000 1.815180 
# 
# From -- ./inp_files/5447.got.cif
#   From: 2010.06.25/outbox.cif.g09.slc.cpg/sg58_3_cif.got.tgz:5447.got - 2010.06.26 21:38:00.
