data_PCOD8237429
_publ_section_title
;
Structure prediction by ZEFSAII (Michael W. Deem and Ramdas Pophale) SiO2 
 PCOD8237429
Probable space group: P N N M
;
_chemical_formula_sum "Si O2"
_cell_formula_units_Z 32
_cell_length_a 15.316695
_cell_length_b 12.999987
_cell_length_c 8.786554
_cell_angle_alpha 90.000000
_cell_angle_beta 90.000000
_cell_angle_gamma 90.000000
_cell_volume 1749.550831
_symmetry_space_group_name_H-M "P N N M"
_symmetry_group_IT_number 58
_symmetry_cell_setting 'orthorhombic'
loop_
_space_group_symop_operation_xyz
x,y,z
-x,-y,z
1/2+x,1/2-y,1/2-z
1/2-x,1/2+y,1/2-z
-x,-y,-z
x,y,-z
1/2-x,1/2+y,1/2+z
1/2+x,1/2-y,1/2+z
loop_
_atom_site_type_symbol
_atom_site_label
_atom_site_fract_x
_atom_site_fract_y
_atom_site_fract_z
Si Si1 0.914601 0.945670 0.827356
Si Si2 0.599205 0.023573 0.822912
Si Si3 0.850478 0.732280 0.827982
Si Si4 0.248115 0.603295 0.821391
O O1 0.925958 0.820915 0.825709
O O2 0.827718 0.973584 0.729466
O O3 0.900502 0.985541 0.000000
O O4 0.000000 0.000000 0.755443
O O5 0.620202 0.139806 0.777735
O O6 0.500000 0.000000 0.780739
O O7 0.656530 0.943478 0.728464
O O8 0.618714 0.008294 0.000000
O O9 0.762408 0.785661 0.760466
O O10 0.832841 0.693233 0.000000
O O11 0.249471 0.619552 0.000000
#
# Coordination Sequence:
#
# PCOD8237429 Si02
#       4
#     8   8   8   8
#     4   8  16  34  57  82 114 149 187 235 288 342
#     4  11  23  40  60  84 118 156 197 245 294 346
#     4   9  19  37  58  82 114 147 191 238 285 344
#     4  10  20  36  58  85 116 152 192 237 287 345
#
# _framework density 18.290407999999999
#
# number of rings (size 3 to 8) (size 9 to 14) (size 15 to 20)
#    1.500    1.000    0.000    3.000    0.000    2.500 
#    4.500    0.000    0.000    0.000    0.000    0.000 
#    0.000    0.000    0.000    0.000    0.000    0.000 
#
# Total GULP energy -396497.916171 kJ/mol
# GULP energy per Si atom -12390.559880 kJ/mol
# Density = 1.824878 g / cm^3
# Si number density = 18.290408 Si / 1000 Ang^3
#
#
#
# Elastic Constant Matrix: (Units=GPa)
#
#
# Indices 1 2 3 4 5 6 
#
# 1 97.4912 34.7804 40.4549 0.0000 0.0000 0.0000
# 2 34.7804 75.1351 14.4496 0.0000 0.0000 0.0000
# 3 40.4549 14.4496 81.8667 0.0000 0.0000 0.0000
# 4 0.0000 0.0000 0.0000 26.6781 0.0000 0.0000
# 5 0.0000 0.0000 0.0000 0.0000 22.0720 0.0000
# 6 0.0000 0.0000 0.0000 0.0000 0.0000 28.7140
#
#
#
# Elastic Compliance Matrix: (Units=1/GPa)
#
#
# Indices 1 2 3 4 5 6 
#
# 1 0.014931 -0.005686 -0.006375 0.000000 0.000000 0.000000
# 2 -0.005686 0.015942 -0.000004 0.000000 0.000000 0.000000
# 3 -0.006375 -0.000004 0.015366 0.000000 0.000000 0.000000
# 4 0.000000 0.000000 0.000000 0.037484 0.000000 0.000000
# 5 0.000000 0.000000 0.000000 0.000000 0.045306 0.000000
# 6 0.000000 0.000000 0.000000 0.000000 0.000000 0.034826
#
#
# Mechanical properties :
#
#
# Convention : Reuss Voigt Hill
#
# Bulk Modulus (GPa) = 45.22893 48.20698 46.71795
# Shear Modulus (GPa) = 25.59452 26.48002 26.03727
#
# Velocity S-wave (km/s) = 3.74483 3.80907 3.77709
# Velocity P-wave (km/s) = 6.59396 6.76454 6.67979
#
# Compressibility (1/GPa) = 0.02210974
#
# Stress axis : x y z
#
# Youngs Moduli (GPa) = 66.97490 62.72706 65.07954
#
# Poissons Ratio (x) = 0.35665 0.41486
# Poissons Ratio (y) = 0.38080 0.00027
# Poissons Ratio (z) = 0.42694 0.00026
#
# Static dielectric constant tensor:
#      x y z
#    x 3.230010 0.000000 0.000000 
#    y 0.000000 3.106770 0.000000 
#    z 0.000000 0.000000 3.337640 
# 
# 
# High freq. dielectric constant tensor:
#      x y z
#    x 1.690770 0.000000 0.000000 
#    y 0.000000 1.692030 0.000000 
#    z 0.000000 0.000000 1.718310 
# 
# From -- ./inp_files/3597.got.cif
#   From: 2010.06.25/outbox.cif.g09.slc.cpg/sg58_2_cif.got.tgz:3597.got - 2010.06.26 21:38:00.
