data_PCOD8237133
_publ_section_title
;
Structure prediction by ZEFSAII (Michael W. Deem and Ramdas Pophale) SiO2 
 PCOD8237133
Probable space group: P N N M
;
_chemical_formula_sum "Si O2"
_cell_formula_units_Z 56
_cell_length_a 16.594380
_cell_length_b 19.634575
_cell_length_c 8.936849
_cell_angle_alpha 90.000000
_cell_angle_beta 90.000000
_cell_angle_gamma 90.000000
_cell_volume 2911.836302
_symmetry_space_group_name_H-M "P N N M"
_symmetry_group_IT_number 58
_symmetry_cell_setting 'orthorhombic'
loop_
_space_group_symop_operation_xyz
x,y,z
-x,-y,z
1/2+x,1/2-y,1/2-z
1/2-x,1/2+y,1/2-z
-x,-y,-z
x,y,-z
1/2-x,1/2+y,1/2+z
1/2+x,1/2-y,1/2+z
loop_
_atom_site_type_symbol
_atom_site_label
_atom_site_fract_x
_atom_site_fract_y
_atom_site_fract_z
Si Si1 0.365488 0.129874 0.174440
Si Si2 0.691929 0.126903 0.822866
Si Si3 0.065488 0.052722 0.822588
Si Si4 0.472176 0.840448 0.325079
Si Si5 0.819245 0.217442 0.326511
Si Si6 0.981190 0.189133 0.174173
Si Si7 0.240786 0.017507 0.177608
O O1 0.447142 0.122939 0.268406
O O2 0.323189 0.202157 0.203602
O O3 0.305576 0.072185 0.236188
O O4 0.386452 0.120468 0.000000
O O5 0.601557 0.126629 0.762387
O O6 0.740346 0.190612 0.757076
O O7 0.734276 0.057426 0.768466
O O8 0.689909 0.132567 0.000000
O O9 0.041538 0.129324 0.776224
O O10 0.153095 0.035438 0.754294
O O11 0.068811 0.045291 0.000000
O O12 0.000000 0.000000 0.756613
O O13 0.461712 0.853908 0.500000
O O14 0.475480 0.760076 0.288117
O O15 0.810815 0.200249 0.500000
O O16 0.898618 0.180356 0.264543
O O17 0.958395 0.183864 0.000000
O O18 0.237591 0.021845 0.000000
#
# Coordination Sequence:
#
# PCOD8237133 Si02
#       7
#     8   8   8   8   8   8   8
#     4   9  19  37  59  80 106 143 188 234 278 325
#     4  11  22  36  56  81 110 144 187 229 271 327
#     4   9  16  28  52  83 109 135 176 227 271 312
#     4  10  21  36  55  81 111 143 182 228 282 332
#     4  10  20  34  56  82 112 144 178 226 280 329
#     4   9  18  33  56  81 107 141 181 223 270 329
#     4   9  19  34  55  81 107 142 189 235 272 319
#
# _framework density 19.231849
#
# number of rings (size 3 to 8) (size 9 to 14) (size 15 to 20)
#    0.000    2.429    0.000    2.143    2.000    4.000 
#    0.000    4.286    0.000    4.714    0.000    0.000 
#    0.000    0.000    0.000    0.000    0.000    0.000 
#
# Total GULP energy -694567.042260 kJ/mol
# GULP energy per Si atom -12402.982897 kJ/mol
# Density = 1.918808 g / cm^3
# Si number density = 19.231849 Si / 1000 Ang^3
#
#
#
# Elastic Constant Matrix: (Units=GPa)
#
#
# Indices 1 2 3 4 5 6 
#
# 1 144.0999 54.5515 43.1102 0.0000 0.0000 0.0000
# 2 54.5515 68.1117 28.8226 0.0000 0.0000 0.0000
# 3 43.1102 28.8226 55.6950 0.0000 0.0000 0.0000
# 4 0.0000 0.0000 0.0000 21.7381 0.0000 0.0000
# 5 0.0000 0.0000 0.0000 0.0000 31.5914 0.0000
# 6 0.0000 0.0000 0.0000 0.0000 0.0000 38.3269
#
#
#
# Elastic Compliance Matrix: (Units=1/GPa)
#
#
# Indices 1 2 3 4 5 6 
#
# 1 0.010966 -0.006647 -0.005049 0.000000 0.000000 0.000000
# 2 -0.006647 0.022827 -0.006668 0.000000 0.000000 0.000000
# 3 -0.005049 -0.006668 0.025314 0.000000 0.000000 0.000000
# 4 0.000000 0.000000 0.000000 0.046002 0.000000 0.000000
# 5 0.000000 0.000000 0.000000 0.000000 0.031654 0.000000
# 6 0.000000 0.000000 0.000000 0.000000 0.000000 0.026091
#
#
# Mechanical properties :
#
#
# Convention : Reuss Voigt Hill
#
# Bulk Modulus (GPa) = 44.68344 57.87502 51.27923
# Shear Modulus (GPa) = 24.14973 27.75943 25.95458
#
# Velocity S-wave (km/s) = 3.54745 3.80334 3.67762
# Velocity P-wave (km/s) = 6.32959 7.03178 6.68990
#
# Compressibility (1/GPa) = 0.02237966
#
# Stress axis : x y z
#
# Youngs Moduli (GPa) = 91.18942 43.80792 39.50426
#
# Poissons Ratio (x) = 0.29117 0.19944
# Poissons Ratio (y) = 0.60609 0.26343
# Poissons Ratio (z) = 0.46038 0.29213
#
# Static dielectric constant tensor:
#      x y z
#    x 3.636230 0.000000 0.000000 
#    y 0.000000 3.589310 0.000000 
#    z 0.000000 0.000000 3.238240 
# 
# 
# High freq. dielectric constant tensor:
#      x y z
#    x 1.758430 0.000000 0.000000 
#    y 0.000000 1.752280 0.000000 
#    z 0.000000 0.000000 1.718930 
# 
# From -- ./inp_files/6446.got.cif
#   From: 2010.06.25/outbox.cif.g09.slc.cpg/sg58_4_cif.got.tgz:6446.got - 2010.06.26 21:38:00.
