data_PCOD8237056
_publ_section_title
;
Structure prediction by ZEFSAII (Michael W. Deem and Ramdas Pophale) SiO2 
 PCOD8237056
Probable space group: P N N M
;
_chemical_formula_sum "Si O2"
_cell_formula_units_Z 64
_cell_length_a 18.088489
_cell_length_b 12.615915
_cell_length_c 15.075532
_cell_angle_alpha 90.000000
_cell_angle_beta 90.000000
_cell_angle_gamma 90.000000
_cell_volume 3440.279212
_symmetry_space_group_name_H-M "P N N M"
_symmetry_group_IT_number 58
_symmetry_cell_setting 'orthorhombic'
loop_
_space_group_symop_operation_xyz
x,y,z
-x,-y,z
1/2+x,1/2-y,1/2-z
1/2-x,1/2+y,1/2-z
-x,-y,-z
x,y,-z
1/2-x,1/2+y,1/2+z
1/2+x,1/2-y,1/2+z
loop_
_atom_site_type_symbol
_atom_site_label
_atom_site_fract_x
_atom_site_fract_y
_atom_site_fract_z
Si Si1 0.052336 0.089108 0.200425
Si Si2 0.932806 0.424401 0.602523
Si Si3 0.065547 0.753065 0.254372
Si Si4 0.830619 0.788024 0.100952
Si Si5 0.294933 0.939138 0.603620
Si Si6 0.435295 0.081818 0.602804
Si Si7 0.768831 0.481219 0.398236
Si Si8 0.824802 0.061713 0.743604
O O1 0.092877 0.156652 0.125894
O O2 0.004094 0.167804 0.260760
O O3 0.112736 0.028863 0.259623
O O4 0.000000 0.000000 0.154381
O O5 0.937749 0.390745 0.500000
O O6 0.937684 0.318600 0.659083
O O7 0.856117 0.485625 0.621838
O O8 0.000000 0.500000 0.630371
O O9 0.060900 0.685707 0.163677
O O10 0.141044 0.820657 0.257738
O O11 0.820705 0.673499 0.146413
O O12 0.759659 0.861610 0.119916
O O13 0.839229 0.759249 0.000000
O O14 0.274516 0.932707 0.500000
O O15 0.221592 0.969110 0.656887
O O16 0.357391 0.025920 0.621459
O O17 0.443242 0.116527 0.500000
O O18 0.500000 0.000000 0.628610
O O19 0.751692 0.514624 0.500000
O O20 0.725468 0.559424 0.332643
#
# Coordination Sequence:
#
# PCOD8237056 Si02
#       8
#     8   8   8   8   8   8   8   8
#     4   9  20  35  50  75 107 138 175 214 257 312
#     4  10  21  37  56  78 104 137 180 224 260 297
#     4  11  21  35  56  77 104 140 176 215 258 310
#     4   9  17  31  53  78 102 132 171 213 259 313
#     4  10  20  34  53  78 106 137 174 213 256 310
#     4  10  21  36  54  79 110 139 169 210 263 322
#     4   9  18  34  55  78 103 131 169 215 260 308
#     4  10  21  36  54  77 106 139 173 215 263 307
#
# _framework density 18.603141000000001
#
# number of rings (size 3 to 8) (size 9 to 14) (size 15 to 20)
#    0.000    2.250    0.000    2.625    0.000    5.750 
#    0.000    3.125    0.000    5.250    0.000    0.000 
#    0.000    0.000    0.000    0.000    0.000    0.000 
#
# Total GULP energy -793477.532380 kJ/mol
# GULP energy per Si atom -12398.086443 kJ/mol
# Density = 1.856080 g / cm^3
# Si number density = 18.603141 Si / 1000 Ang^3
#
#
#
# Elastic Constant Matrix: (Units=GPa)
#
#
# Indices 1 2 3 4 5 6 
#
# 1 137.0396 55.9347 52.5917 0.0000 0.0000 0.0000
# 2 55.9347 98.3587 51.8075 0.0000 0.0000 0.0000
# 3 52.5917 51.8075 80.2495 0.0000 0.0000 0.0000
# 4 0.0000 0.0000 0.0000 23.5202 0.0000 0.0000
# 5 0.0000 0.0000 0.0000 0.0000 25.8992 0.0000
# 6 0.0000 0.0000 0.0000 0.0000 0.0000 27.9949
#
#
#
# Elastic Compliance Matrix: (Units=1/GPa)
#
#
# Indices 1 2 3 4 5 6 
#
# 1 0.010512 -0.003560 -0.004591 0.000000 0.000000 0.000000
# 2 -0.003560 0.016611 -0.008391 0.000000 0.000000 0.000000
# 3 -0.004591 -0.008391 0.020887 0.000000 0.000000 0.000000
# 4 0.000000 0.000000 0.000000 0.042517 0.000000 0.000000
# 5 0.000000 0.000000 0.000000 0.000000 0.038611 0.000000
# 6 0.000000 0.000000 0.000000 0.000000 0.000000 0.035721
#
#
# Mechanical properties :
#
#
# Convention : Reuss Voigt Hill
#
# Bulk Modulus (GPa) = 66.99434 70.70176 68.84805
# Shear Modulus (GPa) = 24.64067 25.83712 25.23889
#
# Velocity S-wave (km/s) = 3.64338 3.73078 3.68734
# Velocity P-wave (km/s) = 7.33413 7.52636 7.43087
#
# Compressibility (1/GPa) = 0.01492663
#
# Stress axis : x y z
#
# Youngs Moduli (GPa) = 95.12919 60.20167 47.87751
#
# Poissons Ratio (x) = 0.21431 0.21980
# Poissons Ratio (y) = 0.33865 0.40172
# Poissons Ratio (z) = 0.43673 0.50513
#
# Static dielectric constant tensor:
#      x y z
#    x 3.671410 0.000000 0.000000 
#    y 0.000000 3.434030 0.000000 
#    z 0.000000 0.000000 3.285110 
# 
# 
# High freq. dielectric constant tensor:
#      x y z
#    x 1.736910 0.000000 0.000000 
#    y 0.000000 1.719920 0.000000 
#    z 0.000000 0.000000 1.708800 
# 
# From -- ./inp_files/22973.got.cif
#   From: 2010.06.25/outbox.cif.g09.slc.cpg/sg58_12_cif.got.tgz:22973.got - 2010.06.26 21:38:00.
