data_PCOD8237849
_publ_section_title
;
Structure prediction by ZEFSAII (Michael W. Deem and Ramdas Pophale) SiO2 
 PCOD8237849
Probable space group: P N N M
;
_chemical_formula_sum "Si O2"
_cell_formula_units_Z 64
_cell_length_a 9.027930
_cell_length_b 23.059297
_cell_length_c 15.336909
_cell_angle_alpha 90.000000
_cell_angle_beta 90.000000
_cell_angle_gamma 90.000000
_cell_volume 3192.802735
_symmetry_space_group_name_H-M "P N N M"
_symmetry_group_IT_number 58
_symmetry_cell_setting 'orthorhombic'
loop_
_space_group_symop_operation_xyz
x,y,z
-x,-y,z
1/2+x,1/2-y,1/2-z
1/2-x,1/2+y,1/2-z
-x,-y,-z
x,y,-z
1/2-x,1/2+y,1/2+z
1/2+x,1/2-y,1/2+z
loop_
_atom_site_type_symbol
_atom_site_label
_atom_site_fract_x
_atom_site_fract_y
_atom_site_fract_z
Si Si1 0.178964 0.664496 0.896987
Si Si2 0.349769 0.778352 0.140951
Si Si3 0.841446 0.115353 0.906639
Si Si4 0.174627 0.937432 0.728080
Si Si5 0.321648 0.623019 0.400134
Si Si6 0.829279 0.261615 0.595389
Si Si7 0.666714 0.430877 0.779227
Si Si8 0.637855 0.167682 0.677195
O O1 0.246313 0.721835 0.852330
O O2 0.240640 0.608949 0.845005
O O3 0.001409 0.666889 0.887126
O O4 0.217620 0.660450 0.000000
O O5 0.262380 0.828746 0.092391
O O6 0.494118 0.760325 0.087708
O O7 0.409912 0.803854 0.231818
O O8 0.803952 0.068799 0.832504
O O9 0.006660 0.140305 0.897198
O O10 0.822609 0.083266 0.000000
O O11 0.295836 0.897016 0.682100
O O12 0.007211 0.918519 0.704070
O O13 0.206226 0.002773 0.698287
O O14 0.276756 0.602937 0.500000
O O15 0.228729 0.677869 0.365884
O O16 0.291332 0.576053 0.323776
O O17 0.758926 0.256400 0.500000
O O18 0.775320 0.206544 0.648037
#
# Coordination Sequence:
#
# PCOD8237849 Si02
#       8
#     8   8   8   8   8   8   8   8
#     4  12  25  40  59  85 115 152 193 234 281 336
#     4  11  21  35  57  83 113 146 180 224 280 340
#     4   9  17  32  54  85 119 148 179 224 282 347
#     4   9  21  37  59  81 108 148 194 238 285 334
#     4   9  18  32  56  87 119 151 183 223 281 345
#     4  11  21  34  53  81 111 140 175 219 269 330
#     4  10  20  40  59  81 113 149 192 242 283 329
#     4  11  22  38  57  81 110 146 184 230 283 333
#
# _framework density 20.045086000000001
#
# number of rings (size 3 to 8) (size 9 to 14) (size 15 to 20)
#    0.000    1.750    0.000    5.250    0.000    4.000 
#    0.000    6.250    0.000    0.000    0.000    7.000 
#    0.000    0.000    0.000    0.000    0.000    0.000 
#
# Total GULP energy -793319.796483 kJ/mol
# GULP energy per Si atom -12395.621820 kJ/mol
# Density = 1.999946 g / cm^3
# Si number density = 20.045086 Si / 1000 Ang^3
#
#
#
# Elastic Constant Matrix: (Units=GPa)
#
#
# Indices 1 2 3 4 5 6 
#
# 1 84.0494 30.3781 18.7909 0.0000 0.0000 0.0000
# 2 30.3781 91.7741 27.6103 0.0000 0.0000 0.0000
# 3 18.7909 27.6103 65.8302 0.0000 0.0000 0.0000
# 4 0.0000 0.0000 0.0000 17.0334 0.0000 0.0000
# 5 0.0000 0.0000 0.0000 0.0000 29.7289 0.0000
# 6 0.0000 0.0000 0.0000 0.0000 0.0000 27.6340
#
#
#
# Elastic Compliance Matrix: (Units=1/GPa)
#
#
# Indices 1 2 3 4 5 6 
#
# 1 0.013817 -0.003876 -0.002318 0.000000 0.000000 0.000000
# 2 -0.003876 0.013557 -0.004580 0.000000 0.000000 0.000000
# 3 -0.002318 -0.004580 0.017773 0.000000 0.000000 0.000000
# 4 0.000000 0.000000 0.000000 0.058708 0.000000 0.000000
# 5 0.000000 0.000000 0.000000 0.000000 0.033637 0.000000
# 6 0.000000 0.000000 0.000000 0.000000 0.000000 0.036187
#
#
# Mechanical properties :
#
#
# Convention : Reuss Voigt Hill
#
# Bulk Modulus (GPa) = 42.37443 43.91248 43.14346
# Shear Modulus (GPa) = 24.61907 25.87089 25.24498
#
# Velocity S-wave (km/s) = 3.50835 3.59644 3.55267
# Velocity P-wave (km/s) = 6.13162 6.26101 6.19665
#
# Compressibility (1/GPa) = 0.02359914
#
# Stress axis : x y z
#
# Youngs Moduli (GPa) = 72.37458 73.76185 56.26471
#
# Poissons Ratio (x) = 0.28591 0.13044
# Poissons Ratio (y) = 0.28053 0.25767
# Poissons Ratio (z) = 0.16779 0.33781
#
# Static dielectric constant tensor:
#      x y z
#    x 3.543470 0.000000 0.000000 
#    y 0.000000 3.482850 0.000000 
#    z 0.000000 0.000000 3.704920 
# 
# 
# High freq. dielectric constant tensor:
#      x y z
#    x 1.782320 0.000000 0.000000 
#    y 0.000000 1.768450 0.000000 
#    z 0.000000 0.000000 1.784380 
# 
# From -- ./inp_files/20286.got.cif
#   From: 2010.06.25/outbox.cif.g09.slc.cpg/sg58_11_cif.got.tgz:20286.got - 2010.06.26 21:38:00.
