data_PCOD8237889
_publ_section_title
;
Structure prediction by ZEFSAII (Michael W. Deem and Ramdas Pophale) SiO2 
 PCOD8237889
Probable space group: P N N M
;
_chemical_formula_sum "Si O2"
_cell_formula_units_Z 56
_cell_length_a 8.201322
_cell_length_b 15.774756
_cell_length_c 21.317203
_cell_angle_alpha 90.000000
_cell_angle_beta 90.000000
_cell_angle_gamma 90.000000
_cell_volume 2757.888696
_symmetry_space_group_name_H-M "P N N M"
_symmetry_group_IT_number 58
_symmetry_cell_setting 'orthorhombic'
loop_
_space_group_symop_operation_xyz
x,y,z
-x,-y,z
1/2+x,1/2-y,1/2-z
1/2-x,1/2+y,1/2-z
-x,-y,-z
x,y,-z
1/2-x,1/2+y,1/2+z
1/2+x,1/2-y,1/2+z
loop_
_atom_site_type_symbol
_atom_site_label
_atom_site_fract_x
_atom_site_fract_y
_atom_site_fract_z
Si Si1 0.952106 0.819709 0.328229
Si Si2 0.681080 0.745751 0.071744
Si Si3 0.315283 0.487645 0.308542
Si Si4 0.904460 0.634395 0.848264
Si Si5 0.743145 0.689896 0.732688
Si Si6 0.774595 0.460692 0.821717
Si Si7 0.164954 0.553034 0.570695
O O1 0.783903 0.770426 0.310710
O O2 0.899942 0.917697 0.334820
O O3 0.023068 0.792774 0.394857
O O4 0.080598 0.800222 0.273635
O O5 0.849134 0.705678 0.100815
O O6 0.656050 0.846143 0.079126
O O7 0.679401 0.717918 0.000000
O O8 0.500000 0.500000 0.286856
O O9 0.273509 0.388766 0.314253
O O10 0.202572 0.531596 0.254468
O O11 0.294835 0.525855 0.377524
O O12 0.894686 0.677525 0.780125
O O13 0.774520 0.555721 0.850443
O O14 0.084426 0.595432 0.855381
O O15 0.225275 0.531625 0.500000
O O16 0.000000 0.500000 0.584297
#
# Coordination Sequence:
#
# PCOD8237889 Si02
#       7
#     8   8   8   8   8   8   8
#     4  11  21  35  59  85 125 153 204 249 312 366
#     4  10  23  42  62  87 121 164 210 255 300 368
#     4  11  22  35  57  88 125 155 198 251 310 369
#     4   9  21  37  60  85 122 158 201 254 315 367
#     4  10  21  33  54  89 117 157 194 254 304 366
#     4  10  21  37  57  92 124 154 197 262 317 377
#     4  10  23  41  61  85 120 167 212 249 298 370
#
# _framework density 20.305388000000001
#
# number of rings (size 3 to 8) (size 9 to 14) (size 15 to 20)
#    0.000    1.857    1.429    1.714   10.000    1.429 
#    0.000    3.571    0.000    3.429    0.000    0.000 
#    0.000    0.000    0.000    0.000    0.000    0.000 
#
# Total GULP energy -693866.593389 kJ/mol
# GULP energy per Si atom -12390.474882 kJ/mol
# Density = 2.025917 g / cm^3
# Si number density = 20.305388 Si / 1000 Ang^3
#
#
#
# Elastic Constant Matrix: (Units=GPa)
#
#
# Indices 1 2 3 4 5 6 
#
# 1 55.3023 18.2564 28.7195 0.0000 0.0000 0.0000
# 2 18.2564 92.1903 51.8939 0.0000 0.0000 0.0000
# 3 28.7195 51.8939 111.2118 0.0000 0.0000 0.0000
# 4 0.0000 0.0000 0.0000 31.0656 0.0000 0.0000
# 5 0.0000 0.0000 0.0000 0.0000 17.1418 0.0000
# 6 0.0000 0.0000 0.0000 0.0000 0.0000 38.7727
#
#
#
# Elastic Compliance Matrix: (Units=1/GPa)
#
#
# Indices 1 2 3 4 5 6 
#
# 1 0.021035 -0.001502 -0.004731 0.000000 0.000000 0.000000
# 2 -0.001502 0.014819 -0.006527 0.000000 0.000000 0.000000
# 3 -0.004731 -0.006527 0.013259 0.000000 0.000000 0.000000
# 4 0.000000 0.000000 0.000000 0.032190 0.000000 0.000000
# 5 0.000000 0.000000 0.000000 0.000000 0.058337 0.000000
# 6 0.000000 0.000000 0.000000 0.000000 0.000000 0.025791
#
#
# Mechanical properties :
#
#
# Convention : Reuss Voigt Hill
#
# Bulk Modulus (GPa) = 42.38633 50.71599 46.55116
# Shear Modulus (GPa) = 25.14891 28.05166 26.60028
#
# Velocity S-wave (km/s) = 3.52310 3.72087 3.62333
# Velocity P-wave (km/s) = 6.12122 6.59475 6.36239
#
# Compressibility (1/GPa) = 0.02359251
#
# Stress axis : x y z
#
# Youngs Moduli (GPa) = 47.53891 67.48311 75.41988
#
# Poissons Ratio (x) = 0.10139 0.35682
# Poissons Ratio (y) = 0.07143 0.49224
# Poissons Ratio (z) = 0.22491 0.44044
#
# Static dielectric constant tensor:
#      x y z
#    x 3.500740 0.000000 0.000000 
#    y 0.000000 3.947140 0.000000 
#    z 0.000000 0.000000 3.484570 
# 
# 
# High freq. dielectric constant tensor:
#      x y z
#    x 1.785570 0.000000 0.000000 
#    y 0.000000 1.813390 0.000000 
#    z 0.000000 0.000000 1.763030 
# 
# From -- ./inp_files/28962.got.cif
#   From: 2010.06.25/outbox.cif.g09.slc.cpg/sg58_15_cif.got.tgz:28962.got - 2010.06.26 21:38:00.
