data_PCOD8237899
_publ_section_title
;
Structure prediction by ZEFSAII (Michael W. Deem and Ramdas Pophale) SiO2 
 PCOD8237899
Probable space group: P N N M
;
_chemical_formula_sum "Si O2"
_cell_formula_units_Z 64
_cell_length_a 12.652924
_cell_length_b 9.332705
_cell_length_c 26.187879
_cell_angle_alpha 90.000000
_cell_angle_beta 90.000000
_cell_angle_gamma 90.000000
_cell_volume 3092.422065
_symmetry_space_group_name_H-M "P N N M"
_symmetry_group_IT_number 58
_symmetry_cell_setting 'orthorhombic'
loop_
_space_group_symop_operation_xyz
x,y,z
-x,-y,z
1/2+x,1/2-y,1/2-z
1/2-x,1/2+y,1/2-z
-x,-y,-z
x,y,-z
1/2-x,1/2+y,1/2+z
1/2+x,1/2-y,1/2+z
loop_
_atom_site_type_symbol
_atom_site_label
_atom_site_fract_x
_atom_site_fract_y
_atom_site_fract_z
Si Si1 0.664426 0.821186 0.103321
Si Si2 0.381455 0.322321 0.625385
Si Si3 0.495465 0.655300 0.942249
Si Si4 0.611487 0.351820 0.359112
Si Si5 0.989448 0.345516 0.310011
Si Si6 0.685346 0.134735 0.060966
Si Si7 0.154891 0.624405 0.220081
Si Si8 0.158609 0.296764 0.239105
O O1 0.612047 0.727927 0.058299
O O2 0.786613 0.780193 0.113159
O O3 0.591224 0.766894 0.151737
O O4 0.657158 0.986923 0.088546
O O5 0.366091 0.479526 0.650446
O O6 0.505285 0.317409 0.607782
O O7 0.301966 0.309166 0.577214
O O8 0.354583 0.193421 0.664031
O O9 0.500000 0.500000 0.914622
O O10 0.404954 0.757043 0.917501
O O11 0.459085 0.631780 0.000000
O O12 0.590069 0.282599 0.304204
O O13 0.105260 0.281551 0.296397
O O14 0.000000 0.500000 0.336096
O O15 0.953443 0.361708 0.250946
O O16 0.682548 0.115871 0.000000
O O17 0.185608 0.456934 0.219332
O O18 0.233901 0.710740 0.256167
#
# Coordination Sequence:
#
# PCOD8237899 Si02
#       8
#     8   8   8   8   8   8   8   8
#     4  11  21  38  61  88 118 159 199 247 298 365
#     4  10  22  39  61  87 118 158 200 251 306 358
#     4  10  22  40  60  87 120 149 189 248 307 359
#     4  10  21  39  57  85 122 157 197 250 298 354
#     4  10  21  34  54  83 118 152 198 243 289 354
#     4  10  22  41  67  90 117 158 205 255 314 376
#     4  11  22  36  57  81 117 164 198 245 295 359
#     4  11  22  38  54  83 122 159 208 242 298 357
#
# _framework density 20.695751000000001
#
# number of rings (size 3 to 8) (size 9 to 14) (size 15 to 20)
#    0.000    1.625    2.500    2.250    7.000    2.000 
#    0.000    5.625    0.000    0.000    0.000    4.375 
#    0.000    0.000    0.000    0.000    0.000    0.000 
#
# Total GULP energy -792846.180769 kJ/mol
# GULP energy per Si atom -12388.221575 kJ/mol
# Density = 2.064865 g / cm^3
# Si number density = 20.695751 Si / 1000 Ang^3
#
#
#
# Elastic Constant Matrix: (Units=GPa)
#
#
# Indices 1 2 3 4 5 6 
#
# 1 131.8279 51.2100 26.3908 0.0000 0.0000 0.0000
# 2 51.2100 97.3267 21.1828 0.0000 0.0000 0.0000
# 3 26.3908 21.1828 56.8680 0.0000 0.0000 0.0000
# 4 0.0000 0.0000 0.0000 25.0811 0.0000 0.0000
# 5 0.0000 0.0000 0.0000 0.0000 33.2674 0.0000
# 6 0.0000 0.0000 0.0000 0.0000 0.0000 23.5842
#
#
#
# Elastic Compliance Matrix: (Units=1/GPa)
#
#
# Indices 1 2 3 4 5 6 
#
# 1 0.009957 -0.004607 -0.002905 0.000000 0.000000 0.000000
# 2 -0.004607 0.013313 -0.002821 0.000000 0.000000 0.000000
# 3 -0.002905 -0.002821 0.019983 0.000000 0.000000 0.000000
# 4 0.000000 0.000000 0.000000 0.039871 0.000000 0.000000
# 5 0.000000 0.000000 0.000000 0.000000 0.030059 0.000000
# 6 0.000000 0.000000 0.000000 0.000000 0.000000 0.042401
#
#
# Mechanical properties :
#
#
# Convention : Reuss Voigt Hill
#
# Bulk Modulus (GPa) = 44.27146 53.73221 49.00183
# Shear Modulus (GPa) = 27.20675 28.86912 28.03794
#
# Velocity S-wave (km/s) = 3.62968 3.73893 3.68471
# Velocity P-wave (km/s) = 6.24533 6.68272 6.46772
#
# Compressibility (1/GPa) = 0.02258792
#
# Stress axis : x y z
#
# Youngs Moduli (GPa) = 100.43551 75.11726 50.04174
#
# Poissons Ratio (x) = 0.34604 0.14535
# Poissons Ratio (y) = 0.46267 0.14117
# Poissons Ratio (z) = 0.29173 0.21190
#
# Static dielectric constant tensor:
#      x y z
#    x 4.025470 0.000000 0.000000 
#    y 0.000000 3.824950 0.000000 
#    z 0.000000 0.000000 3.494070 
# 
# 
# High freq. dielectric constant tensor:
#      x y z
#    x 1.827680 0.000000 0.000000 
#    y 0.000000 1.797530 0.000000 
#    z 0.000000 0.000000 1.784340 
# 
# From -- ./inp_files/34930.got.cif
#   From: 2010.06.25/outbox.cif.g09.slc.cpg/sg58_18_cif.got.tgz:34930.got - 2010.06.26 21:38:00.
