data_PCOD8237873
_publ_section_title
;
Structure prediction by ZEFSAII (Michael W. Deem and Ramdas Pophale) SiO2 
 PCOD8237873
Probable space group: P N N M
;
_chemical_formula_sum "Si O2"
_cell_formula_units_Z 40
_cell_length_a 12.317239
_cell_length_b 18.125218
_cell_length_c 8.939805
_cell_angle_alpha 90.000000
_cell_angle_beta 90.000000
_cell_angle_gamma 90.000000
_cell_volume 1995.835086
_symmetry_space_group_name_H-M "P N N M"
_symmetry_group_IT_number 58
_symmetry_cell_setting 'orthorhombic'
loop_
_space_group_symop_operation_xyz
x,y,z
-x,-y,z
1/2+x,1/2-y,1/2-z
1/2-x,1/2+y,1/2-z
-x,-y,-z
x,y,-z
1/2-x,1/2+y,1/2+z
1/2+x,1/2-y,1/2+z
loop_
_atom_site_type_symbol
_atom_site_label
_atom_site_fract_x
_atom_site_fract_y
_atom_site_fract_z
Si Si1 0.394578 0.295250 0.171509
Si Si2 0.309090 0.892512 0.671606
Si Si3 0.723851 0.955623 0.176312
Si Si4 0.442110 0.574852 0.175334
Si Si5 0.947357 0.354315 0.174526
O O1 0.273932 0.325832 0.196996
O O2 0.481626 0.356939 0.217210
O O3 0.407301 0.225918 0.278351
O O4 0.411425 0.270741 0.000000
O O5 0.304612 0.920232 0.500000
O O6 0.426684 0.862500 0.716121
O O7 0.274009 0.959388 0.776531
O O8 0.829431 0.913735 0.238711
O O9 0.615900 0.918020 0.239032
O O10 0.723567 0.948856 0.000000
O O11 0.500000 0.500000 0.229996
O O12 0.417404 0.570421 0.000000
O O13 0.926058 0.364965 0.000000
#
# Coordination Sequence:
#
# PCOD8237873 Si02
#       5
#     8   8   8   8   8
#     4  10  22  41  65  93 126 162 204 259 316 374
#     4  10  22  44  67  89 123 166 210 257 314 374
#     4  12  25  40  64  95 128 163 211 262 309 369
#     4  10  20  40  67  92 123 164 207 253 313 375
#     4  11  25  42  64  92 127 168 210 257 316 377
#
# _framework density 20.041736
#
# number of rings (size 3 to 8) (size 9 to 14) (size 15 to 20)
#    0.000    1.400    2.000    3.000    2.800    6.000 
#    0.000    0.000    0.000    0.000    0.000    0.000 
#    0.000    0.000    0.000    0.000    0.000    0.000 
#
# Total GULP energy -496295.068034 kJ/mol
# GULP energy per Si atom -12407.376701 kJ/mol
# Density = 1.999612 g / cm^3
# Si number density = 20.041736 Si / 1000 Ang^3
#
#
#
# Elastic Constant Matrix: (Units=GPa)
#
#
# Indices 1 2 3 4 5 6 
#
# 1 135.5488 15.4930 43.3671 0.0000 0.0000 0.0000
# 2 15.4930 57.1400 18.1348 0.0000 0.0000 0.0000
# 3 43.3671 18.1348 80.3819 0.0000 0.0000 0.0000
# 4 0.0000 0.0000 0.0000 36.9275 0.0000 0.0000
# 5 0.0000 0.0000 0.0000 0.0000 25.6747 0.0000
# 6 0.0000 0.0000 0.0000 0.0000 0.0000 30.1217
#
#
#
# Elastic Compliance Matrix: (Units=1/GPa)
#
#
# Indices 1 2 3 4 5 6 
#
# 1 0.008966 -0.000965 -0.004619 0.000000 0.000000 0.000000
# 2 -0.000965 0.018954 -0.003756 0.000000 0.000000 0.000000
# 3 -0.004619 -0.003756 0.015780 0.000000 0.000000 0.000000
# 4 0.000000 0.000000 0.000000 0.027080 0.000000 0.000000
# 5 0.000000 0.000000 0.000000 0.000000 0.038949 0.000000
# 6 0.000000 0.000000 0.000000 0.000000 0.000000 0.033199
#
#
# Mechanical properties :
#
#
# Convention : Reuss Voigt Hill
#
# Bulk Modulus (GPa) = 39.96758 47.45118 43.70938
# Shear Modulus (GPa) = 29.42078 31.61649 30.51863
#
# Velocity S-wave (km/s) = 3.83557 3.97613 3.90648
# Velocity P-wave (km/s) = 6.29293 6.69380 6.49646
#
# Compressibility (1/GPa) = 0.02502028
#
# Stress axis : x y z
#
# Youngs Moduli (GPa) = 111.53724 52.75803 63.37070
#
# Poissons Ratio (x) = 0.05090 0.29273
# Poissons Ratio (y) = 0.10762 0.23800
# Poissons Ratio (z) = 0.51523 0.19814
#
# Static dielectric constant tensor:
#      x y z
#    x 3.896610 0.000000 0.000000 
#    y 0.000000 3.578190 0.000000 
#    z 0.000000 0.000000 3.554320 
# 
# 
# High freq. dielectric constant tensor:
#      x y z
#    x 1.801850 0.000000 0.000000 
#    y 0.000000 1.783880 0.000000 
#    z 0.000000 0.000000 1.774890 
# 
# From -- ./inp_files/3775.got.cif
#   From: 2010.06.25/outbox.cif.g09.slc.cpg/sg58_2_cif.got.tgz:3775.got - 2010.06.26 21:38:00.
