data_PCOD8237812
_publ_section_title
;
Structure prediction by ZEFSAII (Michael W. Deem and Ramdas Pophale) SiO2 
 PCOD8237812
Probable space group: P N N M
;
_chemical_formula_sum "Si O2"
_cell_formula_units_Z 56
_cell_length_a 9.900780
_cell_length_b 13.983834
_cell_length_c 20.617359
_cell_angle_alpha 90.000000
_cell_angle_beta 90.000000
_cell_angle_gamma 90.000000
_cell_volume 2854.491167
_symmetry_space_group_name_H-M "P N N M"
_symmetry_group_IT_number 58
_symmetry_cell_setting 'orthorhombic'
loop_
_space_group_symop_operation_xyz
x,y,z
-x,-y,z
1/2+x,1/2-y,1/2-z
1/2-x,1/2+y,1/2-z
-x,-y,-z
x,y,-z
1/2-x,1/2+y,1/2+z
1/2+x,1/2-y,1/2+z
loop_
_atom_site_type_symbol
_atom_site_label
_atom_site_fract_x
_atom_site_fract_y
_atom_site_fract_z
Si Si1 0.468577 0.392168 0.753574
Si Si2 0.959271 0.775114 0.364788
Si Si3 0.537221 0.242029 0.652628
Si Si4 0.651511 0.011768 0.875161
Si Si5 0.223456 0.686690 0.576357
Si Si6 0.345699 0.873037 0.759974
Si Si7 0.219573 0.793065 0.926590
O O1 0.500000 0.500000 0.733725
O O2 0.522374 0.374997 0.826942
O O3 0.553361 0.328597 0.703340
O O4 0.313185 0.357922 0.752620
O O5 0.906037 0.697744 0.313535
O O6 0.846750 0.779686 0.421275
O O7 0.097654 0.743697 0.396406
O O8 0.644040 0.253968 0.594993
O O9 0.570139 0.143272 0.692890
O O10 0.390582 0.245566 0.620614
O O11 0.640136 0.023749 0.796075
O O12 0.735394 0.099918 0.906086
O O13 0.500000 0.000000 0.905023
O O14 0.735302 0.917549 0.891406
O O15 0.212868 0.675879 0.500000
O O16 0.165712 0.795825 0.000000
#
# Coordination Sequence:
#
# PCOD8237812 Si02
#       7
#     8   8   8   8   8   8   8
#     4  11  21  39  62  87 121 152 203 262 306 359
#     4  10  21  38  59  86 116 161 206 245 301 363
#     4  11  23  38  58  88 125 161 201 250 310 360
#     4  11  21  37  57  91 119 158 201 247 303 359
#     4  12  23  37  61  89 125 166 202 244 303 382
#     4  10  20  39  58  86 123 156 205 256 302 364
#     4  11  22  39  58  85 123 162 202 242 301 376
#
# _framework density 19.618207000000002
#
# number of rings (size 3 to 8) (size 9 to 14) (size 15 to 20)
#    0.000    1.143    7.143    2.143    0.000    0.571 
#    2.571    1.429    0.000    1.714    0.000    1.000 
#    0.000    0.000    0.000    0.000    0.000    0.000 
#
# Total GULP energy -693849.753069 kJ/mol
# GULP energy per Si atom -12390.174162 kJ/mol
# Density = 1.957355 g / cm^3
# Si number density = 19.618207 Si / 1000 Ang^3
#
#
#
# Elastic Constant Matrix: (Units=GPa)
#
#
# Indices 1 2 3 4 5 6 
#
# 1 95.7220 8.0871 20.3489 0.0000 0.0000 0.0000
# 2 8.0871 29.7554 33.5989 0.0000 0.0000 0.0000
# 3 20.3489 33.5989 93.5900 0.0000 0.0000 0.0000
# 4 0.0000 0.0000 0.0000 17.5744 0.0000 0.0000
# 5 0.0000 0.0000 0.0000 0.0000 32.1950 0.0000
# 6 0.0000 0.0000 0.0000 0.0000 0.0000 20.5468
#
#
#
# Elastic Compliance Matrix: (Units=1/GPa)
#
#
# Indices 1 2 3 4 5 6 
#
# 1 0.010957 -0.000484 -0.002209 0.000000 0.000000 0.000000
# 2 -0.000484 0.056540 -0.020193 0.000000 0.000000 0.000000
# 3 -0.002209 -0.020193 0.018414 0.000000 0.000000 0.000000
# 4 0.000000 0.000000 0.000000 0.056901 0.000000 0.000000
# 5 0.000000 0.000000 0.000000 0.000000 0.031061 0.000000
# 6 0.000000 0.000000 0.000000 0.000000 0.000000 0.048669
#
#
# Mechanical properties :
#
#
# Convention : Reuss Voigt Hill
#
# Bulk Modulus (GPa) = 24.91239 38.12638 31.51938
# Shear Modulus (GPa) = 17.74978 24.53204 21.14091
#
# Velocity S-wave (km/s) = 3.01119 3.54004 3.28627
# Velocity P-wave (km/s) = 4.98155 6.01544 5.52274
#
# Compressibility (1/GPa) = 0.04014067
#
# Stress axis : x y z
#
# Youngs Moduli (GPa) = 91.26310 17.68666 54.30569
#
# Poissons Ratio (x) = 0.00856 0.11994
# Poissons Ratio (y) = 0.04419 1.09657
# Poissons Ratio (z) = 0.20156 0.35714
#
# Static dielectric constant tensor:
#      x y z
#    x 3.701990 0.000000 0.000000 
#    y 0.000000 3.428800 0.000000 
#    z 0.000000 0.000000 3.827620 
# 
# 
# High freq. dielectric constant tensor:
#      x y z
#    x 1.779800 0.000000 0.000000 
#    y 0.000000 1.720160 0.000000 
#    z 0.000000 0.000000 1.762400 
# 
# From -- ./inp_files/28981.got.cif
#   From: 2010.06.25/outbox.cif.g09.slc.cpg/sg58_15_cif.got.tgz:28981.got - 2010.06.26 21:38:00.
