data_PCOD8237390
_publ_section_title
;
Structure prediction by ZEFSAII (Michael W. Deem and Ramdas Pophale) SiO2 
 PCOD8237390
Probable space group: P N N M
;
_chemical_formula_sum "Si O2"
_cell_formula_units_Z 64
_cell_length_a 34.058978
_cell_length_b 11.219461
_cell_length_c 8.924940
_cell_angle_alpha 90.000000
_cell_angle_beta 90.000000
_cell_angle_gamma 90.000000
_cell_volume 3410.428198
_symmetry_space_group_name_H-M "P N N M"
_symmetry_group_IT_number 58
_symmetry_cell_setting 'orthorhombic'
loop_
_space_group_symop_operation_xyz
x,y,z
-x,-y,z
1/2+x,1/2-y,1/2-z
1/2-x,1/2+y,1/2-z
-x,-y,-z
x,y,-z
1/2-x,1/2+y,1/2+z
1/2+x,1/2-y,1/2+z
loop_
_atom_site_type_symbol
_atom_site_label
_atom_site_fract_x
_atom_site_fract_y
_atom_site_fract_z
Si Si1 0.067612 0.282613 0.827099
Si Si2 0.733813 0.612113 0.170544
Si Si3 0.643326 0.375940 0.673478
Si Si4 0.641517 0.617296 0.171318
Si Si5 0.502805 0.627765 0.327623
Si Si6 0.580361 0.768319 0.327921
Si Si7 0.455914 0.008083 0.176209
Si Si8 0.275105 0.660172 0.821462
O O1 0.108129 0.215109 0.804782
O O2 0.071337 0.401504 0.731817
O O3 0.029884 0.214243 0.756217
O O4 0.060208 0.314874 0.000000
O O5 0.687787 0.634875 0.181167
O O6 0.742233 0.473138 0.225903
O O7 0.752256 0.721129 0.266088
O O8 0.748927 0.625002 0.000000
O O9 0.653764 0.396450 0.500000
O O10 0.628371 0.498065 0.744980
O O11 0.681253 0.325709 0.757968
O O12 0.621224 0.726109 0.257304
O O13 0.627199 0.612105 0.000000
O O14 0.500000 0.500000 0.246659
O O15 0.490002 0.614773 0.500000
O O16 0.547430 0.667747 0.310842
O O17 0.587157 0.804505 0.500000
O O18 0.565769 0.877030 0.232732
O O19 0.500000 0.000000 0.244347
O O20 0.457860 0.010461 0.000000
O O21 0.276874 0.663148 0.000000
#
# Coordination Sequence:
#
# PCOD8237390 Si02
#       8
#     8   8   8   8   8   8   8   8
#     4  10  20  36  57  80 108 145 192 235 276 333
#     4   9  20  39  61  87 119 155 194 236 284 347
#     4  10  20  36  61  88 115 149 189 234 283 338
#     4  10  21  38  59  85 120 152 185 234 288 340
#     4   9  17  30  51  79 107 135 177 230 275 321
#     4  11  21  35  58  81 108 147 192 235 279 336
#     4  11  23  38  55  76 110 150 189 236 292 344
#     4  10  21  38  62  91 122 156 193 239 293 349
#
# _framework density 18.765971
#
# number of rings (size 3 to 8) (size 9 to 14) (size 15 to 20)
#    0.000    2.000    1.250    3.375    0.000    6.500 
#    2.250    0.000    0.000    1.875    0.000    0.000 
#    0.000    0.000    0.000    0.000    0.000    0.000 
#
# Total GULP energy -793287.095387 kJ/mol
# GULP energy per Si atom -12395.110865 kJ/mol
# Density = 1.872326 g / cm^3
# Si number density = 18.765971 Si / 1000 Ang^3
#
#
#
# Elastic Constant Matrix: (Units=GPa)
#
#
# Indices 1 2 3 4 5 6 
#
# 1 59.6023 36.3400 42.1452 0.0000 0.0000 0.0000
# 2 36.3400 121.0849 64.3025 0.0000 0.0000 0.0000
# 3 42.1452 64.3025 103.1393 0.0000 0.0000 0.0000
# 4 0.0000 0.0000 0.0000 7.0593 0.0000 0.0000
# 5 0.0000 0.0000 0.0000 0.0000 34.3763 0.0000
# 6 0.0000 0.0000 0.0000 0.0000 0.0000 42.6940
#
#
#
# Elastic Compliance Matrix: (Units=1/GPa)
#
#
# Indices 1 2 3 4 5 6 
#
# 1 0.024313 -0.003021 -0.008051 0.000000 0.000000 0.000000
# 2 -0.003021 0.012722 -0.006697 0.000000 0.000000 0.000000
# 3 -0.008051 -0.006697 0.017161 0.000000 0.000000 0.000000
# 4 0.000000 0.000000 0.000000 0.141658 0.000000 0.000000
# 5 0.000000 0.000000 0.000000 0.000000 0.029090 0.000000
# 6 0.000000 0.000000 0.000000 0.000000 0.000000 0.023423
#
#
# Mechanical properties :
#
#
# Convention : Reuss Voigt Hill
#
# Bulk Modulus (GPa) = 53.59968 63.26686 58.43327
# Shear Modulus (GPa) = 17.23402 26.22849 21.73125
#
# Velocity S-wave (km/s) = 3.03374 3.74259 3.40665
# Velocity P-wave (km/s) = 6.39497 7.24312 6.83222
#
# Compressibility (1/GPa) = 0.01865683
#
# Stress axis : x y z
#
# Youngs Moduli (GPa) = 41.13014 78.60519 58.27226
#
# Poissons Ratio (x) = 0.23748 0.46917
# Poissons Ratio (y) = 0.12426 0.39025
# Poissons Ratio (z) = 0.33115 0.52641
#
# Static dielectric constant tensor:
#      x y z
#    x 3.466650 0.000000 0.000000 
#    y 0.000000 -0.958220 0.000000 
#    z 0.000000 0.000000 3.446370 
# 
# 
# High freq. dielectric constant tensor:
#      x y z
#    x 1.722440 0.000000 0.000000 
#    y 0.000000 1.738610 0.000000 
#    z 0.000000 0.000000 1.723620 
# 
# From -- ./inp_files/10930.got.cif
#   From: 2010.06.25/outbox.cif.g09.slc.cpg/sg58_6_cif.got.tgz:10930.got - 2010.06.26 21:38:00.
