data_PCOD8237878
_publ_section_title
;
Structure prediction by ZEFSAII (Michael W. Deem and Ramdas Pophale) SiO2 
 PCOD8237878
Probable space group: P N N M
;
_chemical_formula_sum "Si O2"
_cell_formula_units_Z 64
_cell_length_a 19.034227
_cell_length_b 18.843995
_cell_length_c 9.223994
_cell_angle_alpha 90.000000
_cell_angle_beta 90.000000
_cell_angle_gamma 90.000000
_cell_volume 3308.470270
_symmetry_space_group_name_H-M "P N N M"
_symmetry_group_IT_number 58
_symmetry_cell_setting 'orthorhombic'
loop_
_space_group_symop_operation_xyz
x,y,z
-x,-y,z
1/2+x,1/2-y,1/2-z
1/2-x,1/2+y,1/2-z
-x,-y,-z
x,y,-z
1/2-x,1/2+y,1/2+z
1/2+x,1/2-y,1/2+z
loop_
_atom_site_type_symbol
_atom_site_label
_atom_site_fract_x
_atom_site_fract_y
_atom_site_fract_z
Si Si1 0.117562 0.852182 0.831782
Si Si2 0.314527 0.475192 0.834899
Si Si3 0.034148 0.201518 0.829311
Si Si4 0.806909 0.289393 0.169049
Si Si5 0.599258 0.900556 0.171971
Si Si6 0.534980 0.136841 0.333082
Si Si7 0.336006 0.636476 0.830159
Si Si8 0.156338 0.469139 0.163773
O O1 0.133072 0.926384 0.755207
O O2 0.177935 0.793498 0.799114
O O3 0.042080 0.824693 0.776860
O O4 0.114099 0.869018 0.000000
O O5 0.316114 0.556745 0.782522
O O6 0.236251 0.445197 0.813711
O O7 0.339399 0.470343 0.000000
O O8 0.042579 0.282708 0.780609
O O9 0.093591 0.156028 0.752488
O O10 0.043787 0.192940 0.000000
O O11 0.862403 0.332237 0.263860
O O12 0.727753 0.310714 0.214209
O O13 0.820380 0.307342 0.000000
O O14 0.520534 0.904401 0.233803
O O15 0.639121 0.971160 0.219632
O O16 0.597658 0.895643 0.000000
O O17 0.509770 0.132877 0.500000
O O18 0.609982 0.100332 0.310103
O O19 0.350477 0.642014 0.000000
O O20 0.145544 0.499413 0.000000
#
# Coordination Sequence:
#
# PCOD8237878 Si02
#       8
#     8   8   8   8   8   8   8   8
#     4  10  22  40  63  87 117 157 195 242 297 350
#     4  10  22  40  62  88 118 154 199 248 294 351
#     4  10  22  40  62  88 118 154 199 248 294 351
#     4  10  20  41  65  84 118 162 199 232 293 370
#     4  12  23  35  58  91 124 156 195 251 297 342
#     4  10  21  39  61  84 118 164 203 237 290 365
#     4  10  22  40  63  87 117 157 195 242 297 350
#     4  10  21  39  61  84 118 164 203 237 290 365
#
# _framework density 19.344287000000001
#
# number of rings (size 3 to 8) (size 9 to 14) (size 15 to 20)
#    0.000    1.750    2.500    1.500    1.750    5.500 
#    0.000    2.500    0.000    0.000    0.000    0.000 
#    0.000    0.000    0.000    0.000    0.000    0.000 
#
# Total GULP energy -793819.266241 kJ/mol
# GULP energy per Si atom -12403.426035 kJ/mol
# Density = 1.930026 g / cm^3
# Si number density = 19.344287 Si / 1000 Ang^3
#
#
#
# Elastic Constant Matrix: (Units=GPa)
#
#
# Indices 1 2 3 4 5 6 
#
# 1 105.5402 46.7654 36.7260 0.0000 0.0000 0.0000
# 2 46.7654 72.3507 29.7447 0.0000 0.0000 0.0000
# 3 36.7260 29.7447 62.6965 0.0000 0.0000 0.0000
# 4 0.0000 0.0000 0.0000 29.0070 0.0000 0.0000
# 5 0.0000 0.0000 0.0000 0.0000 28.7250 0.0000
# 6 0.0000 0.0000 0.0000 0.0000 0.0000 37.6877
#
#
#
# Elastic Compliance Matrix: (Units=1/GPa)
#
#
# Indices 1 2 3 4 5 6 
#
# 1 0.014442 -0.007276 -0.005008 0.000000 0.000000 0.000000
# 2 -0.007276 0.020836 -0.005623 0.000000 0.000000 0.000000
# 3 -0.005008 -0.005623 0.021551 0.000000 0.000000 0.000000
# 4 0.000000 0.000000 0.000000 0.034474 0.000000 0.000000
# 5 0.000000 0.000000 0.000000 0.000000 0.034813 0.000000
# 6 0.000000 0.000000 0.000000 0.000000 0.000000 0.026534
#
#
# Mechanical properties :
#
#
# Convention : Reuss Voigt Hill
#
# Bulk Modulus (GPa) = 47.58422 51.89551 49.73986
# Shear Modulus (GPa) = 25.57954 27.57404 26.57679
#
# Velocity S-wave (km/s) = 3.64033 3.77959 3.71061
# Velocity P-wave (km/s) = 6.50549 6.77736 6.64281
#
# Compressibility (1/GPa) = 0.02101537
#
# Stress axis : x y z
#
# Youngs Moduli (GPa) = 69.24425 47.99309 46.40159
#
# Poissons Ratio (x) = 0.34919 0.23236
# Poissons Ratio (y) = 0.50382 0.26093
# Poissons Ratio (z) = 0.34675 0.26988
#
# Static dielectric constant tensor:
#      x y z
#    x 3.569830 0.000000 0.000000 
#    y 0.000000 3.504910 0.000000 
#    z 0.000000 0.000000 3.388710 
# 
# 
# High freq. dielectric constant tensor:
#      x y z
#    x 1.759180 0.000000 0.000000 
#    y 0.000000 1.755240 0.000000 
#    z 0.000000 0.000000 1.738530 
# 
# From -- ./inp_files/8273.got.cif
#   From: 2010.06.25/outbox.cif.g09.slc.cpg/sg58_5_cif.got.tgz:8273.got - 2010.06.26 21:38:00.
