data_PCOD8237870
_publ_section_title
;
Structure prediction by ZEFSAII (Michael W. Deem and Ramdas Pophale) SiO2 
 PCOD8237870
Probable space group: P N N M
;
_chemical_formula_sum "Si O2"
_cell_formula_units_Z 56
_cell_length_a 21.266319
_cell_length_b 14.457517
_cell_length_c 8.930813
_cell_angle_alpha 90.000000
_cell_angle_beta 90.000000
_cell_angle_gamma 90.000000
_cell_volume 2745.851408
_symmetry_space_group_name_H-M "P N N M"
_symmetry_group_IT_number 58
_symmetry_cell_setting 'orthorhombic'
loop_
_space_group_symop_operation_xyz
x,y,z
-x,-y,z
1/2+x,1/2-y,1/2-z
1/2-x,1/2+y,1/2-z
-x,-y,-z
x,y,-z
1/2-x,1/2+y,1/2+z
1/2+x,1/2-y,1/2+z
loop_
_atom_site_type_symbol
_atom_site_label
_atom_site_fract_x
_atom_site_fract_y
_atom_site_fract_z
Si Si1 0.089787 0.102229 0.829153
Si Si2 0.718061 0.297767 0.328635
Si Si3 0.117037 0.894068 0.825276
Si Si4 0.669896 0.931967 0.176220
Si Si5 0.241085 0.387300 0.323226
Si Si6 0.986909 0.222018 0.323753
Si Si7 0.536530 0.908123 0.676733
O O1 0.161045 0.132520 0.798004
O O2 0.043531 0.154167 0.717707
O O3 0.084882 0.993255 0.798159
O O4 0.069924 0.124471 0.000000
O O5 0.718890 0.265466 0.500000
O O6 0.782144 0.349538 0.286276
O O7 0.708855 0.207498 0.227760
O O8 0.187879 0.894426 0.761239
O O9 0.079222 0.817263 0.734262
O O10 0.115646 0.867889 0.000000
O O11 0.699596 0.027607 0.236636
O O12 0.607545 0.912136 0.267451
O O13 0.655000 0.936619 0.000000
O O14 0.243389 0.393124 0.500000
O O15 0.983353 0.233704 0.500000
O O16 0.999510 0.321877 0.250880
O O17 0.535677 0.895173 0.500000
O O18 0.500000 0.000000 0.727076
#
# Coordination Sequence:
#
# PCOD8237870 Si02
#       7
#     8   8   8   8   8   8   8
#     4  10  21  40  64  89 122 165 208 251 303 367
#     4  10  21  38  61  90 124 162 203 250 302 363
#     4  10  20  40  66  91 124 168 209 246 301 371
#     4  10  21  41  65  92 126 159 198 251 310 361
#     4  10  21  37  61  92 124 159 199 247 302 364
#     4  12  26  41  61  91 126 162 203 259 314 361
#     4  11  26  46  66  89 120 162 213 257 301 369
#
# _framework density 20.394404000000002
#
# number of rings (size 3 to 8) (size 9 to 14) (size 15 to 20)
#    0.000    1.571    1.429    3.000    2.000    8.000 
#    0.000    0.000    0.000    0.000    0.000    0.000 
#    0.000    0.000    0.000    0.000    0.000    0.000 
#
# Total GULP energy -694729.272840 kJ/mol
# GULP energy per Si atom -12405.879872 kJ/mol
# Density = 2.034799 g / cm^3
# Si number density = 20.394404 Si / 1000 Ang^3
#
#
#
# Elastic Constant Matrix: (Units=GPa)
#
#
# Indices 1 2 3 4 5 6 
#
# 1 56.7672 1.5997 17.4419 0.0000 0.0000 0.0000
# 2 1.5997 101.2790 30.5049 0.0000 0.0000 0.0000
# 3 17.4419 30.5049 60.4371 0.0000 0.0000 0.0000
# 4 0.0000 0.0000 0.0000 30.8324 0.0000 0.0000
# 5 0.0000 0.0000 0.0000 0.0000 23.3573 0.0000
# 6 0.0000 0.0000 0.0000 0.0000 0.0000 31.2994
#
#
#
# Elastic Compliance Matrix: (Units=1/GPa)
#
#
# Indices 1 2 3 4 5 6 
#
# 1 0.019558 0.001641 -0.006473 0.000000 0.000000 0.000000
# 2 0.001641 0.011781 -0.006420 0.000000 0.000000 0.000000
# 3 -0.006473 -0.006420 0.021655 0.000000 0.000000 0.000000
# 4 0.000000 0.000000 0.000000 0.032433 0.000000 0.000000
# 5 0.000000 0.000000 0.000000 0.000000 0.042813 0.000000
# 6 0.000000 0.000000 0.000000 0.000000 0.000000 0.031950
#
#
# Mechanical properties :
#
#
# Convention : Reuss Voigt Hill
#
# Bulk Modulus (GPa) = 32.79727 35.28627 34.04177
# Shear Modulus (GPa) = 25.92584 28.36027 27.14306
#
# Velocity S-wave (km/s) = 3.56929 3.73311 3.65212
# Velocity P-wave (km/s) = 5.75351 5.99341 5.87468
#
# Compressibility (1/GPa) = 0.03049034
#
# Stress axis : x y z
#
# Youngs Moduli (GPa) = 51.12925 84.87885 46.17971
#
# Poissons Ratio (x) = -0.13925 0.29890
# Poissons Ratio (y) = -0.08388 0.29648
# Poissons Ratio (z) = 0.33093 0.54493
#
# Static dielectric constant tensor:
#      x y z
#    x 3.756390 0.000000 0.000000 
#    y 0.000000 3.862410 0.000000 
#    z 0.000000 0.000000 3.508280 
# 
# 
# High freq. dielectric constant tensor:
#      x y z
#    x 1.805540 0.000000 0.000000 
#    y 0.000000 1.812920 0.000000 
#    z 0.000000 0.000000 1.780980 
# 
# From -- ./inp_files/6280.got.cif
#   From: 2010.06.25/outbox.cif.g09.slc.cpg/sg58_4_cif.got.tgz:6280.got - 2010.06.26 21:38:00.
