data_PCOD8237992
_publ_section_title
;
Structure prediction by ZEFSAII (Michael W. Deem and Ramdas Pophale) SiO2 
 PCOD8237992
Probable space group: P N N M
;
_chemical_formula_sum "Si O2"
_cell_formula_units_Z 48
_cell_length_a 11.893963
_cell_length_b 23.211550
_cell_length_c 8.651003
_cell_angle_alpha 90.000000
_cell_angle_beta 90.000000
_cell_angle_gamma 90.000000
_cell_volume 2388.345696
_symmetry_space_group_name_H-M "P N N M"
_symmetry_group_IT_number 58
_symmetry_cell_setting 'orthorhombic'
loop_
_space_group_symop_operation_xyz
x,y,z
-x,-y,z
1/2+x,1/2-y,1/2-z
1/2-x,1/2+y,1/2-z
-x,-y,-z
x,y,-z
1/2-x,1/2+y,1/2+z
1/2+x,1/2-y,1/2+z
loop_
_atom_site_type_symbol
_atom_site_label
_atom_site_fract_x
_atom_site_fract_y
_atom_site_fract_z
Si Si1 0.736634 0.615208 0.817445
Si Si2 0.319005 0.652394 0.316249
Si Si3 0.568121 0.052953 0.178522
Si Si4 0.376505 0.777071 0.323722
Si Si5 0.998267 0.932710 0.316929
Si Si6 0.424159 0.146123 0.676879
O O1 0.813661 0.561632 0.764643
O O2 0.789877 0.675195 0.748625
O O3 0.610667 0.601032 0.760348
O O4 0.741122 0.617278 0.000000
O O5 0.302942 0.650086 0.500000
O O6 0.368581 0.713091 0.253334
O O7 0.394848 0.598667 0.265797
O O8 0.202319 0.649920 0.228439
O O9 0.487184 0.106517 0.201486
O O10 0.500000 0.000000 0.252139
O O11 0.594913 0.042331 0.000000
O O12 0.338254 0.773044 0.500000
O O13 0.508012 0.793709 0.308834
O O14 0.983432 0.927857 0.500000
O O15 0.000000 0.000000 0.266754
O O16 0.432311 0.123389 0.500000
#
# Coordination Sequence:
#
# PCOD8237992 Si02
#       6
#     8   8   8   8   8   8
#     4   9  19  38  61  83 115 157 197 241 288 347
#     4  11  23  38  60  89 121 154 191 245 304 353
#     4  10  21  36  57  87 118 148 188 239 293 344
#     4   8  18  37  59  85 115 150 193 240 296 355
#     4  10  23  41  60  87 119 160 209 244 285 354
#     4  10  21  39  60  84 116 153 197 239 285 350
#
# _framework density 20.097593
#
# number of rings (size 3 to 8) (size 9 to 14) (size 15 to 20)
#    0.000    2.333    0.000    2.500    4.667    2.333 
#    0.000    7.500    0.000    0.000    0.000    0.000 
#    0.000    0.000    0.000    0.000    0.000    0.000 
#
# Total GULP energy -594820.939865 kJ/mol
# GULP energy per Si atom -12392.102914 kJ/mol
# Density = 2.005185 g / cm^3
# Si number density = 20.097593 Si / 1000 Ang^3
#
#
#
# Elastic Constant Matrix: (Units=GPa)
#
#
# Indices 1 2 3 4 5 6 
#
# 1 134.6231 42.0687 22.6408 0.0000 0.0000 0.0000
# 2 42.0687 88.4094 21.5366 0.0000 0.0000 0.0000
# 3 22.6408 21.5366 19.6436 0.0000 0.0000 0.0000
# 4 0.0000 0.0000 0.0000 19.5802 0.0000 0.0000
# 5 0.0000 0.0000 0.0000 0.0000 20.1927 0.0000
# 6 0.0000 0.0000 0.0000 0.0000 0.0000 14.2725
#
#
#
# Elastic Compliance Matrix: (Units=1/GPa)
#
#
# Indices 1 2 3 4 5 6 
#
# 1 0.009621 -0.002561 -0.008282 0.000000 0.000000 0.000000
# 2 -0.002561 0.016114 -0.014716 0.000000 0.000000 0.000000
# 3 -0.008282 -0.014716 0.076586 0.000000 0.000000 0.000000
# 4 0.000000 0.000000 0.000000 0.051072 0.000000 0.000000
# 5 0.000000 0.000000 0.000000 0.000000 0.049523 0.000000
# 6 0.000000 0.000000 0.000000 0.000000 0.000000 0.070065
#
#
# Mechanical properties :
#
#
# Convention : Reuss Voigt Hill
#
# Bulk Modulus (GPa) = 19.52918 46.12983 32.82950
# Shear Modulus (GPa) = 14.65562 21.23775 17.94668
#
# Velocity S-wave (km/s) = 2.70334 3.25427 2.99151
# Velocity P-wave (km/s) = 4.41388 6.09287 5.32003
#
# Compressibility (1/GPa) = 0.05120543
#
# Stress axis : x y z
#
# Youngs Moduli (GPa) = 103.93775 62.05682 13.05717
#
# Poissons Ratio (x) = 0.15891 0.10814
# Poissons Ratio (y) = 0.26615 0.19215
# Poissons Ratio (z) = 0.86078 0.91321
#
# Static dielectric constant tensor:
#      x y z
#    x 3.880440 0.000000 0.000000 
#    y 0.000000 3.965710 0.000000 
#    z 0.000000 0.000000 3.394320 
# 
# 
# High freq. dielectric constant tensor:
#      x y z
#    x 1.792450 0.000000 0.000000 
#    y 0.000000 1.787270 0.000000 
#    z 0.000000 0.000000 1.763490 
# 
# From -- ./inp_files/4217.got.cif
#   From: 2010.06.25/outbox.cif.g09.slc.cpg/sg58_3_cif.got.tgz:4217.got - 2010.06.26 21:38:00.
