data_PCOD8237843
_publ_section_title
;
Structure prediction by ZEFSAII (Michael W. Deem and Ramdas Pophale) SiO2 
 PCOD8237843
Probable space group: P N N M
;
_chemical_formula_sum "Si O2"
_cell_formula_units_Z 40
_cell_length_a 12.410051
_cell_length_b 5.035729
_cell_length_c 29.002583
_cell_angle_alpha 90.000000
_cell_angle_beta 90.000000
_cell_angle_gamma 90.000000
_cell_volume 1812.477379
_symmetry_space_group_name_H-M "P N N M"
_symmetry_group_IT_number 58
_symmetry_cell_setting 'orthorhombic'
loop_
_space_group_symop_operation_xyz
x,y,z
-x,-y,z
1/2+x,1/2-y,1/2-z
1/2-x,1/2+y,1/2-z
-x,-y,-z
x,y,-z
1/2-x,1/2+y,1/2+z
1/2+x,1/2-y,1/2+z
loop_
_atom_site_type_symbol
_atom_site_label
_atom_site_fract_x
_atom_site_fract_y
_atom_site_fract_z
Si Si1 0.797792 0.088960 0.553066
Si Si2 0.568552 0.260947 0.448227
Si Si3 0.252254 0.457839 0.310673
Si Si4 0.126001 0.457447 0.219307
Si Si5 0.618830 0.061764 0.099363
O O1 0.787152 0.997412 0.500000
O O2 0.681657 0.175908 0.574883
O O3 0.868126 0.355354 0.557072
O O4 0.856917 0.858708 0.581926
O O5 0.500000 0.500000 0.423377
O O6 0.595055 0.362067 0.500000
O O7 0.500000 0.000000 0.448329
O O8 0.157405 0.480388 0.272944
O O9 0.345386 0.670454 0.300815
O O10 0.200893 0.509834 0.360106
O O11 0.307373 0.170719 0.310147
O O12 0.000000 0.500000 0.213370
O O13 0.500000 0.000000 0.118703
#
# Coordination Sequence:
#
# PCOD8237843 Si02
#       5
#     8   8   8   8   8
#     4  11  24  41  62  89 120 159 211 261 304 360
#     4   9  17  33  57  81 107 142 186 238 297 357
#     4  10  22  39  62  93 125 161 203 243 296 370
#     4  10  20  39  66  93 126 161 196 242 299 364
#     4  12  25  42  62  86 122 162 207 259 310 363
#
# _framework density 22.069243
#
# number of rings (size 3 to 8) (size 9 to 14) (size 15 to 20)
#    0.000    1.600    0.000    4.800    0.000    5.600 
#    0.000   16.000    0.000    0.000    0.000    0.000 
#    0.000    0.000    0.000    0.000    0.000    0.000 
#
# Total GULP energy -495861.538910 kJ/mol
# GULP energy per Si atom -12396.538473 kJ/mol
# Density = 2.201901 g / cm^3
# Si number density = 22.069243 Si / 1000 Ang^3
#
#
#
# Elastic Constant Matrix: (Units=GPa)
#
#
# Indices 1 2 3 4 5 6 
#
# 1 118.9306 25.6448 27.5228 0.0000 0.0000 0.0000
# 2 25.6448 122.1800 18.9939 0.0000 0.0000 0.0000
# 3 27.5228 18.9939 67.3011 0.0000 0.0000 0.0000
# 4 0.0000 0.0000 0.0000 14.9126 0.0000 0.0000
# 5 0.0000 0.0000 0.0000 0.0000 25.6630 0.0000
# 6 0.0000 0.0000 0.0000 0.0000 0.0000 36.6304
#
#
#
# Elastic Compliance Matrix: (Units=1/GPa)
#
#
# Indices 1 2 3 4 5 6 
#
# 1 0.009529 -0.001458 -0.003485 0.000000 0.000000 0.000000
# 2 -0.001458 0.008783 -0.001882 0.000000 0.000000 0.000000
# 3 -0.003485 -0.001882 0.016815 0.000000 0.000000 0.000000
# 4 0.000000 0.000000 0.000000 0.067057 0.000000 0.000000
# 5 0.000000 0.000000 0.000000 0.000000 0.038967 0.000000
# 6 0.000000 0.000000 0.000000 0.000000 0.000000 0.027300
#
#
# Mechanical properties :
#
#
# Convention : Reuss Voigt Hill
#
# Bulk Modulus (GPa) = 46.56479 50.30386 48.43433
# Shear Modulus (GPa) = 26.41833 31.19122 28.80478
#
# Velocity S-wave (km/s) = 3.46362 3.76351 3.61667
# Velocity P-wave (km/s) = 6.09432 6.45976 6.27970
#
# Compressibility (1/GPa) = 0.02147545
#
# Stress axis : x y z
#
# Youngs Moduli (GPa) = 104.93934 113.85132 59.46985
#
# Poissons Ratio (x) = 0.16603 0.20728
# Poissons Ratio (y) = 0.15303 0.11195
# Poissons Ratio (z) = 0.36576 0.21432
#
# Static dielectric constant tensor:
#      x y z
#    x 4.006930 0.000000 0.000000 
#    y 0.000000 4.039820 0.000000 
#    z 0.000000 0.000000 3.734970 
# 
# 
# High freq. dielectric constant tensor:
#      x y z
#    x 1.876810 0.000000 0.000000 
#    y 0.000000 1.884860 0.000000 
#    z 0.000000 0.000000 1.843690 
# 
# From -- ./inp_files/33459.got.cif
#   From: 2010.06.25/outbox.cif.g09.slc.cpg/sg58_17_cif.got.tgz:33459.got - 2010.06.26 21:38:00.
