data_PCOD8237357
_publ_section_title
;
Structure prediction by ZEFSAII (Michael W. Deem and Ramdas Pophale) SiO2 
 PCOD8237357
Probable space group: P N N M
;
_chemical_formula_sum "Si O2"
_cell_formula_units_Z 56
_cell_length_a 16.269118
_cell_length_b 19.734542
_cell_length_c 8.551655
_cell_angle_alpha 90.000000
_cell_angle_beta 90.000000
_cell_angle_gamma 90.000000
_cell_volume 2745.625076
_symmetry_space_group_name_H-M "P N N M"
_symmetry_group_IT_number 58
_symmetry_cell_setting 'orthorhombic'
loop_
_space_group_symop_operation_xyz
x,y,z
-x,-y,z
1/2+x,1/2-y,1/2-z
1/2-x,1/2+y,1/2-z
-x,-y,-z
x,y,-z
1/2-x,1/2+y,1/2+z
1/2+x,1/2-y,1/2+z
loop_
_atom_site_type_symbol
_atom_site_label
_atom_site_fract_x
_atom_site_fract_y
_atom_site_fract_z
Si Si1 0.569705 0.948167 0.817463
Si Si2 0.820465 0.096992 0.815566
Si Si3 0.507379 0.179002 0.683811
Si Si4 0.258511 0.031644 0.318804
Si Si5 0.163613 0.153915 0.182543
Si Si6 0.177240 0.299296 0.317732
Si Si7 0.520341 0.671488 0.683947
O O1 0.559227 0.877851 0.724839
O O2 0.658149 0.979289 0.778637
O O3 0.500000 0.000000 0.760235
O O4 0.561910 0.933463 0.000000
O O5 0.750437 0.150655 0.772300
O O6 0.906632 0.125550 0.746772
O O7 0.805288 0.026346 0.729446
O O8 0.824039 0.083121 0.000000
O O9 0.525363 0.181184 0.500000
O O10 0.592621 0.163089 0.772532
O O11 0.472360 0.251102 0.744274
O O12 0.280139 0.026865 0.500000
O O13 0.219560 0.104455 0.283491
O O14 0.188654 0.230895 0.218979
O O15 0.068437 0.141267 0.230124
O O16 0.178060 0.139593 0.000000
O O17 0.178062 0.281093 0.500000
O O18 0.531546 0.672693 0.500000
#
# Coordination Sequence:
#
# PCOD8237357 Si02
#       7
#     8   8   8   8   8   8   8
#     4  11  24  41  61  87 121 159 201 249 304 363
#     4  10  21  39  61  85 117 157 201 245 301 363
#     4  10  20  36  60  88 120 157 200 246 298 360
#     4  12  26  41  59  87 122 159 202 249 305 366
#     4  10  21  40  63  87 119 158 204 252 305 365
#     4  10  20  35  60  90 123 159 198 249 304 359
#     4   8  18  37  61  87 114 153 198 244 296 356
#
# _framework density 20.396083000000001
#
# number of rings (size 3 to 8) (size 9 to 14) (size 15 to 20)
#    0.000    1.857    0.000    4.714    2.000    6.286 
#    0.000    7.143    0.000    0.000    0.000    0.000 
#    0.000    0.000    0.000    0.000    0.000    0.000 
#
# Total GULP energy -694648.583330 kJ/mol
# GULP energy per Si atom -12404.438988 kJ/mol
# Density = 2.034966 g / cm^3
# Si number density = 20.396083 Si / 1000 Ang^3
#
#
#
# Elastic Constant Matrix: (Units=GPa)
#
#
# Indices 1 2 3 4 5 6 
#
# 1 75.6602 31.2417 17.2752 0.0000 0.0000 0.0000
# 2 31.2417 79.5431 23.6964 0.0000 0.0000 0.0000
# 3 17.2752 23.6964 44.1055 0.0000 0.0000 0.0000
# 4 0.0000 0.0000 0.0000 33.7114 0.0000 0.0000
# 5 0.0000 0.0000 0.0000 0.0000 25.8332 0.0000
# 6 0.0000 0.0000 0.0000 0.0000 0.0000 36.1615
#
#
#
# Elastic Compliance Matrix: (Units=1/GPa)
#
#
# Indices 1 2 3 4 5 6 
#
# 1 0.016214 -0.005329 -0.003487 0.000000 0.000000 0.000000
# 2 -0.005329 0.016719 -0.006895 0.000000 0.000000 0.000000
# 3 -0.003487 -0.006895 0.027743 0.000000 0.000000 0.000000
# 4 0.000000 0.000000 0.000000 0.029664 0.000000 0.000000
# 5 0.000000 0.000000 0.000000 0.000000 0.038710 0.000000
# 6 0.000000 0.000000 0.000000 0.000000 0.000000 0.027654
#
#
# Mechanical properties :
#
#
# Convention : Reuss Voigt Hill
#
# Bulk Modulus (GPa) = 34.18509 38.19283 36.18896
# Shear Modulus (GPa) = 25.26808 27.61426 26.44117
#
# Velocity S-wave (km/s) = 3.52358 3.68353 3.60444
# Velocity P-wave (km/s) = 5.77504 6.07103 5.92489
#
# Compressibility (1/GPa) = 0.02925252
#
# Stress axis : x y z
#
# Youngs Moduli (GPa) = 61.67572 59.81183 36.04462
#
# Poissons Ratio (x) = 0.31876 0.12570
# Poissons Ratio (y) = 0.32869 0.24854
# Poissons Ratio (z) = 0.21509 0.41242
#
# Static dielectric constant tensor:
#      x y z
#    x 3.886960 0.000000 0.000000 
#    y 0.000000 3.715220 0.000000 
#    z 0.000000 0.000000 3.512210 
# 
# 
# High freq. dielectric constant tensor:
#      x y z
#    x 1.802150 0.000000 0.000000 
#    y 0.000000 1.801650 0.000000 
#    z 0.000000 0.000000 1.785830 
# 
# From -- ./inp_files/6435.got.cif
#   From: 2010.06.25/outbox.cif.g09.slc.cpg/sg58_4_cif.got.tgz:6435.got - 2010.06.26 21:38:00.
