data_PCOD8237698
_publ_section_title
;
Structure prediction by ZEFSAII (Michael W. Deem and Ramdas Pophale) SiO2 
 PCOD8237698
Probable space group: P N N M
;
_chemical_formula_sum "Si O2"
_cell_formula_units_Z 40
_cell_length_a 16.701608
_cell_length_b 7.861723
_cell_length_c 13.202420
_cell_angle_alpha 90.000000
_cell_angle_beta 90.000000
_cell_angle_gamma 90.000000
_cell_volume 1733.522842
_symmetry_space_group_name_H-M "P N N M"
_symmetry_group_IT_number 58
_symmetry_cell_setting 'orthorhombic'
loop_
_space_group_symop_operation_xyz
x,y,z
-x,-y,z
1/2+x,1/2-y,1/2-z
1/2-x,1/2+y,1/2-z
-x,-y,-z
x,y,-z
1/2-x,1/2+y,1/2+z
1/2+x,1/2-y,1/2+z
loop_
_atom_site_type_symbol
_atom_site_label
_atom_site_fract_x
_atom_site_fract_y
_atom_site_fract_z
Si Si1 0.934473 0.644268 0.612498
Si Si2 0.985647 0.806018 0.192481
Si Si3 0.763776 0.515174 0.620619
Si Si4 0.321354 0.812478 0.384172
Si Si5 0.348564 0.181514 0.621221
O O1 0.921230 0.723487 0.500000
O O2 0.962291 0.791443 0.688781
O O3 0.853144 0.560868 0.656184
O O4 0.000000 0.500000 0.606872
O O5 0.914139 0.738337 0.123203
O O6 0.063579 0.694136 0.169584
O O7 0.000000 0.000000 0.163324
O O8 0.759556 0.507525 0.500000
O O9 0.735615 0.332225 0.666825
O O10 0.704773 0.662359 0.660598
O O11 0.296484 0.821979 0.500000
O O12 0.308635 0.003274 0.338916
O O13 0.356732 0.179800 0.500000
#
# Coordination Sequence:
#
# PCOD8237698 Si02
#       5
#     8   8   8   8   8
#     4  10  23  46  67  85 122 173 223 271 309 361
#     4  12  23  39  61  96 131 170 211 257 321 386
#     4   9  19  40  65  92 124 163 212 263 315 369
#     4  10  20  37  64  98 132 166 203 254 323 389
#     4  10  20  37  66 100 135 165 200 259 324 388
#
# _framework density 23.074401000000002
#
# number of rings (size 3 to 8) (size 9 to 14) (size 15 to 20)
#    0.000    1.800    2.000    2.400    0.000    2.800 
#   10.800    0.000    0.000    0.000    0.000    0.000 
#    0.000    0.000    0.000    0.000    0.000    0.000 
#
# Total GULP energy -495984.627778 kJ/mol
# GULP energy per Si atom -12399.615694 kJ/mol
# Density = 2.302188 g / cm^3
# Si number density = 23.074401 Si / 1000 Ang^3
#
#
#
# Elastic Constant Matrix: (Units=GPa)
#
#
# Indices 1 2 3 4 5 6 
#
# 1 126.6039 41.1988 4.0306 0.0000 0.0000 0.0000
# 2 41.1988 164.7421 19.6246 0.0000 0.0000 0.0000
# 3 4.0306 19.6246 47.9604 0.0000 0.0000 0.0000
# 4 0.0000 0.0000 0.0000 14.0272 0.0000 0.0000
# 5 0.0000 0.0000 0.0000 0.0000 -0.4591 0.0000
# 6 0.0000 0.0000 0.0000 0.0000 0.0000 37.0806
#
#
#
# Elastic Compliance Matrix: (Units=1/GPa)
#
#
# Indices 1 2 3 4 5 6 
#
# 1 0.008600 -0.002170 0.000165 0.000000 0.000000 0.000000
# 2 -0.002170 0.006929 -0.002653 0.000000 0.000000 0.000000
# 3 0.000165 -0.002653 0.021922 0.000000 0.000000 0.000000
# 4 0.000000 0.000000 0.000000 0.071290 0.000000 0.000000
# 5 0.000000 0.000000 0.000000 0.000000 -2.178024 0.000000
# 6 0.000000 0.000000 0.000000 0.000000 0.000000 0.026968
#
#
# Mechanical properties :
#
#
# Convention : Reuss Voigt Hill
#
# Bulk Modulus (GPa) = 35.54279 52.11271 43.82775
# Shear Modulus (GPa) = -2.47082 28.42656 12.97787
#
# Velocity S-wave (km/s) = -1.03592 3.51373 2.37415
# Velocity P-wave (km/s) = 3.74248 6.25263 5.15274
#
# Compressibility (1/GPa) = 0.02813510
#
# Stress axis : x y z
#
# Youngs Moduli (GPa) = 116.28398 144.32404 45.61606
#
# Poissons Ratio (x) = 0.31323 -0.00754
# Poissons Ratio (y) = 0.25237 0.12101
# Poissons Ratio (z) = -0.01923 0.38286
#
# Static dielectric constant tensor:
#      x y z
#    x 4.155620 0.000000 0.000000 
#    y 0.000000 4.378850 0.000000 
#    z 0.000000 0.000000 4.220250 
# 
# 
# High freq. dielectric constant tensor:
#      x y z
#    x 1.910200 0.000000 0.000000 
#    y 0.000000 1.911160 0.000000 
#    z 0.000000 0.000000 1.919300 
# 
# From -- ./inp_files/21895.got.cif
#   From: 2010.06.25/outbox.cif.g09.slc.cpg/sg58_11_cif.got.tgz:21895.got - 2010.06.26 21:38:00.
