data_PCOD8237127
_publ_section_title
;
Structure prediction by ZEFSAII (Michael W. Deem and Ramdas Pophale) SiO2 
 PCOD8237127
Probable space group: P N N M
;
_chemical_formula_sum "Si O2"
_cell_formula_units_Z 64
_cell_length_a 24.512138
_cell_length_b 15.089410
_cell_length_c 8.967105
_cell_angle_alpha 90.000000
_cell_angle_beta 90.000000
_cell_angle_gamma 90.000000
_cell_volume 3316.696307
_symmetry_space_group_name_H-M "P N N M"
_symmetry_group_IT_number 58
_symmetry_cell_setting 'orthorhombic'
loop_
_space_group_symop_operation_xyz
x,y,z
-x,-y,z
1/2+x,1/2-y,1/2-z
1/2-x,1/2+y,1/2-z
-x,-y,-z
x,y,-z
1/2-x,1/2+y,1/2+z
1/2+x,1/2-y,1/2+z
loop_
_atom_site_type_symbol
_atom_site_label
_atom_site_fract_x
_atom_site_fract_y
_atom_site_fract_z
Si Si1 0.438624 0.333206 0.172326
Si Si2 0.777648 0.949948 0.828943
Si Si3 0.897280 0.993882 0.170985
Si Si4 0.860879 0.678602 0.828684
Si Si5 0.233679 0.231904 0.672887
Si Si6 0.172850 0.510257 0.170810
Si Si7 0.857481 0.295409 0.171477
Si Si8 0.563899 0.316025 0.173247
O O1 0.428304 0.424406 0.256845
O O2 0.400355 0.253996 0.225764
O O3 0.500120 0.302995 0.203135
O O4 0.427473 0.351389 0.000000
O O5 0.832189 0.008921 0.813749
O O6 0.725781 0.006376 0.774082
O O7 0.784782 0.865066 0.724328
O O8 0.768908 0.920206 0.000000
O O9 0.914315 0.902826 0.246599
O O10 0.915219 0.988779 0.000000
O O11 0.800012 0.698178 0.769864
O O12 0.868488 0.572345 0.811439
O O13 0.906704 0.728428 0.734682
O O14 0.865676 0.708727 0.000000
O O15 0.218607 0.243046 0.500000
O O16 0.297847 0.246166 0.700359
O O17 0.142131 0.600773 0.216988
O O18 0.193192 0.519799 0.000000
O O19 0.874713 0.282487 0.000000
O O20 0.577381 0.325650 0.000000
#
# Coordination Sequence:
#
# PCOD8237127 Si02
#       8
#     8   8   8   8   8   8   8   8
#     4  11  25  41  60  86 116 156 203 248 298 354
#     4  10  20  34  55  86 120 153 194 235 284 349
#     4  11  23  38  59  89 120 155 198 242 292 354
#     4  11  22  37  60  90 119 153 199 244 293 352
#     4  10  20  35  57  84 119 157 191 235 292 349
#     4   9  21  39  59  86 121 157 195 242 296 352
#     4   9  20  40  61  84 117 156 198 244 296 349
#     4  11  24  42  61  85 119 157 199 246 298 353
#
# _framework density 19.296309999999998
#
# number of rings (size 3 to 8) (size 9 to 14) (size 15 to 20)
#    0.000    1.750    1.250    3.375    1.750    8.500 
#    0.000    0.625    0.000    3.750    0.000    0.000 
#    0.000    0.000    0.000    0.000    0.000    0.000 
#
# Total GULP energy -793754.065103 kJ/mol
# GULP energy per Si atom -12402.407267 kJ/mol
# Density = 1.925239 g / cm^3
# Si number density = 19.296310 Si / 1000 Ang^3
#
#
#
# Elastic Constant Matrix: (Units=GPa)
#
#
# Indices 1 2 3 4 5 6 
#
# 1 101.7964 46.3102 62.0271 0.0000 0.0000 0.0000
# 2 46.3102 58.3967 26.9467 0.0000 0.0000 0.0000
# 3 62.0271 26.9467 104.3292 0.0000 0.0000 0.0000
# 4 0.0000 0.0000 0.0000 29.8737 0.0000 0.0000
# 5 0.0000 0.0000 0.0000 0.0000 32.9504 0.0000
# 6 0.0000 0.0000 0.0000 0.0000 0.0000 25.7820
#
#
#
# Elastic Compliance Matrix: (Units=1/GPa)
#
#
# Indices 1 2 3 4 5 6 
#
# 1 0.021239 -0.012507 -0.009397 0.000000 0.000000 0.000000
# 2 -0.012507 0.026806 0.000512 0.000000 0.000000 0.000000
# 3 -0.009397 0.000512 0.015040 0.000000 0.000000 0.000000
# 4 0.000000 0.000000 0.000000 0.033474 0.000000 0.000000
# 5 0.000000 0.000000 0.000000 0.000000 0.030349 0.000000
# 6 0.000000 0.000000 0.000000 0.000000 0.000000 0.038787
#
#
# Mechanical properties :
#
#
# Convention : Reuss Voigt Hill
#
# Bulk Modulus (GPa) = 49.25785 59.45448 54.35616
# Shear Modulus (GPa) = 23.22925 26.33710 24.78317
#
# Velocity S-wave (km/s) = 3.47337 3.69843 3.58767
# Velocity P-wave (km/s) = 6.45509 7.00829 6.73737
#
# Compressibility (1/GPa) = 0.02030133
#
# Stress axis : x y z
#
# Youngs Moduli (GPa) = 47.08263 37.30454 66.49120
#
# Poissons Ratio (x) = 0.46657 0.62482
# Poissons Ratio (y) = 0.58887 -0.03406
# Poissons Ratio (z) = 0.44244 -0.01911
#
# Static dielectric constant tensor:
#      x y z
#    x 3.540960 0.000000 0.000000 
#    y 0.000000 3.513990 0.000000 
#    z 0.000000 0.000000 3.696320 
# 
# 
# High freq. dielectric constant tensor:
#      x y z
#    x 1.741200 0.000000 0.000000 
#    y 0.000000 1.749770 0.000000 
#    z 0.000000 0.000000 1.763890 
# 
# From -- ./inp_files/9986.got.cif
#   From: 2010.06.25/outbox.cif.g09.slc.cpg/sg58_5_cif.got.tgz:9986.got - 2010.06.26 21:38:00.
