data_PCOD8237670
_publ_section_title
;
Structure prediction by ZEFSAII (Michael W. Deem and Ramdas Pophale) SiO2 
 PCOD8237670
Probable space group: P N N M
;
_chemical_formula_sum "Si O2"
_cell_formula_units_Z 40
_cell_length_a 17.425073
_cell_length_b 8.909427
_cell_length_c 12.440767
_cell_angle_alpha 90.000000
_cell_angle_beta 90.000000
_cell_angle_gamma 90.000000
_cell_volume 1931.396928
_symmetry_space_group_name_H-M "P N N M"
_symmetry_group_IT_number 58
_symmetry_cell_setting 'orthorhombic'
loop_
_space_group_symop_operation_xyz
x,y,z
-x,-y,z
1/2+x,1/2-y,1/2-z
1/2-x,1/2+y,1/2-z
-x,-y,-z
x,y,-z
1/2-x,1/2+y,1/2+z
1/2+x,1/2-y,1/2+z
loop_
_atom_site_type_symbol
_atom_site_label
_atom_site_fract_x
_atom_site_fract_y
_atom_site_fract_z
Si Si1 0.464686 0.837461 0.618999
Si Si2 0.691903 0.874365 0.873509
Si Si3 0.105402 0.099467 0.379856
Si Si4 0.808354 0.674781 0.246079
Si Si5 0.549584 0.704355 0.807615
O O1 0.456612 0.767433 0.500000
O O2 0.381794 0.850729 0.672131
O O3 0.522581 0.732818 0.685786
O O4 0.500000 0.000000 0.612506
O O5 0.739443 0.731891 0.829214
O O6 0.602058 0.838865 0.853208
O O7 0.715673 0.023649 0.808497
O O8 0.707496 0.898093 0.000000
O O9 0.126471 0.048560 0.500000
O O10 0.174637 0.198708 0.335201
O O11 0.026005 0.194121 0.382342
O O12 0.095716 0.952091 0.306677
#
# Coordination Sequence:
#
# PCOD8237670 Si02
#       5
#     8   8   8   8   8
#     4  10  20  40  64  91 124 165 210 256 311 369
#     4  12  24  41  62  90 126 165 206 261 322 376
#     4  10  20  38  62  89 124 163 202 256 314 368
#     4  11  24  41  62  92 127 165 215 260 313 387
#     4  10  20  37  62  93 120 157 207 254 303 374
#
# _framework density 20.710398999999999
#
# number of rings (size 3 to 8) (size 9 to 14) (size 15 to 20)
#    0.000    1.400    2.000    4.800    0.000    0.000 
#    0.000   19.000    0.000    0.000    0.000    0.000 
#    0.000    0.000    0.000    0.000    0.000    0.000 
#
# Total GULP energy -496048.712822 kJ/mol
# GULP energy per Si atom -12401.217821 kJ/mol
# Density = 2.066326 g / cm^3
# Si number density = 20.710399 Si / 1000 Ang^3
#
#
#
# Elastic Constant Matrix: (Units=GPa)
#
#
# Indices 1 2 3 4 5 6 
#
# 1 70.6702 23.5162 43.4962 0.0000 0.0000 0.0000
# 2 23.5162 89.6630 59.7934 0.0000 0.0000 0.0000
# 3 43.4962 59.7934 174.9672 0.0000 0.0000 0.0000
# 4 0.0000 0.0000 0.0000 34.2412 0.0000 0.0000
# 5 0.0000 0.0000 0.0000 0.0000 -7.8247 0.0000
# 6 0.0000 0.0000 0.0000 0.0000 0.0000 39.7497
#
#
#
# Elastic Compliance Matrix: (Units=1/GPa)
#
#
# Indices 1 2 3 4 5 6 
#
# 1 0.017014 -0.002126 -0.003503 0.000000 0.000000 0.000000
# 2 -0.002126 0.014710 -0.004499 0.000000 0.000000 0.000000
# 3 -0.003503 -0.004499 0.008124 0.000000 0.000000 0.000000
# 4 0.000000 0.000000 0.000000 0.029205 0.000000 0.000000
# 5 0.000000 0.000000 0.000000 0.000000 -0.127801 0.000000
# 6 0.000000 0.000000 0.000000 0.000000 0.000000 0.025157
#
#
# Mechanical properties :
#
#
# Convention : Reuss Voigt Hill
#
# Bulk Modulus (GPa) = 51.04069 65.43468 58.23768
# Shear Modulus (GPa) = -734.77431 27.13290 -353.82070
#
# Velocity S-wave (km/s) = -18.85618 3.62347 -13.08484
# Velocity P-wave (km/s) = 21.19848 7.01211 14.14577
#
# Compressibility (1/GPa) = 0.01959221
#
# Stress axis : x y z
#
# Youngs Moduli (GPa) = 58.77594 67.97867 123.09932
#
# Poissons Ratio (x) = 0.14454 0.43121
# Poissons Ratio (y) = 0.12497 0.55377
# Poissons Ratio (z) = 0.20589 0.30581
#
# Static dielectric constant tensor:
#      x y z
#    x 3.731990 0.000000 0.000000 
#    y 0.000000 3.705910 0.000000 
#    z 0.000000 0.000000 3.933780 
# 
# 
# High freq. dielectric constant tensor:
#      x y z
#    x 1.806750 0.000000 0.000000 
#    y 0.000000 1.810970 0.000000 
#    z 0.000000 0.000000 1.810890 
# 
# From -- ./inp_files/12677.got.cif
#   From: 2010.06.25/outbox.cif.g09.slc.cpg/sg58_7_cif.got.tgz:12677.got - 2010.06.26 21:38:00.
