data_PCOD8237051
_publ_section_title
;
Structure prediction by ZEFSAII (Michael W. Deem and Ramdas Pophale) SiO2 
 PCOD8237051
Probable space group: P N N M
;
_chemical_formula_sum "Si O2"
_cell_formula_units_Z 64
_cell_length_a 20.230376
_cell_length_b 18.670179
_cell_length_c 8.988128
_cell_angle_alpha 90.000000
_cell_angle_beta 90.000000
_cell_angle_gamma 90.000000
_cell_volume 3394.858560
_symmetry_space_group_name_H-M "P N N M"
_symmetry_group_IT_number 58
_symmetry_cell_setting 'orthorhombic'
loop_
_space_group_symop_operation_xyz
x,y,z
-x,-y,z
1/2+x,1/2-y,1/2-z
1/2-x,1/2+y,1/2-z
-x,-y,-z
x,y,-z
1/2-x,1/2+y,1/2+z
1/2+x,1/2-y,1/2+z
loop_
_atom_site_type_symbol
_atom_site_label
_atom_site_fract_x
_atom_site_fract_y
_atom_site_fract_z
Si Si1 0.059051 0.053807 0.173199
Si Si2 0.328213 0.304146 0.824815
Si Si3 0.678073 0.205099 0.675977
Si Si4 0.443796 0.204674 0.176892
Si Si5 0.675956 0.057459 0.826333
Si Si6 0.061065 0.545089 0.323394
Si Si7 0.568943 0.296013 0.176350
Si Si8 0.173874 0.949516 0.171961
O O1 0.051979 0.124200 0.271923
O O2 0.128776 0.016965 0.215174
O O3 0.056449 0.075136 0.000000
O O4 0.000000 0.000000 0.214222
O O5 0.254230 0.282404 0.776244
O O6 0.378977 0.245320 0.761988
O O7 0.350112 0.380462 0.761133
O O8 0.333396 0.310789 0.000000
O O9 0.668660 0.207094 0.500000
O O10 0.654757 0.128191 0.736908
O O11 0.636369 0.268839 0.748781
O O12 0.442059 0.124786 0.244597
O O13 0.509837 0.244523 0.230823
O O14 0.441809 0.202367 0.000000
O O15 0.750202 0.032166 0.789087
O O16 0.629138 0.992675 0.774937
O O17 0.666548 0.075304 0.000000
O O18 0.055787 0.549548 0.500000
O O19 0.000000 0.500000 0.258011
O O20 0.577252 0.294885 0.000000
O O21 0.165082 0.930434 0.000000
#
# Coordination Sequence:
#
# PCOD8237051 Si02
#       8
#     8   8   8   8   8   8   8   8
#     4  10  21  36  53  75 105 139 173 212 263 318
#     4   9  18  33  54  77 101 133 172 213 255 302
#     4  10  20  34  53  76 105 138 168 206 260 315
#     4   9  18  32  51  76 101 128 170 218 258 298
#     4   9  17  31  53  77  99 128 168 209 249 299
#     4   9  16  27  47  73  97 122 156 202 250 292
#     4  11  22  35  54  78 104 136 176 220 259 304
#     4   9  18  32  51  75 102 132 165 203 250 306
#
# _framework density 18.852035999999998
#
# number of rings (size 3 to 8) (size 9 to 14) (size 15 to 20)
#    0.000    2.500    0.000    2.250    0.000    4.250 
#    0.000    4.375    0.000    4.875    0.000    0.000 
#    0.000    0.000    0.000    0.000    0.000    0.000 
#
# Total GULP energy -793691.214470 kJ/mol
# GULP energy per Si atom -12401.425226 kJ/mol
# Density = 1.880913 g / cm^3
# Si number density = 18.852036 Si / 1000 Ang^3
#
#
#
# Elastic Constant Matrix: (Units=GPa)
#
#
# Indices 1 2 3 4 5 6 
#
# 1 110.6556 70.5207 26.8067 0.0000 0.0000 0.0000
# 2 70.5207 138.4591 31.7400 0.0000 0.0000 0.0000
# 3 26.8067 31.7400 38.7764 0.0000 0.0000 0.0000
# 4 0.0000 0.0000 0.0000 29.6474 0.0000 0.0000
# 5 0.0000 0.0000 0.0000 0.0000 20.3611 0.0000
# 6 0.0000 0.0000 0.0000 0.0000 0.0000 39.0751
#
#
#
# Elastic Compliance Matrix: (Units=1/GPa)
#
#
# Indices 1 2 3 4 5 6 
#
# 1 0.014056 -0.006071 -0.004748 0.000000 0.000000 0.000000
# 2 -0.006071 0.011512 -0.005227 0.000000 0.000000 0.000000
# 3 -0.004748 -0.005227 0.033350 0.000000 0.000000 0.000000
# 4 0.000000 0.000000 0.000000 0.033730 0.000000 0.000000
# 5 0.000000 0.000000 0.000000 0.000000 0.049113 0.000000
# 6 0.000000 0.000000 0.000000 0.000000 0.000000 0.025592
#
#
# Mechanical properties :
#
#
# Convention : Reuss Voigt Hill
#
# Bulk Modulus (GPa) = 37.27552 60.66952 48.97252
# Shear Modulus (GPa) = 23.99390 28.40496 26.19943
#
# Velocity S-wave (km/s) = 3.57143 3.88588 3.73197
# Velocity P-wave (km/s) = 6.06815 7.23776 6.67861
#
# Compressibility (1/GPa) = 0.02682726
#
# Stress axis : x y z
#
# Youngs Moduli (GPa) = 71.14328 86.86248 29.98541
#
# Poissons Ratio (x) = 0.52732 0.14237
# Poissons Ratio (y) = 0.43189 0.15672
# Poissons Ratio (z) = 0.33780 0.45400
#
# Static dielectric constant tensor:
#      x y z
#    x 3.723680 0.000000 0.000000 
#    y 0.000000 3.548850 0.000000 
#    z 0.000000 0.000000 3.165020 
# 
# 
# High freq. dielectric constant tensor:
#      x y z
#    x 1.747240 0.000000 0.000000 
#    y 0.000000 1.733780 0.000000 
#    z 0.000000 0.000000 1.701350 
# 
# From -- ./inp_files/9287.got.cif
#   From: 2010.06.25/outbox.cif.g09.slc.cpg/sg58_5_cif.got.tgz:9287.got - 2010.06.26 21:38:00.
