data_PCOD8237658
_publ_section_title
;
Structure prediction by ZEFSAII (Michael W. Deem and Ramdas Pophale) SiO2 
 PCOD8237658
Probable space group: P N N M
;
_chemical_formula_sum "Si O2"
_cell_formula_units_Z 40
_cell_length_a 12.512443
_cell_length_b 17.333707
_cell_length_c 8.761034
_cell_angle_alpha 90.000000
_cell_angle_beta 90.000000
_cell_angle_gamma 90.000000
_cell_volume 1900.154564
_symmetry_space_group_name_H-M "P N N M"
_symmetry_group_IT_number 58
_symmetry_cell_setting 'orthorhombic'
loop_
_space_group_symop_operation_xyz
x,y,z
-x,-y,z
1/2+x,1/2-y,1/2-z
1/2-x,1/2+y,1/2-z
-x,-y,-z
x,y,-z
1/2-x,1/2+y,1/2+z
1/2+x,1/2-y,1/2+z
loop_
_atom_site_type_symbol
_atom_site_label
_atom_site_fract_x
_atom_site_fract_y
_atom_site_fract_z
Si Si1 0.110824 0.069839 0.829723
Si Si2 0.698811 0.825901 0.826838
Si Si3 0.011309 0.411009 0.318732
Si Si4 0.909636 0.090548 0.676148
Si Si5 0.274190 0.821044 0.179168
O O1 0.231966 0.096917 0.825998
O O2 0.030389 0.117428 0.718361
O O3 0.117752 0.981972 0.779580
O O4 0.063839 0.076345 0.000000
O O5 0.584218 0.854517 0.759901
O O6 0.770423 0.769502 0.719974
O O7 0.686409 0.792958 0.000000
O O8 0.005054 0.414392 0.500000
O O9 0.000000 0.500000 0.255727
O O10 0.121077 0.368704 0.265478
O O11 0.901809 0.068846 0.500000
O O12 0.827399 0.156024 0.719963
O O13 0.257085 0.833960 0.000000
#
# Coordination Sequence:
#
# PCOD8237658 Si02
#       5
#     8   8   8   8   8
#     4  10  20  37  62  89 119 154 198 247 303 364
#     4  10  22  39  61  90 123 156 196 252 309 368
#     4   9  19  39  65  89 116 158 208 252 301 365
#     4  11  22  37  59  86 120 158 201 247 300 359
#     4  11  23  38  60  89 121 159 204 250 305 367
#
# _framework density 21.050920999999999
#
# number of rings (size 3 to 8) (size 9 to 14) (size 15 to 20)
#    0.000    1.800    0.000    5.400    2.800    4.800 
#    0.000    1.000    0.000    4.200    0.000    0.000 
#    0.000    0.000    0.000    0.000    0.000    0.000 
#
# Total GULP energy -495616.192628 kJ/mol
# GULP energy per Si atom -12390.404816 kJ/mol
# Density = 2.100301 g / cm^3
# Si number density = 21.050921 Si / 1000 Ang^3
#
#
#
# Elastic Constant Matrix: (Units=GPa)
#
#
# Indices 1 2 3 4 5 6 
#
# 1 83.6671 28.6017 34.0935 0.0000 0.0000 0.0000
# 2 28.6017 77.3520 20.0876 0.0000 0.0000 0.0000
# 3 34.0935 20.0876 59.6124 0.0000 0.0000 0.0000
# 4 0.0000 0.0000 0.0000 28.2528 0.0000 0.0000
# 5 0.0000 0.0000 0.0000 0.0000 19.4684 0.0000
# 6 0.0000 0.0000 0.0000 0.0000 0.0000 43.6361
#
#
#
# Elastic Compliance Matrix: (Units=1/GPa)
#
#
# Indices 1 2 3 4 5 6 
#
# 1 0.016661 -0.004040 -0.008168 0.000000 0.000000 0.000000
# 2 -0.004040 0.015147 -0.002794 0.000000 0.000000 0.000000
# 3 -0.008168 -0.002794 0.022388 0.000000 0.000000 0.000000
# 4 0.000000 0.000000 0.000000 0.035395 0.000000 0.000000
# 5 0.000000 0.000000 0.000000 0.000000 0.051365 0.000000
# 6 0.000000 0.000000 0.000000 0.000000 0.000000 0.022917
#
#
# Mechanical properties :
#
#
# Convention : Reuss Voigt Hill
#
# Bulk Modulus (GPa) = 41.33268 42.91081 42.12174
# Shear Modulus (GPa) = 24.75983 27.46137 26.11060
#
# Velocity S-wave (km/s) = 3.43328 3.61573 3.52569
# Velocity P-wave (km/s) = 5.94927 6.15304 6.05201
#
# Compressibility (1/GPa) = 0.02419393
#
# Stress axis : x y z
#
# Youngs Moduli (GPa) = 60.01918 66.01913 44.66731
#
# Poissons Ratio (x) = 0.26669 0.36483
# Poissons Ratio (y) = 0.24245 0.12479
# Poissons Ratio (z) = 0.49022 0.18444
#
# Static dielectric constant tensor:
#      x y z
#    x 4.270910 0.000000 0.000000 
#    y 0.000000 3.776730 0.000000 
#    z 0.000000 0.000000 3.538090 
# 
# 
# High freq. dielectric constant tensor:
#      x y z
#    x 1.838820 0.000000 0.000000 
#    y 0.000000 1.823460 0.000000 
#    z 0.000000 0.000000 1.800810 
# 
# From -- ./inp_files/3816.got.cif
#   From: 2010.06.25/outbox.cif.g09.slc.cpg/sg58_2_cif.got.tgz:3816.got - 2010.06.26 21:38:00.
