data_PCOD8237366
_publ_section_title
;
Structure prediction by ZEFSAII (Michael W. Deem and Ramdas Pophale) SiO2 
 PCOD8237366
Probable space group: P N N M
;
_chemical_formula_sum "Si O2"
_cell_formula_units_Z 64
_cell_length_a 18.352597
_cell_length_b 7.616847
_cell_length_c 22.356285
_cell_angle_alpha 90.000000
_cell_angle_beta 90.000000
_cell_angle_gamma 90.000000
_cell_volume 3125.161011
_symmetry_space_group_name_H-M "P N N M"
_symmetry_group_IT_number 58
_symmetry_cell_setting 'orthorhombic'
loop_
_space_group_symop_operation_xyz
x,y,z
-x,-y,z
1/2+x,1/2-y,1/2-z
1/2-x,1/2+y,1/2-z
-x,-y,-z
x,y,-z
1/2-x,1/2+y,1/2+z
1/2+x,1/2-y,1/2+z
loop_
_atom_site_type_symbol
_atom_site_label
_atom_site_fract_x
_atom_site_fract_y
_atom_site_fract_z
Si Si1 0.937120 0.724920 0.653898
Si Si2 0.238428 0.540874 0.681814
Si Si3 0.902211 0.334904 0.365600
Si Si4 0.403576 0.856607 0.609771
Si Si5 0.825562 0.984253 0.930852
Si Si6 0.845785 0.701610 0.765845
Si Si7 0.585929 0.510383 0.935909
Si Si8 0.558046 0.777413 0.568207
O O1 0.917313 0.540609 0.621079
O O2 0.911972 0.740403 0.721791
O O3 0.024015 0.750504 0.661382
O O4 0.893843 0.872252 0.615932
O O5 0.168456 0.672854 0.677776
O O6 0.257858 0.474374 0.614181
O O7 0.218127 0.390024 0.728288
O O8 0.311476 0.622346 0.708086
O O9 0.885984 0.209166 0.422258
O O10 0.350556 0.716748 0.578212
O O11 0.378526 0.902667 0.677571
O O12 0.486218 0.781298 0.609744
O O13 0.398055 0.039697 0.574226
O O14 0.891193 0.115158 0.913270
O O15 0.801316 0.012910 0.000000
O O16 0.500000 0.500000 0.943081
O O17 0.621463 0.458798 0.000000
O O18 0.531565 0.755314 0.500000
#
# Coordination Sequence:
#
# PCOD8237366 Si02
#       8
#     8   8   8   8   8   8   8   8
#     4   9  19  38  57  83 115 148 194 245 290 349
#     4  10  23  39  59  84 118 165 194 248 299 358
#     4   9  19  36  57  81 111 149 192 238 294 337
#     4  10  20  36  58  90 117 155 196 247 297 352
#     4  10  21  39  58  84 122 159 199 244 298 363
#     4  10  23  39  57  83 119 155 200 241 295 367
#     4   9  18  33  56  85 112 143 188 243 297 344
#     4  10  20  35  62  93 122 154 195 248 302 356
#
# _framework density 20.478946000000001
#
# number of rings (size 3 to 8) (size 9 to 14) (size 15 to 20)
#    0.000    2.375    0.000    1.875    3.500    6.000 
#    0.000    6.875    0.000    4.500    0.000    0.000 
#    0.000    0.000    0.000    0.000    0.000    0.000 
#
# Total GULP energy -792969.002588 kJ/mol
# GULP energy per Si atom -12390.140665 kJ/mol
# Density = 2.043233 g / cm^3
# Si number density = 20.478946 Si / 1000 Ang^3
#
#
#
# Elastic Constant Matrix: (Units=GPa)
#
#
# Indices 1 2 3 4 5 6 
#
# 1 63.1740 14.3976 34.3888 0.0000 0.0000 0.0000
# 2 14.3976 69.1387 34.7529 0.0000 0.0000 0.0000
# 3 34.3888 34.7529 119.7968 0.0000 0.0000 0.0000
# 4 0.0000 0.0000 0.0000 25.8908 0.0000 0.0000
# 5 0.0000 0.0000 0.0000 0.0000 11.2930 0.0000
# 6 0.0000 0.0000 0.0000 0.0000 0.0000 25.3996
#
#
#
# Elastic Compliance Matrix: (Units=1/GPa)
#
#
# Indices 1 2 3 4 5 6 
#
# 1 0.018878 -0.001413 -0.005009 0.000000 0.000000 0.000000
# 2 -0.001413 0.017039 -0.004537 0.000000 0.000000 0.000000
# 3 -0.005009 -0.004537 0.011102 0.000000 0.000000 0.000000
# 4 0.000000 0.000000 0.000000 0.038624 0.000000 0.000000
# 5 0.000000 0.000000 0.000000 0.000000 0.088551 0.000000
# 6 0.000000 0.000000 0.000000 0.000000 0.000000 0.039371
#
#
# Mechanical properties :
#
#
# Convention : Reuss Voigt Hill
#
# Bulk Modulus (GPa) = 39.84213 46.57645 43.20929
# Shear Modulus (GPa) = 20.50448 23.75470 22.12959
#
# Velocity S-wave (km/s) = 3.16768 3.40951 3.29082
# Velocity P-wave (km/s) = 5.73379 6.18810 5.96527
#
# Compressibility (1/GPa) = 0.02509906
#
# Stress axis : x y z
#
# Youngs Moduli (GPa) = 52.97136 58.69021 90.07698
#
# Poissons Ratio (x) = 0.08295 0.45121
# Poissons Ratio (y) = 0.07487 0.40869
# Poissons Ratio (z) = 0.26534 0.26629
#
# Static dielectric constant tensor:
#      x y z
#    x 3.701470 0.000000 0.000000 
#    y 0.000000 3.716630 0.000000 
#    z 0.000000 0.000000 3.875070 
# 
# 
# High freq. dielectric constant tensor:
#      x y z
#    x 1.790710 0.000000 0.000000 
#    y 0.000000 1.794270 0.000000 
#    z 0.000000 0.000000 1.796110 
# 
# From -- ./inp_files/30256.got.cif
#   From: 2010.06.25/outbox.cif.g09.slc.cpg/sg58_16_cif.got.tgz:30256.got - 2010.06.26 21:38:00.
