data_PCOD8237300
_publ_section_title
;
Structure prediction by ZEFSAII (Michael W. Deem and Ramdas Pophale) SiO2 
 PCOD8237300
Probable space group: P N N M
;
_chemical_formula_sum "Si O2"
_cell_formula_units_Z 64
_cell_length_a 24.077742
_cell_length_b 15.402248
_cell_length_c 8.795349
_cell_angle_alpha 90.000000
_cell_angle_beta 90.000000
_cell_angle_gamma 90.000000
_cell_volume 3261.767082
_symmetry_space_group_name_H-M "P N N M"
_symmetry_group_IT_number 58
_symmetry_cell_setting 'orthorhombic'
loop_
_space_group_symop_operation_xyz
x,y,z
-x,-y,z
1/2+x,1/2-y,1/2-z
1/2-x,1/2+y,1/2-z
-x,-y,-z
x,y,-z
1/2-x,1/2+y,1/2+z
1/2+x,1/2-y,1/2+z
loop_
_atom_site_type_symbol
_atom_site_label
_atom_site_fract_x
_atom_site_fract_y
_atom_site_fract_z
Si Si1 0.247692 0.352755 0.179102
Si Si2 0.370663 0.909173 0.323521
Si Si3 0.253639 0.152880 0.178246
Si Si4 0.135730 0.912424 0.322197
Si Si5 0.062915 0.755860 0.319484
Si Si6 0.061484 0.258975 0.319880
Si Si7 0.633701 0.893863 0.675566
Si Si8 0.859213 0.894779 0.322222
O O1 0.190986 0.393326 0.246753
O O2 0.250844 0.252832 0.226220
O O3 0.302316 0.399823 0.248047
O O4 0.246263 0.365918 0.000000
O O5 0.371196 0.882777 0.500000
O O6 0.414927 0.849815 0.238058
O O7 0.388702 0.008582 0.299570
O O8 0.303035 0.107851 0.269363
O O9 0.196791 0.107756 0.226203
O O10 0.264027 0.141282 0.000000
O O11 0.140043 0.892434 0.500000
O O12 0.093016 0.842029 0.252120
O O13 0.114029 0.010080 0.292187
O O14 0.061599 0.758748 0.500000
O O15 0.095574 0.670121 0.271441
O O16 0.000496 0.753188 0.254027
O O17 0.060679 0.260386 0.500000
O O18 0.098446 0.178091 0.261636
O O19 0.631129 0.866999 0.500000
O O20 0.845446 0.881937 0.500000
#
# Coordination Sequence:
#
# PCOD8237300 Si02
#       8
#     8   8   8   8   8   8   8   8
#     4   9  16  30  55  82 105 141 182 215 265 335
#     4  10  21  38  59  81 111 150 188 226 279 343
#     4  11  20  34  59  86 114 149 183 220 279 346
#     4   9  17  33  58  82 110 147 184 224 274 333
#     4  10  21  39  59  80 112 153 191 229 280 336
#     4  10  22  37  56  85 115 145 189 241 282 318
#     4  11  23  38  59  86 112 143 188 237 279 327
#     4  10  20  35  57  86 116 145 185 235 277 323
#
# _framework density 19.621265999999999
#
# number of rings (size 3 to 8) (size 9 to 14) (size 15 to 20)
#    0.000    2.000    2.500    1.500    0.000    4.500 
#    0.000    5.625    0.000    0.000    0.000    2.625 
#    0.000    0.000    0.000    0.000    0.000    0.000 
#
# Total GULP energy -793613.970509 kJ/mol
# GULP energy per Si atom -12400.218289 kJ/mol
# Density = 1.957661 g / cm^3
# Si number density = 19.621266 Si / 1000 Ang^3
#
#
#
# Elastic Constant Matrix: (Units=GPa)
#
#
# Indices 1 2 3 4 5 6 
#
# 1 135.7388 47.0411 8.5763 0.0000 0.0000 0.0000
# 2 47.0411 108.7657 13.9486 0.0000 0.0000 0.0000
# 3 8.5763 13.9486 11.1510 0.0000 0.0000 0.0000
# 4 0.0000 0.0000 0.0000 22.2548 0.0000 0.0000
# 5 0.0000 0.0000 0.0000 0.0000 25.0240 0.0000
# 6 0.0000 0.0000 0.0000 0.0000 0.0000 15.1114
#
#
#
# Elastic Compliance Matrix: (Units=1/GPa)
#
#
# Indices 1 2 3 4 5 6 
#
# 1 0.008718 -0.003467 -0.002369 0.000000 0.000000 0.000000
# 2 -0.003467 0.012329 -0.012756 0.000000 0.000000 0.000000
# 3 -0.002369 -0.012756 0.107457 0.000000 0.000000 0.000000
# 4 0.000000 0.000000 0.000000 0.044934 0.000000 0.000000
# 5 0.000000 0.000000 0.000000 0.000000 0.039962 0.000000
# 6 0.000000 0.000000 0.000000 0.000000 0.000000 0.066175
#
#
# Mechanical properties :
#
#
# Convention : Reuss Voigt Hill
#
# Bulk Modulus (GPa) = 10.95040 43.86528 27.40784
# Shear Modulus (GPa) = 14.40096 24.88402 19.64249
#
# Velocity S-wave (km/s) = 2.71208 3.56507 3.16742
# Velocity P-wave (km/s) = 3.92431 6.27302 5.23216
#
# Compressibility (1/GPa) = 0.09132088
#
# Stress axis : x y z
#
# Youngs Moduli (GPa) = 114.70258 81.10689 9.30606
#
# Poissons Ratio (x) = 0.28119 0.02204
# Poissons Ratio (y) = 0.39766 0.11871
# Poissons Ratio (z) = 0.27169 1.03463
#
# Static dielectric constant tensor:
#      x y z
#    x 3.781210 0.000000 0.000000 
#    y 0.000000 3.666670 0.000000 
#    z 0.000000 0.000000 3.222740 
# 
# 
# High freq. dielectric constant tensor:
#      x y z
#    x 1.765530 0.000000 0.000000 
#    y 0.000000 1.778270 0.000000 
#    z 0.000000 0.000000 1.728370 
# 
# From -- ./inp_files/6863.got.cif
#   From: 2010.06.25/outbox.cif.g09.slc.cpg/sg58_4_cif.got.tgz:6863.got - 2010.06.26 21:38:00.
