data_PCOD8237377
_publ_section_title
;
Structure prediction by ZEFSAII (Michael W. Deem and Ramdas Pophale) SiO2 
 PCOD8237377
Probable space group: P N N M
;
_chemical_formula_sum "Si O2"
_cell_formula_units_Z 56
_cell_length_a 18.906924
_cell_length_b 19.153907
_cell_length_c 8.888287
_cell_angle_alpha 90.000000
_cell_angle_beta 90.000000
_cell_angle_gamma 90.000000
_cell_volume 3218.817266
_symmetry_space_group_name_H-M "P N N M"
_symmetry_group_IT_number 58
_symmetry_cell_setting 'orthorhombic'
loop_
_space_group_symop_operation_xyz
x,y,z
-x,-y,z
1/2+x,1/2-y,1/2-z
1/2-x,1/2+y,1/2-z
-x,-y,-z
x,y,-z
1/2-x,1/2+y,1/2+z
1/2+x,1/2-y,1/2+z
loop_
_atom_site_type_symbol
_atom_site_label
_atom_site_fract_x
_atom_site_fract_y
_atom_site_fract_z
Si Si1 0.976260 0.287502 0.674915
Si Si2 0.761572 0.845105 0.174221
Si Si3 0.059886 0.554647 0.324762
Si Si4 0.257662 0.868388 0.324135
Si Si5 0.708166 0.975362 0.322819
Si Si6 0.379653 0.762698 0.672175
Si Si7 0.341128 0.263822 0.322430
O O1 0.963194 0.273798 0.500000
O O2 0.968224 0.368752 0.716072
O O3 0.921982 0.240400 0.769204
O O4 0.054445 0.262558 0.717109
O O5 0.762907 0.922107 0.245032
O O6 0.837811 0.809813 0.197118
O O7 0.700004 0.801575 0.253321
O O8 0.740803 0.849221 0.000000
O O9 0.078907 0.547539 0.500000
O O10 0.128743 0.538414 0.228774
O O11 0.000000 0.500000 0.276353
O O12 0.241029 0.859967 0.500000
O O13 0.328991 0.826849 0.283299
O O14 0.191826 0.836785 0.233096
O O15 0.267587 0.947782 0.273628
O O16 0.712212 0.965677 0.500000
O O17 0.405172 0.769941 0.500000
O O18 0.336641 0.259660 0.500000
#
# Coordination Sequence:
#
# PCOD8237377 Si02
#       7
#     8   8   8   8   8   8   8
#     4  11  21  33  52  77 109 144 175 220 271 314
#     4  10  20  36  55  76 107 143 179 224 272 317
#     4  10  21  34  49  74 111 150 180 212 262 323
#     4   9  20  37  54  77 110 142 176 222 273 317
#     4  11  21  33  54  81 107 142 181 221 267 321
#     4   9  19  35  54  75 104 141 179 220 265 318
#     4  11  21  34  55  79 103 138 185 225 263 321
#
# _framework density 17.397693
#
# number of rings (size 3 to 8) (size 9 to 14) (size 15 to 20)
#    0.000    1.857    1.429    4.286    0.000    4.857 
#    0.000    0.000    0.000    0.857    0.000    6.000 
#    0.000    0.000    0.000    0.000    0.000    0.000 
#
# Total GULP energy -694650.594922 kJ/mol
# GULP energy per Si atom -12404.474909 kJ/mol
# Density = 1.735810 g / cm^3
# Si number density = 17.397693 Si / 1000 Ang^3
#
#
#
# Elastic Constant Matrix: (Units=GPa)
#
#
# Indices 1 2 3 4 5 6 
#
# 1 96.1758 64.8839 50.1940 0.0000 0.0000 0.0000
# 2 64.8839 109.2705 49.0575 0.0000 0.0000 0.0000
# 3 50.1940 49.0575 89.1327 0.0000 0.0000 0.0000
# 4 0.0000 0.0000 0.0000 25.6938 0.0000 0.0000
# 5 0.0000 0.0000 0.0000 0.0000 32.9526 0.0000
# 6 0.0000 0.0000 0.0000 0.0000 0.0000 23.0789
#
#
#
# Elastic Compliance Matrix: (Units=1/GPa)
#
#
# Indices 1 2 3 4 5 6 
#
# 1 0.019594 -0.008873 -0.006150 0.000000 0.000000 0.000000
# 2 -0.008873 0.016174 -0.003905 0.000000 0.000000 0.000000
# 3 -0.006150 -0.003905 0.016832 0.000000 0.000000 0.000000
# 4 0.000000 0.000000 0.000000 0.038920 0.000000 0.000000
# 5 0.000000 0.000000 0.000000 0.000000 0.030347 0.000000
# 6 0.000000 0.000000 0.000000 0.000000 0.000000 0.043330
#
#
# Mechanical properties :
#
#
# Convention : Reuss Voigt Hill
#
# Bulk Modulus (GPa) = 67.83170 69.20552 68.51861
# Shear Modulus (GPa) = 24.04236 25.04130 24.54183
#
# Velocity S-wave (km/s) = 3.72146 3.79799 3.75992
# Velocity P-wave (km/s) = 7.58546 7.68751 7.63666
#
# Compressibility (1/GPa) = 0.01474237
#
# Stress axis : x y z
#
# Youngs Moduli (GPa) = 51.03662 61.82893 59.41156
#
# Poissons Ratio (x) = 0.54864 0.36539
# Poissons Ratio (y) = 0.45287 0.23199
# Poissons Ratio (z) = 0.31388 0.24143
#
# Static dielectric constant tensor:
#      x y z
#    x 3.120540 0.000000 0.000000 
#    y 0.000000 3.423760 0.000000 
#    z 0.000000 0.000000 3.237050 
# 
# 
# High freq. dielectric constant tensor:
#      x y z
#    x 1.661780 0.000000 0.000000 
#    y 0.000000 1.667630 0.000000 
#    z 0.000000 0.000000 1.680600 
# 
# From -- ./inp_files/8171.got.cif
#   From: 2010.06.25/outbox.cif.g09.slc.cpg/sg58_5_cif.got.tgz:8171.got - 2010.06.26 21:38:00.
