data_PCOD8237565
_publ_section_title
;
Structure prediction by ZEFSAII (Michael W. Deem and Ramdas Pophale) SiO2 
 PCOD8237565
Probable space group: P N N M
;
_chemical_formula_sum "Si O2"
_cell_formula_units_Z 64
_cell_length_a 24.866301
_cell_length_b 14.742302
_cell_length_c 9.223940
_cell_angle_alpha 90.000000
_cell_angle_beta 90.000000
_cell_angle_gamma 90.000000
_cell_volume 3381.372056
_symmetry_space_group_name_H-M "P N N M"
_symmetry_group_IT_number 58
_symmetry_cell_setting 'orthorhombic'
loop_
_space_group_symop_operation_xyz
x,y,z
-x,-y,z
1/2+x,1/2-y,1/2-z
1/2-x,1/2+y,1/2-z
-x,-y,-z
x,y,-z
1/2-x,1/2+y,1/2+z
1/2+x,1/2-y,1/2+z
loop_
_atom_site_type_symbol
_atom_site_label
_atom_site_fract_x
_atom_site_fract_y
_atom_site_fract_z
Si Si1 0.223544 0.529032 0.164713
Si Si2 0.896249 0.479834 0.167329
Si Si3 0.655918 0.284410 0.670805
Si Si4 0.056315 0.691333 0.672798
Si Si5 0.673693 0.486487 0.667353
Si Si6 0.259778 0.238130 0.665181
Si Si7 0.629759 0.671942 0.332307
Si Si8 0.053278 0.328491 0.831606
O O1 0.164688 0.491073 0.207560
O O2 0.270362 0.483615 0.258696
O O3 0.221693 0.635938 0.193377
O O4 0.237223 0.505317 0.000000
O O5 0.915430 0.399071 0.269341
O O6 0.934435 0.565609 0.191454
O O7 0.898370 0.446358 0.000000
O O8 0.661784 0.276141 0.500000
O O9 0.652043 0.389320 0.724382
O O10 0.708207 0.236235 0.738301
O O11 0.602791 0.232601 0.722958
O O12 0.056307 0.689804 0.500000
O O13 0.087162 0.780535 0.728156
O O14 0.996111 0.698483 0.731330
O O15 0.687993 0.478813 0.500000
O O16 0.628055 0.563049 0.694034
O O17 0.242945 0.254751 0.500000
O O18 0.310013 0.299297 0.710346
O O19 0.617220 0.696905 0.500000
O O20 0.039740 0.309204 0.000000
#
# Coordination Sequence:
#
# PCOD8237565 Si02
#       8
#     8   8   8   8   8   8   8   8
#     4   9  17  31  52  79 113 147 181 220 267 331
#     4  10  20  37  58  81 112 153 191 220 271 349
#     4   9  19  36  56  83 114 143 186 234 277 324
#     4  12  25  39  57  83 112 142 187 247 291 325
#     4   9  19  34  55  83 116 149 184 231 277 323
#     4   9  17  31  52  77 108 147 182 220 274 329
#     4  10  20  37  58  80 112 154 191 223 275 344
#     4  10  22  39  60  80 108 154 193 228 278 343
#
# _framework density 18.927226999999998
#
# number of rings (size 3 to 8) (size 9 to 14) (size 15 to 20)
#    0.000    2.250    1.250    1.500    1.750    4.000 
#    0.000    0.625    0.000    3.750    0.000    0.000 
#    0.000    0.000    0.000    0.000    0.000    0.000 
#
# Total GULP energy -793629.238616 kJ/mol
# GULP energy per Si atom -12400.456853 kJ/mol
# Density = 1.888415 g / cm^3
# Si number density = 18.927227 Si / 1000 Ang^3
#
#
#
# Elastic Constant Matrix: (Units=GPa)
#
#
# Indices 1 2 3 4 5 6 
#
# 1 102.2530 27.9786 51.6753 0.0000 0.0000 0.0000
# 2 27.9786 37.6315 18.7795 0.0000 0.0000 0.0000
# 3 51.6753 18.7795 70.4455 0.0000 0.0000 0.0000
# 4 0.0000 0.0000 0.0000 17.9897 0.0000 0.0000
# 5 0.0000 0.0000 0.0000 0.0000 34.7083 0.0000
# 6 0.0000 0.0000 0.0000 0.0000 0.0000 26.6095
#
#
#
# Elastic Compliance Matrix: (Units=1/GPa)
#
#
# Indices 1 2 3 4 5 6 
#
# 1 0.017193 -0.007485 -0.010617 0.000000 0.000000 0.000000
# 2 -0.007485 0.033909 -0.003549 0.000000 0.000000 0.000000
# 3 -0.010617 -0.003549 0.022929 0.000000 0.000000 0.000000
# 4 0.000000 0.000000 0.000000 0.055587 0.000000 0.000000
# 5 0.000000 0.000000 0.000000 0.000000 0.028812 0.000000
# 6 0.000000 0.000000 0.000000 0.000000 0.000000 0.037581
#
#
# Mechanical properties :
#
#
# Convention : Reuss Voigt Hill
#
# Bulk Modulus (GPa) = 32.54077 45.24409 38.89243
# Shear Modulus (GPa) = 20.03560 23.32128 21.67844
#
# Velocity S-wave (km/s) = 3.25708 3.51402 3.38798
# Velocity P-wave (km/s) = 5.60131 6.35771 5.99146
#
# Compressibility (1/GPa) = 0.03073068
#
# Stress axis : x y z
#
# Youngs Moduli (GPa) = 58.16351 29.49030 43.61223
#
# Poissons Ratio (x) = 0.22073 0.46301
# Poissons Ratio (y) = 0.43533 0.15479
# Poissons Ratio (z) = 0.61750 0.10467
#
# Static dielectric constant tensor:
#      x y z
#    x 3.517100 0.000000 0.000000 
#    y 0.000000 3.572840 0.000000 
#    z 0.000000 0.000000 3.361030 
# 
# 
# High freq. dielectric constant tensor:
#      x y z
#    x 1.729750 0.000000 0.000000 
#    y 0.000000 1.737840 0.000000 
#    z 0.000000 0.000000 1.720740 
# 
# From -- ./inp_files/10012.got.cif
#   From: 2010.06.25/outbox.cif.g09.slc.cpg/sg58_6_cif.got.tgz:10012.got - 2010.06.26 21:38:00.
