data_PCOD8237170
_publ_section_title
;
Structure prediction by ZEFSAII (Michael W. Deem and Ramdas Pophale) SiO2 
 PCOD8237170
Probable space group: P N N M
;
_chemical_formula_sum "Si O2"
_cell_formula_units_Z 64
_cell_length_a 13.894210
_cell_length_b 17.558844
_cell_length_c 13.286946
_cell_angle_alpha 90.000000
_cell_angle_beta 90.000000
_cell_angle_gamma 90.000000
_cell_volume 3241.566601
_symmetry_space_group_name_H-M "P N N M"
_symmetry_group_IT_number 58
_symmetry_cell_setting 'orthorhombic'
loop_
_space_group_symop_operation_xyz
x,y,z
-x,-y,z
1/2+x,1/2-y,1/2-z
1/2-x,1/2+y,1/2-z
-x,-y,-z
x,y,-z
1/2-x,1/2+y,1/2+z
1/2+x,1/2-y,1/2+z
loop_
_atom_site_type_symbol
_atom_site_label
_atom_site_fract_x
_atom_site_fract_y
_atom_site_fract_z
Si Si1 0.312963 0.934187 0.116592
Si Si2 0.388772 0.514112 0.115921
Si Si3 0.234218 0.089288 0.885369
Si Si4 0.522644 0.412076 0.387180
Si Si5 0.657001 0.785516 0.210904
Si Si6 0.958627 0.689340 0.382650
Si Si7 0.348670 0.379776 0.253316
Si Si8 0.197156 0.180245 0.383638
O O1 0.416035 0.895479 0.137537
O O2 0.232075 0.880020 0.162075
O O3 0.301454 0.020819 0.159012
O O4 0.291302 0.933434 0.000000
O O5 0.500000 0.500000 0.144167
O O6 0.332135 0.452652 0.182485
O O7 0.352685 0.599059 0.140404
O O8 0.370611 0.494281 0.000000
O O9 0.286741 0.169509 0.875715
O O10 0.128357 0.094237 0.835325
O O11 0.212922 0.070189 0.000000
O O12 0.500000 0.500000 0.395253
O O13 0.516744 0.375430 0.500000
O O14 0.450624 0.371548 0.310129
O O15 0.544491 0.805456 0.198021
O O16 0.667120 0.696175 0.188129
O O17 0.704903 0.810472 0.317750
O O18 0.992261 0.697223 0.500000
O O19 0.879967 0.754156 0.358021
O O20 0.228639 0.185004 0.500000
#
# Coordination Sequence:
#
# PCOD8237170 Si02
#       8
#     8   8   8   8   8   8   8   8
#     4  10  20  38  63  89 118 154 197 245 304 368
#     4  10  22  38  59  87 117 157 202 248 300 350
#     4  10  22  39  59  88 123 155 195 250 307 363
#     4  10  20  34  58  92 124 148 183 246 323 377
#     4  12  25  36  60  88 123 160 206 244 298 356
#     4  10  22  41  62  87 122 161 201 249 304 365
#     4  12  22  33  59  88 122 155 198 247 301 364
#     4  10  22  42  64  88 124 161 203 252 300 361
#
# _framework density 19.743539999999999
#
# number of rings (size 3 to 8) (size 9 to 14) (size 15 to 20)
#    0.000    1.500    2.500    2.625    3.500    3.000 
#    0.000    1.875    0.000    0.750    0.000    2.625 
#    0.000    0.000    0.000    0.000    0.000    0.000 
#
# Total GULP energy -793178.943697 kJ/mol
# GULP energy per Si atom -12393.420995 kJ/mol
# Density = 1.969860 g / cm^3
# Si number density = 19.743540 Si / 1000 Ang^3
#
#
#
# Elastic Constant Matrix: (Units=GPa)
#
#
# Indices 1 2 3 4 5 6 
#
# 1 111.6809 51.9987 51.3704 0.0000 0.0000 0.0000
# 2 51.9987 115.4005 32.7760 0.0000 0.0000 0.0000
# 3 51.3704 32.7760 61.1972 0.0000 0.0000 0.0000
# 4 0.0000 0.0000 0.0000 30.6296 0.0000 0.0000
# 5 0.0000 0.0000 0.0000 0.0000 41.2405 0.0000
# 6 0.0000 0.0000 0.0000 0.0000 0.0000 27.7491
#
#
#
# Elastic Compliance Matrix: (Units=1/GPa)
#
#
# Indices 1 2 3 4 5 6 
#
# 1 0.016017 -0.004008 -0.011299 0.000000 0.000000 0.000000
# 2 -0.004008 0.011223 -0.002646 0.000000 0.000000 0.000000
# 3 -0.011299 -0.002646 0.027242 0.000000 0.000000 0.000000
# 4 0.000000 0.000000 0.000000 0.032648 0.000000 0.000000
# 5 0.000000 0.000000 0.000000 0.000000 0.024248 0.000000
# 6 0.000000 0.000000 0.000000 0.000000 0.000000 0.036037
#
#
# Mechanical properties :
#
#
# Convention : Reuss Voigt Hill
#
# Bulk Modulus (GPa) = 53.83154 62.28541 58.05847
# Shear Modulus (GPa) = 26.38316 30.06608 28.22462
#
# Velocity S-wave (km/s) = 3.65950 3.90658 3.78506
# Velocity P-wave (km/s) = 6.72164 7.20862 6.96939
#
# Compressibility (1/GPa) = 0.01857647
#
# Stress axis : x y z
#
# Youngs Moduli (GPa) = 62.43184 89.10138 36.70768
#
# Poissons Ratio (x) = 0.35715 0.41475
# Poissons Ratio (y) = 0.25025 0.09714
# Poissons Ratio (z) = 0.70540 0.23578
#
# Static dielectric constant tensor:
#      x y z
#    x 4.251230 0.000000 0.000000 
#    y 0.000000 3.790070 0.000000 
#    z 0.000000 0.000000 3.645210 
# 
# 
# High freq. dielectric constant tensor:
#      x y z
#    x 1.758750 0.000000 0.000000 
#    y 0.000000 1.772730 0.000000 
#    z 0.000000 0.000000 1.765420 
# 
# From -- ./inp_files/21487.got.cif
#   From: 2010.06.25/outbox.cif.g09.slc.cpg/sg58_11_cif.got.tgz:21487.got - 2010.06.26 21:38:00.
