data_PCOD8237629
_publ_section_title
;
Structure prediction by ZEFSAII (Michael W. Deem and Ramdas Pophale) SiO2 
 PCOD8237629
Probable space group: P N N M
;
_chemical_formula_sum "Si O2"
_cell_formula_units_Z 56
_cell_length_a 12.075239
_cell_length_b 14.992601
_cell_length_c 14.745973
_cell_angle_alpha 90.000000
_cell_angle_beta 90.000000
_cell_angle_gamma 90.000000
_cell_volume 2669.599750
_symmetry_space_group_name_H-M "P N N M"
_symmetry_group_IT_number 58
_symmetry_cell_setting 'orthorhombic'
loop_
_space_group_symop_operation_xyz
x,y,z
-x,-y,z
1/2+x,1/2-y,1/2-z
1/2-x,1/2+y,1/2-z
-x,-y,-z
x,y,-z
1/2-x,1/2+y,1/2+z
1/2+x,1/2-y,1/2+z
loop_
_atom_site_type_symbol
_atom_site_label
_atom_site_fract_x
_atom_site_fract_y
_atom_site_fract_z
Si Si1 0.603716 0.060905 0.105024
Si Si2 0.326568 0.458514 0.720725
Si Si3 0.777635 0.553942 0.102876
Si Si4 0.589992 0.267474 0.103374
Si Si5 0.542551 0.363670 0.725265
Si Si6 0.320118 0.145412 0.394679
Si Si7 0.951065 0.708037 0.897032
O O1 0.715943 0.042647 0.160493
O O2 0.568205 0.163201 0.118820
O O3 0.500000 0.000000 0.138057
O O4 0.630616 0.040686 0.000000
O O5 0.309796 0.415398 0.821333
O O6 0.427593 0.399258 0.680603
O O7 0.365914 0.559910 0.730750
O O8 0.807915 0.455528 0.139651
O O9 0.883236 0.617060 0.109102
O O10 0.728387 0.553530 0.000000
O O11 0.517829 0.325067 0.173638
O O12 0.717738 0.290062 0.125935
O O13 0.560210 0.295563 0.000000
O O14 0.599037 0.287876 0.662669
O O15 0.345375 0.137090 0.500000
O O16 0.429186 0.189435 0.351639
O O17 0.956095 0.742486 0.000000
#
# Coordination Sequence:
#
# PCOD8237629 Si02
#       7
#     8   8   8   8   8   8   8
#     4  10  23  45  68  92 122 165 219 264 309 368
#     4  11  24  41  62  89 126 168 208 257 312 374
#     4  10  20  37  60  90 125 159 202 258 320 375
#     4  10  20  39  64  90 124 166 210 259 312 372
#     4  11  24  40  59  89 126 167 212 252 310 383
#     4   9  17  33  60  89 119 155 197 251 317 379
#     4  10  21  36  57  89 123 156 203 262 318 374
#
# _framework density 20.976927
#
# number of rings (size 3 to 8) (size 9 to 14) (size 15 to 20)
#    0.000    1.857    1.429    2.143    0.000    6.857 
#    5.143    2.857    0.000    0.000    0.000    0.000 
#    0.000    0.000    0.000    0.000    0.000    0.000 
#
# Total GULP energy -694086.335548 kJ/mol
# GULP energy per Si atom -12394.398849 kJ/mol
# Density = 2.092918 g / cm^3
# Si number density = 20.976927 Si / 1000 Ang^3
#
#
#
# Elastic Constant Matrix: (Units=GPa)
#
#
# Indices 1 2 3 4 5 6 
#
# 1 96.2666 36.0932 40.9122 0.0000 0.0000 0.0000
# 2 36.0932 111.1224 38.4509 0.0000 0.0000 0.0000
# 3 40.9122 38.4509 90.4420 0.0000 0.0000 0.0000
# 4 0.0000 0.0000 0.0000 33.1008 0.0000 0.0000
# 5 0.0000 0.0000 0.0000 0.0000 29.4787 0.0000
# 6 0.0000 0.0000 0.0000 0.0000 0.0000 29.7449
#
#
#
# Elastic Compliance Matrix: (Units=1/GPa)
#
#
# Indices 1 2 3 4 5 6 
#
# 1 0.013501 -0.002664 -0.004975 0.000000 0.000000 0.000000
# 2 -0.002664 0.011077 -0.003504 0.000000 0.000000 0.000000
# 3 -0.004975 -0.003504 0.014797 0.000000 0.000000 0.000000
# 4 0.000000 0.000000 0.000000 0.030211 0.000000 0.000000
# 5 0.000000 0.000000 0.000000 0.000000 0.033923 0.000000
# 6 0.000000 0.000000 0.000000 0.000000 0.000000 0.033619
#
#
# Mechanical properties :
#
#
# Convention : Reuss Voigt Hill
#
# Bulk Modulus (GPa) = 58.51683 58.74927 58.63305
# Shear Modulus (GPa) = 30.28299 30.62319 30.45309
#
# Velocity S-wave (km/s) = 3.80364 3.82494 3.81431
# Velocity P-wave (km/s) = 6.87362 6.89742 6.88553
#
# Compressibility (1/GPa) = 0.01708910
#
# Stress axis : x y z
#
# Youngs Moduli (GPa) = 74.07012 90.27832 67.58136
#
# Poissons Ratio (x) = 0.24048 0.33620
# Poissons Ratio (y) = 0.19730 0.23682
# Poissons Ratio (z) = 0.36848 0.31636
#
# Static dielectric constant tensor:
#      x y z
#    x 3.679510 0.000000 0.000000 
#    y 0.000000 3.837400 0.000000 
#    z 0.000000 0.000000 3.831310 
# 
# 
# High freq. dielectric constant tensor:
#      x y z
#    x 1.807860 0.000000 0.000000 
#    y 0.000000 1.830920 0.000000 
#    z 0.000000 0.000000 1.818820 
# 
# From -- ./inp_files/21242.got.cif
#   From: 2010.06.25/outbox.cif.g09.slc.cpg/sg58_11_cif.got.tgz:21242.got - 2010.06.26 21:38:00.
