data_PCOD8237104
_publ_section_title
;
Structure prediction by ZEFSAII (Michael W. Deem and Ramdas Pophale) SiO2 
 PCOD8237104
Probable space group: P N N M
;
_chemical_formula_sum "Si O2"
_cell_formula_units_Z 48
_cell_length_a 9.277891
_cell_length_b 30.379863
_cell_length_c 9.198337
_cell_angle_alpha 90.000000
_cell_angle_beta 90.000000
_cell_angle_gamma 90.000000
_cell_volume 2592.652994
_symmetry_space_group_name_H-M "P N N M"
_symmetry_group_IT_number 58
_symmetry_cell_setting 'orthorhombic'
loop_
_space_group_symop_operation_xyz
x,y,z
-x,-y,z
1/2+x,1/2-y,1/2-z
1/2-x,1/2+y,1/2-z
-x,-y,-z
x,y,-z
1/2-x,1/2+y,1/2+z
1/2+x,1/2-y,1/2+z
loop_
_atom_site_type_symbol
_atom_site_label
_atom_site_fract_x
_atom_site_fract_y
_atom_site_fract_z
Si Si1 0.418867 0.113141 0.834561
Si Si2 0.602836 0.540108 0.669965
Si Si3 0.909720 0.877555 0.830031
Si Si4 0.113724 0.209357 0.330175
Si Si5 0.095970 0.458289 0.828791
Si Si6 0.597092 0.787277 0.165357
O O1 0.251997 0.107571 0.786855
O O2 0.519701 0.085396 0.729346
O O3 0.468003 0.163793 0.818206
O O4 0.440011 0.096661 0.000000
O O5 0.500000 0.500000 0.713023
O O6 0.640874 0.539131 0.500000
O O7 0.521978 0.584880 0.713874
O O8 0.748143 0.535738 0.759422
O O9 0.955098 0.833448 0.745895
O O10 0.913793 0.866748 0.000000
O O11 0.118925 0.199912 0.500000
O O12 0.272163 0.219507 0.274007
O O13 0.022270 0.252191 0.290455
O O14 0.000000 0.500000 0.784597
O O15 0.114532 0.453865 0.000000
O O16 0.651474 0.780381 0.000000
#
# Coordination Sequence:
#
# PCOD8237104 Si02
#       6
#     8   8   8   8   8   8
#     4   9  18  36  59  78 102 139 181 222 261 309
#     4  10  21  38  60  82 104 138 182 220 259 313
#     4   9  19  36  57  81 108 137 174 223 271 312
#     4  10  20  34  55  81 108 142 180 217 265 321
#     4  11  24  38  53  79 113 143 172 214 268 318
#     4   9  20  37  54  77 109 142 179 223 266 310
#
# _framework density 18.513855
#
# number of rings (size 3 to 8) (size 9 to 14) (size 15 to 20)
#    0.000    2.333    0.000    3.000    0.000    9.000 
#    0.000    5.000    0.000    0.000    0.000    0.000 
#    0.000    0.000    0.000    0.000    0.000    0.000 
#
# Total GULP energy -595332.144438 kJ/mol
# GULP energy per Si atom -12402.753009 kJ/mol
# Density = 1.847172 g / cm^3
# Si number density = 18.513855 Si / 1000 Ang^3
#
#
#
# Elastic Constant Matrix: (Units=GPa)
#
#
# Indices 1 2 3 4 5 6 
#
# 1 118.9858 82.7040 61.3936 0.0000 0.0000 0.0000
# 2 82.7040 135.4855 65.4093 0.0000 0.0000 0.0000
# 3 61.3936 65.4093 75.4821 0.0000 0.0000 0.0000
# 4 0.0000 0.0000 0.0000 23.5798 0.0000 0.0000
# 5 0.0000 0.0000 0.0000 0.0000 31.7291 0.0000
# 6 0.0000 0.0000 0.0000 0.0000 0.0000 36.1401
#
#
#
# Elastic Compliance Matrix: (Units=1/GPa)
#
#
# Indices 1 2 3 4 5 6 
#
# 1 0.017240 -0.006454 -0.008429 0.000000 0.000000 0.000000
# 2 -0.006454 0.015106 -0.007841 0.000000 0.000000 0.000000
# 3 -0.008429 -0.007841 0.026898 0.000000 0.000000 0.000000
# 4 0.000000 0.000000 0.000000 0.042409 0.000000 0.000000
# 5 0.000000 0.000000 0.000000 0.000000 0.031517 0.000000
# 6 0.000000 0.000000 0.000000 0.000000 0.000000 0.027670
#
#
# Mechanical properties :
#
#
# Convention : Reuss Voigt Hill
#
# Bulk Modulus (GPa) = 72.48353 83.21860 77.85106
# Shear Modulus (GPa) = 23.70949 26.31958 25.01453
#
# Velocity S-wave (km/s) = 3.58248 3.77452 3.67975
# Velocity P-wave (km/s) = 7.50654 8.00268 7.75858
#
# Compressibility (1/GPa) = 0.01379624
#
# Stress axis : x y z
#
# Youngs Moduli (GPa) = 58.00571 66.19914 37.17729
#
# Poissons Ratio (x) = 0.42727 0.31337
# Poissons Ratio (y) = 0.37438 0.29149
# Poissons Ratio (z) = 0.48893 0.51904
#
# Static dielectric constant tensor:
#      x y z
#    x 3.358260 0.000000 0.000000 
#    y 0.000000 3.588970 0.000000 
#    z 0.000000 0.000000 3.362510 
# 
# 
# High freq. dielectric constant tensor:
#      x y z
#    x 1.714240 0.000000 0.000000 
#    y 0.000000 1.731620 0.000000 
#    z 0.000000 0.000000 1.716900 
# 
# From -- ./inp_files/2897.got.cif
#   From: 2010.06.25/outbox.cif.g09.slc.cpg/sg58_2_cif.got.tgz:2897.got - 2010.06.26 21:38:00.
