data_PCOD8237375
_publ_section_title
;
Structure prediction by ZEFSAII (Michael W. Deem and Ramdas Pophale) SiO2 
 PCOD8237375
Probable space group: P N N M
;
_chemical_formula_sum "Si O2"
_cell_formula_units_Z 28
_cell_length_a 5.012786
_cell_length_b 11.292762
_cell_length_c 24.208842
_cell_angle_alpha 90.000000
_cell_angle_beta 90.000000
_cell_angle_gamma 90.000000
_cell_volume 1370.418952
_symmetry_space_group_name_H-M "P N N M"
_symmetry_group_IT_number 58
_symmetry_cell_setting 'orthorhombic'
loop_
_space_group_symop_operation_xyz
x,y,z
-x,-y,z
1/2+x,1/2-y,1/2-z
1/2-x,1/2+y,1/2-z
-x,-y,-z
x,y,-z
1/2-x,1/2+y,1/2+z
1/2+x,1/2-y,1/2+z
loop_
_atom_site_type_symbol
_atom_site_label
_atom_site_fract_x
_atom_site_fract_y
_atom_site_fract_z
Si Si1 0.500000 0.500000 0.291788
Si Si2 0.459751 0.861830 0.063337
Si Si3 0.056972 0.207474 0.126688
Si Si4 0.317068 0.818992 0.269994
O O1 0.620793 0.398492 0.330554
O O2 0.736772 0.551237 0.252726
O O3 0.735693 0.795073 0.076219
O O4 0.237499 0.804420 0.102312
O O5 0.500000 0.000000 0.075730
O O6 0.379890 0.840749 0.000000
O O7 0.093484 0.324761 0.164883
O O8 0.557716 0.766192 0.234043
#
# Coordination Sequence:
#
# PCOD8237375 Si02
#       4
#     4   8   8   8
#     4  10  20  36  53  78 115 144 174 230 266 326
#     4  11  21  34  52  78 107 143 182 224 280 332
#     4  11  20  34  54  78 110 147 176 225 278 322
#     4  10  22  34  53  80 108 148 191 216 274 335
#
# _framework density 20.431705999999998
#
# number of rings (size 3 to 8) (size 9 to 14) (size 15 to 20)
#    0.000    1.429    2.857    4.286    0.000    5.714 
#    0.000    0.000    0.000    0.000    0.000    6.000 
#    0.000    0.000    0.000    0.000    0.000    0.000 
#
# Total GULP energy -347056.739154 kJ/mol
# GULP energy per Si atom -12394.883541 kJ/mol
# Density = 2.038520 g / cm^3
# Si number density = 20.431706 Si / 1000 Ang^3
#
#
#
# Elastic Constant Matrix: (Units=GPa)
#
#
# Indices 1 2 3 4 5 6 
#
# 1 120.0272 6.6659 33.5428 0.0000 0.0000 0.0000
# 2 6.6659 18.4277 17.4315 0.0000 0.0000 0.0000
# 3 33.5428 17.4315 103.1576 0.0000 0.0000 0.0000
# 4 0.0000 0.0000 0.0000 34.6054 0.0000 0.0000
# 5 0.0000 0.0000 0.0000 0.0000 34.4496 0.0000
# 6 0.0000 0.0000 0.0000 0.0000 0.0000 26.0607
#
#
#
# Elastic Compliance Matrix: (Units=1/GPa)
#
#
# Indices 1 2 3 4 5 6 
#
# 1 0.009170 -0.000591 -0.002882 0.000000 0.000000 0.000000
# 2 -0.000591 0.064629 -0.010729 0.000000 0.000000 0.000000
# 3 -0.002882 -0.010729 0.012444 0.000000 0.000000 0.000000
# 4 0.000000 0.000000 0.000000 0.028897 0.000000 0.000000
# 5 0.000000 0.000000 0.000000 0.000000 0.029028 0.000000
# 6 0.000000 0.000000 0.000000 0.000000 0.000000 0.038372
#
#
# Mechanical properties :
#
#
# Convention : Reuss Voigt Hill
#
# Bulk Modulus (GPa) = 17.28931 39.65477 28.47204
# Shear Modulus (GPa) = 21.71818 31.28796 26.50307
#
# Velocity S-wave (km/s) = 3.26385 3.91748 3.60551
# Velocity P-wave (km/s) = 4.76277 6.31766 5.59450
#
# Compressibility (1/GPa) = 0.05783921
#
# Stress axis : x y z
#
# Youngs Moduli (GPa) = 109.05608 15.47301 80.36096
#
# Poissons Ratio (x) = 0.00914 0.23158
# Poissons Ratio (y) = 0.06445 0.86217
# Poissons Ratio (z) = 0.31427 0.16601
#
# Static dielectric constant tensor:
#      x y z
#    x 3.895520 0.000000 0.000000 
#    y 0.000000 3.600300 0.000000 
#    z 0.000000 0.000000 3.832730 
# 
# 
# High freq. dielectric constant tensor:
#      x y z
#    x 1.820700 0.000000 0.000000 
#    y 0.000000 1.740740 0.000000 
#    z 0.000000 0.000000 1.800830 
# 
# From -- ./inp_files/30744.got.cif
#   From: 2010.06.25/outbox.cif.g09.slc.cpg/sg58_16_cif.got.tgz:30744.got - 2010.06.26 21:38:00.
