data_PCOD8237738
_publ_section_title
;
Structure prediction by ZEFSAII (Michael W. Deem and Ramdas Pophale) SiO2 
 PCOD8237738
Probable space group: P N N M
;
_chemical_formula_sum "Si O2"
_cell_formula_units_Z 64
_cell_length_a 12.659753
_cell_length_b 28.272187
_cell_length_c 8.714964
_cell_angle_alpha 90.000000
_cell_angle_beta 90.000000
_cell_angle_gamma 90.000000
_cell_volume 3119.250365
_symmetry_space_group_name_H-M "P N N M"
_symmetry_group_IT_number 58
_symmetry_cell_setting 'orthorhombic'
loop_
_space_group_symop_operation_xyz
x,y,z
-x,-y,z
1/2+x,1/2-y,1/2-z
1/2-x,1/2+y,1/2-z
-x,-y,-z
x,y,-z
1/2-x,1/2+y,1/2+z
1/2+x,1/2-y,1/2+z
loop_
_atom_site_type_symbol
_atom_site_label
_atom_site_fract_x
_atom_site_fract_y
_atom_site_fract_z
Si Si1 0.967530 0.052192 0.182274
Si Si2 0.845402 0.688196 0.818835
Si Si3 0.148171 0.121599 0.820220
Si Si4 0.234527 0.216822 0.319515
Si Si5 0.937355 0.307207 0.667430
Si Si6 0.365373 0.091998 0.836218
Si Si7 0.745185 0.095446 0.180289
Si Si8 0.047944 0.450381 0.824720
O O1 0.850157 0.067961 0.236050
O O2 0.045719 0.093516 0.243127
O O3 0.973250 0.049779 0.000000
O O4 0.000000 0.000000 0.247965
O O5 0.826886 0.736941 0.732535
O O6 0.768303 0.645767 0.765407
O O7 0.965200 0.676328 0.772601
O O8 0.833679 0.694307 0.000000
O O9 0.166949 0.171189 0.734017
O O10 0.243469 0.083534 0.789239
O O11 0.135587 0.132790 0.000000
O O12 0.243167 0.213857 0.500000
O O13 0.353693 0.225757 0.255693
O O14 0.972228 0.285809 0.500000
O O15 0.866341 0.352457 0.633035
O O16 0.447616 0.082987 0.701042
O O17 0.393053 0.066226 0.000000
O O18 0.646288 0.061596 0.217328
O O19 0.747724 0.105797 0.000000
O O20 0.000000 0.500000 0.776056
O O21 0.085608 0.447130 0.000000
#
# Coordination Sequence:
#
# PCOD8237738 Si02
#       8
#     8   8   8   8   8   8   8   8
#     4   9  20  39  65  94 124 165 216 268 316 372
#     4  12  24  40  63  89 125 166 206 257 319 379
#     4   9  19  38  62  89 123 159 208 266 317 371
#     4  11  23  39  61  91 126 166 213 258 315 383
#     4  10  20  38  61  88 119 152 198 253 311 372
#     4   9  18  33  59  87 114 149 192 248 306 364
#     4  11  23  40  64  93 125 161 209 261 317 383
#     4  11  24  38  55  84 123 160 199 250 310 374
#
# _framework density 20.517749999999999
#
# number of rings (size 3 to 8) (size 9 to 14) (size 15 to 20)
#    0.000    1.750    1.250    4.125    1.750    4.000 
#    0.000    5.000    0.000    1.875    0.000    0.000 
#    0.000    0.000    0.000    0.000    0.000    0.000 
#
# Total GULP energy -792981.595186 kJ/mol
# GULP energy per Si atom -12390.337425 kJ/mol
# Density = 2.047105 g / cm^3
# Si number density = 20.517750 Si / 1000 Ang^3
#
#
#
# Elastic Constant Matrix: (Units=GPa)
#
#
# Indices 1 2 3 4 5 6 
#
# 1 112.2733 46.6307 26.6445 0.0000 0.0000 0.0000
# 2 46.6307 106.6582 27.4869 0.0000 0.0000 0.0000
# 3 26.6445 27.4869 63.0684 0.0000 0.0000 0.0000
# 4 0.0000 0.0000 0.0000 28.2829 0.0000 0.0000
# 5 0.0000 0.0000 0.0000 0.0000 20.1538 0.0000
# 6 0.0000 0.0000 0.0000 0.0000 0.0000 20.5283
#
#
#
# Elastic Compliance Matrix: (Units=1/GPa)
#
#
# Indices 1 2 3 4 5 6 
#
# 1 0.011355 -0.004200 -0.002967 0.000000 0.000000 0.000000
# 2 -0.004200 0.012115 -0.003506 0.000000 0.000000 0.000000
# 3 -0.002967 -0.003506 0.018637 0.000000 0.000000 0.000000
# 4 0.000000 0.000000 0.000000 0.035357 0.000000 0.000000
# 5 0.000000 0.000000 0.000000 0.000000 0.049618 0.000000
# 6 0.000000 0.000000 0.000000 0.000000 0.000000 0.048713
#
#
# Mechanical properties :
#
#
# Convention : Reuss Voigt Hill
#
# Bulk Modulus (GPa) = 48.16354 53.72493 50.94423
# Shear Modulus (GPa) = 24.50225 25.87551 25.18888
#
# Velocity S-wave (km/s) = 3.45947 3.55509 3.50760
# Velocity P-wave (km/s) = 6.28349 6.56453 6.42554
#
# Compressibility (1/GPa) = 0.02076259
#
# Stress axis : x y z
#
# Youngs Moduli (GPa) = 88.06477 82.53929 53.65623
#
# Poissons Ratio (x) = 0.34666 0.15919
# Poissons Ratio (y) = 0.36986 0.18811
# Poissons Ratio (z) = 0.26127 0.28937
#
# Static dielectric constant tensor:
#      x y z
#    x 3.815180 0.000000 0.000000 
#    y 0.000000 3.598960 0.000000 
#    z 0.000000 0.000000 3.644790 
# 
# 
# High freq. dielectric constant tensor:
#      x y z
#    x 1.809870 0.000000 0.000000 
#    y 0.000000 1.794320 0.000000 
#    z 0.000000 0.000000 1.791630 
# 
# From -- ./inp_files/4639.got.cif
#   From: 2010.06.25/outbox.cif.g09.slc.cpg/sg58_3_cif.got.tgz:4639.got - 2010.06.26 21:38:00.
