data_PCOD8237327
_publ_section_title
;
Structure prediction by ZEFSAII (Michael W. Deem and Ramdas Pophale) SiO2 
 PCOD8237327
Probable space group: P N N M
;
_chemical_formula_sum "Si O2"
_cell_formula_units_Z 64
_cell_length_a 24.731322
_cell_length_b 14.865167
_cell_length_c 8.685097
_cell_angle_alpha 90.000000
_cell_angle_beta 90.000000
_cell_angle_gamma 90.000000
_cell_volume 3192.947648
_symmetry_space_group_name_H-M "P N N M"
_symmetry_group_IT_number 58
_symmetry_cell_setting 'orthorhombic'
loop_
_space_group_symop_operation_xyz
x,y,z
-x,-y,z
1/2+x,1/2-y,1/2-z
1/2-x,1/2+y,1/2-z
-x,-y,-z
x,y,-z
1/2-x,1/2+y,1/2+z
1/2+x,1/2-y,1/2+z
loop_
_atom_site_type_symbol
_atom_site_label
_atom_site_fract_x
_atom_site_fract_y
_atom_site_fract_z
Si Si1 0.265891 0.741795 0.823687
Si Si2 0.345191 0.211920 0.179876
Si Si3 0.111655 0.008033 0.820919
Si Si4 0.559258 0.657294 0.822429
Si Si5 0.333710 0.008654 0.179383
Si Si6 0.864952 0.666675 0.179021
Si Si7 0.222230 0.032799 0.323657
Si Si8 0.436257 0.684381 0.821735
O O1 0.204228 0.756441 0.771929
O O2 0.304279 0.801920 0.718038
O O3 0.284208 0.639276 0.801101
O O4 0.272089 0.772453 0.000000
O O5 0.399432 0.264172 0.225297
O O6 0.352958 0.108125 0.229292
O O7 0.331510 0.217906 0.000000
O O8 0.068430 0.931509 0.778689
O O9 0.166760 0.986472 0.729393
O O10 0.087685 0.104405 0.778950
O O11 0.124803 0.006779 0.000000
O O12 0.499761 0.694683 0.789395
O O13 0.566523 0.629825 0.000000
O O14 0.370181 0.937839 0.273317
O O15 0.270630 0.995319 0.219783
O O16 0.342180 0.991036 0.000000
O O17 0.908791 0.722303 0.275189
O O18 0.876865 0.678941 0.000000
O O19 0.234383 0.007427 0.500000
O O20 0.423952 0.663615 0.000000
#
# Coordination Sequence:
#
# PCOD8237327 Si02
#       8
#     8   8   8   8   8   8   8   8
#     4  10  20  35  58  86 119 156 194 242 298 356
#     4   9  20  40  63  88 119 155 199 250 301 358
#     4  12  24  37  58  89 124 161 201 245 300 365
#     4  10  23  42  64  87 117 159 205 252 308 363
#     4  10  21  38  61  88 122 157 198 249 301 359
#     4  12  24  38  60  88 121 160 201 248 303 363
#     4  10  20  36  58  85 121 160 197 240 295 355
#     4  11  23  42  64  87 118 158 205 256 304 360
#
# _framework density 20.044174999999999
#
# number of rings (size 3 to 8) (size 9 to 14) (size 15 to 20)
#    0.000    1.500    1.250    4.125    1.750    4.500 
#    0.000    0.625    0.000    3.750    0.000    0.000 
#    0.000    0.000    0.000    0.000    0.000    0.000 
#
# Total GULP energy -794038.005456 kJ/mol
# GULP energy per Si atom -12406.843835 kJ/mol
# Density = 1.999855 g / cm^3
# Si number density = 20.044175 Si / 1000 Ang^3
#
#
#
# Elastic Constant Matrix: (Units=GPa)
#
#
# Indices 1 2 3 4 5 6 
#
# 1 98.6514 36.2459 20.9722 0.0000 0.0000 0.0000
# 2 36.2459 56.6527 18.2100 0.0000 0.0000 0.0000
# 3 20.9722 18.2100 66.6211 0.0000 0.0000 0.0000
# 4 0.0000 0.0000 0.0000 28.7626 0.0000 0.0000
# 5 0.0000 0.0000 0.0000 0.0000 29.1286 0.0000
# 6 0.0000 0.0000 0.0000 0.0000 0.0000 27.3695
#
#
#
# Elastic Compliance Matrix: (Units=1/GPa)
#
#
# Indices 1 2 3 4 5 6 
#
# 1 0.013508 -0.007976 -0.002072 0.000000 0.000000 0.000000
# 2 -0.007976 0.024061 -0.004066 0.000000 0.000000 0.000000
# 3 -0.002072 -0.004066 0.016774 0.000000 0.000000 0.000000
# 4 0.000000 0.000000 0.000000 0.034767 0.000000 0.000000
# 5 0.000000 0.000000 0.000000 0.000000 0.034330 0.000000
# 6 0.000000 0.000000 0.000000 0.000000 0.000000 0.036537
#
#
# Mechanical properties :
#
#
# Convention : Reuss Voigt Hill
#
# Bulk Modulus (GPa) = 38.29255 41.42016 39.85636
# Shear Modulus (GPa) = 25.39218 26.81863 26.10540
#
# Velocity S-wave (km/s) = 3.56309 3.66180 3.61278
# Velocity P-wave (km/s) = 6.00608 6.21190 6.10986
#
# Compressibility (1/GPa) = 0.02611474
#
# Stress axis : x y z
#
# Youngs Moduli (GPa) = 74.03171 41.56038 59.61634
#
# Poissons Ratio (x) = 0.33149 0.12353
# Poissons Ratio (y) = 0.59048 0.24240
# Poissons Ratio (z) = 0.15340 0.16898
#
# Static dielectric constant tensor:
#      x y z
#    x 3.604340 0.000000 0.000000 
#    y 0.000000 3.702350 0.000000 
#    z 0.000000 0.000000 3.628390 
# 
# 
# High freq. dielectric constant tensor:
#      x y z
#    x 1.772280 0.000000 0.000000 
#    y 0.000000 1.784700 0.000000 
#    z 0.000000 0.000000 1.785930 
# 
# From -- ./inp_files/6732.got.cif
#   From: 2010.06.25/outbox.cif.g09.slc.cpg/sg58_4_cif.got.tgz:6732.got - 2010.06.26 21:38:00.
