data_PCOD8237656
_publ_section_title
;
Structure prediction by ZEFSAII (Michael W. Deem and Ramdas Pophale) SiO2 
 PCOD8237656
Probable space group: P N N M
;
_chemical_formula_sum "Si O2"
_cell_formula_units_Z 56
_cell_length_a 9.200964
_cell_length_b 22.432885
_cell_length_c 14.191742
_cell_angle_alpha 90.000000
_cell_angle_beta 90.000000
_cell_angle_gamma 90.000000
_cell_volume 2929.234690
_symmetry_space_group_name_H-M "P N N M"
_symmetry_group_IT_number 58
_symmetry_cell_setting 'orthorhombic'
loop_
_space_group_symop_operation_xyz
x,y,z
-x,-y,z
1/2+x,1/2-y,1/2-z
1/2-x,1/2+y,1/2-z
-x,-y,-z
x,y,-z
1/2-x,1/2+y,1/2+z
1/2+x,1/2-y,1/2+z
loop_
_atom_site_type_symbol
_atom_site_label
_atom_site_fract_x
_atom_site_fract_y
_atom_site_fract_z
Si Si1 0.005443 0.801101 0.777244
Si Si2 0.250236 0.107497 0.240341
Si Si3 0.059847 0.064063 0.396956
Si Si4 0.242526 0.868340 0.889442
Si Si5 0.664972 0.497136 0.389536
Si Si6 0.322579 0.340018 0.890910
Si Si7 0.554457 0.166750 0.271018
O O1 0.850456 0.834362 0.773132
O O2 0.977225 0.733519 0.806178
O O3 0.093612 0.836873 0.857168
O O4 0.095870 0.793577 0.678790
O O5 0.196224 0.072818 0.331109
O O6 0.248592 0.059423 0.155396
O O7 0.412115 0.127080 0.264171
O O8 0.121366 0.077356 0.500000
O O9 0.918540 0.102196 0.375137
O O10 0.000000 0.000000 0.382187
O O11 0.372180 0.836830 0.832252
O O12 0.239979 0.939267 0.866890
O O13 0.265825 0.856690 0.000000
O O14 0.500000 0.500000 0.350658
O O15 0.664930 0.484432 0.500000
O O16 0.163027 0.357276 0.852277
O O17 0.317681 0.317997 0.000000
#
# Coordination Sequence:
#
# PCOD8237656 Si02
#       7
#     8   8   8   8   8   8   8
#     4  10  21  40  61  82 111 155 203 240 274 341
#     4  11  21  34  61  87 115 152 189 241 297 337
#     4   9  19  36  59  82 105 144 197 237 274 340
#     4  10  22  41  62  85 118 158 193 239 296 345
#     4  10  20  37  62  89 115 149 201 244 281 352
#     4   9  20  39  59  79 111 152 189 233 285 332
#     4  11  24  38  54  89 127 150 187 239 293 354
#
# _framework density 19.117621
#
# number of rings (size 3 to 8) (size 9 to 14) (size 15 to 20)
#    0.000    2.000    1.429    2.143    4.000    2.857 
#    0.000    5.714    0.000    2.571    0.000    0.000 
#    0.000    0.000    0.000    0.000    0.000    0.000 
#
# Total GULP energy -694066.276077 kJ/mol
# GULP energy per Si atom -12394.040644 kJ/mol
# Density = 1.907411 g / cm^3
# Si number density = 19.117621 Si / 1000 Ang^3
#
#
#
# Elastic Constant Matrix: (Units=GPa)
#
#
# Indices 1 2 3 4 5 6 
#
# 1 88.1118 7.0593 32.5532 0.0000 0.0000 0.0000
# 2 7.0593 67.7980 24.2139 0.0000 0.0000 0.0000
# 3 32.5532 24.2139 103.9569 0.0000 0.0000 0.0000
# 4 0.0000 0.0000 0.0000 23.5518 0.0000 0.0000
# 5 0.0000 0.0000 0.0000 0.0000 11.8583 0.0000
# 6 0.0000 0.0000 0.0000 0.0000 0.0000 16.7734
#
#
#
# Elastic Compliance Matrix: (Units=1/GPa)
#
#
# Indices 1 2 3 4 5 6 
#
# 1 0.012835 0.000108 -0.004044 0.000000 0.000000 0.000000
# 2 0.000108 0.016089 -0.003781 0.000000 0.000000 0.000000
# 3 -0.004044 -0.003781 0.011767 0.000000 0.000000 0.000000
# 4 0.000000 0.000000 0.000000 0.042460 0.000000 0.000000
# 5 0.000000 0.000000 0.000000 0.000000 0.084329 0.000000
# 6 0.000000 0.000000 0.000000 0.000000 0.000000 0.059618
#
#
# Mechanical properties :
#
#
# Convention : Reuss Voigt Hill
#
# Bulk Modulus (GPa) = 39.59590 43.05772 41.32681
# Shear Modulus (GPa) = 19.92422 23.50605 21.71514
#
# Velocity S-wave (km/s) = 3.23180 3.51030 3.37392
# Velocity P-wave (km/s) = 5.88921 6.24508 6.06975
#
# Compressibility (1/GPa) = 0.02525514
#
# Stress axis : x y z
#
# Youngs Moduli (GPa) = 77.91366 62.15453 84.98673
#
# Poissons Ratio (x) = -0.00671 0.34371
# Poissons Ratio (y) = -0.00842 0.32136
# Poissons Ratio (z) = 0.31510 0.23502
#
# Static dielectric constant tensor:
#      x y z
#    x 3.460430 0.000000 0.000000 
#    y 0.000000 3.512720 0.000000 
#    z 0.000000 0.000000 3.720350 
# 
# 
# High freq. dielectric constant tensor:
#      x y z
#    x 1.737800 0.000000 0.000000 
#    y 0.000000 1.744350 0.000000 
#    z 0.000000 0.000000 1.747630 
# 
# From -- ./inp_files/20134.got.cif
#   From: 2010.06.25/outbox.cif.g09.slc.cpg/sg58_11_cif.got.tgz:20134.got - 2010.06.26 21:38:00.
