data_PCOD8237711
_publ_section_title
;
Structure prediction by ZEFSAII (Michael W. Deem and Ramdas Pophale) SiO2 
 PCOD8237711
Probable space group: P N N M
;
_chemical_formula_sum "Si O2"
_cell_formula_units_Z 56
_cell_length_a 21.235795
_cell_length_b 14.953466
_cell_length_c 9.235191
_cell_angle_alpha 90.000000
_cell_angle_beta 90.000000
_cell_angle_gamma 90.000000
_cell_volume 2932.623252
_symmetry_space_group_name_H-M "P N N M"
_symmetry_group_IT_number 58
_symmetry_cell_setting 'orthorhombic'
loop_
_space_group_symop_operation_xyz
x,y,z
-x,-y,z
1/2+x,1/2-y,1/2-z
1/2-x,1/2+y,1/2-z
-x,-y,-z
x,y,-z
1/2-x,1/2+y,1/2+z
1/2+x,1/2-y,1/2+z
loop_
_atom_site_type_symbol
_atom_site_label
_atom_site_fract_x
_atom_site_fract_y
_atom_site_fract_z
Si Si1 0.805316 0.554742 0.830420
Si Si2 0.719791 0.421938 0.665906
Si Si3 0.597332 0.459027 0.836358
Si Si4 0.269013 0.270918 0.833000
Si Si5 0.394930 0.222799 0.328281
Si Si6 0.432415 0.027055 0.329994
Si Si7 0.526090 0.642906 0.163877
O O1 0.774140 0.470558 0.753707
O O2 0.774236 0.647097 0.776194
O O3 0.880240 0.549474 0.794456
O O4 0.794260 0.542406 0.000000
O O5 0.725838 0.450639 0.500000
O O6 0.652021 0.450125 0.721329
O O7 0.726746 0.316305 0.687634
O O8 0.546253 0.382093 0.805790
O O9 0.568301 0.555933 0.813304
O O10 0.623502 0.449781 0.000000
O O11 0.332329 0.264832 0.740810
O O12 0.288510 0.285183 0.000000
O O13 0.387990 0.226847 0.500000
O O14 0.407459 0.122356 0.270494
O O15 0.454325 0.281482 0.277668
O O16 0.442156 0.038040 0.500000
O O17 0.500000 0.000000 0.259475
O O18 0.534129 0.678649 0.000000
#
# Coordination Sequence:
#
# PCOD8237711 Si02
#       7
#     8   8   8   8   8   8   8
#     4  10  20  38  60  80 108 152 195 229 279 349
#     4  11  22  35  54  84 116 142 177 238 291 324
#     4   9  19  36  56  78 108 150 191 223 269 339
#     4  10  22  37  56  80 111 152 190 229 284 347
#     4  11  21  34  57  86 111 143 188 241 287 335
#     4   9  19  36  58  82 108 143 190 238 278 332
#     4   9  19  36  56  78 109 149 187 224 273 340
#
# _framework density 19.095531000000001
#
# number of rings (size 3 to 8) (size 9 to 14) (size 15 to 20)
#    0.000    2.143    1.429    2.571    0.000    6.857 
#    0.000    4.286    0.000    3.857    0.000    0.000 
#    0.000    0.000    0.000    0.000    0.000    0.000 
#
# Total GULP energy -694397.425718 kJ/mol
# GULP energy per Si atom -12399.954031 kJ/mol
# Density = 1.905207 g / cm^3
# Si number density = 19.095531 Si / 1000 Ang^3
#
#
#
# Elastic Constant Matrix: (Units=GPa)
#
#
# Indices 1 2 3 4 5 6 
#
# 1 125.8047 48.9782 36.3827 0.0000 0.0000 0.0000
# 2 48.9782 97.1858 31.4646 0.0000 0.0000 0.0000
# 3 36.3827 31.4646 47.2769 0.0000 0.0000 0.0000
# 4 0.0000 0.0000 0.0000 27.4915 0.0000 0.0000
# 5 0.0000 0.0000 0.0000 0.0000 14.4472 0.0000
# 6 0.0000 0.0000 0.0000 0.0000 0.0000 25.1911
#
#
#
# Elastic Compliance Matrix: (Units=1/GPa)
#
#
# Indices 1 2 3 4 5 6 
#
# 1 0.011141 -0.003618 -0.006165 0.000000 0.000000 0.000000
# 2 -0.003618 0.014291 -0.006727 0.000000 0.000000 0.000000
# 3 -0.006165 -0.006727 0.030373 0.000000 0.000000 0.000000
# 4 0.000000 0.000000 0.000000 0.036375 0.000000 0.000000
# 5 0.000000 0.000000 0.000000 0.000000 0.069218 0.000000
# 6 0.000000 0.000000 0.000000 0.000000 0.000000 0.039696
#
#
# Mechanical properties :
#
#
# Convention : Reuss Voigt Hill
#
# Bulk Modulus (GPa) = 43.88960 55.99092 49.94026
# Shear Modulus (GPa) = 20.68604 23.65542 22.17073
#
# Velocity S-wave (km/s) = 3.29491 3.52347 3.41110
# Velocity P-wave (km/s) = 6.12449 6.77778 6.45940
#
# Compressibility (1/GPa) = 0.02278444
#
# Stress axis : x y z
#
# Youngs Moduli (GPa) = 89.76245 69.97474 32.92367
#
# Poissons Ratio (x) = 0.25320 0.20298
# Poissons Ratio (y) = 0.32480 0.22146
# Poissons Ratio (z) = 0.55340 0.47069
#
# Static dielectric constant tensor:
#      x y z
#    x 3.628120 0.000000 0.000000 
#    y 0.000000 3.599950 0.000000 
#    z 0.000000 0.000000 3.338240 
# 
# 
# High freq. dielectric constant tensor:
#      x y z
#    x 1.750540 0.000000 0.000000 
#    y 0.000000 1.744020 0.000000 
#    z 0.000000 0.000000 1.723990 
# 
# From -- ./inp_files/6420.got.cif
#   From: 2010.06.25/outbox.cif.g09.slc.cpg/sg58_4_cif.got.tgz:6420.got - 2010.06.26 21:38:00.
