data_PCOD8237774
_publ_section_title
;
Structure prediction by ZEFSAII (Michael W. Deem and Ramdas Pophale) SiO2 
 PCOD8237774
Probable space group: P N N M
;
_chemical_formula_sum "Si O2"
_cell_formula_units_Z 64
_cell_length_a 32.499815
_cell_length_b 10.947074
_cell_length_c 8.860619
_cell_angle_alpha 90.000000
_cell_angle_beta 90.000000
_cell_angle_gamma 90.000000
_cell_volume 3152.412241
_symmetry_space_group_name_H-M "P N N M"
_symmetry_group_IT_number 58
_symmetry_cell_setting 'orthorhombic'
loop_
_space_group_symop_operation_xyz
x,y,z
-x,-y,z
1/2+x,1/2-y,1/2-z
1/2-x,1/2+y,1/2-z
-x,-y,-z
x,y,-z
1/2-x,1/2+y,1/2+z
1/2+x,1/2-y,1/2+z
loop_
_atom_site_type_symbol
_atom_site_label
_atom_site_fract_x
_atom_site_fract_y
_atom_site_fract_z
Si Si1 0.663219 0.732718 0.176215
Si Si2 0.613305 0.335669 0.326425
Si Si3 0.402535 0.132020 0.674654
Si Si4 0.691695 0.497804 0.675558
Si Si5 0.030626 0.108534 0.676001
Si Si6 0.514709 0.860617 0.826944
Si Si7 0.860493 0.592692 0.323293
Si Si8 0.283077 0.046500 0.822383
O O1 0.622409 0.746798 0.278000
O O2 0.681078 0.601829 0.207526
O O3 0.696610 0.829567 0.238016
O O4 0.653028 0.750024 0.000000
O O5 0.601485 0.330815 0.500000
O O6 0.657875 0.394465 0.298754
O O7 0.576003 0.408460 0.247252
O O8 0.617913 0.199738 0.266361
O O9 0.395959 0.098341 0.500000
O O10 0.449556 0.161548 0.707375
O O11 0.387110 0.026093 0.785593
O O12 0.692978 0.539544 0.500000
O O13 0.736522 0.457591 0.736522
O O14 0.035898 0.087328 0.500000
O O15 0.016806 0.249345 0.710011
O O16 0.000000 0.000000 0.737688
O O17 0.500000 0.000000 0.799425
O O18 0.529510 0.847087 0.000000
O O19 0.864037 0.620727 0.500000
O O20 0.812643 0.567944 0.274299
O O21 0.282207 0.051924 0.000000
#
# Coordination Sequence:
#
# PCOD8237774 Si02
#       8
#     8   8   8   8   8   8   8   8
#     4  10  21  38  60  85 116 157 203 245 288 350
#     4  11  24  39  60  89 124 161 198 248 309 364
#     4  11  22  37  61  91 123 156 193 244 304 356
#     4  10  22  39  58  85 122 158 197 246 300 355
#     4  10  23  42  63  88 120 161 207 254 306 372
#     4  10  21  38  62  90 119 156 201 253 305 362
#     4  10  20  38  63  89 123 163 205 248 291 354
#     4   8  18  37  59  84 117 156 196 245 297 345
#
# _framework density 20.301912000000002
#
# number of rings (size 3 to 8) (size 9 to 14) (size 15 to 20)
#    0.000    2.000    0.000    3.750    3.500    3.000 
#    0.000    3.125    0.000    0.000    0.000    0.000 
#    0.000    0.000    0.000    0.000    0.000    0.000 
#
# Total GULP energy -793226.803153 kJ/mol
# GULP energy per Si atom -12394.168799 kJ/mol
# Density = 2.025570 g / cm^3
# Si number density = 20.301912 Si / 1000 Ang^3
#
#
#
# Elastic Constant Matrix: (Units=GPa)
#
#
# Indices 1 2 3 4 5 6 
#
# 1 118.0645 16.0946 42.7782 0.0000 0.0000 0.0000
# 2 16.0946 68.5830 20.7194 0.0000 0.0000 0.0000
# 3 42.7782 20.7194 53.5986 0.0000 0.0000 0.0000
# 4 0.0000 0.0000 0.0000 25.5997 0.0000 0.0000
# 5 0.0000 0.0000 0.0000 0.0000 30.0412 0.0000
# 6 0.0000 0.0000 0.0000 0.0000 0.0000 24.3124
#
#
#
# Elastic Compliance Matrix: (Units=1/GPa)
#
#
# Indices 1 2 3 4 5 6 
#
# 1 0.011916 0.000087 -0.009544 0.000000 0.000000 0.000000
# 2 0.000087 0.016509 -0.006451 0.000000 0.000000 0.000000
# 3 -0.009544 -0.006451 0.028769 0.000000 0.000000 0.000000
# 4 0.000000 0.000000 0.000000 0.039063 0.000000 0.000000
# 5 0.000000 0.000000 0.000000 0.000000 0.033288 0.000000
# 6 0.000000 0.000000 0.000000 0.000000 0.000000 0.041131
#
#
# Mechanical properties :
#
#
# Convention : Reuss Voigt Hill
#
# Bulk Modulus (GPa) = 39.40588 44.38119 41.89353
# Shear Modulus (GPa) = 23.70202 26.70091 25.20146
#
# Velocity S-wave (km/s) = 3.42054 3.63049 3.52708
# Velocity P-wave (km/s) = 5.92049 6.28347 6.10468
#
# Compressibility (1/GPa) = 0.02537692
#
# Stress axis : x y z
#
# Youngs Moduli (GPa) = 83.91903 60.57123 34.76015
#
# Poissons Ratio (x) = -0.00527 0.33176
# Poissons Ratio (y) = -0.00730 0.22425
# Poissons Ratio (z) = 0.80094 0.39077
#
# Static dielectric constant tensor:
#      x y z
#    x 2.876580 0.000000 0.000000 
#    y 0.000000 3.714730 0.000000 
#    z 0.000000 0.000000 3.452590 
# 
# 
# High freq. dielectric constant tensor:
#      x y z
#    x 1.803920 0.000000 0.000000 
#    y 0.000000 1.790430 0.000000 
#    z 0.000000 0.000000 1.779460 
# 
# From -- ./inp_files/11089.got.cif
#   From: 2010.06.25/outbox.cif.g09.slc.cpg/sg58_6_cif.got.tgz:11089.got - 2010.06.26 21:38:00.
