data_PCOD8237109
_publ_section_title
;
Structure prediction by ZEFSAII (Michael W. Deem and Ramdas Pophale) SiO2 
 PCOD8237109
Probable space group: P N N M
;
_chemical_formula_sum "Si O2"
_cell_formula_units_Z 56
_cell_length_a 21.781983
_cell_length_b 14.500980
_cell_length_c 9.366389
_cell_angle_alpha 90.000000
_cell_angle_beta 90.000000
_cell_angle_gamma 90.000000
_cell_volume 2958.468565
_symmetry_space_group_name_H-M "P N N M"
_symmetry_group_IT_number 58
_symmetry_cell_setting 'orthorhombic'
loop_
_space_group_symop_operation_xyz
x,y,z
-x,-y,z
1/2+x,1/2-y,1/2-z
1/2-x,1/2+y,1/2-z
-x,-y,-z
x,y,-z
1/2-x,1/2+y,1/2+z
1/2+x,1/2-y,1/2+z
loop_
_atom_site_type_symbol
_atom_site_label
_atom_site_fract_x
_atom_site_fract_y
_atom_site_fract_z
Si Si1 0.428700 0.498930 0.669230
Si Si2 0.724039 0.824174 0.669810
Si Si3 0.855797 0.491248 0.839367
Si Si4 0.637839 0.339476 0.165022
Si Si5 0.618152 0.697057 0.330501
Si Si6 0.587660 0.139729 0.164297
Si Si7 0.968648 0.358285 0.839144
O O1 0.500000 0.500000 0.714440
O O2 0.422035 0.509449 0.500000
O O3 0.393742 0.582414 0.742375
O O4 0.396567 0.405181 0.726914
O O5 0.719931 0.821552 0.500000
O O6 0.695104 0.920917 0.722697
O O7 0.793674 0.819057 0.724022
O O8 0.683504 0.737142 0.727964
O O9 0.858117 0.581124 0.739103
O O10 0.921618 0.442318 0.838361
O O11 0.838951 0.522371 0.000000
O O12 0.599135 0.247446 0.185241
O O13 0.640094 0.370696 0.000000
O O14 0.619540 0.695872 0.500000
O O15 0.563739 0.765284 0.281660
O O16 0.523135 0.115075 0.234483
O O17 0.586265 0.111010 0.000000
O O18 0.994214 0.343442 0.000000
#
# Coordination Sequence:
#
# PCOD8237109 Si02
#       7
#     8   8   8   8   8   8   8
#     4  10  20  34  55  82 106 132 172 220 263 300
#     4   8  16  34  55  73  97 131 171 210 251 305
#     4   9  18  33  55  77  96 128 171 209 246 293
#     4  10  22  37  51  71 102 138 172 207 252 307
#     4   8  15  30  54  78  98 127 168 212 255 299
#     4  11  22  32  46  73 107 138 163 197 251 303
#     4   9  17  32  54  77 100 128 165 205 244 295
#
# _framework density 18.928712000000001
#
# number of rings (size 3 to 8) (size 9 to 14) (size 15 to 20)
#    0.000    2.714    0.000    3.429    0.000    6.000 
#    0.000    2.857    0.000    2.571    0.000    0.000 
#    0.000    0.000    0.000    0.000    0.000    0.000 
#
# Total GULP energy -694251.527083 kJ/mol
# GULP energy per Si atom -12397.348698 kJ/mol
# Density = 1.888563 g / cm^3
# Si number density = 18.928712 Si / 1000 Ang^3
#
#
#
# Elastic Constant Matrix: (Units=GPa)
#
#
# Indices 1 2 3 4 5 6 
#
# 1 89.6041 25.3659 23.0310 0.0000 0.0000 0.0000
# 2 25.3659 93.4233 33.8450 0.0000 0.0000 0.0000
# 3 23.0310 33.8450 52.9546 0.0000 0.0000 0.0000
# 4 0.0000 0.0000 0.0000 26.5376 0.0000 0.0000
# 5 0.0000 0.0000 0.0000 0.0000 13.1884 0.0000
# 6 0.0000 0.0000 0.0000 0.0000 0.0000 20.8637
#
#
#
# Elastic Compliance Matrix: (Units=1/GPa)
#
#
# Indices 1 2 3 4 5 6 
#
# 1 0.012819 -0.001901 -0.004360 0.000000 0.000000 0.000000
# 2 -0.001901 0.014211 -0.008256 0.000000 0.000000 0.000000
# 3 -0.004360 -0.008256 0.026057 0.000000 0.000000 0.000000
# 4 0.000000 0.000000 0.000000 0.037682 0.000000 0.000000
# 5 0.000000 0.000000 0.000000 0.000000 0.075824 0.000000
# 6 0.000000 0.000000 0.000000 0.000000 0.000000 0.047930
#
#
# Mechanical properties :
#
#
# Convention : Reuss Voigt Hill
#
# Bulk Modulus (GPa) = 41.57519 44.49618 43.03568
# Shear Modulus (GPa) = 19.87471 22.36728 21.12100
#
# Velocity S-wave (km/s) = 3.24385 3.44126 3.34401
# Velocity P-wave (km/s) = 6.00349 6.27279 6.13962
#
# Compressibility (1/GPa) = 0.02405281
#
# Stress axis : x y z
#
# Youngs Moduli (GPa) = 78.00876 70.36772 38.37713
#
# Poissons Ratio (x) = 0.13376 0.16734
# Poissons Ratio (y) = 0.14829 0.31684
# Poissons Ratio (z) = 0.34014 0.58096
#
# Static dielectric constant tensor:
#      x y z
#    x 3.665540 0.000000 0.000000 
#    y 0.000000 3.710950 0.000000 
#    z 0.000000 0.000000 3.154300 
# 
# 
# High freq. dielectric constant tensor:
#      x y z
#    x 1.734520 0.000000 0.000000 
#    y 0.000000 1.744400 0.000000 
#    z 0.000000 0.000000 1.697050 
# 
# From -- ./inp_files/9053.got.cif
#   From: 2010.06.25/outbox.cif.g09.slc.cpg/sg58_5_cif.got.tgz:9053.got - 2010.06.26 21:38:00.
