data_PCOD8237549
_publ_section_title
;
Structure prediction by ZEFSAII (Michael W. Deem and Ramdas Pophale) SiO2 
 PCOD8237549
Probable space group: P N N M
;
_chemical_formula_sum "Si O2"
_cell_formula_units_Z 64
_cell_length_a 10.755606
_cell_length_b 32.135340
_cell_length_c 9.147313
_cell_angle_alpha 90.000000
_cell_angle_beta 90.000000
_cell_angle_gamma 90.000000
_cell_volume 3161.632038
_symmetry_space_group_name_H-M "P N N M"
_symmetry_group_IT_number 58
_symmetry_cell_setting 'orthorhombic'
loop_
_space_group_symop_operation_xyz
x,y,z
-x,-y,z
1/2+x,1/2-y,1/2-z
1/2-x,1/2+y,1/2-z
-x,-y,-z
x,y,-z
1/2-x,1/2+y,1/2+z
1/2+x,1/2-y,1/2+z
loop_
_atom_site_type_symbol
_atom_site_label
_atom_site_fract_x
_atom_site_fract_y
_atom_site_fract_z
Si Si1 0.905769 0.151511 0.332975
Si Si2 0.516635 0.196490 0.833268
Si Si3 0.516799 0.278204 0.336503
Si Si4 0.357097 0.597943 0.830310
Si Si5 0.755513 0.334737 0.340042
Si Si6 0.134606 0.378456 0.167139
Si Si7 0.377583 0.973979 0.671244
Si Si8 0.140281 0.012491 0.826380
O O1 0.921772 0.165262 0.500000
O O2 0.780471 0.126650 0.302602
O O3 0.908843 0.194853 0.242650
O O4 0.011894 0.118745 0.289214
O O5 0.560698 0.236354 0.743491
O O6 0.368848 0.196292 0.815117
O O7 0.564464 0.152768 0.773019
O O8 0.560873 0.201297 0.000000
O O9 0.471730 0.267458 0.500000
O O10 0.635537 0.306786 0.334316
O O11 0.248342 0.630236 0.786071
O O12 0.337353 0.558690 0.728798
O O13 0.345100 0.585850 0.000000
O O14 0.766381 0.356352 0.500000
O O15 0.093827 0.425550 0.202869
O O16 0.102591 0.367143 0.000000
O O17 0.352559 0.981969 0.500000
O O18 0.500000 0.000000 0.723084
O O19 0.250295 0.984918 0.756112
O O20 0.153082 0.009608 0.000000
O O21 0.000000 0.000000 0.776258
#
# Coordination Sequence:
#
# PCOD8237549 Si02
#       8
#     8   8   8   8   8   8   8   8
#     4   9  19  37  60  87 121 159 196 244 301 355
#     4  11  24  39  58  85 118 156 198 241 290 356
#     4  10  21  38  60  86 115 153 196 245 298 348
#     4  10  20  36  63  92 118 153 199 249 299 353
#     4   9  21  40  58  81 118 156 192 240 297 355
#     4  10  22  40  61  86 121 159 198 246 301 357
#     4  10  23  43  66  94 127 164 210 262 314 372
#     4  11  24  40  62  93 128 165 206 255 309 370
#
# _framework density 20.242711
#
# number of rings (size 3 to 8) (size 9 to 14) (size 15 to 20)
#    0.000    2.000    0.000    2.250    3.500    5.250 
#    0.000    0.000    0.000    0.000    0.000    0.000 
#    0.000    0.000    0.000    0.000    0.000    0.000 
#
# Total GULP energy -793500.454230 kJ/mol
# GULP energy per Si atom -12398.444597 kJ/mol
# Density = 2.019664 g / cm^3
# Si number density = 20.242711 Si / 1000 Ang^3
#
#
#
# Elastic Constant Matrix: (Units=GPa)
#
#
# Indices 1 2 3 4 5 6 
#
# 1 41.9975 8.1399 25.1336 0.0000 0.0000 0.0000
# 2 8.1399 100.6140 46.9858 0.0000 0.0000 0.0000
# 3 25.1336 46.9858 95.0043 0.0000 0.0000 0.0000
# 4 0.0000 0.0000 0.0000 38.4364 0.0000 0.0000
# 5 0.0000 0.0000 0.0000 0.0000 26.4635 0.0000
# 6 0.0000 0.0000 0.0000 0.0000 0.0000 9.8880
#
#
#
# Elastic Compliance Matrix: (Units=1/GPa)
#
#
# Indices 1 2 3 4 5 6 
#
# 1 0.028482 0.001579 -0.008316 0.000000 0.000000 0.000000
# 2 0.001579 0.013011 -0.006853 0.000000 0.000000 0.000000
# 3 -0.008316 -0.006853 0.016115 0.000000 0.000000 0.000000
# 4 0.000000 0.000000 0.000000 0.026017 0.000000 0.000000
# 5 0.000000 0.000000 0.000000 0.000000 0.037788 0.000000
# 6 0.000000 0.000000 0.000000 0.000000 0.000000 0.101133
#
#
# Mechanical properties :
#
#
# Convention : Reuss Voigt Hill
#
# Bulk Modulus (GPa) = 32.86332 44.23715 38.55023
# Shear Modulus (GPa) = 19.24059 25.44802 22.34430
#
# Velocity S-wave (km/s) = 3.08635 3.54947 3.32598
# Velocity P-wave (km/s) = 5.38244 6.22086 5.81678
#
# Compressibility (1/GPa) = 0.03042906
#
# Stress axis : x y z
#
# Youngs Moduli (GPa) = 35.11042 76.85581 62.05413
#
# Poissons Ratio (x) = -0.12137 0.51604
# Poissons Ratio (y) = -0.05545 0.42524
# Poissons Ratio (z) = 0.29198 0.52667
#
# Static dielectric constant tensor:
#      x y z
#    x 3.838960 0.000000 0.000000 
#    y 0.000000 3.827610 0.000000 
#    z 0.000000 0.000000 3.886180 
# 
# 
# High freq. dielectric constant tensor:
#      x y z
#    x 1.790430 0.000000 0.000000 
#    y 0.000000 1.795820 0.000000 
#    z 0.000000 0.000000 1.792170 
# 
# From -- ./inp_files/4842.got.cif
#   From: 2010.06.25/outbox.cif.g09.slc.cpg/sg58_3_cif.got.tgz:4842.got - 2010.06.26 21:38:00.
