data_PCOD8237551
_publ_section_title
;
Structure prediction by ZEFSAII (Michael W. Deem and Ramdas Pophale) SiO2 
 PCOD8237551
Probable space group: P N N M
;
_chemical_formula_sum "Si O2"
_cell_formula_units_Z 40
_cell_length_a 16.115892
_cell_length_b 8.080736
_cell_length_c 15.671014
_cell_angle_alpha 90.000000
_cell_angle_beta 90.000000
_cell_angle_gamma 90.000000
_cell_volume 2040.809021
_symmetry_space_group_name_H-M "P N N M"
_symmetry_group_IT_number 58
_symmetry_cell_setting 'orthorhombic'
loop_
_space_group_symop_operation_xyz
x,y,z
-x,-y,z
1/2+x,1/2-y,1/2-z
1/2-x,1/2+y,1/2-z
-x,-y,-z
x,y,-z
1/2-x,1/2+y,1/2+z
1/2+x,1/2-y,1/2+z
loop_
_atom_site_type_symbol
_atom_site_label
_atom_site_fract_x
_atom_site_fract_y
_atom_site_fract_z
Si Si1 0.293696 0.797860 0.329558
Si Si2 0.442162 0.272179 0.500000
Si Si3 0.819380 0.496427 0.664556
Si Si4 0.000000 0.500000 0.716718
Si Si5 0.471347 0.676444 0.322687
Si Si6 0.318146 0.000522 0.500000
Si Si7 0.260611 0.344651 0.500000
O O1 0.209361 0.693685 0.335117
O O2 0.285945 0.924115 0.251664
O O3 0.371882 0.676655 0.316696
O O4 0.306499 0.894045 0.416567
O O5 0.498227 0.312743 0.419426
O O6 0.588979 0.919643 0.500000
O O7 0.359262 0.388901 0.500000
O O8 0.782104 0.587281 0.583783
O O9 0.918848 0.507302 0.657516
O O10 0.991202 0.334568 0.773504
O O11 0.500000 0.500000 0.282653
O O12 0.249286 0.145998 0.500000
#
# Coordination Sequence:
#
# PCOD8237551 Si02
#       7
#     8   4   8   4   8   4   4
#     4  11  23  37  66  92 129 170 210 265 328 399
#     4  10  20  36  63  93 139 154 199 272 331 413
#     4  11  23  42  63  92 126 173 221 266 330 378
#     4  10  26  42  62  90 128 174 222 277 316 385
#     4  11  22  37  61  99 129 168 207 259 341 400
#     4  10  22  40  61  97 128 168 208 260 333 392
#     4  10  23  39  64  90 123 172 213 262 322 382
#
# _framework density 19.600069999999999
#
# number of rings (size 3 to 8) (size 9 to 14) (size 15 to 20)
#    0.600    0.800    0.000    6.300    5.600    1.600 
#    0.000    0.000    0.000    1.200    0.000    0.000 
#    0.000    0.000    0.000    0.000    0.000    0.000 
#
# Total GULP energy -495988.930862 kJ/mol
# GULP energy per Si atom -12399.723272 kJ/mol
# Density = 1.955546 g / cm^3
# Si number density = 19.600070 Si / 1000 Ang^3
#
#
#
# Elastic Constant Matrix: (Units=GPa)
#
#
# Indices 1 2 3 4 5 6 
#
# 1 78.4657 16.4308 16.0172 0.0000 0.0000 0.0000
# 2 16.4308 116.7615 22.3322 0.0000 0.0000 0.0000
# 3 16.0172 22.3322 92.6315 0.0000 0.0000 0.0000
# 4 0.0000 0.0000 0.0000 19.5639 0.0000 0.0000
# 5 0.0000 0.0000 0.0000 0.0000 2.8995 0.0000
# 6 0.0000 0.0000 0.0000 0.0000 0.0000 24.1014
#
#
#
# Elastic Compliance Matrix: (Units=1/GPa)
#
#
# Indices 1 2 3 4 5 6 
#
# 1 0.013463 -0.001519 -0.001962 0.000000 0.000000 0.000000
# 2 -0.001519 0.009150 -0.001943 0.000000 0.000000 0.000000
# 3 -0.001962 -0.001943 0.011603 0.000000 0.000000 0.000000
# 4 0.000000 0.000000 0.000000 0.051115 0.000000 0.000000
# 5 0.000000 0.000000 0.000000 0.000000 0.344886 0.000000
# 6 0.000000 0.000000 0.000000 0.000000 0.000000 0.041491
#
#
# Mechanical properties :
#
#
# Convention : Reuss Voigt Hill
#
# Bulk Modulus (GPa) = 42.79412 44.15769 43.47591
# Shear Modulus (GPa) = 10.19689 24.85152 17.52420
#
# Velocity S-wave (km/s) = 2.28337 3.56466 2.99338
# Velocity P-wave (km/s) = 5.36961 6.28655 5.84609
#
# Compressibility (1/GPa) = 0.02336769
#
# Stress axis : x y z
#
# Youngs Moduli (GPa) = 74.27759 109.29039 86.18359
#
# Poissons Ratio (x) = 0.16605 0.16906
# Poissons Ratio (y) = 0.11285 0.16747
# Poissons Ratio (z) = 0.14571 0.21237
#
# Static dielectric constant tensor:
#      x y z
#    x 3.698050 0.000000 0.000000 
#    y 0.000000 3.808860 0.000000 
#    z 0.000000 0.000000 3.339790 
# 
# 
# High freq. dielectric constant tensor:
#      x y z
#    x 1.761510 0.000000 0.000000 
#    y 0.000000 1.776540 0.000000 
#    z 0.000000 0.000000 1.756540 
# 
# From -- ./inp_files/19539.got.cif
#   From: 2010.06.25/outbox.cif.g09.slc.cpg/sg58_10_cif.got.tgz:19539.got - 2010.06.26 21:38:00.
