data_PCOD8237746
_publ_section_title
;
Structure prediction by ZEFSAII (Michael W. Deem and Ramdas Pophale) SiO2 
 PCOD8237746
Probable space group: P N N M
;
_chemical_formula_sum "Si O2"
_cell_formula_units_Z 52
_cell_length_a 12.358353
_cell_length_b 9.692728
_cell_length_c 24.445798
_cell_angle_alpha 90.000000
_cell_angle_beta 90.000000
_cell_angle_gamma 90.000000
_cell_volume 2928.268128
_symmetry_space_group_name_H-M "P N N M"
_symmetry_group_IT_number 58
_symmetry_cell_setting 'orthorhombic'
loop_
_space_group_symop_operation_xyz
x,y,z
-x,-y,z
1/2+x,1/2-y,1/2-z
1/2-x,1/2+y,1/2-z
-x,-y,-z
x,y,-z
1/2-x,1/2+y,1/2+z
1/2+x,1/2-y,1/2+z
loop_
_atom_site_type_symbol
_atom_site_label
_atom_site_fract_x
_atom_site_fract_y
_atom_site_fract_z
Si Si1 0.178289 0.189053 0.159388
Si Si2 0.000000 0.000000 0.673621
Si Si3 0.233175 0.984017 0.353602
Si Si4 0.597699 0.898236 0.563414
Si Si5 0.830089 0.468211 0.261881
Si Si6 0.531528 0.227434 0.754647
Si Si7 0.044023 0.148234 0.058821
O O1 0.242685 0.323937 0.142789
O O2 0.257117 0.078391 0.187360
O O3 0.072788 0.221245 0.195851
O O4 0.139187 0.129181 0.102075
O O5 0.894606 0.999410 0.635008
O O6 0.006525 0.139934 0.708936
O O7 0.299464 0.069582 0.398594
O O8 0.255598 0.033403 0.291773
O O9 0.633077 0.911586 0.500000
O O10 0.553810 0.746789 0.578608
O O11 0.500000 0.000000 0.578477
O O12 0.876820 0.620176 0.277255
O O13 0.922223 0.357978 0.248066
O O14 0.088111 0.206954 0.000000
O O15 0.000000 0.000000 0.047392
#
# Coordination Sequence:
#
# PCOD8237746 Si02
#       7
#     8   4   8   8   8   8   8
#     4  11  20  35  58  81 112 154 185 228 289 344
#     4  12  22  36  51  78 119 142 190 232 268 330
#     4  11  22  35  56  85 114 148 193 234 279 343
#     4  10  20  38  62  85 111 146 187 238 291 334
#     4  10  21  36  53  78 114 151 190 226 283 340
#     4  10  22  35  51  79 113 147 188 233 278 339
#     4  10  22  37  57  89 116 140 185 240 291 342
#
# _framework density 17.757937999999999
#
# number of rings (size 3 to 8) (size 9 to 14) (size 15 to 20)
#    0.000    1.538    4.615    0.923    3.231    1.231 
#    0.000    0.385    0.000    0.000    0.000    3.231 
#    0.000    0.000    0.000    0.000    0.000    0.000 
#
# Total GULP energy -644571.795137 kJ/mol
# GULP energy per Si atom -12395.611445 kJ/mol
# Density = 1.771752 g / cm^3
# Si number density = 17.757938 Si / 1000 Ang^3
#
#
#
# Elastic Constant Matrix: (Units=GPa)
#
#
# Indices 1 2 3 4 5 6 
#
# 1 120.4516 31.7614 54.3066 0.0000 0.0000 0.0000
# 2 31.7614 94.6706 28.0789 0.0000 0.0000 0.0000
# 3 54.3066 28.0789 85.3664 0.0000 0.0000 0.0000
# 4 0.0000 0.0000 0.0000 21.6720 0.0000 0.0000
# 5 0.0000 0.0000 0.0000 0.0000 27.6230 0.0000
# 6 0.0000 0.0000 0.0000 0.0000 0.0000 24.6424
#
#
#
# Elastic Compliance Matrix: (Units=1/GPa)
#
#
# Indices 1 2 3 4 5 6 
#
# 1 0.011956 -0.001945 -0.006966 0.000000 0.000000 0.000000
# 2 -0.001945 0.012021 -0.002717 0.000000 0.000000 0.000000
# 3 -0.006966 -0.002717 0.017039 0.000000 0.000000 0.000000
# 4 0.000000 0.000000 0.000000 0.046143 0.000000 0.000000
# 5 0.000000 0.000000 0.000000 0.000000 0.036202 0.000000
# 6 0.000000 0.000000 0.000000 0.000000 0.000000 0.040581
#
#
# Mechanical properties :
#
#
# Convention : Reuss Voigt Hill
#
# Bulk Modulus (GPa) = 56.30370 58.75360 57.52865
# Shear Modulus (GPa) = 25.89113 27.21026 26.55069
#
# Velocity S-wave (km/s) = 3.82252 3.91869 3.87091
# Velocity P-wave (km/s) = 7.15942 7.32342 7.24188
#
# Compressibility (1/GPa) = 0.01776082
#
# Stress axis : x y z
#
# Youngs Moduli (GPa) = 83.64287 83.18610 58.68806
#
# Poissons Ratio (x) = 0.16179 0.40882
# Poissons Ratio (y) = 0.16268 0.15944
# Poissons Ratio (z) = 0.58265 0.22600
#
# Static dielectric constant tensor:
#      x y z
#    x 3.201600 0.000000 0.000000 
#    y 0.000000 3.540010 0.000000 
#    z 0.000000 0.000000 3.517530 
# 
# 
# High freq. dielectric constant tensor:
#      x y z
#    x 1.678600 0.000000 0.000000 
#    y 0.000000 1.704930 0.000000 
#    z 0.000000 0.000000 1.668550 
# 
# From -- ./inp_files/33279.got.cif
#   From: 2010.06.25/outbox.cif.g09.slc.cpg/sg58_17_cif.got.tgz:33279.got - 2010.06.26 21:38:00.
