data_PCOD8237016
_publ_section_title
;
Structure prediction by ZEFSAII (Michael W. Deem and Ramdas Pophale) SiO2 
 PCOD8237016
Probable space group: P N N M
;
_chemical_formula_sum "Si O2"
_cell_formula_units_Z 56
_cell_length_a 18.039456
_cell_length_b 18.812778
_cell_length_c 9.043385
_cell_angle_alpha 90.000000
_cell_angle_beta 90.000000
_cell_angle_gamma 90.000000
_cell_volume 3069.074195
_symmetry_space_group_name_H-M "P N N M"
_symmetry_group_IT_number 58
_symmetry_cell_setting 'orthorhombic'
loop_
_space_group_symop_operation_xyz
x,y,z
-x,-y,z
1/2+x,1/2-y,1/2-z
1/2-x,1/2+y,1/2-z
-x,-y,-z
x,y,-z
1/2-x,1/2+y,1/2+z
1/2+x,1/2-y,1/2+z
loop_
_atom_site_type_symbol
_atom_site_label
_atom_site_fract_x
_atom_site_fract_y
_atom_site_fract_z
Si Si1 0.488534 0.719613 0.336721
Si Si2 0.960252 0.072607 0.826439
Si Si3 0.121778 0.611990 0.672735
Si Si4 0.542496 0.146398 0.173740
Si Si5 0.810406 0.114006 0.675737
Si Si6 0.173709 0.454316 0.326013
Si Si7 0.661277 0.753908 0.333551
O O1 0.455587 0.731254 0.500000
O O2 0.481939 0.636809 0.289069
O O3 0.444357 0.772912 0.229941
O O4 0.575191 0.736047 0.333234
O O5 0.886897 0.079467 0.729381
O O6 0.938409 0.075564 0.000000
O O7 0.000000 0.000000 0.782630
O O8 0.125504 0.629631 0.500000
O O9 0.152659 0.534929 0.709818
O O10 0.172883 0.669614 0.756656
O O11 0.036579 0.616155 0.728905
O O12 0.606990 0.095279 0.232706
O O13 0.544874 0.148322 0.000000
O O14 0.810341 0.119269 0.500000
O O15 0.745959 0.062627 0.731953
O O16 0.796431 0.192558 0.742817
O O17 0.188754 0.443039 0.500000
O O18 0.693305 0.756358 0.500000
#
# Coordination Sequence:
#
# PCOD8237016 Si02
#       7
#     8   8   8   8   8   8   8
#     4   8  15  28  48  74  99 124 158 201 248 300
#     4   9  18  35  58  79 100 131 170 213 265 318
#     4   9  17  31  53  79 103 131 172 216 255 300
#     4   9  17  30  50  75 102 135 173 209 248 299
#     4  11  22  35  52  75 103 136 176 216 255 304
#     4  10  20  34  51  73 106 143 173 208 259 312
#     4   9  17  32  53  73  96 128 165 204 251 305
#
# _framework density 18.246545000000001
#
# number of rings (size 3 to 8) (size 9 to 14) (size 15 to 20)
#    0.000    2.714    0.000    3.000    0.000    6.571 
#    0.000    1.429    0.000    9.429    0.000    0.000 
#    0.000    0.000    0.000    0.000    0.000    0.000 
#
# Total GULP energy -694278.959687 kJ/mol
# GULP energy per Si atom -12397.838566 kJ/mol
# Density = 1.820501 g / cm^3
# Si number density = 18.246545 Si / 1000 Ang^3
#
#
#
# Elastic Constant Matrix: (Units=GPa)
#
#
# Indices 1 2 3 4 5 6 
#
# 1 55.3065 47.9556 36.3328 0.0000 0.0000 0.0000
# 2 47.9556 155.1605 50.4569 0.0000 0.0000 0.0000
# 3 36.3328 50.4569 73.1710 0.0000 0.0000 0.0000
# 4 0.0000 0.0000 0.0000 33.4761 0.0000 0.0000
# 5 0.0000 0.0000 0.0000 0.0000 18.8377 0.0000
# 6 0.0000 0.0000 0.0000 0.0000 0.0000 19.2606
#
#
#
# Elastic Compliance Matrix: (Units=1/GPa)
#
#
# Indices 1 2 3 4 5 6 
#
# 1 0.030387 -0.005782 -0.011102 0.000000 0.000000 0.000000
# 2 -0.005782 0.009408 -0.003617 0.000000 0.000000 0.000000
# 3 -0.011102 -0.003617 0.021673 0.000000 0.000000 0.000000
# 4 0.000000 0.000000 0.000000 0.029872 0.000000 0.000000
# 5 0.000000 0.000000 0.000000 0.000000 0.053085 0.000000
# 6 0.000000 0.000000 0.000000 0.000000 0.000000 0.051919
#
#
# Mechanical properties :
#
#
# Convention : Reuss Voigt Hill
#
# Bulk Modulus (GPa) = 48.85623 61.45875 55.15749
# Shear Modulus (GPa) = 20.47768 24.24107 22.35937
#
# Velocity S-wave (km/s) = 3.35367 3.64885 3.50437
# Velocity P-wave (km/s) = 6.46760 7.17689 6.83146
#
# Compressibility (1/GPa) = 0.02046822
#
# Stress axis : x y z
#
# Youngs Moduli (GPa) = 32.90829 106.29266 46.13991
#
# Poissons Ratio (x) = 0.61455 0.51224
# Poissons Ratio (y) = 0.19026 0.16687
# Poissons Ratio (z) = 0.36535 0.38443
#
# Static dielectric constant tensor:
#      x y z
#    x 3.095960 0.000000 0.000000 
#    y 0.000000 3.684980 0.000000 
#    z 0.000000 0.000000 3.340120 
# 
# 
# High freq. dielectric constant tensor:
#      x y z
#    x 1.671350 0.000000 0.000000 
#    y 0.000000 1.721700 0.000000 
#    z 0.000000 0.000000 1.700130 
# 
# From -- ./inp_files/9190.got.cif
#   From: 2010.06.25/outbox.cif.g09.slc.cpg/sg58_5_cif.got.tgz:9190.got - 2010.06.26 21:38:00.
