data_PCOD8237625
_publ_section_title
;
Structure prediction by ZEFSAII (Michael W. Deem and Ramdas Pophale) SiO2 
 PCOD8237625
Probable space group: P N N M
;
_chemical_formula_sum "Si O2"
_cell_formula_units_Z 40
_cell_length_a 9.235607
_cell_length_b 17.454949
_cell_length_c 11.373927
_cell_angle_alpha 90.000000
_cell_angle_beta 90.000000
_cell_angle_gamma 90.000000
_cell_volume 1833.557209
_symmetry_space_group_name_H-M "P N N M"
_symmetry_group_IT_number 58
_symmetry_cell_setting 'orthorhombic'
loop_
_space_group_symop_operation_xyz
x,y,z
-x,-y,z
1/2+x,1/2-y,1/2-z
1/2-x,1/2+y,1/2-z
-x,-y,-z
x,y,-z
1/2-x,1/2+y,1/2+z
1/2+x,1/2-y,1/2+z
loop_
_atom_site_type_symbol
_atom_site_label
_atom_site_fract_x
_atom_site_fract_y
_atom_site_fract_z
Si Si1 0.912281 0.398539 0.135627
Si Si2 0.333805 0.327412 0.860079
Si Si3 0.450578 0.624540 0.500000
Si Si4 0.796807 0.534716 0.241638
Si Si5 0.772524 0.018940 0.000000
Si Si6 0.958639 0.752593 0.799839
O O1 0.783632 0.444526 0.204247
O O2 0.063778 0.431716 0.178725
O O3 0.917000 0.307804 0.159347
O O4 0.889719 0.415491 0.000000
O O5 0.337177 0.414787 0.809248
O O6 0.199385 0.285512 0.793940
O O7 0.484410 0.285361 0.825872
O O8 0.311496 0.325136 0.000000
O O9 0.307055 0.571829 0.500000
O O10 0.584006 0.568175 0.500000
O O11 0.453359 0.676362 0.613944
O O12 0.816002 0.540303 0.382542
#
# Coordination Sequence:
#
# PCOD8237625 Si02
#       6
#     8   8   4   8   4   8
#     4  10  20  37  61  91 123 167 210 263 320 380
#     4  11  23  42  65  95 130 172 216 271 323 385
#     4  11  22  44  62  85 128 168 211 252 329 387
#     4  10  20  37  60  88 123 163 209 258 318 380
#     4  11  24  37  64  88 124 174 207 256 329 395
#     4  11  22  42  68  92 127 169 216 266 324 378
#
# _framework density 21.815517
#
# number of rings (size 3 to 8) (size 9 to 14) (size 15 to 20)
#    0.000    1.400    4.000    3.600    2.800    1.600 
#    9.000    0.000    0.000    1.200    0.000    0.000 
#    0.000    0.000    0.000    0.000    0.000    0.000 
#
# Total GULP energy -495636.143114 kJ/mol
# GULP energy per Si atom -12390.903578 kJ/mol
# Density = 2.176586 g / cm^3
# Si number density = 21.815517 Si / 1000 Ang^3
#
#
#
# Elastic Constant Matrix: (Units=GPa)
#
#
# Indices 1 2 3 4 5 6 
#
# 1 15.5198 -1.2897 -0.0501 0.0000 0.0000 0.0000
# 2 -1.2897 90.7307 5.1994 0.0000 0.0000 0.0000
# 3 -0.0501 5.1994 112.2896 0.0000 0.0000 0.0000
# 4 0.0000 0.0000 0.0000 36.7611 0.0000 0.0000
# 5 0.0000 0.0000 0.0000 0.0000 27.8022 0.0000
# 6 0.0000 0.0000 0.0000 0.0000 0.0000 17.2285
#
#
#
# Elastic Compliance Matrix: (Units=1/GPa)
#
#
# Indices 1 2 3 4 5 6 
#
# 1 0.064510 0.000918 -0.000014 0.000000 0.000000 0.000000
# 2 0.000918 0.011064 -0.000512 0.000000 0.000000 0.000000
# 3 -0.000014 -0.000512 0.008929 0.000000 0.000000 0.000000
# 4 0.000000 0.000000 0.000000 0.027203 0.000000 0.000000
# 5 0.000000 0.000000 0.000000 0.000000 0.035968 0.000000
# 6 0.000000 0.000000 0.000000 0.000000 0.000000 0.058043
#
#
# Mechanical properties :
#
#
# Convention : Reuss Voigt Hill
#
# Bulk Modulus (GPa) = 11.72502 25.13994 18.43248
# Shear Modulus (GPa) = 21.42586 30.67039 26.04813
#
# Velocity S-wave (km/s) = 3.13731 3.75360 3.45921
# Velocity P-wave (km/s) = 4.30231 5.50771 4.94190
#
# Compressibility (1/GPa) = 0.08528769
#
# Stress axis : x y z
#
# Youngs Moduli (GPa) = 15.50143 90.38315 111.99165
#
# Poissons Ratio (x) = -0.08295 0.00154
# Poissons Ratio (y) = -0.01423 0.05733
# Poissons Ratio (z) = 0.00021 0.04627
#
# Static dielectric constant tensor:
#      x y z
#    x 3.698760 0.000000 0.000000 
#    y 0.000000 5.577720 0.000000 
#    z 0.000000 0.000000 3.901580 
# 
# 
# High freq. dielectric constant tensor:
#      x y z
#    x 1.814900 0.000000 0.000000 
#    y 0.000000 1.884570 0.000000 
#    z 0.000000 0.000000 1.857790 
# 
# From -- ./inp_files/3851.got.cif
#   From: 2010.06.25/outbox.cif.g09.slc.cpg/sg58_2_cif.got.tgz:3851.got - 2010.06.26 21:38:00.
