data_PCOD8237252
_publ_section_title
;
Structure prediction by ZEFSAII (Michael W. Deem and Ramdas Pophale) SiO2 
 PCOD8237252
Probable space group: P N N M
;
_chemical_formula_sum "Si O2"
_cell_formula_units_Z 64
_cell_length_a 20.050885
_cell_length_b 19.589260
_cell_length_c 8.761081
_cell_angle_alpha 90.000000
_cell_angle_beta 90.000000
_cell_angle_gamma 90.000000
_cell_volume 3441.194913
_symmetry_space_group_name_H-M "P N N M"
_symmetry_group_IT_number 58
_symmetry_cell_setting 'orthorhombic'
loop_
_space_group_symop_operation_xyz
x,y,z
-x,-y,z
1/2+x,1/2-y,1/2-z
1/2-x,1/2+y,1/2-z
-x,-y,-z
x,y,-z
1/2-x,1/2+y,1/2+z
1/2+x,1/2-y,1/2+z
loop_
_atom_site_type_symbol
_atom_site_label
_atom_site_fract_x
_atom_site_fract_y
_atom_site_fract_z
Si Si1 0.563799 0.172861 0.320919
Si Si2 0.065828 0.171181 0.178715
Si Si3 0.669447 0.076024 0.822757
Si Si4 0.176304 0.918982 0.826554
Si Si5 0.429292 0.325783 0.823146
Si Si6 0.677191 0.931772 0.320645
Si Si7 0.817221 0.925201 0.821150
Si Si8 0.425830 0.169473 0.179254
O O1 0.549071 0.166376 0.500000
O O2 0.579656 0.250758 0.273922
O O3 0.627151 0.128342 0.276566
O O4 0.499871 0.145978 0.227800
O O5 0.125548 0.124615 0.243365
O O6 0.995232 0.145153 0.242132
O O7 0.062857 0.161248 0.000000
O O8 0.746205 0.094926 0.794313
O O9 0.654638 0.999529 0.768142
O O10 0.650200 0.081674 0.000000
O O11 0.134279 0.871333 0.715835
O O12 0.159111 0.997546 0.791451
O O13 0.157885 0.900563 0.000000
O O14 0.415022 0.248144 0.773378
O O15 0.443999 0.329435 0.000000
O O16 0.674779 0.945981 0.500000
O O17 0.750815 0.908175 0.272362
O O18 0.627091 0.872000 0.276877
O O19 0.801680 0.913870 0.000000
O O20 0.415396 0.156535 0.000000
#
# Coordination Sequence:
#
# PCOD8237252 Si02
#       8
#     8   8   8   8   8   8   8   8
#     4  10  20  35  56  83 109 136 175 224 267 308
#     4   9  19  36  57  78 107 143 178 217 264 317
#     4  10  21  38  57  78 107 144 178 213 261 321
#     4   9  19  35  55  77 106 142 180 217 258 313
#     4  10  21  35  54  79 108 140 178 222 266 310
#     4  11  22  36  56  82 108 136 174 224 268 308
#     4   9  19  37  57  79 107 143 180 214 261 321
#     4  10  21  38  56  76 106 144 179 215 262 320
#
# _framework density 18.598192000000001
#
# number of rings (size 3 to 8) (size 9 to 14) (size 15 to 20)
#    0.000    2.250    0.000    3.375    0.000    7.000 
#    0.000    8.750    0.000    0.000    0.000    0.000 
#    0.000    0.000    0.000    0.000    0.000    0.000 
#
# Total GULP energy -793852.261967 kJ/mol
# GULP energy per Si atom -12403.941593 kJ/mol
# Density = 1.855586 g / cm^3
# Si number density = 18.598192 Si / 1000 Ang^3
#
#
#
# Elastic Constant Matrix: (Units=GPa)
#
#
# Indices 1 2 3 4 5 6 
#
# 1 102.1530 63.7106 25.3174 0.0000 0.0000 0.0000
# 2 63.7106 78.7026 19.9970 0.0000 0.0000 0.0000
# 3 25.3174 19.9970 37.9100 0.0000 0.0000 0.0000
# 4 0.0000 0.0000 0.0000 28.9579 0.0000 0.0000
# 5 0.0000 0.0000 0.0000 0.0000 35.9220 0.0000
# 6 0.0000 0.0000 0.0000 0.0000 0.0000 33.5658
#
#
#
# Elastic Compliance Matrix: (Units=1/GPa)
#
#
# Indices 1 2 3 4 5 6 
#
# 1 0.020816 -0.015380 -0.005789 0.000000 0.000000 0.000000
# 2 -0.015380 0.026036 -0.003462 0.000000 0.000000 0.000000
# 3 -0.005789 -0.003462 0.032071 0.000000 0.000000 0.000000
# 4 0.000000 0.000000 0.000000 0.034533 0.000000 0.000000
# 5 0.000000 0.000000 0.000000 0.000000 0.027838 0.000000
# 6 0.000000 0.000000 0.000000 0.000000 0.000000 0.029792
#
#
# Mechanical properties :
#
#
# Convention : Reuss Voigt Hill
#
# Bulk Modulus (GPa) = 33.71529 48.53508 41.12518
# Shear Modulus (GPa) = 21.71689 27.00518 24.36103
#
# Velocity S-wave (km/s) = 3.42085 3.81469 3.62313
# Velocity P-wave (km/s) = 5.81125 6.74950 6.29787
#
# Compressibility (1/GPa) = 0.02966013
#
# Stress axis : x y z
#
# Youngs Moduli (GPa) = 48.03964 38.40816 31.18122
#
# Poissons Ratio (x) = 0.59072 0.18050
# Poissons Ratio (y) = 0.73885 0.10796
# Poissons Ratio (z) = 0.27809 0.13299
#
# Static dielectric constant tensor:
#      x y z
#    x 3.442410 0.000000 0.000000 
#    y 0.000000 3.445970 0.000000 
#    z 0.000000 0.000000 3.378300 
# 
# 
# High freq. dielectric constant tensor:
#      x y z
#    x 1.725970 0.000000 0.000000 
#    y 0.000000 1.719770 0.000000 
#    z 0.000000 0.000000 1.725700 
# 
# From -- ./inp_files/8316.got.cif
#   From: 2010.06.25/outbox.cif.g09.slc.cpg/sg58_5_cif.got.tgz:8316.got - 2010.06.26 21:38:00.
