data_PCOD8237268
_publ_section_title
;
Structure prediction by ZEFSAII (Michael W. Deem and Ramdas Pophale) SiO2 
 PCOD8237268
Probable space group: P N N M
;
_chemical_formula_sum "Si O2"
_cell_formula_units_Z 48
_cell_length_a 17.757489
_cell_length_b 15.418101
_cell_length_c 9.027760
_cell_angle_alpha 90.000000
_cell_angle_beta 90.000000
_cell_angle_gamma 90.000000
_cell_volume 2471.681151
_symmetry_space_group_name_H-M "P N N M"
_symmetry_group_IT_number 58
_symmetry_cell_setting 'orthorhombic'
loop_
_space_group_symop_operation_xyz
x,y,z
-x,-y,z
1/2+x,1/2-y,1/2-z
1/2-x,1/2+y,1/2-z
-x,-y,-z
x,y,-z
1/2-x,1/2+y,1/2+z
1/2+x,1/2-y,1/2+z
loop_
_atom_site_type_symbol
_atom_site_label
_atom_site_fract_x
_atom_site_fract_y
_atom_site_fract_z
Si Si1 0.953561 0.583036 0.324925
Si Si2 0.546752 0.415371 0.330034
Si Si3 0.962708 0.262059 0.828338
Si Si4 0.218625 0.412762 0.324525
Si Si5 0.293152 0.236372 0.324296
Si Si6 0.201501 0.071065 0.324776
O O1 0.959467 0.591173 0.500000
O O2 0.867291 0.572986 0.273479
O O3 0.000000 0.500000 0.266183
O O4 0.986169 0.670326 0.257722
O O5 0.500000 0.500000 0.287064
O O6 0.574662 0.419878 0.500000
O O7 0.493590 0.333703 0.302017
O O8 0.616819 0.407986 0.221162
O O9 0.878211 0.263621 0.762937
O O10 0.963430 0.288132 0.000000
O O11 0.227099 0.420989 0.500000
O O12 0.247071 0.319577 0.265818
O O13 0.271426 0.483449 0.250371
O O14 0.294017 0.239549 0.500000
O O15 0.253003 0.149795 0.266088
O O16 0.206469 0.061228 0.500000
#
# Coordination Sequence:
#
# PCOD8237268 Si02
#       6
#     8   8   8   8   8   8
#     4  10  21  36  55  81 112 146 182 224 280 334
#     4  10  21  38  59  81 109 148 188 222 266 330
#     4  10  20  35  57  81 105 140 187 231 268 319
#     4  10  20  37  58  77 107 150 186 217 264 332
#     4   9  19  36  56  78 107 146 184 219 272 332
#     4  11  22  36  57  85 114 142 179 230 278 318
#
# _framework density 19.419979999999999
#
# number of rings (size 3 to 8) (size 9 to 14) (size 15 to 20)
#    0.000    2.000    0.000    3.500    0.000    6.000 
#    0.000    5.000    0.000    0.000    0.000    0.000 
#    0.000    0.000    0.000    0.000    0.000    0.000 
#
# Total GULP energy -595414.236216 kJ/mol
# GULP energy per Si atom -12404.463254 kJ/mol
# Density = 1.937578 g / cm^3
# Si number density = 19.419980 Si / 1000 Ang^3
#
#
#
# Elastic Constant Matrix: (Units=GPa)
#
#
# Indices 1 2 3 4 5 6 
#
# 1 109.6047 22.6682 22.3733 0.0000 0.0000 0.0000
# 2 22.6682 103.3668 19.1608 0.0000 0.0000 0.0000
# 3 22.3733 19.1608 22.5813 0.0000 0.0000 0.0000
# 4 0.0000 0.0000 0.0000 35.7619 0.0000 0.0000
# 5 0.0000 0.0000 0.0000 0.0000 27.4092 0.0000
# 6 0.0000 0.0000 0.0000 0.0000 0.0000 40.8041
#
#
#
# Elastic Compliance Matrix: (Units=1/GPa)
#
#
# Indices 1 2 3 4 5 6 
#
# 1 0.011457 -0.000485 -0.010940 0.000000 0.000000 0.000000
# 2 -0.000485 0.011500 -0.009278 0.000000 0.000000 0.000000
# 3 -0.010940 -0.009278 0.062997 0.000000 0.000000 0.000000
# 4 0.000000 0.000000 0.000000 0.027963 0.000000 0.000000
# 5 0.000000 0.000000 0.000000 0.000000 0.036484 0.000000
# 6 0.000000 0.000000 0.000000 0.000000 0.000000 0.024507
#
#
# Mechanical properties :
#
#
# Convention : Reuss Voigt Hill
#
# Bulk Modulus (GPa) = 22.44777 40.43969 31.44373
# Shear Modulus (GPa) = 21.62963 32.21843 26.92403
#
# Velocity S-wave (km/s) = 3.34096 4.07754 3.72749
# Velocity P-wave (km/s) = 5.14460 6.56029 5.89510
#
# Compressibility (1/GPa) = 0.04454785
#
# Stress axis : x y z
#
# Youngs Moduli (GPa) = 87.28172 86.95326 15.87381
#
# Poissons Ratio (x) = 0.04213 0.17367
# Poissons Ratio (y) = 0.04229 0.14728
# Poissons Ratio (z) = 0.95490 0.80678
#
# Static dielectric constant tensor:
#      x y z
#    x 3.781580 0.000000 0.000000 
#    y 0.000000 3.715210 0.000000 
#    z 0.000000 0.000000 3.275610 
# 
# 
# High freq. dielectric constant tensor:
#      x y z
#    x 1.773310 0.000000 0.000000 
#    y 0.000000 1.774240 0.000000 
#    z 0.000000 0.000000 1.729540 
# 
# From -- ./inp_files/5860.got.cif
#   From: 2010.06.25/outbox.cif.g09.slc.cpg/sg58_3_cif.got.tgz:5860.got - 2010.06.26 21:38:00.
