data_PCOD8237388
_publ_section_title
;
Structure prediction by ZEFSAII (Michael W. Deem and Ramdas Pophale) SiO2 
 PCOD8237388
Probable space group: P N N M
;
_chemical_formula_sum "Si O2"
_cell_formula_units_Z 64
_cell_length_a 24.483742
_cell_length_b 15.151720
_cell_length_c 8.898629
_cell_angle_alpha 90.000000
_cell_angle_beta 90.000000
_cell_angle_gamma 90.000000
_cell_volume 3301.131549
_symmetry_space_group_name_H-M "P N N M"
_symmetry_group_IT_number 58
_symmetry_cell_setting 'orthorhombic'
loop_
_space_group_symop_operation_xyz
x,y,z
-x,-y,z
1/2+x,1/2-y,1/2-z
1/2-x,1/2+y,1/2-z
-x,-y,-z
x,y,-z
1/2-x,1/2+y,1/2+z
1/2+x,1/2-y,1/2+z
loop_
_atom_site_type_symbol
_atom_site_label
_atom_site_fract_x
_atom_site_fract_y
_atom_site_fract_z
Si Si1 0.150767 0.179271 0.674969
Si Si2 0.756719 0.720236 0.177598
Si Si3 0.340020 0.506305 0.328090
Si Si4 0.564714 0.170737 0.824426
Si Si5 0.888664 0.496868 0.176309
Si Si6 0.217588 0.461139 0.326531
Si Si7 0.145451 0.808560 0.175377
Si Si8 0.548005 0.820553 0.325526
O O1 0.164265 0.181015 0.500000
O O2 0.205727 0.199601 0.767344
O O3 0.132220 0.080979 0.724794
O O4 0.103079 0.247139 0.717144
O O5 0.783325 0.631789 0.242268
O O6 0.695278 0.735161 0.234878
O O7 0.756413 0.716406 0.000000
O O8 0.355980 0.524718 0.500000
O O9 0.274689 0.510397 0.305169
O O10 0.362374 0.410664 0.276570
O O11 0.504013 0.197953 0.777160
O O12 0.582811 0.085523 0.732149
O O13 0.566960 0.148381 0.000000
O O14 0.830725 0.479802 0.257415
O O15 0.927476 0.415419 0.216715
O O16 0.878069 0.503076 0.000000
O O17 0.205089 0.441370 0.500000
O O18 0.090879 0.756058 0.213802
O O19 0.160958 0.803691 0.000000
O O20 0.531274 0.817391 0.500000
#
# Coordination Sequence:
#
# PCOD8237388 Si02
#       8
#     8   8   8   8   8   8   8   8
#     4  11  23  38  58  84 118 158 199 245 299 349
#     4  11  21  34  57  87 117 154 196 239 290 352
#     4   9  20  37  59  86 118 154 196 242 293 355
#     4  11  24  41  60  84 117 159 200 246 301 351
#     4  11  22  36  58  89 119 155 198 241 291 354
#     4  10  20  36  56  84 122 157 190 236 292 350
#     4   9  20  41  62  85 120 156 191 244 304 353
#     4  10  23  41  62  87 116 154 199 247 299 356
#
# _framework density 19.387291000000001
#
# number of rings (size 3 to 8) (size 9 to 14) (size 15 to 20)
#    0.000    1.750    1.250    3.750    1.750    7.000 
#    0.000    0.625    0.000    3.750    0.000    0.000 
#    0.000    0.000    0.000    0.000    0.000    0.000 
#
# Total GULP energy -793873.507846 kJ/mol
# GULP energy per Si atom -12404.273560 kJ/mol
# Density = 1.934316 g / cm^3
# Si number density = 19.387291 Si / 1000 Ang^3
#
#
#
# Elastic Constant Matrix: (Units=GPa)
#
#
# Indices 1 2 3 4 5 6 
#
# 1 87.0144 59.4847 42.5378 0.0000 0.0000 0.0000
# 2 59.4847 122.4062 52.7553 0.0000 0.0000 0.0000
# 3 42.5378 52.7553 93.8850 0.0000 0.0000 0.0000
# 4 0.0000 0.0000 0.0000 27.8391 0.0000 0.0000
# 5 0.0000 0.0000 0.0000 0.0000 31.3935 0.0000
# 6 0.0000 0.0000 0.0000 0.0000 0.0000 19.8215
#
#
#
# Elastic Compliance Matrix: (Units=1/GPa)
#
#
# Indices 1 2 3 4 5 6 
#
# 1 0.018487 -0.007091 -0.004391 0.000000 0.000000 0.000000
# 2 -0.007091 0.013500 -0.004373 0.000000 0.000000 0.000000
# 3 -0.004391 -0.004373 0.015098 0.000000 0.000000 0.000000
# 4 0.000000 0.000000 0.000000 0.035921 0.000000 0.000000
# 5 0.000000 0.000000 0.000000 0.000000 0.031854 0.000000
# 6 0.000000 0.000000 0.000000 0.000000 0.000000 0.050450
#
#
# Mechanical properties :
#
#
# Convention : Reuss Voigt Hill
#
# Bulk Modulus (GPa) = 65.04505 68.09569 66.57037
# Shear Modulus (GPa) = 24.73454 25.71266 25.22360
#
# Velocity S-wave (km/s) = 3.57573 3.64574 3.61090
# Velocity P-wave (km/s) = 7.11835 7.27475 7.19698
#
# Compressibility (1/GPa) = 0.01537396
#
# Stress axis : x y z
#
# Youngs Moduli (GPa) = 54.09245 74.07225 66.23255
#
# Poissons Ratio (x) = 0.52527 0.29086
# Poissons Ratio (y) = 0.38358 0.28964
# Poissons Ratio (z) = 0.23754 0.32392
#
# Static dielectric constant tensor:
#      x y z
#    x 3.500500 0.000000 0.000000 
#    y 0.000000 3.590020 0.000000 
#    z 0.000000 0.000000 3.516400 
# 
# 
# High freq. dielectric constant tensor:
#      x y z
#    x 1.745990 0.000000 0.000000 
#    y 0.000000 1.758270 0.000000 
#    z 0.000000 0.000000 1.758410 
# 
# From -- ./inp_files/9960.got.cif
#   From: 2010.06.25/outbox.cif.g09.slc.cpg/sg58_5_cif.got.tgz:9960.got - 2010.06.26 21:38:00.
