data_PCOD8237509
_publ_section_title
;
Structure prediction by ZEFSAII (Michael W. Deem and Ramdas Pophale) SiO2 
 PCOD8237509
Probable space group: P N N M
;
_chemical_formula_sum "Si O2"
_cell_formula_units_Z 40
_cell_length_a 15.019624
_cell_length_b 15.109952
_cell_length_c 8.881197
_cell_angle_alpha 90.000000
_cell_angle_beta 90.000000
_cell_angle_gamma 90.000000
_cell_volume 2015.550338
_symmetry_space_group_name_H-M "P N N M"
_symmetry_group_IT_number 58
_symmetry_cell_setting 'orthorhombic'
loop_
_space_group_symop_operation_xyz
x,y,z
-x,-y,z
1/2+x,1/2-y,1/2-z
1/2-x,1/2+y,1/2-z
-x,-y,-z
x,y,-z
1/2-x,1/2+y,1/2+z
1/2+x,1/2-y,1/2+z
loop_
_atom_site_type_symbol
_atom_site_label
_atom_site_fract_x
_atom_site_fract_y
_atom_site_fract_z
Si Si1 0.572382 0.930478 0.672131
Si Si2 0.669960 0.642081 0.321842
Si Si3 0.676475 0.272460 0.178648
Si Si4 0.772692 0.966716 0.327303
Si Si5 0.476357 0.246042 0.822566
O O1 0.554167 0.900990 0.500000
O O2 0.569818 0.845356 0.777473
O O3 0.500000 0.000000 0.730347
O O4 0.666996 0.977511 0.687413
O O5 0.665104 0.648796 0.500000
O O6 0.751133 0.702581 0.257492
O O7 0.681758 0.540866 0.274055
O O8 0.576494 0.673964 0.254141
O O9 0.698633 0.370993 0.236547
O O10 0.578302 0.245972 0.235528
O O11 0.682473 0.271053 0.000000
O O12 0.803523 0.978557 0.500000
O O13 0.472013 0.259161 0.000000
#
# Coordination Sequence:
#
# PCOD8237509 Si02
#       5
#     8   8   8   8   8
#     4  10  20  36  60  89 120 154 195 248 305 350
#     4  11  22  40  61  86 120 156 196 248 301 348
#     4   9  20  39  60  81 117 161 195 235 297 360
#     4  10  20  38  60  83 116 158 197 237 294 359
#     4  11  22  37  60  87 115 156 203 244 291 355
#
# _framework density 19.845694999999999
#
# number of rings (size 3 to 8) (size 9 to 14) (size 15 to 20)
#    0.000    1.800    2.000    2.400    0.000    2.000 
#    0.000    9.000    0.000    0.000    0.000    0.000 
#    0.000    0.000    0.000    0.000    0.000    0.000 
#
# Total GULP energy -496163.764674 kJ/mol
# GULP energy per Si atom -12404.094117 kJ/mol
# Density = 1.980053 g / cm^3
# Si number density = 19.845695 Si / 1000 Ang^3
#
#
#
# Elastic Constant Matrix: (Units=GPa)
#
#
# Indices 1 2 3 4 5 6 
#
# 1 58.6538 0.9763 17.4572 0.0000 0.0000 0.0000
# 2 0.9763 86.9374 16.7334 0.0000 0.0000 0.0000
# 3 17.4572 16.7334 53.1234 0.0000 0.0000 0.0000
# 4 0.0000 0.0000 0.0000 37.0474 0.0000 0.0000
# 5 0.0000 0.0000 0.0000 0.0000 23.5994 0.0000
# 6 0.0000 0.0000 0.0000 0.0000 0.0000 38.2079
#
#
#
# Elastic Compliance Matrix: (Units=1/GPa)
#
#
# Indices 1 2 3 4 5 6 
#
# 1 0.018987 0.001051 -0.006571 0.000000 0.000000 0.000000
# 2 0.001051 0.012303 -0.004221 0.000000 0.000000 0.000000
# 3 -0.006571 -0.004221 0.022313 0.000000 0.000000 0.000000
# 4 0.000000 0.000000 0.000000 0.026992 0.000000 0.000000
# 5 0.000000 0.000000 0.000000 0.000000 0.042374 0.000000
# 6 0.000000 0.000000 0.000000 0.000000 0.000000 0.026173
#
#
# Mechanical properties :
#
#
# Convention : Reuss Voigt Hill
#
# Bulk Modulus (GPa) = 29.30574 29.89429 29.60002
# Shear Modulus (GPa) = 27.77819 30.67410 29.22614
#
# Velocity S-wave (km/s) = 3.74533 3.93571 3.84170
# Velocity P-wave (km/s) = 5.78810 5.97906 5.88436
#
# Compressibility (1/GPa) = 0.03412301
#
# Stress axis : x y z
#
# Youngs Moduli (GPa) = 52.66659 81.27999 44.81708
#
# Poissons Ratio (x) = -0.08547 0.29448
# Poissons Ratio (y) = -0.05538 0.18917
# Poissons Ratio (z) = 0.34606 0.34308
#
# Static dielectric constant tensor:
#      x y z
#    x 3.837020 0.000000 0.000000 
#    y 0.000000 3.614280 0.000000 
#    z 0.000000 0.000000 3.336610 
# 
# 
# High freq. dielectric constant tensor:
#      x y z
#    x 1.783650 0.000000 0.000000 
#    y 0.000000 1.779670 0.000000 
#    z 0.000000 0.000000 1.749970 
# 
# From -- ./inp_files/5359.got.cif
#   From: 2010.06.25/outbox.cif.g09.slc.cpg/sg58_3_cif.got.tgz:5359.got - 2010.06.26 21:38:00.
