data_PCOD8237799
_publ_section_title
;
Structure prediction by ZEFSAII (Michael W. Deem and Ramdas Pophale) SiO2 
 PCOD8237799
Probable space group: P N N M
;
_chemical_formula_sum "Si O2"
_cell_formula_units_Z 48
_cell_length_a 9.807617
_cell_length_b 16.464363
_cell_length_c 14.614422
_cell_angle_alpha 90.000000
_cell_angle_beta 90.000000
_cell_angle_gamma 90.000000
_cell_volume 2359.880839
_symmetry_space_group_name_H-M "P N N M"
_symmetry_group_IT_number 58
_symmetry_cell_setting 'orthorhombic'
loop_
_space_group_symop_operation_xyz
x,y,z
-x,-y,z
1/2+x,1/2-y,1/2-z
1/2-x,1/2+y,1/2-z
-x,-y,-z
x,y,-z
1/2-x,1/2+y,1/2+z
1/2+x,1/2-y,1/2+z
loop_
_atom_site_type_symbol
_atom_site_label
_atom_site_fract_x
_atom_site_fract_y
_atom_site_fract_z
Si Si1 0.031926 0.128700 0.305927
Si Si2 0.290404 0.073202 0.804093
Si Si3 0.733284 0.079410 0.691566
Si Si4 0.052898 0.319249 0.695924
Si Si5 0.874089 0.435693 0.500000
Si Si6 0.339963 0.988329 0.500000
Si Si7 0.913384 0.688570 0.500000
Si Si8 0.132720 0.121884 0.500000
O O1 0.146478 0.105929 0.232532
O O2 0.017821 0.225009 0.310014
O O3 0.061702 0.091981 0.406804
O O4 0.890103 0.087850 0.277995
O O5 0.409091 0.137749 0.786968
O O6 0.279133 0.051160 0.911407
O O7 0.333964 0.993347 0.748674
O O8 0.653075 0.161294 0.720079
O O9 0.713398 0.064576 0.584649
O O10 0.130979 0.346712 0.600021
O O11 0.000000 0.500000 0.500000
O O12 0.926637 0.340809 0.500000
O O13 0.281781 0.080391 0.500000
O O14 0.500000 0.000000 0.500000
O O15 0.867230 0.781324 0.500000
#
# Coordination Sequence:
#
# PCOD8237799 Si02
#       8
#     8   8   8   8   4   4   4   4
#     4  11  23  40  62  93 125 169 207 263 327 386
#     4  11  21  38  64  90 122 160 214 268 317 377
#     4  12  24  39  63  93 129 166 215 261 326 384
#     4  10  21  40  63  90 123 167 214 263 314 386
#     4  10  20  38  65  94 122 168 228 269 313 383
#     4  12  25  41  64 100 130 170 221 266 326 392
#     4   8  18  37  65  91 114 167 216 255 326 373
#     4  10  21  40  65  87 130 162 208 266 322 386
#
# _framework density 20.340009999999999
#
# number of rings (size 3 to 8) (size 9 to 14) (size 15 to 20)
#    0.000    1.333    1.667    5.500    0.000    0.667 
#    0.000    5.000    0.000    0.000    0.000    0.000 
#    0.000    0.000    0.000    0.000    0.000    0.000 
#
# Total GULP energy -594697.121945 kJ/mol
# GULP energy per Si atom -12389.523374 kJ/mol
# Density = 2.029372 g / cm^3
# Si number density = 20.340010 Si / 1000 Ang^3
#
#
#
# Elastic Constant Matrix: (Units=GPa)
#
#
# Indices 1 2 3 4 5 6 
#
# 1 127.4130 38.5311 59.3200 0.0000 0.0000 0.0000
# 2 38.5311 77.5827 44.0915 0.0000 0.0000 0.0000
# 3 59.3200 44.0915 172.4606 0.0000 0.0000 0.0000
# 4 0.0000 0.0000 0.0000 28.5352 0.0000 0.0000
# 5 0.0000 0.0000 0.0000 0.0000 23.8607 0.0000
# 6 0.0000 0.0000 0.0000 0.0000 0.0000 38.2063
#
#
#
# Elastic Compliance Matrix: (Units=1/GPa)
#
#
# Indices 1 2 3 4 5 6 
#
# 1 0.010124 -0.003567 -0.002570 0.000000 0.000000 0.000000
# 2 -0.003567 0.016338 -0.002950 0.000000 0.000000 0.000000
# 3 -0.002570 -0.002950 0.007437 0.000000 0.000000 0.000000
# 4 0.000000 0.000000 0.000000 0.035044 0.000000 0.000000
# 5 0.000000 0.000000 0.000000 0.000000 0.041910 0.000000
# 6 0.000000 0.000000 0.000000 0.000000 0.000000 0.026174
#
#
# Mechanical properties :
#
#
# Convention : Reuss Voigt Hill
#
# Bulk Modulus (GPa) = 63.59957 73.48239 68.54098
# Shear Modulus (GPa) = 31.16386 33.82133 32.49259
#
# Velocity S-wave (km/s) = 3.91851 4.08217 4.00117
# Velocity P-wave (km/s) = 7.19785 7.64357 7.42406
#
# Compressibility (1/GPa) = 0.01572338
#
# Stress axis : x y z
#
# Youngs Moduli (GPa) = 98.77608 61.20846 134.46897
#
# Poissons Ratio (x) = 0.21835 0.34562
# Poissons Ratio (y) = 0.35236 0.39667
# Poissons Ratio (z) = 0.25388 0.18056
#
# Static dielectric constant tensor:
#      x y z
#    x 3.441840 0.000000 0.000000 
#    y 0.000000 3.845260 0.000000 
#    z 0.000000 0.000000 4.137070 
# 
# 
# High freq. dielectric constant tensor:
#      x y z
#    x 1.771500 0.000000 0.000000 
#    y 0.000000 1.802350 0.000000 
#    z 0.000000 0.000000 1.812070 
# 
# From -- ./inp_files/19898.got.cif
#   From: 2010.06.25/outbox.cif.g09.slc.cpg/sg58_10_cif.got.tgz:19898.got - 2010.06.26 21:38:00.
