data_PCOD8237363
_publ_section_title
;
Structure prediction by ZEFSAII (Michael W. Deem and Ramdas Pophale) SiO2 
 PCOD8237363
Probable space group: P N N M
;
_chemical_formula_sum "Si O2"
_cell_formula_units_Z 52
_cell_length_a 8.544586
_cell_length_b 18.061768
_cell_length_c 16.537008
_cell_angle_alpha 90.000000
_cell_angle_beta 90.000000
_cell_angle_gamma 90.000000
_cell_volume 2552.161902
_symmetry_space_group_name_H-M "P N N M"
_symmetry_group_IT_number 58
_symmetry_cell_setting 'orthorhombic'
loop_
_space_group_symop_operation_xyz
x,y,z
-x,-y,z
1/2+x,1/2-y,1/2-z
1/2-x,1/2+y,1/2-z
-x,-y,-z
x,y,-z
1/2-x,1/2+y,1/2+z
1/2+x,1/2-y,1/2+z
loop_
_atom_site_type_symbol
_atom_site_label
_atom_site_fract_x
_atom_site_fract_y
_atom_site_fract_z
Si Si1 0.000000 0.000000 0.848451
Si Si2 0.899916 0.224247 0.588526
Si Si3 0.332030 0.361536 0.592166
Si Si4 0.090812 0.236836 0.840141
Si Si5 0.543313 0.156672 0.798052
Si Si6 0.270643 0.596338 0.746196
Si Si7 0.422777 0.578628 0.091244
O O1 0.054602 0.932604 0.905131
O O2 0.857200 0.973999 0.792190
O O3 0.960954 0.246954 0.500000
O O4 0.715623 0.242841 0.590847
O O5 0.989414 0.271963 0.653402
O O6 0.938484 0.138281 0.605245
O O7 0.272479 0.351280 0.500000
O O8 0.426704 0.287837 0.619385
O O9 0.190421 0.377392 0.654339
O O10 0.079715 0.313263 0.790972
O O11 0.149423 0.172454 0.780960
O O12 0.408462 0.094819 0.785913
O O13 0.283244 0.591420 0.843969
O O14 0.500000 0.500000 0.106830
O O15 0.353246 0.584419 0.000000
#
# Coordination Sequence:
#
# PCOD8237363 Si02
#       7
#     4   8   8   8   8   8   8
#     4  10  23  40  63  86 120 164 208 248 307 368
#     4  10  20  36  57  86 120 154 196 252 304 354
#     4  11  23  41  62  89 123 162 205 254 308 363
#     4  10  21  36  59  87 119 156 203 248 302 363
#     4  11  22  36  59  91 119 158 204 254 296 370
#     4  10  20  37  59  86 120 162 202 250 303 363
#     4  10  20  35  61  92 122 161 205 249 304 369
#
# _framework density 20.374881999999999
#
# number of rings (size 3 to 8) (size 9 to 14) (size 15 to 20)
#    0.000    1.692    2.308    3.000    2.154    0.615 
#    0.000    3.846    0.000    0.000    0.000    4.308 
#    0.000    0.000    0.000    0.000    0.000    0.000 
#
# Total GULP energy -644648.824825 kJ/mol
# GULP energy per Si atom -12397.092785 kJ/mol
# Density = 2.032851 g / cm^3
# Si number density = 20.374882 Si / 1000 Ang^3
#
#
#
# Elastic Constant Matrix: (Units=GPa)
#
#
# Indices 1 2 3 4 5 6 
#
# 1 104.6878 25.7321 37.3262 0.0000 0.0000 0.0000
# 2 25.7321 70.0563 29.0881 0.0000 0.0000 0.0000
# 3 37.3262 29.0881 116.3515 0.0000 0.0000 0.0000
# 4 0.0000 0.0000 0.0000 23.8193 0.0000 0.0000
# 5 0.0000 0.0000 0.0000 0.0000 55.9514 0.0000
# 6 0.0000 0.0000 0.0000 0.0000 0.0000 29.0627
#
#
#
# Elastic Compliance Matrix: (Units=1/GPa)
#
#
# Indices 1 2 3 4 5 6 
#
# 1 0.011308 -0.002954 -0.002889 0.000000 0.000000 0.000000
# 2 -0.002954 0.016699 -0.003227 0.000000 0.000000 0.000000
# 3 -0.002889 -0.003227 0.010328 0.000000 0.000000 0.000000
# 4 0.000000 0.000000 0.000000 0.041983 0.000000 0.000000
# 5 0.000000 0.000000 0.000000 0.000000 0.017873 0.000000
# 6 0.000000 0.000000 0.000000 0.000000 0.000000 0.034408
#
#
# Mechanical properties :
#
#
# Convention : Reuss Voigt Hill
#
# Bulk Modulus (GPa) = 49.51705 52.82094 51.16899
# Shear Modulus (GPa) = 31.75156 35.02995 33.39076
#
# Velocity S-wave (km/s) = 3.95190 4.15091 4.05263
# Velocity P-wave (km/s) = 6.72154 6.99673 6.86051
#
# Compressibility (1/GPa) = 0.02019507
#
# Stress axis : x y z
#
# Youngs Moduli (GPa) = 88.42924 59.88306 96.82080
#
# Poissons Ratio (x) = 0.17689 0.27975
# Poissons Ratio (y) = 0.26122 0.31246
# Poissons Ratio (z) = 0.25550 0.19325
#
# Static dielectric constant tensor:
#      x y z
#    x 3.679000 0.000000 0.000000 
#    y 0.000000 3.578010 0.000000 
#    z 0.000000 0.000000 3.771880 
# 
# 
# High freq. dielectric constant tensor:
#      x y z
#    x 1.779510 0.000000 0.000000 
#    y 0.000000 1.789050 0.000000 
#    z 0.000000 0.000000 1.804200 
# 
# From -- ./inp_files/25484.got.cif
#   From: 2010.06.25/outbox.cif.g09.slc.cpg/sg58_13_cif.got.tgz:25484.got - 2010.06.26 21:38:00.
