data_PCOD8237769
_publ_section_title
;
Structure prediction by ZEFSAII (Michael W. Deem and Ramdas Pophale) SiO2 
 PCOD8237769
Probable space group: P N N M
;
_chemical_formula_sum "Si O2"
_cell_formula_units_Z 64
_cell_length_a 28.921233
_cell_length_b 12.890252
_cell_length_c 8.617663
_cell_angle_alpha 90.000000
_cell_angle_beta 90.000000
_cell_angle_gamma 90.000000
_cell_volume 3212.681842
_symmetry_space_group_name_H-M "P N N M"
_symmetry_group_IT_number 58
_symmetry_cell_setting 'orthorhombic'
loop_
_space_group_symop_operation_xyz
x,y,z
-x,-y,z
1/2+x,1/2-y,1/2-z
1/2-x,1/2+y,1/2-z
-x,-y,-z
x,y,-z
1/2-x,1/2+y,1/2+z
1/2+x,1/2-y,1/2+z
loop_
_atom_site_type_symbol
_atom_site_label
_atom_site_fract_x
_atom_site_fract_y
_atom_site_fract_z
Si Si1 0.033503 0.189593 0.314567
Si Si2 0.197614 0.120393 0.180273
Si Si3 0.609097 0.478163 0.182121
Si Si4 0.064432 0.823591 0.182377
Si Si5 0.426031 0.896822 0.828196
Si Si6 0.296255 0.051754 0.816477
Si Si7 0.895486 0.386636 0.314223
Si Si8 0.321583 0.828555 0.172506
O O1 0.030418 0.191355 0.500000
O O2 0.042714 0.306928 0.247383
O O3 0.986297 0.146780 0.243286
O O4 0.074233 0.112028 0.261129
O O5 0.249006 0.100357 0.248218
O O6 0.188552 0.241588 0.201282
O O7 0.161280 0.053222 0.277677
O O8 0.193505 0.090267 0.000000
O O9 0.598864 0.585101 0.269684
O O10 0.604303 0.497594 0.000000
O O11 0.080156 0.716083 0.257101
O O12 0.064158 0.810526 0.000000
O O13 0.375564 0.848544 0.837760
O O14 0.423446 0.011138 0.748400
O O15 0.446319 0.913054 0.000000
O O16 0.342373 0.109248 0.751579
O O17 0.295791 0.931320 0.768104
O O18 0.298035 0.061352 0.000000
O O19 0.895860 0.391760 0.500000
O O20 0.304365 0.795020 0.000000
#
# Coordination Sequence:
#
# PCOD8237769 Si02
#       8
#     8   8   8   8   8   8   8   8
#     4  10  20  38  63  88 110 144 199 246 285 342
#     4  11  21  34  55  89 122 147 181 237 300 346
#     4  11  23  41  63  84 110 151 202 243 278 343
#     4  12  26  40  55  83 124 158 187 236 304 353
#     4   8  15  32  61  87 106 138 194 247 276 320
#     4   8  18  35  58  84 114 151 195 239 282 336
#     4   9  18  38  63  83 111 156 202 239 280 340
#     4   9  16  34  57  78 106 148 193 235 277 330
#
# _framework density 19.921050999999999
#
# number of rings (size 3 to 8) (size 9 to 14) (size 15 to 20)
#    0.000    2.250    1.250    3.750    0.000    4.000 
#    0.000   10.625    0.000    0.000    0.000    0.000 
#    0.000    0.000    0.000    0.000    0.000    0.000 
#
# Total GULP energy -793275.738283 kJ/mol
# GULP energy per Si atom -12394.933411 kJ/mol
# Density = 1.987571 g / cm^3
# Si number density = 19.921051 Si / 1000 Ang^3
#
#
#
# Elastic Constant Matrix: (Units=GPa)
#
#
# Indices 1 2 3 4 5 6 
#
# 1 51.6143 14.3954 15.4961 0.0000 0.0000 0.0000
# 2 14.3954 95.7384 13.8475 0.0000 0.0000 0.0000
# 3 15.4961 13.8475 26.2854 0.0000 0.0000 0.0000
# 4 0.0000 0.0000 0.0000 17.1769 0.0000 0.0000
# 5 0.0000 0.0000 0.0000 0.0000 22.3324 0.0000
# 6 0.0000 0.0000 0.0000 0.0000 0.0000 17.1331
#
#
#
# Elastic Compliance Matrix: (Units=1/GPa)
#
#
# Indices 1 2 3 4 5 6 
#
# 1 0.023787 -0.001676 -0.013140 0.000000 0.000000 0.000000
# 2 -0.001676 0.011425 -0.005031 0.000000 0.000000 0.000000
# 3 -0.013140 -0.005031 0.048441 0.000000 0.000000 0.000000
# 4 0.000000 0.000000 0.000000 0.058218 0.000000 0.000000
# 5 0.000000 0.000000 0.000000 0.000000 0.044778 0.000000
# 6 0.000000 0.000000 0.000000 0.000000 0.000000 0.058367
#
#
# Mechanical properties :
#
#
# Convention : Reuss Voigt Hill
#
# Bulk Modulus (GPa) = 22.74864 29.01290 25.88077
# Shear Modulus (GPa) = 16.70219 19.98839 18.34529
#
# Velocity S-wave (km/s) = 2.89869 3.17105 3.03793
# Velocity P-wave (km/s) = 4.75893 5.29179 5.03241
#
# Compressibility (1/GPa) = 0.04395867
#
# Stress axis : x y z
#
# Youngs Moduli (GPa) = 42.03978 87.52908 20.64377
#
# Poissons Ratio (x) = 0.14671 0.27126
# Poissons Ratio (y) = 0.07046 0.10385
# Poissons Ratio (z) = 0.55241 0.44033
#
# Static dielectric constant tensor:
#      x y z
#    x 3.946200 0.000000 0.000000 
#    y 0.000000 3.918770 0.000000 
#    z 0.000000 0.000000 3.243330 
# 
# 
# High freq. dielectric constant tensor:
#      x y z
#    x 1.777710 0.000000 0.000000 
#    y 0.000000 1.789030 0.000000 
#    z 0.000000 0.000000 1.738470 
# 
# From -- ./inp_files/10934.got.cif
#   From: 2010.06.25/outbox.cif.g09.slc.cpg/sg58_6_cif.got.tgz:10934.got - 2010.06.26 21:38:00.
