data_PCOD8237243
_publ_section_title
;
Structure prediction by ZEFSAII (Michael W. Deem and Ramdas Pophale) SiO2 
 PCOD8237243
Probable space group: P N N M
;
_chemical_formula_sum "Si O2"
_cell_formula_units_Z 64
_cell_length_a 17.061225
_cell_length_b 21.813881
_cell_length_c 9.133999
_cell_angle_alpha 90.000000
_cell_angle_beta 90.000000
_cell_angle_gamma 90.000000
_cell_volume 3399.414400
_symmetry_space_group_name_H-M "P N N M"
_symmetry_group_IT_number 58
_symmetry_cell_setting 'orthorhombic'
loop_
_space_group_symop_operation_xyz
x,y,z
-x,-y,z
1/2+x,1/2-y,1/2-z
1/2-x,1/2+y,1/2-z
-x,-y,-z
x,y,-z
1/2-x,1/2+y,1/2+z
1/2+x,1/2-y,1/2+z
loop_
_atom_site_type_symbol
_atom_site_label
_atom_site_fract_x
_atom_site_fract_y
_atom_site_fract_z
Si Si1 0.295542 0.343083 0.169838
Si Si2 0.838141 0.278668 0.166052
Si Si3 0.227630 0.109562 0.331988
Si Si4 0.864148 0.596324 0.831771
Si Si5 0.039016 0.622970 0.830636
Si Si6 0.583139 0.425180 0.332131
Si Si7 0.093158 0.932118 0.832163
Si Si8 0.646235 0.969315 0.825737
O O1 0.325352 0.279957 0.235592
O O2 0.203932 0.354808 0.204709
O O3 0.344326 0.399961 0.229928
O O4 0.311659 0.338961 0.000000
O O5 0.764504 0.323491 0.185344
O O6 0.917288 0.314251 0.215843
O O7 0.846429 0.255829 0.000000
O O8 0.228846 0.087925 0.500000
O O9 0.139101 0.114204 0.272897
O O10 0.274320 0.060095 0.235943
O O11 0.857707 0.539371 0.723496
O O12 0.946545 0.630881 0.805150
O O13 0.857846 0.573405 0.000000
O O14 0.070298 0.566235 0.735159
O O15 0.059916 0.608497 0.000000
O O16 0.604237 0.411004 0.500000
O O17 0.493720 0.406076 0.299541
O O18 0.595614 0.496347 0.296960
O O19 0.115751 0.919649 0.000000
O O20 0.647026 0.965890 0.000000
#
# Coordination Sequence:
#
# PCOD8237243 Si02
#       8
#     8   8   8   8   8   8   8   8
#     4  11  23  37  55  80 109 143 186 232 273 318
#     4   9  20  39  58  74 102 144 185 222 270 326
#     4  10  20  35  56  81 110 146 184 223 272 327
#     4  10  21  37  56  81 111 143 181 223 272 330
#     4   9  19  38  60  79 106 146 186 222 270 332
#     4   9  18  34  57  85 111 140 182 226 269 323
#     4   9  19  36  56  79 112 148 179 218 274 332
#     4  11  21  32  53  86 119 146 177 219 272 325
#
# _framework density 18.826771999999998
#
# number of rings (size 3 to 8) (size 9 to 14) (size 15 to 20)
#    0.000    2.250    0.000    4.500    0.000    8.500 
#    2.250    1.250    0.000    0.000    0.000    0.000 
#    0.000    0.000    0.000    0.000    0.000    0.000 
#
# Total GULP energy -793726.053886 kJ/mol
# GULP energy per Si atom -12401.969592 kJ/mol
# Density = 1.878392 g / cm^3
# Si number density = 18.826772 Si / 1000 Ang^3
#
#
#
# Elastic Constant Matrix: (Units=GPa)
#
#
# Indices 1 2 3 4 5 6 
#
# 1 97.6578 27.5456 43.1408 0.0000 0.0000 0.0000
# 2 27.5456 65.2189 41.9546 0.0000 0.0000 0.0000
# 3 43.1408 41.9546 100.4526 0.0000 0.0000 0.0000
# 4 0.0000 0.0000 0.0000 29.1678 0.0000 0.0000
# 5 0.0000 0.0000 0.0000 0.0000 27.8339 0.0000
# 6 0.0000 0.0000 0.0000 0.0000 0.0000 15.6184
#
#
#
# Elastic Compliance Matrix: (Units=1/GPa)
#
#
# Indices 1 2 3 4 5 6 
#
# 1 0.012949 -0.002587 -0.004481 0.000000 0.000000 0.000000
# 2 -0.002587 0.021483 -0.007862 0.000000 0.000000 0.000000
# 3 -0.004481 -0.007862 0.015163 0.000000 0.000000 0.000000
# 4 0.000000 0.000000 0.000000 0.034284 0.000000 0.000000
# 5 0.000000 0.000000 0.000000 0.000000 0.035927 0.000000
# 6 0.000000 0.000000 0.000000 0.000000 0.000000 0.064027
#
#
# Mechanical properties :
#
#
# Convention : Reuss Voigt Hill
#
# Bulk Modulus (GPa) = 50.66768 54.29016 52.47892
# Shear Modulus (GPa) = 22.69945 24.56990 23.63467
#
# Velocity S-wave (km/s) = 3.47609 3.61647 3.54697
# Velocity P-wave (km/s) = 6.56368 6.80718 6.68654
#
# Compressibility (1/GPa) = 0.01973645
#
# Stress axis : x y z
#
# Youngs Moduli (GPa) = 77.22715 46.54910 65.95140
#
# Poissons Ratio (x) = 0.12040 0.29551
# Poissons Ratio (y) = 0.19976 0.51848
# Poissons Ratio (z) = 0.34604 0.36595
#
# Static dielectric constant tensor:
#      x y z
#    x 3.710100 0.000000 0.000000 
#    y 0.000000 3.197250 0.000000 
#    z 0.000000 0.000000 3.426190 
# 
# 
# High freq. dielectric constant tensor:
#      x y z
#    x 1.743200 0.000000 0.000000 
#    y 0.000000 1.711520 0.000000 
#    z 0.000000 0.000000 1.730300 
# 
# From -- ./inp_files/8518.got.cif
#   From: 2010.06.25/outbox.cif.g09.slc.cpg/sg58_5_cif.got.tgz:8518.got - 2010.06.26 21:38:00.
