data_PCOD8237242
_publ_section_title
;
Structure prediction by ZEFSAII (Michael W. Deem and Ramdas Pophale) SiO2 
 PCOD8237242
Probable space group: P N N M
;
_chemical_formula_sum "Si O2"
_cell_formula_units_Z 48
_cell_length_a 14.907702
_cell_length_b 12.409974
_cell_length_c 13.010104
_cell_angle_alpha 90.000000
_cell_angle_beta 90.000000
_cell_angle_gamma 90.000000
_cell_volume 2406.923807
_symmetry_space_group_name_H-M "P N N M"
_symmetry_group_IT_number 58
_symmetry_cell_setting 'orthorhombic'
loop_
_space_group_symop_operation_xyz
x,y,z
-x,-y,z
1/2+x,1/2-y,1/2-z
1/2-x,1/2+y,1/2-z
-x,-y,-z
x,y,-z
1/2-x,1/2+y,1/2+z
1/2+x,1/2-y,1/2+z
loop_
_atom_site_type_symbol
_atom_site_label
_atom_site_fract_x
_atom_site_fract_y
_atom_site_fract_z
Si Si1 0.419335 0.572362 0.691422
Si Si2 0.685337 0.739673 0.119622
Si Si3 0.733076 0.972426 0.121034
Si Si4 0.434130 0.903254 0.181505
Si Si5 0.615679 0.193305 0.384279
Si Si6 0.503865 0.323708 0.883529
O O1 0.500000 0.500000 0.646872
O O2 0.326982 0.506247 0.679490
O O3 0.412462 0.682076 0.625989
O O4 0.436343 0.599171 0.811919
O O5 0.778391 0.677984 0.140460
O O6 0.598311 0.676066 0.163016
O O7 0.691011 0.860847 0.165044
O O8 0.666027 0.752236 0.000000
O O9 0.666653 0.069436 0.146994
O O10 0.752622 0.964670 0.000000
O O11 0.438443 0.880086 0.303953
O O12 0.461135 0.798650 0.117499
O O13 0.500000 0.000000 0.152300
O O14 0.593603 0.155018 0.500000
O O15 0.510141 0.367954 0.000000
#
# Coordination Sequence:
#
# PCOD8237242 Si02
#       6
#     8   8   8   8   8   8
#     4  10  22  37  57  83 110 150 191 230 272 339
#     4   8  15  31  55  76 103 145 184 222 276 328
#     4  10  20  35  56  81 110 143 187 234 275 328
#     4  11  21  34  58  88 112 146 189 235 281 332
#     4   9  20  37  55  80 115 152 188 229 278 338
#     4  10  20  35  56  85 117 145 181 236 287 328
#
# _framework density 19.942467000000001
#
# number of rings (size 3 to 8) (size 9 to 14) (size 15 to 20)
#    0.000    2.333    1.667    2.000    2.333    2.667 
#    0.000    0.833    0.000    2.000    0.000    0.000 
#    0.000    0.000    0.000    0.000    0.000    0.000 
#
# Total GULP energy -595105.885969 kJ/mol
# GULP energy per Si atom -12398.039291 kJ/mol
# Density = 1.989708 g / cm^3
# Si number density = 19.942467 Si / 1000 Ang^3
#
#
#
# Elastic Constant Matrix: (Units=GPa)
#
#
# Indices 1 2 3 4 5 6 
#
# 1 126.4852 32.0245 32.9920 0.0000 0.0000 0.0000
# 2 32.0245 36.3941 6.7951 0.0000 0.0000 0.0000
# 3 32.9920 6.7951 85.2072 0.0000 0.0000 0.0000
# 4 0.0000 0.0000 0.0000 11.2230 0.0000 0.0000
# 5 0.0000 0.0000 0.0000 0.0000 28.5602 0.0000
# 6 0.0000 0.0000 0.0000 0.0000 0.0000 27.4850
#
#
#
# Elastic Compliance Matrix: (Units=1/GPa)
#
#
# Indices 1 2 3 4 5 6 
#
# 1 0.011159 -0.009149 -0.003591 0.000000 0.000000 0.000000
# 2 -0.009149 0.035393 0.000720 0.000000 0.000000 0.000000
# 3 -0.003591 0.000720 0.013069 0.000000 0.000000 0.000000
# 4 0.000000 0.000000 0.000000 0.089102 0.000000 0.000000
# 5 0.000000 0.000000 0.000000 0.000000 0.035014 0.000000
# 6 0.000000 0.000000 0.000000 0.000000 0.000000 0.036384
#
#
# Mechanical properties :
#
#
# Convention : Reuss Voigt Hill
#
# Bulk Modulus (GPa) = 28.10484 43.52328 35.81406
# Shear Modulus (GPa) = 19.52959 25.20529 22.36744
#
# Velocity S-wave (km/s) = 3.13277 3.55899 3.35266
# Velocity P-wave (km/s) = 5.21624 6.22578 5.74324
#
# Compressibility (1/GPa) = 0.03558106
#
# Stress axis : x y z
#
# Youngs Moduli (GPa) = 89.61250 28.25420 76.51582
#
# Poissons Ratio (x) = 0.25849 0.27478
# Poissons Ratio (y) = 0.81985 -0.05508
# Poissons Ratio (z) = 0.32182 -0.02034
#
# Static dielectric constant tensor:
#      x y z
#    x 3.898960 0.000000 0.000000 
#    y 0.000000 3.418130 0.000000 
#    z 0.000000 0.000000 3.392220 
# 
# 
# High freq. dielectric constant tensor:
#      x y z
#    x 1.784090 0.000000 0.000000 
#    y 0.000000 1.760250 0.000000 
#    z 0.000000 0.000000 1.761980 
# 
# From -- ./inp_files/22282.got.cif
#   From: 2010.06.25/outbox.cif.g09.slc.cpg/sg58_12_cif.got.tgz:22282.got - 2010.06.26 21:38:00.
