data_PCOD8237757
_publ_section_title
;
Structure prediction by ZEFSAII (Michael W. Deem and Ramdas Pophale) SiO2 
 PCOD8237757
Probable space group: P N N M
;
_chemical_formula_sum "Si O2"
_cell_formula_units_Z 64
_cell_length_a 19.093613
_cell_length_b 18.955925
_cell_length_c 8.971363
_cell_angle_alpha 90.000000
_cell_angle_beta 90.000000
_cell_angle_gamma 90.000000
_cell_volume 3247.069071
_symmetry_space_group_name_H-M "P N N M"
_symmetry_group_IT_number 58
_symmetry_cell_setting 'orthorhombic'
loop_
_space_group_symop_operation_xyz
x,y,z
-x,-y,z
1/2+x,1/2-y,1/2-z
1/2-x,1/2+y,1/2-z
-x,-y,-z
x,y,-z
1/2-x,1/2+y,1/2+z
1/2+x,1/2-y,1/2+z
loop_
_atom_site_type_symbol
_atom_site_label
_atom_site_fract_x
_atom_site_fract_y
_atom_site_fract_z
Si Si1 0.309017 0.709544 0.176281
Si Si2 0.909981 0.900976 0.175600
Si Si3 0.884314 0.652167 0.676742
Si Si4 0.348763 0.449736 0.668851
Si Si5 0.691336 0.015001 0.829372
Si Si6 0.952985 0.141717 0.325698
Si Si7 0.963431 0.303993 0.675626
Si Si8 0.670316 0.868549 0.675900
O O1 0.367677 0.661025 0.247723
O O2 0.327012 0.789310 0.229069
O O3 0.231362 0.685778 0.228971
O O4 0.315991 0.701112 0.000000
O O5 0.988990 0.901330 0.234533
O O6 0.875513 0.974395 0.222702
O O7 0.908227 0.889435 0.000000
O O8 0.885980 0.653827 0.500000
O O9 0.863283 0.573798 0.730754
O O10 0.961704 0.669615 0.738437
O O11 0.373514 0.434346 0.500000
O O12 0.265721 0.446917 0.680546
O O13 0.378205 0.389588 0.777859
O O14 0.689956 0.947194 0.725099
O O15 0.675189 0.992267 0.000000
O O16 0.966237 0.131702 0.500000
O O17 0.954613 0.223026 0.279279
O O18 0.957632 0.315459 0.500000
O O19 0.903003 0.348820 0.751854
O O20 0.662237 0.866614 0.500000
#
# Coordination Sequence:
#
# PCOD8237757 Si02
#       8
#     8   8   8   8   8   8   8   8
#     4  10  20  38  62  87 117 153 197 242 292 353
#     4  11  21  36  59  87 120 158 194 239 297 357
#     4   9  19  39  65  87 111 153 204 245 289 351
#     4  10  22  37  56  87 124 157 197 246 296 359
#     4  10  21  40  65  87 115 157 202 247 295 355
#     4  11  23  38  58  86 121 160 200 247 293 351
#     4  10  22  41  62  85 117 155 202 248 292 353
#     4  11  24  39  62  91 123 157 194 247 300 350
#
# _framework density 19.710083000000001
#
# number of rings (size 3 to 8) (size 9 to 14) (size 15 to 20)
#    0.000    1.750    2.500    1.500    1.750    5.000 
#    0.000    3.750    0.000    0.000    0.000    0.000 
#    0.000    0.000    0.000    0.000    0.000    0.000 
#
# Total GULP energy -793745.472048 kJ/mol
# GULP energy per Si atom -12402.273001 kJ/mol
# Density = 1.966522 g / cm^3
# Si number density = 19.710083 Si / 1000 Ang^3
#
#
#
# Elastic Constant Matrix: (Units=GPa)
#
#
# Indices 1 2 3 4 5 6 
#
# 1 101.9218 46.5654 19.4576 0.0000 0.0000 0.0000
# 2 46.5654 69.7181 23.7598 0.0000 0.0000 0.0000
# 3 19.4576 23.7598 22.3055 0.0000 0.0000 0.0000
# 4 0.0000 0.0000 0.0000 29.5637 0.0000 0.0000
# 5 0.0000 0.0000 0.0000 0.0000 29.1085 0.0000
# 6 0.0000 0.0000 0.0000 0.0000 0.0000 36.7276
#
#
#
# Elastic Compliance Matrix: (Units=1/GPa)
#
#
# Indices 1 2 3 4 5 6 
#
# 1 0.014303 -0.008322 -0.003612 0.000000 0.000000 0.000000
# 2 -0.008322 0.027360 -0.021884 0.000000 0.000000 0.000000
# 3 -0.003612 -0.021884 0.071294 0.000000 0.000000 0.000000
# 4 0.000000 0.000000 0.000000 0.033825 0.000000 0.000000
# 5 0.000000 0.000000 0.000000 0.000000 0.034354 0.000000
# 6 0.000000 0.000000 0.000000 0.000000 0.000000 0.027228
#
#
# Mechanical properties :
#
#
# Convention : Reuss Voigt Hill
#
# Bulk Modulus (GPa) = 22.06534 41.50123 31.78329
# Shear Modulus (GPa) = 17.17574 26.02413 21.59994
#
# Velocity S-wave (km/s) = 2.95518 3.63760 3.31400
# Velocity P-wave (km/s) = 4.78157 6.22450 5.55013
#
# Compressibility (1/GPa) = 0.04531994
#
# Stress axis : x y z
#
# Youngs Moduli (GPa) = 69.91410 36.54960 14.02644
#
# Poissons Ratio (x) = 0.30417 0.05067
# Poissons Ratio (y) = 0.58184 0.30696
# Poissons Ratio (z) = 0.25255 0.79986
#
# Static dielectric constant tensor:
#      x y z
#    x 3.816730 0.000000 0.000000 
#    y 0.000000 3.722890 0.000000 
#    z 0.000000 0.000000 3.399560 
# 
# 
# High freq. dielectric constant tensor:
#      x y z
#    x 1.778270 0.000000 0.000000 
#    y 0.000000 1.774390 0.000000 
#    z 0.000000 0.000000 1.748680 
# 
# From -- ./inp_files/8370.got.cif
#   From: 2010.06.25/outbox.cif.g09.slc.cpg/sg58_5_cif.got.tgz:8370.got - 2010.06.26 21:38:00.
