data_PCOD8237715
_publ_section_title
;
Structure prediction by ZEFSAII (Michael W. Deem and Ramdas Pophale) SiO2 
 PCOD8237715
Probable space group: P N N M
;
_chemical_formula_sum "Si O2"
_cell_formula_units_Z 64
_cell_length_a 12.528729
_cell_length_b 28.738627
_cell_length_c 8.891136
_cell_angle_alpha 90.000000
_cell_angle_beta 90.000000
_cell_angle_gamma 90.000000
_cell_volume 3201.328820
_symmetry_space_group_name_H-M "P N N M"
_symmetry_group_IT_number 58
_symmetry_cell_setting 'orthorhombic'
loop_
_space_group_symop_operation_xyz
x,y,z
-x,-y,z
1/2+x,1/2-y,1/2-z
1/2-x,1/2+y,1/2-z
-x,-y,-z
x,y,-z
1/2-x,1/2+y,1/2+z
1/2+x,1/2-y,1/2+z
loop_
_atom_site_type_symbol
_atom_site_label
_atom_site_fract_x
_atom_site_fract_y
_atom_site_fract_z
Si Si1 0.553463 0.212678 0.823439
Si Si2 0.640833 0.822031 0.666452
Si Si3 0.152515 0.383508 0.322121
Si Si4 0.740012 0.463411 0.176105
Si Si5 0.120748 0.186775 0.678492
Si Si6 0.943291 0.904326 0.821538
Si Si7 0.042529 0.577100 0.167014
Si Si8 0.842377 0.065552 0.676578
O O1 0.430882 0.209325 0.774415
O O2 0.621283 0.168344 0.763369
O O3 0.595768 0.261558 0.760736
O O4 0.559836 0.212020 0.000000
O O5 0.639152 0.799566 0.500000
O O6 0.759259 0.822815 0.730679
O O7 0.600315 0.873959 0.661093
O O8 0.166955 0.385589 0.500000
O O9 0.263928 0.395475 0.243546
O O10 0.059967 0.420491 0.275856
O O11 0.666593 0.427829 0.268089
O O12 0.865393 0.458587 0.223580
O O13 0.706367 0.515506 0.214136
O O14 0.726838 0.451268 0.000000
O O15 0.103141 0.182002 0.500000
O O16 0.047971 0.148702 0.762031
O O17 0.042761 0.932606 0.754617
O O18 0.949273 0.905095 0.000000
O O19 0.001639 0.562926 0.000000
O O20 0.856141 0.073876 0.500000
#
# Coordination Sequence:
#
# PCOD8237715 Si02
#       8
#     8   8   8   8   8   8   8   8
#     4   9  20  36  57  84 116 152 191 238 295 351
#     4   9  17  32  56  80 109 147 190 239 287 337
#     4  10  21  38  57  85 125 158 192 245 302 349
#     4  10  21  40  64  88 115 154 203 246 287 348
#     4  10  20  38  60  83 112 152 198 240 286 349
#     4  12  25  39  59  88 121 152 191 247 304 355
#     4   9  17  34  60  85 110 148 198 243 284 341
#     4  11  24  41  62  85 117 162 203 240 289 354
#
# _framework density 19.991699000000001
#
# number of rings (size 3 to 8) (size 9 to 14) (size 15 to 20)
#    0.000    2.000    1.250    2.250    0.000    6.000 
#    0.000    3.750    0.000    0.000    0.000    0.000 
#    0.000    0.000    0.000    0.000    0.000    0.000 
#
# Total GULP energy -793602.974432 kJ/mol
# GULP energy per Si atom -12400.046475 kJ/mol
# Density = 1.994620 g / cm^3
# Si number density = 19.991699 Si / 1000 Ang^3
#
#
#
# Elastic Constant Matrix: (Units=GPa)
#
#
# Indices 1 2 3 4 5 6 
#
# 1 42.7951 5.6315 12.5219 0.0000 0.0000 0.0000
# 2 5.6315 74.7998 33.5372 0.0000 0.0000 0.0000
# 3 12.5219 33.5372 60.4534 0.0000 0.0000 0.0000
# 4 0.0000 0.0000 0.0000 15.9963 0.0000 0.0000
# 5 0.0000 0.0000 0.0000 0.0000 35.0130 0.0000
# 6 0.0000 0.0000 0.0000 0.0000 0.0000 24.2009
#
#
#
# Elastic Compliance Matrix: (Units=1/GPa)
#
#
# Indices 1 2 3 4 5 6 
#
# 1 0.024894 0.000583 -0.005480 0.000000 0.000000 0.000000
# 2 0.000583 0.017809 -0.010000 0.000000 0.000000 0.000000
# 3 -0.005480 -0.010000 0.023224 0.000000 0.000000 0.000000
# 4 0.000000 0.000000 0.000000 0.062514 0.000000 0.000000
# 5 0.000000 0.000000 0.000000 0.000000 0.028561 0.000000
# 6 0.000000 0.000000 0.000000 0.000000 0.000000 0.041321
#
#
# Mechanical properties :
#
#
# Convention : Reuss Voigt Hill
#
# Bulk Modulus (GPa) = 27.67584 31.26994 29.47289
# Shear Modulus (GPa) = 20.81927 23.46589 22.14258
#
# Velocity S-wave (km/s) = 3.23057 3.42977 3.33166
# Velocity P-wave (km/s) = 5.27154 5.59998 5.43824
#
# Compressibility (1/GPa) = 0.03613260
#
# Stress axis : x y z
#
# Youngs Moduli (GPa) = 40.17061 56.15161 43.05799
#
# Poissons Ratio (x) = -0.03272 0.23594
# Poissons Ratio (y) = -0.02340 0.43060
# Poissons Ratio (z) = 0.22012 0.56154
#
# Static dielectric constant tensor:
#      x y z
#    x 3.757370 0.000000 0.000000 
#    y 0.000000 3.817290 0.000000 
#    z 0.000000 0.000000 3.550040 
# 
# 
# High freq. dielectric constant tensor:
#      x y z
#    x 1.785290 0.000000 0.000000 
#    y 0.000000 1.780540 0.000000 
#    z 0.000000 0.000000 1.767000 
# 
# From -- ./inp_files/4801.got.cif
#   From: 2010.06.25/outbox.cif.g09.slc.cpg/sg58_3_cif.got.tgz:4801.got - 2010.06.26 21:38:00.
