data_PCOD8237236
_publ_section_title
;
Structure prediction by ZEFSAII (Michael W. Deem and Ramdas Pophale) SiO2 
 PCOD8237236
Probable space group: P N N M
;
_chemical_formula_sum "Si O2"
_cell_formula_units_Z 64
_cell_length_a 22.440505
_cell_length_b 15.974213
_cell_length_c 9.232280
_cell_angle_alpha 90.000000
_cell_angle_beta 90.000000
_cell_angle_gamma 90.000000
_cell_volume 3309.489934
_symmetry_space_group_name_H-M "P N N M"
_symmetry_group_IT_number 58
_symmetry_cell_setting 'orthorhombic'
loop_
_space_group_symop_operation_xyz
x,y,z
-x,-y,z
1/2+x,1/2-y,1/2-z
1/2-x,1/2+y,1/2-z
-x,-y,-z
x,y,-z
1/2-x,1/2+y,1/2+z
1/2+x,1/2-y,1/2+z
loop_
_atom_site_type_symbol
_atom_site_label
_atom_site_fract_x
_atom_site_fract_y
_atom_site_fract_z
Si Si1 0.779133 0.887632 0.335097
Si Si2 0.961543 0.421622 0.328787
Si Si3 0.282313 0.891832 0.661087
Si Si4 0.677103 0.544931 0.329848
Si Si5 0.540147 0.578908 0.329870
Si Si6 0.857989 0.729341 0.664799
Si Si7 0.156043 0.568515 0.158378
Si Si8 0.008415 0.241084 0.329561
O O1 0.789097 0.920475 0.500000
O O2 0.810840 0.800930 0.309731
O O3 0.708885 0.865362 0.306544
O O4 0.807579 0.952006 0.222326
O O5 0.963577 0.424979 0.500000
O O6 0.893694 0.432444 0.280006
O O7 0.984905 0.331631 0.273593
O O8 0.000000 0.500000 0.265945
O O9 0.270864 0.855826 0.500000
O O10 0.220436 0.887546 0.751316
O O11 0.337710 0.846034 0.734915
O O12 0.303723 0.986266 0.654584
O O13 0.688569 0.551869 0.500000
O O14 0.608670 0.562450 0.289963
O O15 0.500000 0.500000 0.276004
O O16 0.530543 0.592079 0.500000
O O17 0.522952 0.664870 0.251423
O O18 0.860433 0.696707 0.500000
O O19 0.922355 0.762767 0.711445
O O20 0.126493 0.584497 0.000000
O O21 0.996808 0.230522 0.500000
#
# Coordination Sequence:
#
# PCOD8237236 Si02
#       8
#     8   8   8   8   8   8   8   8
#     4   9  19  35  55  80 108 137 174 224 274 326
#     4  10  21  37  56  79 110 145 182 226 271 321
#     4  10  21  36  55  80 109 140 179 229 277 328
#     4  10  20  35  56  80 107 143 184 223 274 334
#     4  10  22  39  58  82 114 151 189 231 278 330
#     4  10  20  36  57  80 109 143 180 223 275 332
#     4   9  19  35  53  76 105 137 176 219 268 323
#     4  10  22  37  56  85 114 146 190 233 277 333
#
# _framework density 19.338328000000001
#
# number of rings (size 3 to 8) (size 9 to 14) (size 15 to 20)
#    0.000    2.250    0.000    3.000    0.000    7.500 
#    0.000    3.750    0.000    0.000    0.000    0.000 
#    0.000    0.000    0.000    0.000    0.000    0.000 
#
# Total GULP energy -793410.903776 kJ/mol
# GULP energy per Si atom -12397.045371 kJ/mol
# Density = 1.929431 g / cm^3
# Si number density = 19.338328 Si / 1000 Ang^3
#
#
#
# Elastic Constant Matrix: (Units=GPa)
#
#
# Indices 1 2 3 4 5 6 
#
# 1 115.9100 34.0498 33.2412 0.0000 0.0000 0.0000
# 2 34.0498 81.0868 25.4730 0.0000 0.0000 0.0000
# 3 33.2412 25.4730 57.9842 0.0000 0.0000 0.0000
# 4 0.0000 0.0000 0.0000 29.8478 0.0000 0.0000
# 5 0.0000 0.0000 0.0000 0.0000 26.6386 0.0000
# 6 0.0000 0.0000 0.0000 0.0000 0.0000 29.3560
#
#
#
# Elastic Compliance Matrix: (Units=1/GPa)
#
#
# Indices 1 2 3 4 5 6 
#
# 1 0.010936 -0.003043 -0.004933 0.000000 0.000000 0.000000
# 2 -0.003043 0.015153 -0.004913 0.000000 0.000000 0.000000
# 3 -0.004933 -0.004913 0.022232 0.000000 0.000000 0.000000
# 4 0.000000 0.000000 0.000000 0.033503 0.000000 0.000000
# 5 0.000000 0.000000 0.000000 0.000000 0.037539 0.000000
# 6 0.000000 0.000000 0.000000 0.000000 0.000000 0.034065
#
#
# Mechanical properties :
#
#
# Convention : Reuss Voigt Hill
#
# Bulk Modulus (GPa) = 44.35515 48.94544 46.65029
# Shear Modulus (GPa) = 26.77811 27.98296 27.38054
#
# Velocity S-wave (km/s) = 3.72522 3.80810 3.76689
# Velocity P-wave (km/s) = 6.44121 6.68584 6.56467
#
# Compressibility (1/GPa) = 0.02254529
#
# Stress axis : x y z
#
# Youngs Moduli (GPa) = 91.44303 65.99171 44.98005
#
# Poissons Ratio (x) = 0.20078 0.22187
# Poissons Ratio (y) = 0.27822 0.22098
# Poissons Ratio (z) = 0.45105 0.32420
#
# Static dielectric constant tensor:
#      x y z
#    x 3.722510 0.000000 0.000000 
#    y 0.000000 3.570340 0.000000 
#    z 0.000000 0.000000 3.536860 
# 
# 
# High freq. dielectric constant tensor:
#      x y z
#    x 1.766300 0.000000 0.000000 
#    y 0.000000 1.746830 0.000000 
#    z 0.000000 0.000000 1.747110 
# 
# From -- ./inp_files/9949.got.cif
#   From: 2010.06.25/outbox.cif.g09.slc.cpg/sg58_5_cif.got.tgz:9949.got - 2010.06.26 21:38:00.
