data_PCOD8237962
_publ_section_title
;
Structure prediction by ZEFSAII (Michael W. Deem and Ramdas Pophale) SiO2 
 PCOD8237962
Probable space group: P N N M
;
_chemical_formula_sum "Si O2"
_cell_formula_units_Z 48
_cell_length_a 11.834779
_cell_length_b 22.652473
_cell_length_c 9.239169
_cell_angle_alpha 90.000000
_cell_angle_beta 90.000000
_cell_angle_gamma 90.000000
_cell_volume 2476.901208
_symmetry_space_group_name_H-M "P N N M"
_symmetry_group_IT_number 58
_symmetry_cell_setting 'orthorhombic'
loop_
_space_group_symop_operation_xyz
x,y,z
-x,-y,z
1/2+x,1/2-y,1/2-z
1/2-x,1/2+y,1/2-z
-x,-y,-z
x,y,-z
1/2-x,1/2+y,1/2+z
1/2+x,1/2-y,1/2+z
loop_
_atom_site_type_symbol
_atom_site_label
_atom_site_fract_x
_atom_site_fract_y
_atom_site_fract_z
Si Si1 0.939635 0.161097 0.340252
Si Si2 0.308663 0.847803 0.671135
Si Si3 0.728140 0.892823 0.170862
Si Si4 0.412650 0.546667 0.161220
Si Si5 0.007033 0.568510 0.828362
Si Si6 0.622599 0.280309 0.330411
O O1 0.919976 0.189366 0.500000
O O2 0.819302 0.139477 0.275757
O O3 0.023038 0.107254 0.353788
O O4 0.999388 0.208636 0.238117
O O5 0.315880 0.847924 0.500000
O O6 0.392881 0.898902 0.726928
O O7 0.339334 0.782923 0.730837
O O8 0.806049 0.945849 0.233233
O O9 0.607783 0.897744 0.247620
O O10 0.783229 0.829424 0.210475
O O11 0.715144 0.901464 0.000000
O O12 0.500000 0.500000 0.229637
O O13 0.372114 0.525808 0.000000
O O14 0.000000 0.500000 0.782281
O O15 0.025857 0.574697 0.000000
O O16 0.603245 0.279860 0.500000
#
# Coordination Sequence:
#
# PCOD8237962 Si02
#       6
#     8   8   8   8   8   8
#     4   9  18  33  54  79 105 134 176 223 267 318
#     4   9  19  35  56  80 107 141 177 224 276 322
#     4  10  21  36  55  79 112 147 178 220 273 330
#     4   9  18  32  56  83 105 136 180 226 266 314
#     4  10  22  38  59  82 108 145 188 230 273 323
#     4   9  19  36  55  78 109 142 175 218 275 328
#
# _framework density 19.379052999999999
#
# number of rings (size 3 to 8) (size 9 to 14) (size 15 to 20)
#    0.000    2.667    0.000    0.500    4.667    1.333 
#    0.000    1.667    0.000    0.000    0.000    0.000 
#    0.000    0.000    0.000    0.000    0.000    0.000 
#
# Total GULP energy -594991.506564 kJ/mol
# GULP energy per Si atom -12395.656387 kJ/mol
# Density = 1.933494 g / cm^3
# Si number density = 19.379053 Si / 1000 Ang^3
#
#
#
# Elastic Constant Matrix: (Units=GPa)
#
#
# Indices 1 2 3 4 5 6 
#
# 1 138.3812 29.5453 41.6932 0.0000 0.0000 0.0000
# 2 29.5453 69.2905 25.4716 0.0000 0.0000 0.0000
# 3 41.6932 25.4716 49.1747 0.0000 0.0000 0.0000
# 4 0.0000 0.0000 0.0000 19.5796 0.0000 0.0000
# 5 0.0000 0.0000 0.0000 0.0000 28.2115 0.0000
# 6 0.0000 0.0000 0.0000 0.0000 0.0000 16.7651
#
#
#
# Elastic Compliance Matrix: (Units=1/GPa)
#
#
# Indices 1 2 3 4 5 6 
#
# 1 0.009813 -0.001391 -0.007600 0.000000 0.000000 0.000000
# 2 -0.001391 0.018023 -0.008157 0.000000 0.000000 0.000000
# 3 -0.007600 -0.008157 0.031004 0.000000 0.000000 0.000000
# 4 0.000000 0.000000 0.000000 0.051074 0.000000 0.000000
# 5 0.000000 0.000000 0.000000 0.000000 0.035447 0.000000
# 6 0.000000 0.000000 0.000000 0.000000 0.000000 0.059648
#
#
# Mechanical properties :
#
#
# Convention : Reuss Voigt Hill
#
# Bulk Modulus (GPa) = 40.73909 50.02962 45.38435
# Shear Modulus (GPa) = 20.20324 23.58699 21.89511
#
# Velocity S-wave (km/s) = 3.23233 3.49254 3.36495
# Velocity P-wave (km/s) = 5.91595 6.49123 6.21026
#
# Compressibility (1/GPa) = 0.02454645
#
# Stress axis : x y z
#
# Youngs Moduli (GPa) = 101.90481 55.48338 32.25354
#
# Poissons Ratio (x) = 0.07715 0.24512
# Poissons Ratio (y) = 0.14170 0.26309
# Poissons Ratio (z) = 0.77446 0.45257
#
# Static dielectric constant tensor:
#      x y z
#    x 3.722580 0.000000 0.000000 
#    y 0.000000 3.658790 0.000000 
#    z 0.000000 0.000000 3.474960 
# 
# 
# High freq. dielectric constant tensor:
#      x y z
#    x 1.764350 0.000000 0.000000 
#    y 0.000000 1.751720 0.000000 
#    z 0.000000 0.000000 1.724320 
# 
# From -- ./inp_files/4246.got.cif
#   From: 2010.06.25/outbox.cif.g09.slc.cpg/sg58_3_cif.got.tgz:4246.got - 2010.06.26 21:38:00.
