data_PCOD8237941
_publ_section_title
;
Structure prediction by ZEFSAII (Michael W. Deem and Ramdas Pophale) SiO2 
 PCOD8237941
Probable space group: P N N M
;
_chemical_formula_sum "Si O2"
_cell_formula_units_Z 64
_cell_length_a 19.511753
_cell_length_b 8.858895
_cell_length_c 18.703038
_cell_angle_alpha 90.000000
_cell_angle_beta 90.000000
_cell_angle_gamma 90.000000
_cell_volume 3232.868206
_symmetry_space_group_name_H-M "P N N M"
_symmetry_group_IT_number 58
_symmetry_cell_setting 'orthorhombic'
loop_
_space_group_symop_operation_xyz
x,y,z
-x,-y,z
1/2+x,1/2-y,1/2-z
1/2-x,1/2+y,1/2-z
-x,-y,-z
x,y,-z
1/2-x,1/2+y,1/2+z
1/2+x,1/2-y,1/2+z
loop_
_atom_site_type_symbol
_atom_site_label
_atom_site_fract_x
_atom_site_fract_y
_atom_site_fract_z
Si Si1 0.230966 0.190753 0.179943
Si Si2 0.118349 0.683274 0.112310
Si Si3 0.489024 0.673872 0.792492
Si Si4 0.649524 0.193530 0.187201
Si Si5 0.878958 0.354508 0.723018
Si Si6 0.017562 0.169882 0.124853
Si Si7 0.762852 0.095251 0.917966
Si Si8 0.645382 0.150959 0.577911
O O1 0.193348 0.202687 0.257063
O O2 0.312105 0.210696 0.184352
O O3 0.206668 0.333359 0.134157
O O4 0.212133 0.037799 0.135980
O O5 0.125422 0.702112 0.196641
O O6 0.178483 0.778953 0.076185
O O7 0.116055 0.514525 0.084780
O O8 0.043834 0.738498 0.089007
O O9 0.500000 0.500000 0.812707
O O10 0.420458 0.722343 0.834931
O O11 0.553710 0.780770 0.814286
O O12 0.474235 0.696768 0.709082
O O13 0.693830 0.167377 0.115655
O O14 0.623961 0.035757 0.221715
O O15 0.088113 0.221593 0.089954
O O16 0.000000 0.000000 0.105956
O O17 0.748007 0.039897 0.000000
O O18 0.676678 0.177286 0.500000
#
# Coordination Sequence:
#
# PCOD8237941 Si02
#       8
#     8   8   8   8   8   8   8   8
#     4  11  22  39  62  90 116 162 206 249 298 361
#     4  11  21  36  58  83 118 162 200 246 303 364
#     4  10  21  35  61  93 120 150 199 262 310 357
#     4  11  21  39  65  88 120 161 206 252 307 361
#     4  10  21  36  61  90 120 152 201 258 303 355
#     4  10  21  36  55  81 118 161 206 245 298 359
#     4  11  25  41  61  91 129 165 203 256 315 371
#     4  12  24  37  55  83 122 161 201 247 299 358
#
# _framework density 19.796662999999999
#
# number of rings (size 3 to 8) (size 9 to 14) (size 15 to 20)
#    0.000    1.250    3.750    2.250    3.500    4.750 
#    0.000    0.000    0.000    7.125    0.000    0.000 
#    0.000    0.000    0.000    0.000    0.000    0.000 
#
# Total GULP energy -793444.661117 kJ/mol
# GULP energy per Si atom -12397.572830 kJ/mol
# Density = 1.975160 g / cm^3
# Si number density = 19.796663 Si / 1000 Ang^3
#
#
#
# Elastic Constant Matrix: (Units=GPa)
#
#
# Indices 1 2 3 4 5 6 
#
# 1 118.0505 39.6888 26.9861 0.0000 0.0000 0.0000
# 2 39.6888 88.8154 21.8470 0.0000 0.0000 0.0000
# 3 26.9861 21.8470 71.1647 0.0000 0.0000 0.0000
# 4 0.0000 0.0000 0.0000 3.5393 0.0000 0.0000
# 5 0.0000 0.0000 0.0000 0.0000 3.4243 0.0000
# 6 0.0000 0.0000 0.0000 0.0000 0.0000 37.8229
#
#
#
# Elastic Compliance Matrix: (Units=1/GPa)
#
#
# Indices 1 2 3 4 5 6 
#
# 1 0.010438 -0.003992 -0.002733 0.000000 0.000000 0.000000
# 2 -0.003992 0.013706 -0.002694 0.000000 0.000000 0.000000
# 3 -0.002733 -0.002694 0.015915 0.000000 0.000000 0.000000
# 4 0.000000 0.000000 0.000000 0.282541 0.000000 0.000000
# 5 0.000000 0.000000 0.000000 0.000000 0.292030 0.000000
# 6 0.000000 0.000000 0.000000 0.000000 0.000000 0.026439
#
#
# Mechanical properties :
#
#
# Convention : Reuss Voigt Hill
#
# Bulk Modulus (GPa) = 47.12116 50.56381 48.84249
# Shear Modulus (GPa) = 7.49648 21.59121 14.54385
#
# Velocity S-wave (km/s) = 1.94807 3.30608 2.71340
# Velocity P-wave (km/s) = 5.37719 6.33803 5.87728
#
# Compressibility (1/GPa) = 0.02122189
#
# Stress axis : x y z
#
# Youngs Moduli (GPa) = 95.80591 72.96134 62.83360
#
# Poissons Ratio (x) = 0.29127 0.17169
# Poissons Ratio (y) = 0.38247 0.16926
# Poissons Ratio (z) = 0.26179 0.19654
#
# Static dielectric constant tensor:
#      x y z
#    x 3.778840 0.000000 0.000000 
#    y 0.000000 3.708450 0.000000 
#    z 0.000000 0.000000 3.460540 
# 
# 
# High freq. dielectric constant tensor:
#      x y z
#    x 1.780180 0.000000 0.000000 
#    y 0.000000 1.781380 0.000000 
#    z 0.000000 0.000000 1.740260 
# 
# From -- ./inp_files/30265.got.cif
#   From: 2010.06.25/outbox.cif.g09.slc.cpg/sg58_16_cif.got.tgz:30265.got - 2010.06.26 21:38:00.
