data_PCOD8237602
_publ_section_title
;
Structure prediction by ZEFSAII (Michael W. Deem and Ramdas Pophale) SiO2 
 PCOD8237602
Probable space group: P N N M
;
_chemical_formula_sum "Si O2"
_cell_formula_units_Z 48
_cell_length_a 19.824657
_cell_length_b 10.015251
_cell_length_c 12.977277
_cell_angle_alpha 90.000000
_cell_angle_beta 90.000000
_cell_angle_gamma 90.000000
_cell_volume 2576.624279
_symmetry_space_group_name_H-M "P N N M"
_symmetry_group_IT_number 58
_symmetry_cell_setting 'orthorhombic'
loop_
_space_group_symop_operation_xyz
x,y,z
-x,-y,z
1/2+x,1/2-y,1/2-z
1/2-x,1/2+y,1/2-z
-x,-y,-z
x,y,-z
1/2-x,1/2+y,1/2+z
1/2+x,1/2-y,1/2+z
loop_
_atom_site_type_symbol
_atom_site_label
_atom_site_fract_x
_atom_site_fract_y
_atom_site_fract_z
Si Si1 0.581542 0.272120 0.380656
Si Si2 0.076038 0.503439 0.222690
Si Si3 0.314188 0.054589 0.884037
Si Si4 0.330492 0.506021 0.702230
Si Si5 0.934453 0.205356 0.190083
Si Si6 0.135680 0.844207 0.616862
O O1 0.596367 0.297623 0.500000
O O2 0.637178 0.348364 0.312781
O O3 0.508100 0.330468 0.351495
O O4 0.587323 0.115352 0.358031
O O5 0.126966 0.487934 0.317251
O O6 0.086512 0.642830 0.160965
O O7 0.000000 0.500000 0.267629
O O8 0.243302 0.000366 0.844255
O O9 0.315213 0.215722 0.879638
O O10 0.325208 0.004448 0.000000
O O11 0.378626 0.396740 0.643651
O O12 0.326876 0.467495 0.824511
O O13 0.931984 0.191488 0.316518
O O14 0.116798 0.884314 0.500000
#
# Coordination Sequence:
#
# PCOD8237602 Si02
#       6
#     8   8   8   8   8   8
#     4  11  22  36  57  84 121 158 189 236 299 342
#     4   9  20  38  58  83 115 152 196 237 283 348
#     4  10  20  37  60  83 112 151 191 237 292 342
#     4  10  21  35  59  89 114 147 192 242 279 352
#     4   8  19  37  57  86 116 151 193 239 272 348
#     4   8  18  38  60  79 112 156 185 227 293 342
#
# _framework density 18.629026
#
# number of rings (size 3 to 8) (size 9 to 14) (size 15 to 20)
#    1.000    1.667    0.000    1.000    2.333    5.333 
#    0.000    5.000    0.000    1.000    0.000    0.000 
#    0.000    0.000    0.000    0.000    0.000    0.000 
#
# Total GULP energy -594762.717795 kJ/mol
# GULP energy per Si atom -12390.889954 kJ/mol
# Density = 1.858663 g / cm^3
# Si number density = 18.629026 Si / 1000 Ang^3
#
#
#
# Elastic Constant Matrix: (Units=GPa)
#
#
# Indices 1 2 3 4 5 6 
#
# 1 97.4912 33.3766 27.7080 0.0000 0.0000 0.0000
# 2 33.3766 70.1685 32.9977 0.0000 0.0000 0.0000
# 3 27.7080 32.9977 100.8499 0.0000 0.0000 0.0000
# 4 0.0000 0.0000 0.0000 27.2126 0.0000 0.0000
# 5 0.0000 0.0000 0.0000 0.0000 21.7984 0.0000
# 6 0.0000 0.0000 0.0000 0.0000 0.0000 23.2571
#
#
#
# Elastic Compliance Matrix: (Units=1/GPa)
#
#
# Indices 1 2 3 4 5 6 
#
# 1 0.012512 -0.005123 -0.001761 0.000000 0.000000 0.000000
# 2 -0.005123 0.018941 -0.004790 0.000000 0.000000 0.000000
# 3 -0.001761 -0.004790 0.011967 0.000000 0.000000 0.000000
# 4 0.000000 0.000000 0.000000 0.036748 0.000000 0.000000
# 5 0.000000 0.000000 0.000000 0.000000 0.045875 0.000000
# 6 0.000000 0.000000 0.000000 0.000000 0.000000 0.042998
#
#
# Mechanical properties :
#
#
# Convention : Reuss Voigt Hill
#
# Bulk Modulus (GPa) = 49.82318 50.74159 50.28238
# Shear Modulus (GPa) = 25.11572 26.08210 25.59891
#
# Velocity S-wave (km/s) = 3.67577 3.74582 3.71096
# Velocity P-wave (km/s) = 6.69463 6.78272 6.73882
#
# Compressibility (1/GPa) = 0.02007098
#
# Stress axis : x y z
#
# Youngs Moduli (GPa) = 79.92418 52.79617 83.56435
#
# Poissons Ratio (x) = 0.27048 0.14718
# Poissons Ratio (y) = 0.40946 0.40025
# Poissons Ratio (z) = 0.14077 0.25288
#
# Static dielectric constant tensor:
#      x y z
#    x 3.309690 0.000000 0.000000 
#    y 0.000000 3.455920 0.000000 
#    z 0.000000 0.000000 3.243890 
# 
# 
# High freq. dielectric constant tensor:
#      x y z
#    x 1.713240 0.000000 0.000000 
#    y 0.000000 1.724560 0.000000 
#    z 0.000000 0.000000 1.703350 
# 
# From -- ./inp_files/16336.got.cif
#   From: 2010.06.25/outbox.cif.g09.slc.cpg/sg58_9_cif.got.tgz:16336.got - 2010.06.26 21:38:00.
