data_PCOD8237829
_publ_section_title
;
Structure prediction by ZEFSAII (Michael W. Deem and Ramdas Pophale) SiO2 
 PCOD8237829
Probable space group: P N N M
;
_chemical_formula_sum "Si O2"
_cell_formula_units_Z 56
_cell_length_a 14.458438
_cell_length_b 15.081801
_cell_length_c 12.393787
_cell_angle_alpha 90.000000
_cell_angle_beta 90.000000
_cell_angle_gamma 90.000000
_cell_volume 2702.580328
_symmetry_space_group_name_H-M "P N N M"
_symmetry_group_IT_number 58
_symmetry_cell_setting 'orthorhombic'
loop_
_space_group_symop_operation_xyz
x,y,z
-x,-y,z
1/2+x,1/2-y,1/2-z
1/2-x,1/2+y,1/2-z
-x,-y,-z
x,y,-z
1/2-x,1/2+y,1/2+z
1/2+x,1/2-y,1/2+z
loop_
_atom_site_type_symbol
_atom_site_label
_atom_site_fract_x
_atom_site_fract_y
_atom_site_fract_z
Si Si1 0.236464 0.916529 0.876812
Si Si2 0.546454 0.768521 0.123537
Si Si3 0.390922 0.006799 0.620377
Si Si4 0.624216 0.167704 0.255002
Si Si5 0.879068 0.840854 0.875971
Si Si6 0.807027 0.404419 0.308707
Si Si7 0.546504 0.588657 0.255053
O O1 0.289674 0.829460 0.829461
O O2 0.144318 0.935681 0.808063
O O3 0.307805 0.000589 0.870797
O O4 0.208942 0.897576 0.000000
O O5 0.470142 0.825717 0.187321
O O6 0.640865 0.825599 0.127776
O O7 0.557804 0.668790 0.169780
O O8 0.515739 0.758173 0.000000
O O9 0.350033 0.015548 0.500000
O O10 0.353803 0.090010 0.689955
O O11 0.500000 0.000000 0.616923
O O12 0.354565 0.921040 0.680118
O O13 0.621918 0.237497 0.350944
O O14 0.801030 0.881252 0.797968
O O15 0.978757 0.881585 0.851354
O O16 0.853738 0.859211 0.000000
O O17 0.500000 0.500000 0.201358
#
# Coordination Sequence:
#
# PCOD8237829 Si02
#       7
#     8   8   8   8   8   8   8
#     4  11  22  38  63  91 127 163 203 257 312 363
#     4  11  23  41  63  90 125 163 205 256 319 376
#     4  10  20  39  63  91 128 161 195 244 308 366
#     4  10  22  39  62  93 124 158 207 253 305 376
#     4  11  22  39  64  87 121 163 208 260 309 358
#     4  11  22  38  61  95 121 158 203 252 303 376
#     4  11  24  42  62  90 122 163 215 266 304 371
#
# _framework density 20.720938
#
# number of rings (size 3 to 8) (size 9 to 14) (size 15 to 20)
#    0.000    1.286    2.857    3.429    0.000    0.857 
#    0.000   10.714    0.000    0.000    0.000    0.000 
#    0.000    0.000    0.000    0.000    0.000    0.000 
#
# Total GULP energy -694067.539034 kJ/mol
# GULP energy per Si atom -12394.063197 kJ/mol
# Density = 2.067378 g / cm^3
# Si number density = 20.720938 Si / 1000 Ang^3
#
#
#
# Elastic Constant Matrix: (Units=GPa)
#
#
# Indices 1 2 3 4 5 6 
#
# 1 95.0183 32.6406 34.7361 0.0000 0.0000 0.0000
# 2 32.6406 88.2672 31.7237 0.0000 0.0000 0.0000
# 3 34.7361 31.7237 129.8210 0.0000 0.0000 0.0000
# 4 0.0000 0.0000 0.0000 21.0907 0.0000 0.0000
# 5 0.0000 0.0000 0.0000 0.0000 26.4194 0.0000
# 6 0.0000 0.0000 0.0000 0.0000 0.0000 34.6410
#
#
#
# Elastic Compliance Matrix: (Units=1/GPa)
#
#
# Indices 1 2 3 4 5 6 
#
# 1 0.012742 -0.003822 -0.002475 0.000000 0.000000 0.000000
# 2 -0.003822 0.013567 -0.002292 0.000000 0.000000 0.000000
# 3 -0.002475 -0.002292 0.008925 0.000000 0.000000 0.000000
# 4 0.000000 0.000000 0.000000 0.047414 0.000000 0.000000
# 5 0.000000 0.000000 0.000000 0.000000 0.037851 0.000000
# 6 0.000000 0.000000 0.000000 0.000000 0.000000 0.028868
#
#
# Mechanical properties :
#
#
# Convention : Reuss Voigt Hill
#
# Bulk Modulus (GPa) = 55.38952 56.81194 56.10073
# Shear Modulus (GPa) = 28.97451 30.69729 29.83590
#
# Velocity S-wave (km/s) = 3.74347 3.85315 3.79871
# Velocity P-wave (km/s) = 6.74344 6.87553 6.80980
#
# Compressibility (1/GPa) = 0.01805396
#
# Stress axis : x y z
#
# Youngs Moduli (GPa) = 78.47899 73.71023 112.03912
#
# Poissons Ratio (x) = 0.28174 0.27734
# Poissons Ratio (y) = 0.29997 0.25685
# Poissons Ratio (z) = 0.19427 0.16898
#
# Static dielectric constant tensor:
#      x y z
#    x 3.809010 0.000000 0.000000 
#    y 0.000000 3.934310 0.000000 
#    z 0.000000 0.000000 3.700970 
# 
# 
# High freq. dielectric constant tensor:
#      x y z
#    x 1.816610 0.000000 0.000000 
#    y 0.000000 1.813500 0.000000 
#    z 0.000000 0.000000 1.799950 
# 
# From -- ./inp_files/15672.got.cif
#   From: 2010.06.25/outbox.cif.g09.slc.cpg/sg58_8_cif.got.tgz:15672.got - 2010.06.26 21:38:00.
