data_PCOD8237839
_publ_section_title
;
Structure prediction by ZEFSAII (Michael W. Deem and Ramdas Pophale) SiO2 
 PCOD8237839
Probable space group: P N N M
;
_chemical_formula_sum "Si O2"
_cell_formula_units_Z 64
_cell_length_a 12.713239
_cell_length_b 28.666708
_cell_length_c 8.821511
_cell_angle_alpha 90.000000
_cell_angle_beta 90.000000
_cell_angle_gamma 90.000000
_cell_volume 3214.970662
_symmetry_space_group_name_H-M "P N N M"
_symmetry_group_IT_number 58
_symmetry_cell_setting 'orthorhombic'
loop_
_space_group_symop_operation_xyz
x,y,z
-x,-y,z
1/2+x,1/2-y,1/2-z
1/2-x,1/2+y,1/2-z
-x,-y,-z
x,y,-z
1/2-x,1/2+y,1/2+z
1/2+x,1/2-y,1/2+z
loop_
_atom_site_type_symbol
_atom_site_label
_atom_site_fract_x
_atom_site_fract_y
_atom_site_fract_z
Si Si1 0.884473 0.914353 0.326105
Si Si2 0.824630 0.566356 0.322783
Si Si3 0.815387 0.469426 0.174152
Si Si4 0.636541 0.795805 0.675804
Si Si5 0.343935 0.678041 0.324999
Si Si6 0.617909 0.603181 0.173336
Si Si7 0.522409 0.890050 0.676268
Si Si8 0.951680 0.207091 0.325389
O O1 0.874966 0.895802 0.500000
O O2 0.809905 0.959417 0.304373
O O3 0.837832 0.876693 0.210767
O O4 0.007609 0.923679 0.290127
O O5 0.832575 0.568220 0.500000
O O6 0.848387 0.513922 0.270475
O O7 0.708311 0.582180 0.276524
O O8 0.912578 0.600955 0.258830
O O9 0.885457 0.425531 0.228999
O O10 0.839602 0.480976 0.000000
O O11 0.670676 0.799347 0.500000
O O12 0.733579 0.798674 0.789234
O O13 0.555628 0.837275 0.715473
O O14 0.587767 0.745698 0.708847
O O15 0.373997 0.686281 0.500000
O O16 0.426323 0.701394 0.211593
O O17 0.606987 0.658218 0.206754
O O18 0.650077 0.594374 0.000000
O O19 0.501176 0.896343 0.500000
O O20 0.937839 0.222478 0.500000
#
# Coordination Sequence:
#
# PCOD8237839 Si02
#       8
#     8   8   8   8   8   8   8   8
#     4   9  18  37  64  90 114 149 200 252 295 348
#     4  12  26  39  56  86 126 162 199 249 304 357
#     4  10  20  39  65  89 116 155 202 247 303 365
#     4  11  22  39  63  91 119 152 200 252 302 361
#     4  11  21  35  58  87 120 157 192 238 299 359
#     4   9  20  40  63  84 116 159 201 244 296 362
#     4  10  22  41  64  86 115 157 203 247 296 362
#     4  10  22  40  62  89 119 155 201 250 303 361
#
# _framework density 19.906869
#
# number of rings (size 3 to 8) (size 9 to 14) (size 15 to 20)
#    0.000    1.750    1.250    4.125    0.000    7.500 
#    0.000    3.750    0.000    0.000    0.000    0.000 
#    0.000    0.000    0.000    0.000    0.000    0.000 
#
# Total GULP energy -793662.716491 kJ/mol
# GULP energy per Si atom -12400.979945 kJ/mol
# Density = 1.986156 g / cm^3
# Si number density = 19.906869 Si / 1000 Ang^3
#
#
#
# Elastic Constant Matrix: (Units=GPa)
#
#
# Indices 1 2 3 4 5 6 
#
# 1 81.5442 12.0182 20.2625 0.0000 0.0000 0.0000
# 2 12.0182 42.8963 22.3332 0.0000 0.0000 0.0000
# 3 20.2625 22.3332 61.8901 0.0000 0.0000 0.0000
# 4 0.0000 0.0000 0.0000 30.5284 0.0000 0.0000
# 5 0.0000 0.0000 0.0000 0.0000 26.5176 0.0000
# 6 0.0000 0.0000 0.0000 0.0000 0.0000 22.4208
#
#
#
# Elastic Compliance Matrix: (Units=1/GPa)
#
#
# Indices 1 2 3 4 5 6 
#
# 1 0.013464 -0.001819 -0.003752 0.000000 0.000000 0.000000
# 2 -0.001819 0.028951 -0.009851 0.000000 0.000000 0.000000
# 3 -0.003752 -0.009851 0.020941 0.000000 0.000000 0.000000
# 4 0.000000 0.000000 0.000000 0.032756 0.000000 0.000000
# 5 0.000000 0.000000 0.000000 0.000000 0.037711 0.000000
# 6 0.000000 0.000000 0.000000 0.000000 0.000000 0.044602
#
#
# Mechanical properties :
#
#
# Convention : Reuss Voigt Hill
#
# Bulk Modulus (GPa) = 30.75858 32.83985 31.79921
# Shear Modulus (GPa) = 22.71648 24.67446 23.69547
#
# Velocity S-wave (km/s) = 3.38174 3.52447 3.45384
# Velocity P-wave (km/s) = 5.54373 5.75283 5.64925
#
# Compressibility (1/GPa) = 0.03251126
#
# Stress axis : x y z
#
# Youngs Moduli (GPa) = 74.27451 34.54161 47.75357
#
# Poissons Ratio (x) = 0.06283 0.17915
# Poissons Ratio (y) = 0.13510 0.47044
# Poissons Ratio (z) = 0.27865 0.34028
#
# Static dielectric constant tensor:
#      x y z
#    x 3.698160 0.000000 0.000000 
#    y 0.000000 3.574560 0.000000 
#    z 0.000000 0.000000 3.509960 
# 
# 
# High freq. dielectric constant tensor:
#      x y z
#    x 1.784190 0.000000 0.000000 
#    y 0.000000 1.769260 0.000000 
#    z 0.000000 0.000000 1.769290 
# 
# From -- ./inp_files/4786.got.cif
#   From: 2010.06.25/outbox.cif.g09.slc.cpg/sg58_3_cif.got.tgz:4786.got - 2010.06.26 21:38:00.
