data_PCOD8237298
_publ_section_title
;
Structure prediction by ZEFSAII (Michael W. Deem and Ramdas Pophale) SiO2 
 PCOD8237298
Probable space group: P N N M
;
_chemical_formula_sum "Si O2"
_cell_formula_units_Z 64
_cell_length_a 23.190678
_cell_length_b 15.204260
_cell_length_c 9.240869
_cell_angle_alpha 90.000000
_cell_angle_beta 90.000000
_cell_angle_gamma 90.000000
_cell_volume 3258.303591
_symmetry_space_group_name_H-M "P N N M"
_symmetry_group_IT_number 58
_symmetry_cell_setting 'orthorhombic'
loop_
_space_group_symop_operation_xyz
x,y,z
-x,-y,z
1/2+x,1/2-y,1/2-z
1/2-x,1/2+y,1/2-z
-x,-y,-z
x,y,-z
1/2-x,1/2+y,1/2+z
1/2+x,1/2-y,1/2+z
loop_
_atom_site_type_symbol
_atom_site_label
_atom_site_fract_x
_atom_site_fract_y
_atom_site_fract_z
Si Si1 0.056139 0.444369 0.332388
Si Si2 0.619691 0.631828 0.337929
Si Si3 0.193735 0.199390 0.831109
Si Si4 0.197535 0.705925 0.161267
Si Si5 0.668081 0.988656 0.329513
Si Si6 0.718535 0.501560 0.668854
Si Si7 0.919326 0.753227 0.332112
Si Si8 0.492163 0.401001 0.828942
O O1 0.069240 0.464937 0.500000
O O2 0.110431 0.472495 0.237861
O O3 0.047063 0.339380 0.308249
O O4 0.000000 0.500000 0.281679
O O5 0.599693 0.605324 0.500000
O O6 0.644480 0.728936 0.336252
O O7 0.667103 0.563947 0.280248
O O8 0.567333 0.635235 0.229180
O O9 0.252267 0.240800 0.766936
O O10 0.139466 0.246207 0.757916
O O11 0.196340 0.096014 0.794882
O O12 0.190586 0.219308 0.000000
O O13 0.170631 0.613848 0.211121
O O14 0.224134 0.697957 0.000000
O O15 0.668049 0.007625 0.500000
O O16 0.725110 0.031294 0.258302
O O17 0.733109 0.513494 0.500000
O O18 0.903875 0.765974 0.500000
O O19 0.957912 0.834815 0.275114
O O20 0.500000 0.500000 0.768359
O O21 0.489481 0.400846 0.000000
#
# Coordination Sequence:
#
# PCOD8237298 Si02
#       8
#     8   8   8   8   8   8   8   8
#     4  10  23  41  60  80 107 150 198 238 281 341
#     4  10  21  36  58  84 112 148 190 229 275 337
#     4  10  20  35  57  86 115 146 189 234 277 330
#     4   9  20  37  56  82 116 151 182 225 286 345
#     4  10  21  37  58  84 115 147 185 235 290 335
#     4   9  19  36  57  84 117 152 186 225 276 341
#     4  10  22  39  59  83 115 154 191 233 288 343
#     4  10  22  39  59  86 117 149 187 233 286 339
#
# _framework density 19.642123000000002
#
# number of rings (size 3 to 8) (size 9 to 14) (size 15 to 20)
#    0.000    2.250    0.000    1.500    3.500    3.500 
#    0.000    0.000    0.000    0.000    0.000    0.000 
#    0.000    0.000    0.000    0.000    0.000    0.000 
#
# Total GULP energy -793674.879164 kJ/mol
# GULP energy per Si atom -12401.169987 kJ/mol
# Density = 1.959742 g / cm^3
# Si number density = 19.642123 Si / 1000 Ang^3
#
#
#
# Elastic Constant Matrix: (Units=GPa)
#
#
# Indices 1 2 3 4 5 6 
#
# 1 111.3408 38.8218 47.3976 0.0000 0.0000 0.0000
# 2 38.8218 80.6870 29.3568 0.0000 0.0000 0.0000
# 3 47.3976 29.3568 60.2724 0.0000 0.0000 0.0000
# 4 0.0000 0.0000 0.0000 23.6766 0.0000 0.0000
# 5 0.0000 0.0000 0.0000 0.0000 38.5188 0.0000
# 6 0.0000 0.0000 0.0000 0.0000 0.0000 30.5802
#
#
#
# Elastic Compliance Matrix: (Units=1/GPa)
#
#
# Indices 1 2 3 4 5 6 
#
# 1 0.014217 -0.003370 -0.009539 0.000000 0.000000 0.000000
# 2 -0.003370 0.015862 -0.005076 0.000000 0.000000 0.000000
# 3 -0.009539 -0.005076 0.026565 0.000000 0.000000 0.000000
# 4 0.000000 0.000000 0.000000 0.042236 0.000000 0.000000
# 5 0.000000 0.000000 0.000000 0.000000 0.025961 0.000000
# 6 0.000000 0.000000 0.000000 0.000000 0.000000 0.032701
#
#
# Mechanical properties :
#
#
# Convention : Reuss Voigt Hill
#
# Bulk Modulus (GPa) = 48.36809 53.71695 51.04252
# Shear Modulus (GPa) = 24.94987 27.67005 26.30996
#
# Velocity S-wave (km/s) = 3.56788 3.75735 3.66384
# Velocity P-wave (km/s) = 6.45377 6.79932 6.62880
#
# Compressibility (1/GPa) = 0.02067479
#
# Stress axis : x y z
#
# Youngs Moduli (GPa) = 70.33796 63.04509 37.64386
#
# Poissons Ratio (x) = 0.21245 0.35908
# Poissons Ratio (y) = 0.23703 0.19107
# Poissons Ratio (z) = 0.67094 0.32000
#
# Static dielectric constant tensor:
#      x y z
#    x 3.496930 0.000000 0.000000 
#    y 0.000000 3.807870 0.000000 
#    z 0.000000 0.000000 3.547570 
# 
# 
# High freq. dielectric constant tensor:
#      x y z
#    x 1.762460 0.000000 0.000000 
#    y 0.000000 1.775000 0.000000 
#    z 0.000000 0.000000 1.760340 
# 
# From -- ./inp_files/10002.got.cif
#   From: 2010.06.25/outbox.cif.g09.slc.cpg/sg58_6_cif.got.tgz:10002.got - 2010.06.26 21:38:00.
