data_PCOD8237864
_publ_section_title
;
Structure prediction by ZEFSAII (Michael W. Deem and Ramdas Pophale) SiO2 
 PCOD8237864
Probable space group: P N N M
;
_chemical_formula_sum "Si O2"
_cell_formula_units_Z 40
_cell_length_a 12.500426
_cell_length_b 8.433067
_cell_length_c 18.228547
_cell_angle_alpha 90.000000
_cell_angle_beta 90.000000
_cell_angle_gamma 90.000000
_cell_volume 1921.597463
_symmetry_space_group_name_H-M "P N N M"
_symmetry_group_IT_number 58
_symmetry_cell_setting 'orthorhombic'
loop_
_space_group_symop_operation_xyz
x,y,z
-x,-y,z
1/2+x,1/2-y,1/2-z
1/2-x,1/2+y,1/2-z
-x,-y,-z
x,y,-z
1/2-x,1/2+y,1/2+z
1/2+x,1/2-y,1/2+z
loop_
_atom_site_type_symbol
_atom_site_label
_atom_site_fract_x
_atom_site_fract_y
_atom_site_fract_z
Si Si1 0.427753 0.785856 0.317345
Si Si2 0.286612 0.130536 0.825150
Si Si3 0.504539 0.686285 0.163321
Si Si4 0.321822 0.818892 0.082800
Si Si5 0.349673 0.131510 0.340198
O O1 0.336787 0.666456 0.346163
O O2 0.446372 0.782203 0.229411
O O3 0.547230 0.750601 0.347974
O O4 0.389830 0.953718 0.348674
O O5 0.373234 0.260581 0.852057
O O6 0.289887 0.136801 0.737558
O O7 0.311970 0.961903 0.859912
O O8 0.500000 0.500000 0.180058
O O9 0.436773 0.733885 0.091596
O O10 0.232344 0.685103 0.097475
O O11 0.311109 0.882163 0.000000
#
# Coordination Sequence:
#
# PCOD8237864 Si02
#       5
#     8   8   8   8   8
#     4  10  21  37  66  98 124 160 220 279 308 371
#     4  11  21  38  64  96 131 169 220 268 321 379
#     4  11  23  38  65  99 129 170 218 272 326 381
#     4  12  26  43  64  96 138 174 210 268 334 391
#     4  10  20  40  64  95 124 169 222 261 320 386
#
# _framework density 20.816013999999999
#
# number of rings (size 3 to 8) (size 9 to 14) (size 15 to 20)
#    0.000    1.200    4.000    1.800    5.600    2.000 
#    0.000    7.000    0.000    0.000    0.000    0.000 
#    0.000    0.000    0.000    0.000    0.000    0.000 
#
# Total GULP energy -495688.230644 kJ/mol
# GULP energy per Si atom -12392.205766 kJ/mol
# Density = 2.076864 g / cm^3
# Si number density = 20.816014 Si / 1000 Ang^3
#
#
#
# Elastic Constant Matrix: (Units=GPa)
#
#
# Indices 1 2 3 4 5 6 
#
# 1 98.4501 13.5816 39.1069 0.0000 0.0000 0.0000
# 2 13.5816 67.4563 15.8325 0.0000 0.0000 0.0000
# 3 39.1069 15.8325 53.9928 0.0000 0.0000 0.0000
# 4 0.0000 0.0000 0.0000 8.6866 0.0000 0.0000
# 5 0.0000 0.0000 0.0000 0.0000 14.6168 0.0000
# 6 0.0000 0.0000 0.0000 0.0000 0.0000 37.2613
#
#
#
# Elastic Compliance Matrix: (Units=1/GPa)
#
#
# Indices 1 2 3 4 5 6 
#
# 1 0.014275 -0.000480 -0.010198 0.000000 0.000000 0.000000
# 2 -0.000480 0.015936 -0.004325 0.000000 0.000000 0.000000
# 3 -0.010198 -0.004325 0.027176 0.000000 0.000000 0.000000
# 4 0.000000 0.000000 0.000000 0.115120 0.000000 0.000000
# 5 0.000000 0.000000 0.000000 0.000000 0.068414 0.000000
# 6 0.000000 0.000000 0.000000 0.000000 0.000000 0.026837
#
#
# Mechanical properties :
#
#
# Convention : Reuss Voigt Hill
#
# Bulk Modulus (GPa) = 36.52402 39.66015 38.09209
# Shear Modulus (GPa) = 16.29233 22.20483 19.24858
#
# Velocity S-wave (km/s) = 2.80068 3.26961 3.04419
# Velocity P-wave (km/s) = 5.29553 5.77476 5.54033
#
# Compressibility (1/GPa) = 0.02737924
#
# Stress axis : x y z
#
# Youngs Moduli (GPa) = 70.05389 62.74991 36.79741
#
# Poissons Ratio (x) = 0.03015 0.37527
# Poissons Ratio (y) = 0.03366 0.15915
# Poissons Ratio (z) = 0.71443 0.27140
#
# Static dielectric constant tensor:
#      x y z
#    x 4.321970 0.000000 0.000000 
#    y 0.000000 3.708390 0.000000 
#    z 0.000000 0.000000 3.214950 
# 
# 
# High freq. dielectric constant tensor:
#      x y z
#    x 1.845470 0.000000 0.000000 
#    y 0.000000 1.811610 0.000000 
#    z 0.000000 0.000000 1.756940 
# 
# From -- ./inp_files/24941.got.cif
#   From: 2010.06.25/outbox.cif.g09.slc.cpg/sg58_13_cif.got.tgz:24941.got - 2010.06.26 21:38:00.
