data_PCOD8237114
_publ_section_title
;
Structure prediction by ZEFSAII (Michael W. Deem and Ramdas Pophale) SiO2 
 PCOD8237114
Probable space group: P N N M
;
_chemical_formula_sum "Si O2"
_cell_formula_units_Z 48
_cell_length_a 11.832833
_cell_length_b 23.323618
_cell_length_c 9.130667
_cell_angle_alpha 90.000000
_cell_angle_beta 90.000000
_cell_angle_gamma 90.000000
_cell_volume 2519.922354
_symmetry_space_group_name_H-M "P N N M"
_symmetry_group_IT_number 58
_symmetry_cell_setting 'orthorhombic'
loop_
_space_group_symop_operation_xyz
x,y,z
-x,-y,z
1/2+x,1/2-y,1/2-z
1/2-x,1/2+y,1/2-z
-x,-y,-z
x,y,-z
1/2-x,1/2+y,1/2+z
1/2+x,1/2-y,1/2+z
loop_
_atom_site_type_symbol
_atom_site_label
_atom_site_fract_x
_atom_site_fract_y
_atom_site_fract_z
Si Si1 0.510780 0.065869 0.825885
Si Si2 0.548455 0.562139 0.838310
Si Si3 0.614376 0.720302 0.826876
Si Si4 0.774915 0.615770 0.166288
Si Si5 0.823358 0.345720 0.326313
Si Si6 0.929967 0.845428 0.171017
O O1 0.621334 0.098484 0.768207
O O2 0.403176 0.102726 0.768559
O O3 0.500000 0.000000 0.768217
O O4 0.518259 0.065896 0.000000
O O5 0.500000 0.500000 0.825628
O O6 0.683978 0.564070 0.820846
O O7 0.493695 0.595927 0.704907
O O8 0.519221 0.588603 0.000000
O O9 0.713628 0.675152 0.781706
O O10 0.639809 0.783560 0.766790
O O11 0.493999 0.705325 0.755125
O O12 0.600001 0.718964 0.000000
O O13 0.818942 0.622509 0.000000
O O14 0.826723 0.345795 0.500000
O O15 0.696491 0.354246 0.268891
O O16 0.931582 0.831355 0.000000
#
# Coordination Sequence:
#
# PCOD8237114 Si02
#       6
#     8   8   8   8   8   8
#     4  10  22  38  56  79 111 150 186 220 272 337
#     4   9  19  36  57  79 108 146 182 219 271 328
#     4   9  19  38  59  78 109 147 180 223 282 333
#     4   9  19  35  56  80 106 139 179 227 272 317
#     4   9  20  37  56  79 111 148 178 222 280 330
#     4  10  20  34  55  83 110 136 179 230 276 324
#
# _framework density 19.048207000000001
#
# number of rings (size 3 to 8) (size 9 to 14) (size 15 to 20)
#    0.000    2.667    0.000    1.500    4.667    3.333 
#    0.000    3.333    0.000    0.000    0.000    0.000 
#    0.000    0.000    0.000    0.000    0.000    0.000 
#
# Total GULP energy -594867.445853 kJ/mol
# GULP energy per Si atom -12393.071789 kJ/mol
# Density = 1.900485 g / cm^3
# Si number density = 19.048207 Si / 1000 Ang^3
#
#
#
# Elastic Constant Matrix: (Units=GPa)
#
#
# Indices 1 2 3 4 5 6 
#
# 1 137.8267 59.7988 33.6830 0.0000 0.0000 0.0000
# 2 59.7988 107.5350 24.2617 0.0000 0.0000 0.0000
# 3 33.6830 24.2617 33.2587 0.0000 0.0000 0.0000
# 4 0.0000 0.0000 0.0000 18.8477 0.0000 0.0000
# 5 0.0000 0.0000 0.0000 0.0000 31.5485 0.0000
# 6 0.0000 0.0000 0.0000 0.0000 0.0000 21.9067
#
#
#
# Elastic Compliance Matrix: (Units=1/GPa)
#
#
# Indices 1 2 3 4 5 6 
#
# 1 0.011123 -0.004362 -0.008083 0.000000 0.000000 0.000000
# 2 -0.004362 0.012842 -0.004950 0.000000 0.000000 0.000000
# 3 -0.008083 -0.004950 0.041865 0.000000 0.000000 0.000000
# 4 0.000000 0.000000 0.000000 0.053057 0.000000 0.000000
# 5 0.000000 0.000000 0.000000 0.000000 0.031697 0.000000
# 6 0.000000 0.000000 0.000000 0.000000 0.000000 0.045648
#
#
# Mechanical properties :
#
#
# Convention : Reuss Voigt Hill
#
# Bulk Modulus (GPa) = 32.21753 57.12304 44.67029
# Shear Modulus (GPa) = 20.71507 25.18571 22.95039
#
# Velocity S-wave (km/s) = 3.30132 3.64016 3.47487
# Velocity P-wave (km/s) = 5.61088 6.90807 6.29299
#
# Compressibility (1/GPa) = 0.03103900
#
# Stress axis : x y z
#
# Youngs Moduli (GPa) = 89.90016 77.87102 23.88622
#
# Poissons Ratio (x) = 0.33966 0.19308
# Poissons Ratio (y) = 0.39213 0.11825
# Poissons Ratio (z) = 0.72671 0.38549
#
# Static dielectric constant tensor:
#      x y z
#    x 3.592430 0.000000 0.000000 
#    y 0.000000 3.844130 0.000000 
#    z 0.000000 0.000000 3.296980 
# 
# 
# High freq. dielectric constant tensor:
#      x y z
#    x 1.745680 0.000000 0.000000 
#    y 0.000000 1.744660 0.000000 
#    z 0.000000 0.000000 1.715930 
# 
# From -- ./inp_files/4172.got.cif
#   From: 2010.06.25/outbox.cif.g09.slc.cpg/sg58_3_cif.got.tgz:4172.got - 2010.06.26 21:38:00.
