data_PCOD8237970
_publ_section_title
;
Structure prediction by ZEFSAII (Michael W. Deem and Ramdas Pophale) SiO2 
 PCOD8237970
Probable space group: P N N M
;
_chemical_formula_sum "Si O2"
_cell_formula_units_Z 48
_cell_length_a 9.260802
_cell_length_b 30.485212
_cell_length_c 8.901255
_cell_angle_alpha 90.000000
_cell_angle_beta 90.000000
_cell_angle_gamma 90.000000
_cell_volume 2512.980168
_symmetry_space_group_name_H-M "P N N M"
_symmetry_group_IT_number 58
_symmetry_cell_setting 'orthorhombic'
loop_
_space_group_symop_operation_xyz
x,y,z
-x,-y,z
1/2+x,1/2-y,1/2-z
1/2-x,1/2+y,1/2-z
-x,-y,-z
x,y,-z
1/2-x,1/2+y,1/2+z
1/2+x,1/2-y,1/2+z
loop_
_atom_site_type_symbol
_atom_site_label
_atom_site_fract_x
_atom_site_fract_y
_atom_site_fract_z
Si Si1 0.411876 0.364290 0.828541
Si Si2 0.574072 0.289142 0.675419
Si Si3 0.386747 0.463039 0.171633
Si Si4 0.090738 0.709939 0.323872
Si Si5 0.921045 0.631742 0.176590
Si Si6 0.409059 0.958444 0.175707
O O1 0.513170 0.336821 0.718037
O O2 0.457636 0.415024 0.809524
O O3 0.244798 0.357670 0.781371
O O4 0.434792 0.348550 0.000000
O O5 0.550238 0.280225 0.500000
O O6 0.487880 0.253489 0.769733
O O7 0.741559 0.286429 0.718807
O O8 0.500000 0.500000 0.216485
O O9 0.255710 0.468546 0.285054
O O10 0.331878 0.468522 0.000000
O O11 0.067897 0.704553 0.500000
O O12 0.025391 0.667860 0.243957
O O13 0.967372 0.584574 0.240144
O O14 0.942156 0.630636 0.000000
O O15 0.500000 0.000000 0.230832
O O16 0.425757 0.950159 0.000000
#
# Coordination Sequence:
#
# PCOD8237970 Si02
#       6
#     8   8   8   8   8   8
#     4   9  19  36  57  82 111 143 183 230 276 325
#     4  11  24  39  57  83 112 145 185 225 271 329
#     4   9  19  36  57  82 112 147 189 234 278 327
#     4  11  24  40  58  83 114 144 180 227 274 325
#     4  10  21  38  60  84 110 144 187 229 274 330
#     4  10  21  36  55  82 115 149 186 229 277 328
#
# _framework density 19.100826000000001
#
# number of rings (size 3 to 8) (size 9 to 14) (size 15 to 20)
#    0.000    2.000    0.000    4.000    0.000   13.000 
#    0.000    3.333    0.000    0.000    0.000    0.000 
#    0.000    0.000    0.000    0.000    0.000    0.000 
#
# Total GULP energy -595392.783903 kJ/mol
# GULP energy per Si atom -12404.016331 kJ/mol
# Density = 1.905735 g / cm^3
# Si number density = 19.100826 Si / 1000 Ang^3
#
#
#
# Elastic Constant Matrix: (Units=GPa)
#
#
# Indices 1 2 3 4 5 6 
#
# 1 70.0105 52.0733 27.3812 0.0000 0.0000 0.0000
# 2 52.0733 123.1273 32.9587 0.0000 0.0000 0.0000
# 3 27.3812 32.9587 51.5802 0.0000 0.0000 0.0000
# 4 0.0000 0.0000 0.0000 -12.1436 0.0000 0.0000
# 5 0.0000 0.0000 0.0000 0.0000 29.8900 0.0000
# 6 0.0000 0.0000 0.0000 0.0000 0.0000 40.4531
#
#
#
# Elastic Compliance Matrix: (Units=1/GPa)
#
#
# Indices 1 2 3 4 5 6 
#
# 1 0.022851 -0.007741 -0.007184 0.000000 0.000000 0.000000
# 2 -0.007741 0.012420 -0.003827 0.000000 0.000000 0.000000
# 3 -0.007184 -0.003827 0.025646 0.000000 0.000000 0.000000
# 4 0.000000 0.000000 0.000000 -0.082348 0.000000 0.000000
# 5 0.000000 0.000000 0.000000 0.000000 0.033456 0.000000
# 6 0.000000 0.000000 0.000000 0.000000 0.000000 0.024720
#
#
# Mechanical properties :
#
#
# Convention : Reuss Voigt Hill
#
# Bulk Modulus (GPa) = 42.71067 52.17160 47.44114
# Shear Modulus (GPa) = 60.93599 20.46021 40.69810
#
# Velocity S-wave (km/s) = 5.65434 3.27642 4.62096
# Velocity P-wave (km/s) = 8.06461 6.45650 7.30494
#
# Compressibility (1/GPa) = 0.02341335
#
# Stress axis : x y z
#
# Youngs Moduli (GPa) = 43.76153 80.51556 38.99243
#
# Poissons Ratio (x) = 0.62329 0.28012
# Poissons Ratio (y) = 0.33877 0.14921
# Poissons Ratio (z) = 0.31438 0.30811
#
# Static dielectric constant tensor:
#      x y z
#    x 3.412950 0.000000 0.000000 
#    y 0.000000 3.663510 0.000000 
#    z 0.000000 0.000000 3.503610 
# 
# 
# High freq. dielectric constant tensor:
#      x y z
#    x 1.736230 0.000000 0.000000 
#    y 0.000000 1.758810 0.000000 
#    z 0.000000 0.000000 1.749260 
# 
# From -- ./inp_files/2903.got.cif
#   From: 2010.06.25/outbox.cif.g09.slc.cpg/sg58_2_cif.got.tgz:2903.got - 2010.06.26 21:38:00.
