data_PCOD8237086
_publ_section_title
;
Structure prediction by ZEFSAII (Michael W. Deem and Ramdas Pophale) SiO2 
 PCOD8237086
Probable space group: P N N M
;
_chemical_formula_sum "Si O2"
_cell_formula_units_Z 64
_cell_length_a 28.065554
_cell_length_b 12.271210
_cell_length_c 9.050012
_cell_angle_alpha 90.000000
_cell_angle_beta 90.000000
_cell_angle_gamma 90.000000
_cell_volume 3116.808810
_symmetry_space_group_name_H-M "P N N M"
_symmetry_group_IT_number 58
_symmetry_cell_setting 'orthorhombic'
loop_
_space_group_symop_operation_xyz
x,y,z
-x,-y,z
1/2+x,1/2-y,1/2-z
1/2-x,1/2+y,1/2-z
-x,-y,-z
x,y,-z
1/2-x,1/2+y,1/2+z
1/2+x,1/2-y,1/2+z
loop_
_atom_site_type_symbol
_atom_site_label
_atom_site_fract_x
_atom_site_fract_y
_atom_site_fract_z
Si Si1 0.915131 0.899937 0.666765
Si Si2 0.774543 0.827824 0.169440
Si Si3 0.346663 0.806582 0.165825
Si Si4 0.338152 0.471329 0.326464
Si Si5 0.571291 0.844050 0.826865
Si Si6 0.489409 0.732175 0.670437
Si Si7 0.079331 0.436851 0.830031
Si Si8 0.827205 0.249668 0.668964
O O1 0.928099 0.935243 0.500000
O O2 0.881529 0.795580 0.667087
O O3 0.887895 0.998581 0.747105
O O4 0.963218 0.871107 0.755413
O O5 0.796649 0.728702 0.263413
O O6 0.796386 0.943855 0.218152
O O7 0.717823 0.829340 0.195128
O O8 0.788009 0.804666 0.000000
O O9 0.370000 0.903985 0.259280
O O10 0.337599 0.849308 0.000000
O O11 0.347598 0.471042 0.500000
O O12 0.321271 0.353717 0.274130
O O13 0.539180 0.749718 0.754324
O O14 0.558106 0.959244 0.754037
O O15 0.626047 0.817787 0.790786
O O16 0.560450 0.849806 0.000000
O O17 0.499036 0.704723 0.500000
O O18 0.458254 0.840522 0.688558
O O19 0.087581 0.467283 0.000000
O O20 0.829185 0.208420 0.500000
#
# Coordination Sequence:
#
# PCOD8237086 Si02
#       8
#     8   8   8   8   8   8   8   8
#     4   9  17  32  56  83 110 141 178 222 272 326
#     4   9  19  37  58  80 109 144 181 223 271 321
#     4   9  17  30  52  83 112 139 178 224 268 321
#     4  10  20  36  60  86 111 142 181 226 275 326
#     4  11  23  37  53  76 110 150 190 233 279 328
#     4  10  20  35  56  82 112 145 184 230 277 329
#     4  10  20  34  54  81 113 148 183 224 278 333
#     4  10  23  41  57  78 112 149 183 224 273 323
#
# _framework density 20.533825
#
# number of rings (size 3 to 8) (size 9 to 14) (size 15 to 20)
#    0.000    2.250    0.000    2.625    0.000    9.000 
#    0.000    1.875    0.000    3.750    0.000    0.000 
#    0.000    0.000    0.000    0.000    0.000    0.000 
#
# Total GULP energy -793820.488214 kJ/mol
# GULP energy per Si atom -12403.445128 kJ/mol
# Density = 2.048709 g / cm^3
# Si number density = 20.533825 Si / 1000 Ang^3
#
#
#
# Elastic Constant Matrix: (Units=GPa)
#
#
# Indices 1 2 3 4 5 6 
#
# 1 75.4298 -3.9724 38.6081 0.0000 0.0000 0.0000
# 2 -3.9724 38.8853 22.9964 0.0000 0.0000 0.0000
# 3 38.6081 22.9964 127.7561 0.0000 0.0000 0.0000
# 4 0.0000 0.0000 0.0000 30.0975 0.0000 0.0000
# 5 0.0000 0.0000 0.0000 0.0000 32.3006 0.0000
# 6 0.0000 0.0000 0.0000 0.0000 0.0000 21.3217
#
#
#
# Elastic Compliance Matrix: (Units=1/GPa)
#
#
# Indices 1 2 3 4 5 6 
#
# 1 0.016576 0.005210 -0.005947 0.000000 0.000000 0.000000
# 2 0.005210 0.030418 -0.007050 0.000000 0.000000 0.000000
# 3 -0.005947 -0.007050 0.010894 0.000000 0.000000 0.000000
# 4 0.000000 0.000000 0.000000 0.033225 0.000000 0.000000
# 5 0.000000 0.000000 0.000000 0.000000 0.030959 0.000000
# 6 0.000000 0.000000 0.000000 0.000000 0.000000 0.046901
#
#
# Mechanical properties :
#
#
# Convention : Reuss Voigt Hill
#
# Bulk Modulus (GPa) = 23.63271 39.70394 31.66832
# Shear Modulus (GPa) = 25.16980 29.03989 27.10484
#
# Velocity S-wave (km/s) = 3.50490 3.76473 3.63714
# Velocity P-wave (km/s) = 5.28330 6.18671 5.75277
#
# Compressibility (1/GPa) = 0.04231424
#
# Stress axis : x y z
#
# Youngs Moduli (GPa) = 60.32921 32.87507 91.79678
#
# Poissons Ratio (x) = -0.17129 0.54592
# Poissons Ratio (y) = -0.31434 0.64716
# Poissons Ratio (z) = 0.35878 0.23177
#
# Static dielectric constant tensor:
#      x y z
#    x 3.697830 0.000000 0.000000 
#    y 0.000000 3.426670 0.000000 
#    z 0.000000 0.000000 3.832750 
# 
# 
# High freq. dielectric constant tensor:
#      x y z
#    x 1.799600 0.000000 0.000000 
#    y 0.000000 1.782770 0.000000 
#    z 0.000000 0.000000 1.811740 
# 
# From -- ./inp_files/10939.got.cif
#   From: 2010.06.25/outbox.cif.g09.slc.cpg/sg58_6_cif.got.tgz:10939.got - 2010.06.26 21:38:00.
