data_PCOD8237026
_publ_section_title
;
Structure prediction by ZEFSAII (Michael W. Deem and Ramdas Pophale) SiO2 
 PCOD8237026
Probable space group: P N N M
;
_chemical_formula_sum "Si O2"
_cell_formula_units_Z 48
_cell_length_a 15.250837
_cell_length_b 19.022351
_cell_length_c 8.907276
_cell_angle_alpha 90.000000
_cell_angle_beta 90.000000
_cell_angle_gamma 90.000000
_cell_volume 2584.061110
_symmetry_space_group_name_H-M "P N N M"
_symmetry_group_IT_number 58
_symmetry_cell_setting 'orthorhombic'
loop_
_space_group_symop_operation_xyz
x,y,z
-x,-y,z
1/2+x,1/2-y,1/2-z
1/2-x,1/2+y,1/2-z
-x,-y,-z
x,y,-z
1/2-x,1/2+y,1/2+z
1/2+x,1/2-y,1/2+z
loop_
_atom_site_type_symbol
_atom_site_label
_atom_site_fract_x
_atom_site_fract_y
_atom_site_fract_z
Si Si1 0.653598 0.076402 0.676255
Si Si2 0.653676 0.429662 0.675485
Si Si3 0.507224 0.669472 0.324639
Si Si4 0.000923 0.670932 0.821567
Si Si5 0.849619 0.076068 0.322046
Si Si6 0.164759 0.582303 0.823220
O O1 0.650239 0.087138 0.500000
O O2 0.581283 0.128090 0.749637
O O3 0.751295 0.095207 0.733597
O O4 0.631341 0.995907 0.717712
O O5 0.662668 0.444188 0.500000
O O6 0.582077 0.370760 0.711843
O O7 0.622040 0.501415 0.753267
O O8 0.745097 0.400606 0.738845
O O9 0.530484 0.666198 0.500000
O O10 0.495490 0.749007 0.267196
O O11 0.587230 0.637071 0.233154
O O12 0.091730 0.636689 0.764990
O O13 0.997598 0.665595 0.000000
O O14 0.853977 0.068692 0.500000
O O15 0.182796 0.588793 0.000000
#
# Coordination Sequence:
#
# PCOD8237026 Si02
#       6
#     8   8   8   8   8   8
#     4   8  15  29  51  77  98 123 165 209 246 288
#     4  10  20  34  52  73 101 135 169 208 253 303
#     4  10  21  34  49  72 102 137 169 199 248 307
#     4   9  17  31  51  74 102 134 167 204 247 300
#     4  10  20  34  55  78  98 126 168 216 256 293
#     4   9  17  31  54  79  99 127 170 214 250 287
#
# _framework density 18.575410999999999
#
# number of rings (size 3 to 8) (size 9 to 14) (size 15 to 20)
#    0.000    2.667    0.000    3.000    0.000    6.667 
#    0.000    2.500    0.000   14.000    0.000    0.000 
#    0.000    0.000    0.000    0.000    0.000    0.000 
#
# Total GULP energy -595176.526915 kJ/mol
# GULP energy per Si atom -12399.510977 kJ/mol
# Density = 1.853313 g / cm^3
# Si number density = 18.575411 Si / 1000 Ang^3
#
#
#
# Elastic Constant Matrix: (Units=GPa)
#
#
# Indices 1 2 3 4 5 6 
#
# 1 122.5389 83.2484 37.7493 0.0000 0.0000 0.0000
# 2 83.2484 136.4832 33.7256 0.0000 0.0000 0.0000
# 3 37.7493 33.7256 42.2577 0.0000 0.0000 0.0000
# 4 0.0000 0.0000 0.0000 19.3119 0.0000 0.0000
# 5 0.0000 0.0000 0.0000 0.0000 24.8408 0.0000
# 6 0.0000 0.0000 0.0000 0.0000 0.0000 17.7783
#
#
#
# Elastic Compliance Matrix: (Units=1/GPa)
#
#
# Indices 1 2 3 4 5 6 
#
# 1 0.015857 -0.007688 -0.008030 0.000000 0.000000 0.000000
# 2 -0.007688 0.012854 -0.003391 0.000000 0.000000 0.000000
# 3 -0.008030 -0.003391 0.033544 0.000000 0.000000 0.000000
# 4 0.000000 0.000000 0.000000 0.051782 0.000000 0.000000
# 5 0.000000 0.000000 0.000000 0.000000 0.040256 0.000000
# 6 0.000000 0.000000 0.000000 0.000000 0.000000 0.056248
#
#
# Mechanical properties :
#
#
# Convention : Reuss Voigt Hill
#
# Bulk Modulus (GPa) = 41.60146 67.85848 54.72997
# Shear Modulus (GPa) = 19.47258 22.15664 20.81461
#
# Velocity S-wave (km/s) = 3.24126 3.45743 3.35109
# Velocity P-wave (km/s) = 6.03757 7.24908 6.67088
#
# Compressibility (1/GPa) = 0.02403762
#
# Stress axis : x y z
#
# Youngs Moduli (GPa) = 63.06267 77.79570 29.81182
#
# Poissons Ratio (x) = 0.59809 0.23938
# Poissons Ratio (y) = 0.48483 0.10109
# Poissons Ratio (z) = 0.50637 0.26381
#
# Static dielectric constant tensor:
#      x y z
#    x 3.672100 0.000000 0.000000 
#    y 0.000000 3.533110 0.000000 
#    z 0.000000 0.000000 3.094250 
# 
# 
# High freq. dielectric constant tensor:
#      x y z
#    x 1.734940 0.000000 0.000000 
#    y 0.000000 1.719430 0.000000 
#    z 0.000000 0.000000 1.687020 
# 
# From -- ./inp_files/5880.got.cif
#   From: 2010.06.25/outbox.cif.g09.slc.cpg/sg58_3_cif.got.tgz:5880.got - 2010.06.26 21:38:00.
