data_PCOD8237573
_publ_section_title
;
Structure prediction by ZEFSAII (Michael W. Deem and Ramdas Pophale) SiO2 
 PCOD8237573
Probable space group: P N N M
;
_chemical_formula_sum "Si O2"
_cell_formula_units_Z 64
_cell_length_a 16.907843
_cell_length_b 21.850442
_cell_length_c 9.037605
_cell_angle_alpha 90.000000
_cell_angle_beta 90.000000
_cell_angle_gamma 90.000000
_cell_volume 3338.887521
_symmetry_space_group_name_H-M "P N N M"
_symmetry_group_IT_number 58
_symmetry_cell_setting 'orthorhombic'
loop_
_space_group_symop_operation_xyz
x,y,z
-x,-y,z
1/2+x,1/2-y,1/2-z
1/2-x,1/2+y,1/2-z
-x,-y,-z
x,y,-z
1/2-x,1/2+y,1/2+z
1/2+x,1/2-y,1/2+z
loop_
_atom_site_type_symbol
_atom_site_label
_atom_site_fract_x
_atom_site_fract_y
_atom_site_fract_z
Si Si1 0.783955 0.842849 0.333372
Si Si2 0.920388 0.761148 0.323200
Si Si3 0.039151 0.363096 0.171358
Si Si4 0.899037 0.955563 0.664702
Si Si5 0.667369 0.567850 0.326138
Si Si6 0.631570 0.903465 0.323017
Si Si7 0.827497 0.538434 0.171614
Si Si8 0.961920 0.135137 0.328250
O O1 0.768330 0.821580 0.500000
O O2 0.838156 0.790223 0.257906
O O3 0.829660 0.906586 0.330107
O O4 0.697977 0.855812 0.259718
O O5 0.916943 0.761707 0.500000
O O6 0.928053 0.693579 0.262839
O O7 0.993762 0.803587 0.271437
O O8 0.095838 0.420265 0.196653
O O9 0.953403 0.381544 0.235169
O O10 0.034320 0.344376 0.000000
O O11 0.901234 0.985219 0.500000
O O12 0.982658 0.924028 0.699865
O O13 0.880591 0.006790 0.785045
O O14 0.674564 0.574311 0.500000
O O15 0.754781 0.567816 0.258893
O O16 0.618838 0.626277 0.263465
O O17 0.632102 0.905401 0.500000
O O18 0.651028 0.971536 0.264532
O O19 0.803379 0.534946 0.000000
O O20 0.940808 0.141638 0.500000
#
# Coordination Sequence:
#
# PCOD8237573 Si02
#       8
#     8   8   8   8   8   8   8   8
#     4   8  14  29  57  84 103 138 186 224 255 312
#     4   9  19  37  58  79 109 148 187 221 264 326
#     4  10  21  36  58  87 112 139 179 231 286 328
#     4   9  16  31  55  79 105 142 185 222 266 327
#     4  12  23  32  48  80 117 145 177 227 285 330
#     4   9  16  32  61  88 106 133 185 235 269 318
#     4  10  20  37  59  80 109 146 185 229 273 330
#     4   9  19  35  56  78 104 148 195 223 258 329
#
# _framework density 19.168060000000001
#
# number of rings (size 3 to 8) (size 9 to 14) (size 15 to 20)
#    0.000    2.500    1.250    3.375    0.000    4.500 
#    2.250    2.500    0.000    1.500    0.000    0.000 
#    0.000    0.000    0.000    0.000    0.000    0.000 
#
# Total GULP energy -793336.991389 kJ/mol
# GULP energy per Si atom -12395.890490 kJ/mol
# Density = 1.912443 g / cm^3
# Si number density = 19.168060 Si / 1000 Ang^3
#
#
#
# Elastic Constant Matrix: (Units=GPa)
#
#
# Indices 1 2 3 4 5 6 
#
# 1 135.1371 51.8401 34.2807 0.0000 0.0000 0.0000
# 2 51.8401 84.3200 21.3367 0.0000 0.0000 0.0000
# 3 34.2807 21.3367 49.5101 0.0000 0.0000 0.0000
# 4 0.0000 0.0000 0.0000 24.4373 0.0000 0.0000
# 5 0.0000 0.0000 0.0000 0.0000 16.0986 0.0000
# 6 0.0000 0.0000 0.0000 0.0000 0.0000 16.4210
#
#
#
# Elastic Compliance Matrix: (Units=1/GPa)
#
#
# Indices 1 2 3 4 5 6 
#
# 1 0.010740 -0.005299 -0.005153 0.000000 0.000000 0.000000
# 2 -0.005299 0.015926 -0.003194 0.000000 0.000000 0.000000
# 3 -0.005153 -0.003194 0.025142 0.000000 0.000000 0.000000
# 4 0.000000 0.000000 0.000000 0.040921 0.000000 0.000000
# 5 0.000000 0.000000 0.000000 0.000000 0.062117 0.000000
# 6 0.000000 0.000000 0.000000 0.000000 0.000000 0.060898
#
#
# Mechanical properties :
#
#
# Convention : Reuss Voigt Hill
#
# Bulk Modulus (GPa) = 40.78981 53.76470 47.27725
# Shear Modulus (GPa) = 19.90392 22.15870 21.03131
#
# Velocity S-wave (km/s) = 3.22590 3.40372 3.31600
# Velocity P-wave (km/s) = 5.93309 6.59978 6.27529
#
# Compressibility (1/GPa) = 0.02451593
#
# Stress axis : x y z
#
# Youngs Moduli (GPa) = 93.11249 62.79163 39.77399
#
# Poissons Ratio (x) = 0.33273 0.20494
# Poissons Ratio (y) = 0.49340 0.12705
# Poissons Ratio (z) = 0.47976 0.20057
#
# Static dielectric constant tensor:
#      x y z
#    x 3.796310 0.000000 0.000000 
#    y 0.000000 3.388090 0.000000 
#    z 0.000000 0.000000 3.060180 
# 
# 
# High freq. dielectric constant tensor:
#      x y z
#    x 1.762110 0.000000 0.000000 
#    y 0.000000 1.734790 0.000000 
#    z 0.000000 0.000000 1.698080 
# 
# From -- ./inp_files/8342.got.cif
#   From: 2010.06.25/outbox.cif.g09.slc.cpg/sg58_5_cif.got.tgz:8342.got - 2010.06.26 21:38:00.
