data_PCOD8237504
_publ_section_title
;
Structure prediction by ZEFSAII (Michael W. Deem and Ramdas Pophale) SiO2 
 PCOD8237504
Probable space group: P N N M
;
_chemical_formula_sum "Si O2"
_cell_formula_units_Z 64
_cell_length_a 8.482928
_cell_length_b 25.688162
_cell_length_c 14.329526
_cell_angle_alpha 90.000000
_cell_angle_beta 90.000000
_cell_angle_gamma 90.000000
_cell_volume 3122.558886
_symmetry_space_group_name_H-M "P N N M"
_symmetry_group_IT_number 58
_symmetry_cell_setting 'orthorhombic'
loop_
_space_group_symop_operation_xyz
x,y,z
-x,-y,z
1/2+x,1/2-y,1/2-z
1/2-x,1/2+y,1/2-z
-x,-y,-z
x,y,-z
1/2-x,1/2+y,1/2+z
1/2+x,1/2-y,1/2+z
loop_
_atom_site_type_symbol
_atom_site_label
_atom_site_fract_x
_atom_site_fract_y
_atom_site_fract_z
Si Si1 0.235990 0.885831 0.259536
Si Si2 0.979716 0.632055 0.393938
Si Si3 0.843727 0.470153 0.604686
Si Si4 0.248177 0.098871 0.397084
Si Si5 0.878102 0.279650 0.726287
Si Si6 0.036482 0.330540 0.893350
Si Si7 0.321103 0.500848 0.779903
Si Si8 0.051219 0.177584 0.719572
O O1 0.329860 0.888186 0.162830
O O2 0.305756 0.847431 0.338835
O O3 0.058969 0.866337 0.230724
O O4 0.242610 0.943526 0.303574
O O5 0.926081 0.641602 0.500000
O O6 0.123667 0.591411 0.388547
O O7 0.036366 0.684945 0.348789
O O8 0.798850 0.487199 0.500000
O O9 0.699644 0.485860 0.670582
O O10 0.000000 0.500000 0.638369
O O11 0.189641 0.083921 0.500000
O O12 0.426124 0.119024 0.397127
O O13 0.261902 0.046615 0.337055
O O14 0.132781 0.145268 0.363395
O O15 0.945260 0.286784 0.831889
O O16 0.922277 0.221718 0.691375
O O17 0.690359 0.293247 0.721766
O O18 0.071292 0.310649 0.000000
O O19 0.500000 0.500000 0.808725
#
# Coordination Sequence:
#
# PCOD8237504 Si02
#       8
#     8   8   8   8   8   8   8   8
#     4  11  22  37  61  89 124 162 204 248 302 364
#     4  10  21  39  62  91 122 157 203 253 303 361
#     4  10  20  36  60  87 119 160 206 250 297 355
#     4  10  23  41  62  91 128 163 205 253 301 358
#     4  10  21  39  67  86 119 154 202 250 303 368
#     4   9  20  39  62  91 121 158 200 249 301 357
#     4  12  23  37  59  88 125 169 205 244 304 357
#     4  11  22  42  62  89 119 160 197 254 307 360
#
# _framework density 20.496010999999999
#
# number of rings (size 3 to 8) (size 9 to 14) (size 15 to 20)
#    0.000    1.625    2.500    3.750    0.000    2.000 
#    0.000    6.875    0.000    0.750    0.000    0.000 
#    0.000    0.000    0.000    0.000    0.000    0.000 
#
# Total GULP energy -793030.290386 kJ/mol
# GULP energy per Si atom -12391.098287 kJ/mol
# Density = 2.044936 g / cm^3
# Si number density = 20.496011 Si / 1000 Ang^3
#
#
#
# Elastic Constant Matrix: (Units=GPa)
#
#
# Indices 1 2 3 4 5 6 
#
# 1 79.2067 23.9495 26.2993 0.0000 0.0000 0.0000
# 2 23.9495 112.8947 20.6132 0.0000 0.0000 0.0000
# 3 26.2993 20.6132 80.7227 0.0000 0.0000 0.0000
# 4 0.0000 0.0000 0.0000 13.7569 0.0000 0.0000
# 5 0.0000 0.0000 0.0000 0.0000 16.1439 0.0000
# 6 0.0000 0.0000 0.0000 0.0000 0.0000 34.1854
#
#
#
# Elastic Compliance Matrix: (Units=1/GPa)
#
#
# Indices 1 2 3 4 5 6 
#
# 1 0.014732 -0.002359 -0.004197 0.000000 0.000000 0.000000
# 2 -0.002359 0.009669 -0.001700 0.000000 0.000000 0.000000
# 3 -0.004197 -0.001700 0.014190 0.000000 0.000000 0.000000
# 4 0.000000 0.000000 0.000000 0.072691 0.000000 0.000000
# 5 0.000000 0.000000 0.000000 0.000000 0.061943 0.000000
# 6 0.000000 0.000000 0.000000 0.000000 0.000000 0.029252
#
#
# Mechanical properties :
#
#
# Convention : Reuss Voigt Hill
#
# Bulk Modulus (GPa) = 45.29551 46.06091 45.67821
# Shear Modulus (GPa) = 22.08975 26.28136 24.18555
#
# Velocity S-wave (km/s) = 3.28648 3.58476 3.43886
# Velocity P-wave (km/s) = 6.04557 6.29729 6.17272
#
# Compressibility (1/GPa) = 0.02207724
#
# Stress axis : x y z
#
# Youngs Moduli (GPa) = 67.87893 103.42642 70.47312
#
# Poissons Ratio (x) = 0.24397 0.29580
# Poissons Ratio (y) = 0.16012 0.11984
# Poissons Ratio (z) = 0.28491 0.17587
#
# Static dielectric constant tensor:
#      x y z
#    x 3.743800 0.000000 0.000000 
#    y 0.000000 3.937470 0.000000 
#    z 0.000000 0.000000 3.656640 
# 
# 
# High freq. dielectric constant tensor:
#      x y z
#    x 1.798560 0.000000 0.000000 
#    y 0.000000 1.811940 0.000000 
#    z 0.000000 0.000000 1.779920 
# 
# From -- ./inp_files/20271.got.cif
#   From: 2010.06.25/outbox.cif.g09.slc.cpg/sg58_11_cif.got.tgz:20271.got - 2010.06.26 21:38:00.
