data_PCOD8237708
_publ_section_title
;
Structure prediction by ZEFSAII (Michael W. Deem and Ramdas Pophale) SiO2 
 PCOD8237708
Probable space group: P N N M
;
_chemical_formula_sum "Si O2"
_cell_formula_units_Z 64
_cell_length_a 24.349667
_cell_length_b 14.584131
_cell_length_c 9.069251
_cell_angle_alpha 90.000000
_cell_angle_beta 90.000000
_cell_angle_gamma 90.000000
_cell_volume 3220.660927
_symmetry_space_group_name_H-M "P N N M"
_symmetry_group_IT_number 58
_symmetry_cell_setting 'orthorhombic'
loop_
_space_group_symop_operation_xyz
x,y,z
-x,-y,z
1/2+x,1/2-y,1/2-z
1/2-x,1/2+y,1/2-z
-x,-y,-z
x,y,-z
1/2-x,1/2+y,1/2+z
1/2+x,1/2-y,1/2+z
loop_
_atom_site_type_symbol
_atom_site_label
_atom_site_fract_x
_atom_site_fract_y
_atom_site_fract_z
Si Si1 0.439751 0.239331 0.329864
Si Si2 0.483843 0.899310 0.170013
Si Si3 0.761415 0.831181 0.326674
Si Si4 0.167103 0.996027 0.672192
Si Si5 0.347721 0.143880 0.166224
Si Si6 0.764979 0.637081 0.173526
Si Si7 0.554336 0.549280 0.670598
Si Si8 0.863441 0.558764 0.336563
O O1 0.429894 0.215963 0.500000
O O2 0.488643 0.177655 0.269129
O O3 0.383227 0.222416 0.243244
O O4 0.455940 0.343788 0.304024
O O5 0.418675 0.883719 0.189790
O O6 0.500000 0.000000 0.227388
O O7 0.502185 0.886706 0.000000
O O8 0.752145 0.820812 0.500000
O O9 0.707772 0.874272 0.254038
O O10 0.772173 0.732294 0.257781
O O11 0.810672 0.901840 0.291964
O O12 0.157499 0.983906 0.500000
O O13 0.210766 0.918504 0.725899
O O14 0.109112 0.985120 0.750624
O O15 0.380935 0.048435 0.168640
O O16 0.334510 0.176649 0.000000
O O17 0.818829 0.578682 0.212067
O O18 0.763374 0.654535 0.000000
O O19 0.500000 0.500000 0.735350
O O20 0.561898 0.524512 0.500000
O O21 0.839317 0.581040 0.500000
#
# Coordination Sequence:
#
# PCOD8237708 Si02
#       8
#     8   8   8   8   8   8   8   8
#     4  11  23  38  61  92 122 161 207 258 312 363
#     4  10  20  38  59  85 121 161 201 245 299 365
#     4  11  23  40  61  91 127 161 202 254 306 362
#     4  10  23  42  64  91 123 157 201 252 302 359
#     4  11  21  37  61  89 122 162 205 249 303 367
#     4  11  23  40  61  91 126 161 204 250 301 365
#     4  10  24  45  65  87 119 157 204 256 305 358
#     4  10  21  37  59  86 121 162 201 245 303 361
#
# _framework density 19.871697000000001
#
# number of rings (size 3 to 8) (size 9 to 14) (size 15 to 20)
#    0.000    1.500    2.500    2.250    0.000    7.500 
#    0.000    2.500    0.000    0.000    0.000    0.000 
#    0.000    0.000    0.000    0.000    0.000    0.000 
#
# Total GULP energy -793749.988186 kJ/mol
# GULP energy per Si atom -12402.343565 kJ/mol
# Density = 1.982647 g / cm^3
# Si number density = 19.871697 Si / 1000 Ang^3
#
#
#
# Elastic Constant Matrix: (Units=GPa)
#
#
# Indices 1 2 3 4 5 6 
#
# 1 135.1021 60.6488 62.1440 0.0000 0.0000 0.0000
# 2 60.6488 117.2073 62.4274 0.0000 0.0000 0.0000
# 3 62.1440 62.4274 101.6830 0.0000 0.0000 0.0000
# 4 0.0000 0.0000 0.0000 29.9491 0.0000 0.0000
# 5 0.0000 0.0000 0.0000 0.0000 37.2789 0.0000
# 6 0.0000 0.0000 0.0000 0.0000 0.0000 33.1533
#
#
#
# Elastic Compliance Matrix: (Units=1/GPa)
#
#
# Indices 1 2 3 4 5 6 
#
# 1 0.011025 -0.003144 -0.004807 0.000000 0.000000 0.000000
# 2 -0.003144 0.013574 -0.006412 0.000000 0.000000 0.000000
# 3 -0.004807 -0.006412 0.016709 0.000000 0.000000 0.000000
# 4 0.000000 0.000000 0.000000 0.033390 0.000000 0.000000
# 5 0.000000 0.000000 0.000000 0.000000 0.026825 0.000000
# 6 0.000000 0.000000 0.000000 0.000000 0.000000 0.030163
#
#
# Mechanical properties :
#
#
# Convention : Reuss Voigt Hill
#
# Bulk Modulus (GPa) = 79.48785 80.49250 79.99018
# Shear Modulus (GPa) = 30.37551 31.32774 30.85162
#
# Velocity S-wave (km/s) = 3.91395 3.97482 3.94450
# Velocity P-wave (km/s) = 7.77899 7.85237 7.81577
#
# Compressibility (1/GPa) = 0.01258054
#
# Stress axis : x y z
#
# Youngs Moduli (GPa) = 90.70688 73.66994 59.84720
#
# Poissons Ratio (x) = 0.23163 0.28771
# Poissons Ratio (y) = 0.28519 0.38375
# Poissons Ratio (z) = 0.43606 0.47238
#
# Static dielectric constant tensor:
#      x y z
#    x 3.613740 0.000000 0.000000 
#    y 0.000000 3.636610 0.000000 
#    z 0.000000 0.000000 3.615680 
# 
# 
# High freq. dielectric constant tensor:
#      x y z
#    x 1.779620 0.000000 0.000000 
#    y 0.000000 1.779090 0.000000 
#    z 0.000000 0.000000 1.775130 
# 
# From -- ./inp_files/6736.got.cif
#   From: 2010.06.25/outbox.cif.g09.slc.cpg/sg58_4_cif.got.tgz:6736.got - 2010.06.26 21:38:00.
