data_PCOD8237142
_publ_section_title
;
Structure prediction by ZEFSAII (Michael W. Deem and Ramdas Pophale) SiO2 
 PCOD8237142
Probable space group: P N N M
;
_chemical_formula_sum "Si O2"
_cell_formula_units_Z 40
_cell_length_a 15.637907
_cell_length_b 15.614355
_cell_length_c 8.697139
_cell_angle_alpha 90.000000
_cell_angle_beta 90.000000
_cell_angle_gamma 90.000000
_cell_volume 2123.631146
_symmetry_space_group_name_H-M "P N N M"
_symmetry_group_IT_number 58
_symmetry_cell_setting 'orthorhombic'
loop_
_space_group_symop_operation_xyz
x,y,z
-x,-y,z
1/2+x,1/2-y,1/2-z
1/2-x,1/2+y,1/2-z
-x,-y,-z
x,y,-z
1/2-x,1/2+y,1/2+z
1/2+x,1/2-y,1/2+z
loop_
_atom_site_type_symbol
_atom_site_label
_atom_site_fract_x
_atom_site_fract_y
_atom_site_fract_z
Si Si1 0.034127 0.121310 0.320361
Si Si2 0.376371 0.466289 0.319670
Si Si3 0.432712 0.075831 0.669141
Si Si4 0.802191 0.559986 0.180924
Si Si5 0.563825 0.184231 0.177474
O O1 0.014859 0.109743 0.500000
O O2 0.066834 0.215926 0.282250
O O3 0.947320 0.103172 0.227613
O O4 0.107754 0.055564 0.268675
O O5 0.381570 0.483052 0.500000
O O6 0.284657 0.428860 0.274585
O O7 0.419040 0.116965 0.500000
O O8 0.468611 0.148238 0.783633
O O9 0.500000 0.000000 0.655655
O O10 0.344955 0.031585 0.728271
O O11 0.863914 0.638924 0.221481
O O12 0.783965 0.562632 0.000000
O O13 0.582897 0.166182 0.000000
#
# Coordination Sequence:
#
# PCOD8237142 Si02
#       5
#     8   8   8   8   8
#     4  10  21  39  59  79 110 149 183 222 279 333
#     4  11  22  37  59  83 107 143 189 231 272 324
#     4   8  16  31  52  77 107 146 179 212 269 326
#     4  10  20  36  57  81 113 149 182 224 278 327
#     4  10  20  34  56  85 113 143 182 227 272 324
#
# _framework density 18.835661999999999
#
# number of rings (size 3 to 8) (size 9 to 14) (size 15 to 20)
#    0.000    2.200    0.000    6.000    0.000    7.600 
#    3.600    0.000    0.000    0.000    0.000    0.000 
#    0.000    0.000    0.000    0.000    0.000    0.000 
#
# Total GULP energy -495964.268051 kJ/mol
# GULP energy per Si atom -12399.106701 kJ/mol
# Density = 1.879279 g / cm^3
# Si number density = 18.835662 Si / 1000 Ang^3
#
#
#
# Elastic Constant Matrix: (Units=GPa)
#
#
# Indices 1 2 3 4 5 6 
#
# 1 91.2462 30.5192 25.1724 0.0000 0.0000 0.0000
# 2 30.5192 91.3387 34.3849 0.0000 0.0000 0.0000
# 3 25.1724 34.3849 72.4382 0.0000 0.0000 0.0000
# 4 0.0000 0.0000 0.0000 30.1858 0.0000 0.0000
# 5 0.0000 0.0000 0.0000 0.0000 23.0641 0.0000
# 6 0.0000 0.0000 0.0000 0.0000 0.0000 13.8403
#
#
#
# Elastic Compliance Matrix: (Units=1/GPa)
#
#
# Indices 1 2 3 4 5 6 
#
# 1 0.012837 -0.003178 -0.002952 0.000000 0.000000 0.000000
# 2 -0.003178 0.014117 -0.005597 0.000000 0.000000 0.000000
# 3 -0.002952 -0.005597 0.017487 0.000000 0.000000 0.000000
# 4 0.000000 0.000000 0.000000 0.033128 0.000000 0.000000
# 5 0.000000 0.000000 0.000000 0.000000 0.043357 0.000000
# 6 0.000000 0.000000 0.000000 0.000000 0.000000 0.072253
#
#
# Mechanical properties :
#
#
# Convention : Reuss Voigt Hill
#
# Bulk Modulus (GPa) = 47.64754 48.35289 48.00021
# Shear Modulus (GPa) = 22.35848 24.41449 23.38649
#
# Velocity S-wave (km/s) = 3.44907 3.60416 3.52747
# Velocity P-wave (km/s) = 6.41972 6.56099 6.49074
#
# Compressibility (1/GPa) = 0.02098744
#
# Stress axis : x y z
#
# Youngs Moduli (GPa) = 77.90165 70.83677 57.18372
#
# Poissons Ratio (x) = 0.22510 0.16883
# Poissons Ratio (y) = 0.24755 0.32004
# Poissons Ratio (z) = 0.23000 0.39646
#
# Static dielectric constant tensor:
#      x y z
#    x 3.537760 0.000000 0.000000 
#    y 0.000000 3.404480 0.000000 
#    z 0.000000 0.000000 3.523410 
# 
# 
# High freq. dielectric constant tensor:
#      x y z
#    x 1.723970 0.000000 0.000000 
#    y 0.000000 1.718660 0.000000 
#    z 0.000000 0.000000 1.741540 
# 
# From -- ./inp_files/5389.got.cif
#   From: 2010.06.25/outbox.cif.g09.slc.cpg/sg58_3_cif.got.tgz:5389.got - 2010.06.26 21:38:00.
