data_PCOD8237726
_publ_section_title
;
Structure prediction by ZEFSAII (Michael W. Deem and Ramdas Pophale) SiO2 
 PCOD8237726
Probable space group: P N N M
;
_chemical_formula_sum "Si O2"
_cell_formula_units_Z 64
_cell_length_a 30.305503
_cell_length_b 11.909208
_cell_length_c 9.067605
_cell_angle_alpha 90.000000
_cell_angle_beta 90.000000
_cell_angle_gamma 90.000000
_cell_volume 3272.630476
_symmetry_space_group_name_H-M "P N N M"
_symmetry_group_IT_number 58
_symmetry_cell_setting 'orthorhombic'
loop_
_space_group_symop_operation_xyz
x,y,z
-x,-y,z
1/2+x,1/2-y,1/2-z
1/2-x,1/2+y,1/2-z
-x,-y,-z
x,y,-z
1/2-x,1/2+y,1/2+z
1/2+x,1/2-y,1/2+z
loop_
_atom_site_type_symbol
_atom_site_label
_atom_site_fract_x
_atom_site_fract_y
_atom_site_fract_z
Si Si1 0.928792 0.759400 0.164882
Si Si2 0.448999 0.519023 0.831266
Si Si3 0.695776 0.489885 0.174203
Si Si4 0.671548 0.269527 0.664832
Si Si5 0.377058 0.097715 0.324394
Si Si6 0.792623 0.538802 0.824542
Si Si7 0.951306 0.546830 0.668867
Si Si8 0.877579 0.164810 0.328323
O O1 0.877984 0.723000 0.161046
O O2 0.954351 0.673259 0.269651
O O3 0.931771 0.884918 0.224679
O O4 0.948878 0.754799 0.000000
O O5 0.500000 0.500000 0.797659
O O6 0.422046 0.405627 0.797553
O O7 0.441066 0.556269 0.000000
O O8 0.674982 0.375126 0.229803
O O9 0.745156 0.501800 0.239233
O O10 0.665060 0.593440 0.223696
O O11 0.696615 0.483431 0.000000
O O12 0.686943 0.303586 0.500000
O O13 0.700174 0.166658 0.729279
O O14 0.379887 0.095721 0.500000
O O15 0.379661 0.224555 0.269024
O O16 0.331030 0.043876 0.266439
O O17 0.418137 0.028446 0.262714
O O18 0.792879 0.537027 0.000000
O O19 0.935244 0.548640 0.500000
O O20 0.000000 0.500000 0.683411
O O21 0.874151 0.197873 0.500000
#
# Coordination Sequence:
#
# PCOD8237726 Si02
#       8
#     8   8   8   8   8   8   8   8
#     4  11  22  39  64  90 118 153 198 249 298 350
#     4  10  22  40  61  85 119 160 199 244 299 354
#     4  10  21  38  61  86 116 156 202 245 290 350
#     4  10  20  38  61  84 117 153 192 245 300 346
#     4  11  23  41  62  86 122 160 195 241 298 355
#     4   9  20  39  59  84 120 157 191 242 301 349
#     4  11  25  43  64  89 119 156 198 243 294 352
#     4  10  22  39  58  85 120 158 201 246 293 349
#
# _framework density 19.556132999999999
#
# number of rings (size 3 to 8) (size 9 to 14) (size 15 to 20)
#    0.000    1.750    2.500    1.125    3.500    2.750 
#    0.000    1.250    0.000    0.000    0.000    0.000 
#    0.000    0.000    0.000    0.000    0.000    0.000 
#
# Total GULP energy -793751.131479 kJ/mol
# GULP energy per Si atom -12402.361429 kJ/mol
# Density = 1.951162 g / cm^3
# Si number density = 19.556133 Si / 1000 Ang^3
#
#
#
# Elastic Constant Matrix: (Units=GPa)
#
#
# Indices 1 2 3 4 5 6 
#
# 1 106.6808 35.4182 39.1841 0.0000 0.0000 0.0000
# 2 35.4182 110.6767 42.5274 0.0000 0.0000 0.0000
# 3 39.1841 42.5274 63.0669 0.0000 0.0000 0.0000
# 4 0.0000 0.0000 0.0000 35.5422 0.0000 0.0000
# 5 0.0000 0.0000 0.0000 0.0000 15.6107 0.0000
# 6 0.0000 0.0000 0.0000 0.0000 0.0000 29.2729
#
#
#
# Elastic Compliance Matrix: (Units=1/GPa)
#
#
# Indices 1 2 3 4 5 6 
#
# 1 0.012293 -0.001349 -0.006728 0.000000 0.000000 0.000000
# 2 -0.001349 0.012343 -0.007485 0.000000 0.000000 0.000000
# 3 -0.006728 -0.007485 0.025084 0.000000 0.000000 0.000000
# 4 0.000000 0.000000 0.000000 0.028136 0.000000 0.000000
# 5 0.000000 0.000000 0.000000 0.000000 0.064059 0.000000
# 6 0.000000 0.000000 0.000000 0.000000 0.000000 0.034161
#
#
# Mechanical properties :
#
#
# Convention : Reuss Voigt Hill
#
# Bulk Modulus (GPa) = 53.77618 57.18710 55.48164
# Shear Modulus (GPa) = 23.43036 26.97148 25.20092
#
# Velocity S-wave (km/s) = 3.46513 3.71776 3.59367
# Velocity P-wave (km/s) = 6.60057 6.90906 6.75657
#
# Compressibility (1/GPa) = 0.01859559
#
# Stress axis : x y z
#
# Youngs Moduli (GPa) = 81.34854 81.01670 39.86591
#
# Poissons Ratio (x) = 0.10925 0.26823
# Poissons Ratio (y) = 0.10970 0.29841
# Poissons Ratio (z) = 0.54733 0.60644
#
# Static dielectric constant tensor:
#      x y z
#    x 3.891470 0.000000 0.000000 
#    y 0.000000 3.524340 0.000000 
#    z 0.000000 0.000000 3.453070 
# 
# 
# High freq. dielectric constant tensor:
#      x y z
#    x 1.770690 0.000000 0.000000 
#    y 0.000000 1.770500 0.000000 
#    z 0.000000 0.000000 1.748810 
# 
# From -- ./inp_files/10975.got.cif
#   From: 2010.06.25/outbox.cif.g09.slc.cpg/sg58_6_cif.got.tgz:10975.got - 2010.06.26 21:38:00.
