data_PCOD8237677
_publ_section_title
;
Structure prediction by ZEFSAII (Michael W. Deem and Ramdas Pophale) SiO2 
 PCOD8237677
Probable space group: P N N M
;
_chemical_formula_sum "Si O2"
_cell_formula_units_Z 56
_cell_length_a 16.777824
_cell_length_b 11.946374
_cell_length_c 13.825130
_cell_angle_alpha 90.000000
_cell_angle_beta 90.000000
_cell_angle_gamma 90.000000
_cell_volume 2771.028324
_symmetry_space_group_name_H-M "P N N M"
_symmetry_group_IT_number 58
_symmetry_cell_setting 'orthorhombic'
loop_
_space_group_symop_operation_xyz
x,y,z
-x,-y,z
1/2+x,1/2-y,1/2-z
1/2-x,1/2+y,1/2-z
-x,-y,-z
x,y,-z
1/2-x,1/2+y,1/2+z
1/2+x,1/2-y,1/2+z
loop_
_atom_site_type_symbol
_atom_site_label
_atom_site_fract_x
_atom_site_fract_y
_atom_site_fract_z
Si Si1 0.778843 0.606677 0.112101
Si Si2 0.919806 0.440929 0.886889
Si Si3 0.805440 0.705491 0.390488
Si Si4 0.671362 0.570103 0.714737
Si Si5 0.023074 0.380123 0.608979
Si Si6 0.032505 0.766890 0.225599
Si Si7 0.852999 0.818031 0.797175
O O1 0.848090 0.521296 0.144275
O O2 0.703361 0.573466 0.175822
O O3 0.804172 0.734084 0.134343
O O4 0.756661 0.595068 0.000000
O O5 0.915371 0.321034 0.836042
O O6 0.000000 0.500000 0.851883
O O7 0.919263 0.418279 0.000000
O O8 0.793116 0.753178 0.500000
O O9 0.727264 0.637937 0.358955
O O10 0.824906 0.804918 0.314999
O O11 0.881223 0.623548 0.386591
O O12 0.582565 0.619401 0.722948
O O13 0.665545 0.444822 0.673176
O O14 0.991121 0.369039 0.500000
O O15 0.979403 0.280900 0.666470
O O16 0.000000 0.500000 0.654177
O O17 0.945575 0.791616 0.182372
#
# Coordination Sequence:
#
# PCOD8237677 Si02
#       7
#     8   8   8   8   8   8   8
#     4  10  23  41  62  89 119 155 201 253 301 347
#     4  10  20  37  63  89 113 151 202 249 293 343
#     4   9  21  40  58  83 115 152 196 239 290 348
#     4  11  25  38  58  90 123 161 195 239 304 365
#     4   9  19  35  60  87 112 148 196 247 294 340
#     4  11  22  37  61  86 122 157 200 243 292 356
#     4  10  22  41  61  85 121 159 198 243 294 354
#
# _framework density 20.209105999999998
#
# number of rings (size 3 to 8) (size 9 to 14) (size 15 to 20)
#    0.000    2.000    1.429    0.857    8.000    2.286 
#    0.000    1.429    0.000    6.857    0.000    0.000 
#    0.000    0.000    0.000    0.000    0.000    0.000 
#
# Total GULP energy -694411.858408 kJ/mol
# GULP energy per Si atom -12400.211757 kJ/mol
# Density = 2.016311 g / cm^3
# Si number density = 20.209106 Si / 1000 Ang^3
#
#
#
# Elastic Constant Matrix: (Units=GPa)
#
#
# Indices 1 2 3 4 5 6 
#
# 1 49.5810 26.2996 8.5759 0.0000 0.0000 0.0000
# 2 26.2996 100.9079 4.3126 0.0000 0.0000 0.0000
# 3 8.5759 4.3126 65.3483 0.0000 0.0000 0.0000
# 4 0.0000 0.0000 0.0000 13.6890 0.0000 0.0000
# 5 0.0000 0.0000 0.0000 0.0000 19.4499 0.0000
# 6 0.0000 0.0000 0.0000 0.0000 0.0000 31.7098
#
#
#
# Elastic Compliance Matrix: (Units=1/GPa)
#
#
# Indices 1 2 3 4 5 6 
#
# 1 0.023881 -0.006107 -0.002731 0.000000 0.000000 0.000000
# 2 -0.006107 0.011500 0.000043 0.000000 0.000000 0.000000
# 3 -0.002731 0.000043 0.015658 0.000000 0.000000 0.000000
# 4 0.000000 0.000000 0.000000 0.073051 0.000000 0.000000
# 5 0.000000 0.000000 0.000000 0.000000 0.051414 0.000000
# 6 0.000000 0.000000 0.000000 0.000000 0.000000 0.031536
#
#
# Mechanical properties :
#
#
# Convention : Reuss Voigt Hill
#
# Bulk Modulus (GPa) = 29.89748 32.69038 31.29393
# Shear Modulus (GPa) = 21.20612 24.74636 22.97624
#
# Velocity S-wave (km/s) = 3.24286 3.50310 3.37549
# Velocity P-wave (km/s) = 5.37100 5.70732 5.54171
#
# Compressibility (1/GPa) = 0.03344763
#
# Stress axis : x y z
#
# Youngs Moduli (GPa) = 41.87439 86.95675 63.86433
#
# Poissons Ratio (x) = 0.53108 0.17441
# Poissons Ratio (y) = 0.25574 -0.00272
# Poissons Ratio (z) = 0.11436 -0.00370
#
# Static dielectric constant tensor:
#      x y z
#    x 3.624610 0.000000 0.000000 
#    y 0.000000 3.654700 0.000000 
#    z 0.000000 0.000000 3.697570 
# 
# 
# High freq. dielectric constant tensor:
#      x y z
#    x 1.788680 0.000000 0.000000 
#    y 0.000000 1.781480 0.000000 
#    z 0.000000 0.000000 1.788100 
# 
# From -- ./inp_files/22216.got.cif
#   From: 2010.06.25/outbox.cif.g09.slc.cpg/sg58_12_cif.got.tgz:22216.got - 2010.06.26 21:38:00.
