data_PCOD8237442
_publ_section_title
;
Structure prediction by ZEFSAII (Michael W. Deem and Ramdas Pophale) SiO2 
 PCOD8237442
Probable space group: P N N M
;
_chemical_formula_sum "Si O2"
_cell_formula_units_Z 40
_cell_length_a 9.531247
_cell_length_b 25.234110
_cell_length_c 8.519664
_cell_angle_alpha 90.000000
_cell_angle_beta 90.000000
_cell_angle_gamma 90.000000
_cell_volume 2049.085988
_symmetry_space_group_name_H-M "P N N M"
_symmetry_group_IT_number 58
_symmetry_cell_setting 'orthorhombic'
loop_
_space_group_symop_operation_xyz
x,y,z
-x,-y,z
1/2+x,1/2-y,1/2-z
1/2-x,1/2+y,1/2-z
-x,-y,-z
x,y,-z
1/2-x,1/2+y,1/2+z
1/2+x,1/2-y,1/2+z
loop_
_atom_site_type_symbol
_atom_site_label
_atom_site_fract_x
_atom_site_fract_y
_atom_site_fract_z
Si Si1 0.638277 0.914582 0.183188
Si Si2 0.118569 0.288900 0.316080
Si Si3 0.659940 0.509241 0.684732
Si Si4 0.676540 0.803989 0.682626
Si Si5 0.660440 0.100734 0.682988
O O1 0.706306 0.857681 0.221694
O O2 0.491485 0.923287 0.272504
O O3 0.748401 0.958832 0.237446
O O4 0.605492 0.918591 0.000000
O O5 0.085011 0.286943 0.500000
O O6 0.216295 0.240852 0.261849
O O7 0.190904 0.344943 0.276045
O O8 0.977660 0.282213 0.217313
O O9 0.500000 0.500000 0.736804
O O10 0.671516 0.519318 0.500000
O O11 0.716375 0.560438 0.774523
O O12 0.691860 0.816822 0.500000
O O13 0.662767 0.113311 0.500000
#
# Coordination Sequence:
#
# PCOD8237442 Si02
#       5
#     8   8   8   8   8
#     4  10  20  36  59  81 106 144 183 220 266 323
#     4  10  21  37  57  81 111 146 182 221 268 323
#     4  10  22  39  57  80 110 143 180 222 272 327
#     4  10  21  36  56  82 110 141 180 225 268 315
#     4  11  22  36  57  82 109 143 183 226 268 317
#
# _framework density 19.520897999999999
#
# number of rings (size 3 to 8) (size 9 to 14) (size 15 to 20)
#    0.000    1.800    0.000    6.600    0.000    9.200 
#    0.000    6.000    0.000    0.000    0.000    0.000 
#    0.000    0.000    0.000    0.000    0.000    0.000 
#
# Total GULP energy -496163.273089 kJ/mol
# GULP energy per Si atom -12404.081827 kJ/mol
# Density = 1.947647 g / cm^3
# Si number density = 19.520898 Si / 1000 Ang^3
#
#
#
# Elastic Constant Matrix: (Units=GPa)
#
#
# Indices 1 2 3 4 5 6 
#
# 1 51.2703 17.2566 2.3715 0.0000 0.0000 0.0000
# 2 17.2566 51.0039 -0.7725 0.0000 0.0000 0.0000
# 3 2.3715 -0.7725 39.5378 0.0000 0.0000 0.0000
# 4 0.0000 0.0000 0.0000 26.8024 0.0000 0.0000
# 5 0.0000 0.0000 0.0000 0.0000 15.6397 0.0000
# 6 0.0000 0.0000 0.0000 0.0000 0.0000 43.3532
#
#
#
# Elastic Compliance Matrix: (Units=1/GPa)
#
#
# Indices 1 2 3 4 5 6 
#
# 1 0.022096 -0.007498 -0.001472 0.000000 0.000000 0.000000
# 2 -0.007498 0.022157 0.000883 0.000000 0.000000 0.000000
# 3 -0.001472 0.000883 0.025398 0.000000 0.000000 0.000000
# 4 0.000000 0.000000 0.000000 0.037310 0.000000 0.000000
# 5 0.000000 0.000000 0.000000 0.000000 0.063940 0.000000
# 6 0.000000 0.000000 0.000000 0.000000 0.000000 0.023066
#
#
# Mechanical properties :
#
#
# Convention : Reuss Voigt Hill
#
# Bulk Modulus (GPa) = 18.70008 19.94703 19.32356
# Shear Modulus (GPa) = 21.93297 25.35616 23.64456
#
# Velocity S-wave (km/s) = 3.35560 3.60797 3.48407
# Velocity P-wave (km/s) = 4.96122 5.25329 5.10934
#
# Compressibility (1/GPa) = 0.05347569
#
# Stress axis : x y z
#
# Youngs Moduli (GPa) = 45.25637 45.13309 39.37355
#
# Poissons Ratio (x) = 0.33842 0.05795
# Poissons Ratio (y) = 0.33935 -0.03475
# Poissons Ratio (z) = 0.06661 -0.03984
#
# Static dielectric constant tensor:
#      x y z
#    x 3.538760 0.000000 0.000000 
#    y 0.000000 3.729830 0.000000 
#    z 0.000000 0.000000 3.541530 
# 
# 
# High freq. dielectric constant tensor:
#      x y z
#    x 1.753350 0.000000 0.000000 
#    y 0.000000 1.770970 0.000000 
#    z 0.000000 0.000000 1.765620 
# 
# From -- ./inp_files/2615.got.cif
#   From: 2010.06.25/outbox.cif.g09.slc.cpg/sg58_2_cif.got.tgz:2615.got - 2010.06.26 21:38:00.
