data_PCOD8237258
_publ_section_title
;
Structure prediction by ZEFSAII (Michael W. Deem and Ramdas Pophale) SiO2 
 PCOD8237258
Probable space group: P N N M
;
_chemical_formula_sum "Si O2"
_cell_formula_units_Z 56
_cell_length_a 19.271000
_cell_length_b 17.240853
_cell_length_c 9.020241
_cell_angle_alpha 90.000000
_cell_angle_beta 90.000000
_cell_angle_gamma 90.000000
_cell_volume 2996.961345
_symmetry_space_group_name_H-M "P N N M"
_symmetry_group_IT_number 58
_symmetry_cell_setting 'orthorhombic'
loop_
_space_group_symop_operation_xyz
x,y,z
-x,-y,z
1/2+x,1/2-y,1/2-z
1/2-x,1/2+y,1/2-z
-x,-y,-z
x,y,-z
1/2-x,1/2+y,1/2+z
1/2+x,1/2-y,1/2+z
loop_
_atom_site_type_symbol
_atom_site_label
_atom_site_fract_x
_atom_site_fract_y
_atom_site_fract_z
Si Si1 0.120227 0.792390 0.172034
Si Si2 0.463226 0.687964 0.672670
Si Si3 0.694490 0.574448 0.175313
Si Si4 0.571201 0.462457 0.174942
Si Si5 0.103372 0.616278 0.830745
Si Si6 0.836487 0.527636 0.674362
Si Si7 0.442279 0.862418 0.329619
O O1 0.175426 0.839719 0.268487
O O2 0.134223 0.701524 0.198129
O O3 0.042918 0.813547 0.226904
O O4 0.129280 0.813599 0.000000
O O5 0.459816 0.669524 0.500000
O O6 0.419264 0.623434 0.759014
O O7 0.430127 0.771846 0.706050
O O8 0.635186 0.514763 0.228078
O O9 0.765729 0.548217 0.245601
O O10 0.702300 0.576460 0.000000
O O11 0.500000 0.500000 0.235902
O O12 0.569040 0.454918 0.000000
O O13 0.141357 0.558678 0.719472
O O14 0.021543 0.614744 0.799879
O O15 0.117723 0.590646 0.000000
O O16 0.825420 0.531514 0.500000
O O17 0.895256 0.588399 0.720270
O O18 0.422543 0.880463 0.500000
#
# Coordination Sequence:
#
# PCOD8237258 Si02
#       7
#     8   8   8   8   8   8   8
#     4   9  18  35  59  87 114 143 183 230 281 336
#     4   9  18  33  58  89 115 143 183 230 279 335
#     4  11  23  39  58  79 113 158 193 231 289 345
#     4  10  20  35  56  84 114 147 189 234 281 335
#     4   9  19  38  64  88 114 149 188 232 287 348
#     4  12  25  39  56  84 117 151 196 241 285 337
#     4   9  19  38  62  87 115 150 189 232 288 347
#
# _framework density 18.685593000000001
#
# number of rings (size 3 to 8) (size 9 to 14) (size 15 to 20)
#    0.000    2.143    1.429    3.857    0.000    4.857 
#    2.571    2.857    0.000    0.000    0.000    0.000 
#    0.000    0.000    0.000    0.000    0.000    0.000 
#
# Total GULP energy -694553.199485 kJ/mol
# GULP energy per Si atom -12402.735705 kJ/mol
# Density = 1.864306 g / cm^3
# Si number density = 18.685593 Si / 1000 Ang^3
#
#
#
# Elastic Constant Matrix: (Units=GPa)
#
#
# Indices 1 2 3 4 5 6 
#
# 1 87.5046 55.3793 41.5522 0.0000 0.0000 0.0000
# 2 55.3793 124.1946 49.2331 0.0000 0.0000 0.0000
# 3 41.5522 49.2331 69.1259 0.0000 0.0000 0.0000
# 4 0.0000 0.0000 0.0000 37.4727 0.0000 0.0000
# 5 0.0000 0.0000 0.0000 0.0000 23.9164 0.0000
# 6 0.0000 0.0000 0.0000 0.0000 0.0000 1.1462
#
#
#
# Elastic Compliance Matrix: (Units=1/GPa)
#
#
# Indices 1 2 3 4 5 6 
#
# 1 0.018159 -0.005253 -0.007174 0.000000 0.000000 0.000000
# 2 -0.005253 0.012739 -0.005915 0.000000 0.000000 0.000000
# 3 -0.007174 -0.005915 0.022992 0.000000 0.000000 0.000000
# 4 0.000000 0.000000 0.000000 0.026686 0.000000 0.000000
# 5 0.000000 0.000000 0.000000 0.000000 0.041812 0.000000
# 6 0.000000 0.000000 0.000000 0.000000 0.000000 0.872428
#
#
# Mechanical properties :
#
#
# Convention : Reuss Voigt Hill
#
# Bulk Modulus (GPa) = 58.12368 63.68381 60.90374
# Shear Modulus (GPa) = 4.82049 21.48442 13.15246
#
# Velocity S-wave (km/s) = 1.60792 3.39453 2.65596
# Velocity P-wave (km/s) = 5.88395 7.03701 6.48615
#
# Compressibility (1/GPa) = 0.01720469
#
# Stress axis : x y z
#
# Youngs Moduli (GPa) = 55.06771 78.49653 43.49353
#
# Poissons Ratio (x) = 0.41238 0.31203
# Poissons Ratio (y) = 0.28930 0.25728
# Poissons Ratio (z) = 0.39507 0.46434
#
# Static dielectric constant tensor:
#      x y z
#    x 3.319690 0.000000 0.000000 
#    y 0.000000 3.536600 0.000000 
#    z 0.000000 0.000000 3.291420 
# 
# 
# High freq. dielectric constant tensor:
#      x y z
#    x 1.711100 0.000000 0.000000 
#    y 0.000000 1.739550 0.000000 
#    z 0.000000 0.000000 1.718390 
# 
# From -- ./inp_files/9162.got.cif
#   From: 2010.06.25/outbox.cif.g09.slc.cpg/sg58_5_cif.got.tgz:9162.got - 2010.06.26 21:38:00.
