data_PCOD8237753
_publ_section_title
;
Structure prediction by ZEFSAII (Michael W. Deem and Ramdas Pophale) SiO2 
 PCOD8237753
Probable space group: P N N M
;
_chemical_formula_sum "Si O2"
_cell_formula_units_Z 64
_cell_length_a 19.409440
_cell_length_b 19.669855
_cell_length_c 8.703248
_cell_angle_alpha 90.000000
_cell_angle_beta 90.000000
_cell_angle_gamma 90.000000
_cell_volume 3322.733597
_symmetry_space_group_name_H-M "P N N M"
_symmetry_group_IT_number 58
_symmetry_cell_setting 'orthorhombic'
loop_
_space_group_symop_operation_xyz
x,y,z
-x,-y,z
1/2+x,1/2-y,1/2-z
1/2-x,1/2+y,1/2-z
-x,-y,-z
x,y,-z
1/2-x,1/2+y,1/2+z
1/2+x,1/2-y,1/2+z
loop_
_atom_site_type_symbol
_atom_site_label
_atom_site_fract_x
_atom_site_fract_y
_atom_site_fract_z
Si Si1 0.432674 0.328410 0.177876
Si Si2 0.209051 0.484560 0.679013
Si Si3 0.967177 0.932279 0.180833
Si Si4 0.429357 0.037636 0.679401
Si Si5 0.759807 0.284118 0.178887
Si Si6 0.777770 0.145620 0.680338
Si Si7 0.098424 0.676924 0.321282
Si Si8 0.183693 0.101761 0.820700
O O1 0.491881 0.365198 0.271844
O O2 0.358097 0.357186 0.229923
O O3 0.439679 0.248062 0.213724
O O4 0.444303 0.343263 0.000000
O O5 0.211807 0.465665 0.500000
O O6 0.131313 0.501226 0.726765
O O7 0.237831 0.422151 0.776590
O O8 0.256334 0.548728 0.717566
O O9 0.888520 0.928985 0.236273
O O10 0.970835 0.937955 0.000000
O O11 0.000000 0.000000 0.256496
O O12 0.412315 0.032409 0.500000
O O13 0.500000 0.000000 0.721448
O O14 0.437336 0.116631 0.726130
O O15 0.742217 0.207595 0.229270
O O16 0.822253 0.315460 0.276001
O O17 0.694364 0.330425 0.220440
O O18 0.777549 0.286911 0.000000
O O19 0.771758 0.159934 0.500000
O O20 0.095419 0.657785 0.500000
O O21 0.181654 0.120636 0.000000
#
# Coordination Sequence:
#
# PCOD8237753 Si02
#       8
#     8   8   8   8   8   8   8   8
#     4   9  20  37  58  86 118 156 197 242 293 344
#     4  11  22  38  63  90 118 154 198 242 295 356
#     4  10  21  37  57  84 118 156 197 239 287 348
#     4  11  24  41  61  88 119 152 196 246 299 359
#     4  11  21  35  59  87 114 149 196 241 289 353
#     4  10  21  38  60  86 121 156 193 245 299 348
#     4  10  20  38  62  86 115 153 196 243 294 350
#     4  10  21  37  58  85 119 157 193 241 296 347
#
# _framework density 19.261251000000001
#
# number of rings (size 3 to 8) (size 9 to 14) (size 15 to 20)
#    0.000    1.750    1.250    4.125    0.000    6.250 
#    2.250    0.000    0.000    0.000    0.000    0.000 
#    0.000    0.000    0.000    0.000    0.000    0.000 
#
# Total GULP energy -793836.305803 kJ/mol
# GULP energy per Si atom -12403.692278 kJ/mol
# Density = 1.921741 g / cm^3
# Si number density = 19.261251 Si / 1000 Ang^3
#
#
#
# Elastic Constant Matrix: (Units=GPa)
#
#
# Indices 1 2 3 4 5 6 
#
# 1 95.9587 36.1502 30.9726 0.0000 0.0000 0.0000
# 2 36.1502 89.2915 21.8656 0.0000 0.0000 0.0000
# 3 30.9726 21.8656 37.6537 0.0000 0.0000 0.0000
# 4 0.0000 0.0000 0.0000 36.5319 0.0000 0.0000
# 5 0.0000 0.0000 0.0000 0.0000 27.7737 0.0000
# 6 0.0000 0.0000 0.0000 0.0000 0.0000 30.3387
#
#
#
# Elastic Compliance Matrix: (Units=1/GPa)
#
#
# Indices 1 2 3 4 5 6 
#
# 1 0.015112 -0.003584 -0.010349 0.000000 0.000000 0.000000
# 2 -0.003584 0.013906 -0.005127 0.000000 0.000000 0.000000
# 3 -0.010349 -0.005127 0.038048 0.000000 0.000000 0.000000
# 4 0.000000 0.000000 0.000000 0.027373 0.000000 0.000000
# 5 0.000000 0.000000 0.000000 0.000000 0.036005 0.000000
# 6 0.000000 0.000000 0.000000 0.000000 0.000000 0.032961
#
#
# Mechanical properties :
#
#
# Convention : Reuss Voigt Hill
#
# Bulk Modulus (GPa) = 34.54814 44.54231 39.54522
# Shear Modulus (GPa) = 23.67713 27.85656 25.76684
#
# Velocity S-wave (km/s) = 3.50989 3.80708 3.66150
# Velocity P-wave (km/s) = 5.86526 6.51926 6.20089
#
# Compressibility (1/GPa) = 0.02894512
#
# Stress axis : x y z
#
# Youngs Moduli (GPa) = 66.17406 71.91280 26.28245
#
# Poissons Ratio (x) = 0.25772 0.27200
# Poissons Ratio (y) = 0.23715 0.13476
# Poissons Ratio (z) = 0.68485 0.36872
#
# Static dielectric constant tensor:
#      x y z
#    x 3.429050 0.000000 0.000000 
#    y 0.000000 3.754110 0.000000 
#    z 0.000000 0.000000 3.439300 
# 
# 
# High freq. dielectric constant tensor:
#      x y z
#    x 1.736920 0.000000 0.000000 
#    y 0.000000 1.761170 0.000000 
#    z 0.000000 0.000000 1.751490 
# 
# From -- ./inp_files/8253.got.cif
#   From: 2010.06.25/outbox.cif.g09.slc.cpg/sg58_5_cif.got.tgz:8253.got - 2010.06.26 21:38:00.
