data_PCOD8237618
_publ_section_title
;
Structure prediction by ZEFSAII (Michael W. Deem and Ramdas Pophale) SiO2 
 PCOD8237618
Probable space group: P N N M
;
_chemical_formula_sum "Si O2"
_cell_formula_units_Z 64
_cell_length_a 8.653859
_cell_length_b 19.815351
_cell_length_c 18.448910
_cell_angle_alpha 90.000000
_cell_angle_beta 90.000000
_cell_angle_gamma 90.000000
_cell_volume 3163.605316
_symmetry_space_group_name_H-M "P N N M"
_symmetry_group_IT_number 58
_symmetry_cell_setting 'orthorhombic'
loop_
_space_group_symop_operation_xyz
x,y,z
-x,-y,z
1/2+x,1/2-y,1/2-z
1/2-x,1/2+y,1/2-z
-x,-y,-z
x,y,-z
1/2-x,1/2+y,1/2+z
1/2+x,1/2-y,1/2+z
loop_
_atom_site_type_symbol
_atom_site_label
_atom_site_fract_x
_atom_site_fract_y
_atom_site_fract_z
Si Si1 0.656260 0.854398 0.580848
Si Si2 0.271490 0.374380 0.289635
Si Si3 0.630447 0.256450 0.838110
Si Si4 0.190796 0.751575 0.418899
Si Si5 0.831009 0.981691 0.215263
Si Si6 0.375873 0.662745 0.689268
Si Si7 0.670171 0.484490 0.885680
Si Si8 0.171873 0.380991 0.126891
O O1 0.595177 0.839319 0.500000
O O2 0.742495 0.787609 0.608464
O O3 0.774562 0.916433 0.576552
O O4 0.513625 0.874082 0.633210
O O5 0.156429 0.323699 0.329532
O O6 0.227783 0.453108 0.308772
O O7 0.443496 0.354507 0.314547
O O8 0.254852 0.367318 0.203401
O O9 0.461304 0.261053 0.870927
O O10 0.652328 0.294500 0.761912
O O11 0.154534 0.723889 0.500000
O O12 0.317038 0.704139 0.379784
O O13 0.265899 0.824946 0.428120
O O14 0.778999 0.908197 0.186159
O O15 0.835074 0.972173 0.300753
O O16 0.000000 0.000000 0.186123
O O17 0.500000 0.500000 0.916148
O O18 0.785683 0.545714 0.904792
#
# Coordination Sequence:
#
# PCOD8237618 Si02
#       8
#     8   8   8   8   8   8   8   8
#     4  12  26  39  56  86 130 174 211 259 314 378
#     4  10  21  37  65  95 118 154 209 272 319 365
#     4  12  22  39  63  92 122 166 216 258 307 381
#     4  12  26  41  62  94 133 169 207 265 328 386
#     4   8  17  34  61  92 117 145 202 270 311 359
#     4  11  19  40  68  92 117 161 213 263 314 380
#     4  10  20  37  60  85 122 166 215 263 316 376
#     4  11  22  38  59  88 123 164 212 260 318 377
#
# _framework density 20.230084000000002
#
# number of rings (size 3 to 8) (size 9 to 14) (size 15 to 20)
#    0.000    1.250    3.750    3.375    1.750    1.750 
#    0.000    1.250    0.000    5.625    0.000    0.000 
#    0.000    0.000    0.000    0.000    0.000    0.000 
#
# Total GULP energy -793290.675470 kJ/mol
# GULP energy per Si atom -12395.166804 kJ/mol
# Density = 2.018404 g / cm^3
# Si number density = 20.230084 Si / 1000 Ang^3
#
#
#
# Elastic Constant Matrix: (Units=GPa)
#
#
# Indices 1 2 3 4 5 6 
#
# 1 76.0823 14.7269 17.9758 0.0000 0.0000 0.0000
# 2 14.7269 114.8346 43.4043 0.0000 0.0000 0.0000
# 3 17.9758 43.4043 75.9544 0.0000 0.0000 0.0000
# 4 0.0000 0.0000 0.0000 11.1941 0.0000 0.0000
# 5 0.0000 0.0000 0.0000 0.0000 15.4122 0.0000
# 6 0.0000 0.0000 0.0000 0.0000 0.0000 33.6141
#
#
#
# Elastic Compliance Matrix: (Units=1/GPa)
#
#
# Indices 1 2 3 4 5 6 
#
# 1 0.013965 -0.000691 -0.002910 0.000000 0.000000 0.000000
# 2 -0.000691 0.011141 -0.006203 0.000000 0.000000 0.000000
# 3 -0.002910 -0.006203 0.017399 0.000000 0.000000 0.000000
# 4 0.000000 0.000000 0.000000 0.089333 0.000000 0.000000
# 5 0.000000 0.000000 0.000000 0.000000 0.064884 0.000000
# 6 0.000000 0.000000 0.000000 0.000000 0.000000 0.029749
#
#
# Mechanical properties :
#
#
# Convention : Reuss Voigt Hill
#
# Bulk Modulus (GPa) = 43.67384 46.56504 45.11944
# Shear Modulus (GPa) = 19.70731 24.76169 22.23450
#
# Velocity S-wave (km/s) = 3.12454 3.50237 3.31884
# Velocity P-wave (km/s) = 5.88663 6.27879 6.08587
#
# Compressibility (1/GPa) = 0.02289700
#
# Stress axis : x y z
#
# Youngs Moduli (GPa) = 71.60768 89.75483 57.47317
#
# Poissons Ratio (x) = 0.06202 0.16726
# Poissons Ratio (y) = 0.04948 0.35652
# Poissons Ratio (z) = 0.20839 0.55678
#
# Static dielectric constant tensor:
#      x y z
#    x 3.589130 0.000000 0.000000 
#    y 0.000000 4.142780 0.000000 
#    z 0.000000 0.000000 3.367830 
# 
# 
# High freq. dielectric constant tensor:
#      x y z
#    x 1.785260 0.000000 0.000000 
#    y 0.000000 1.806970 0.000000 
#    z 0.000000 0.000000 1.753820 
# 
# From -- ./inp_files/25639.got.cif
#   From: 2010.06.25/outbox.cif.g09.slc.cpg/sg58_13_cif.got.tgz:25639.got - 2010.06.26 21:38:00.
