data_PCOD8237508
_publ_section_title
;
Structure prediction by ZEFSAII (Michael W. Deem and Ramdas Pophale) SiO2 
 PCOD8237508
Probable space group: P N N M
;
_chemical_formula_sum "Si O2"
_cell_formula_units_Z 48
_cell_length_a 28.606867
_cell_length_b 9.341579
_cell_length_c 8.948695
_cell_angle_alpha 90.000000
_cell_angle_beta 90.000000
_cell_angle_gamma 90.000000
_cell_volume 2391.389367
_symmetry_space_group_name_H-M "P N N M"
_symmetry_group_IT_number 58
_symmetry_cell_setting 'orthorhombic'
loop_
_space_group_symop_operation_xyz
x,y,z
-x,-y,z
1/2+x,1/2-y,1/2-z
1/2-x,1/2+y,1/2-z
-x,-y,-z
x,y,-z
1/2-x,1/2+y,1/2+z
1/2+x,1/2-y,1/2+z
loop_
_atom_site_type_symbol
_atom_site_label
_atom_site_fract_x
_atom_site_fract_y
_atom_site_fract_z
Si Si1 0.864774 0.487358 0.674259
Si Si2 0.279448 0.805394 0.173994
Si Si3 0.482379 0.350515 0.676191
Si Si4 0.622422 0.696097 0.677556
Si Si5 0.538948 0.118753 0.834311
Si Si6 0.698827 0.519420 0.823688
O O1 0.867353 0.447406 0.500000
O O2 0.825530 0.603845 0.708863
O O3 0.854076 0.343199 0.765714
O O4 0.913538 0.553053 0.731558
O O5 0.287910 0.641807 0.224030
O O6 0.237933 0.868775 0.271978
O O7 0.265594 0.814190 0.000000
O O8 0.500000 0.500000 0.743488
O O9 0.479633 0.356284 0.500000
O O10 0.430866 0.312337 0.738182
O O11 0.521656 0.238578 0.722034
O O12 0.625360 0.690142 0.500000
O O13 0.650218 0.561121 0.744683
O O14 0.500000 0.000000 0.844460
O O15 0.548073 0.183233 0.000000
O O16 0.692172 0.531032 0.000000
#
# Coordination Sequence:
#
# PCOD8237508 Si02
#       6
#     8   8   8   8   8   8
#     4  10  21  39  62  89 122 157 196 245 296 348
#     4  10  23  42  63  89 120 153 193 239 290 353
#     4  10  23  40  57  83 121 161 201 246 294 347
#     4  11  23  39  60  87 119 157 199 243 294 351
#     4  10  20  36  60  89 119 156 201 245 291 345
#     4  11  24  41  63  89 118 151 192 240 293 349
#
# _framework density 20.072013999999999
#
# number of rings (size 3 to 8) (size 9 to 14) (size 15 to 20)
#    0.000    1.667    1.667    2.000    2.333    6.667 
#    0.000    0.000    0.000    0.000    0.000    0.000 
#    0.000    0.000    0.000    0.000    0.000    0.000 
#
# Total GULP energy -595387.425792 kJ/mol
# GULP energy per Si atom -12403.904704 kJ/mol
# Density = 2.002633 g / cm^3
# Si number density = 20.072014 Si / 1000 Ang^3
#
#
#
# Elastic Constant Matrix: (Units=GPa)
#
#
# Indices 1 2 3 4 5 6 
#
# 1 78.6889 33.2532 28.3879 0.0000 0.0000 0.0000
# 2 33.2532 132.7505 39.9030 0.0000 0.0000 0.0000
# 3 28.3879 39.9030 53.2445 0.0000 0.0000 0.0000
# 4 0.0000 0.0000 0.0000 31.3327 0.0000 0.0000
# 5 0.0000 0.0000 0.0000 0.0000 32.1868 0.0000
# 6 0.0000 0.0000 0.0000 0.0000 0.0000 37.7332
#
#
#
# Elastic Compliance Matrix: (Units=1/GPa)
#
#
# Indices 1 2 3 4 5 6 
#
# 1 0.016088 -0.001874 -0.007173 0.000000 0.000000 0.000000
# 2 -0.001874 0.009942 -0.006451 0.000000 0.000000 0.000000
# 3 -0.007173 -0.006451 0.027441 0.000000 0.000000 0.000000
# 4 0.000000 0.000000 0.000000 0.031916 0.000000 0.000000
# 5 0.000000 0.000000 0.000000 0.000000 0.031069 0.000000
# 6 0.000000 0.000000 0.000000 0.000000 0.000000 0.026502
#
#
# Mechanical properties :
#
#
# Convention : Reuss Voigt Hill
#
# Bulk Modulus (GPa) = 44.49731 51.97470 48.23600
# Shear Modulus (GPa) = 27.55670 31.12651 29.34160
#
# Velocity S-wave (km/s) = 3.70927 3.94222 3.82752
# Velocity P-wave (km/s) = 6.36882 6.83167 6.60430
#
# Compressibility (1/GPa) = 0.02247327
#
# Stress axis : x y z
#
# Youngs Moduli (GPa) = 62.15843 100.58833 36.44228
#
# Poissons Ratio (x) = 0.18848 0.26141
# Poissons Ratio (y) = 0.11647 0.23511
# Poissons Ratio (z) = 0.44587 0.64894
#
# Static dielectric constant tensor:
#      x y z
#    x 3.793420 0.000000 0.000000 
#    y 0.000000 3.647510 0.000000 
#    z 0.000000 0.000000 3.525810 
# 
# 
# High freq. dielectric constant tensor:
#      x y z
#    x 1.797330 0.000000 0.000000 
#    y 0.000000 1.790680 0.000000 
#    z 0.000000 0.000000 1.773570 
# 
# From -- ./inp_files/2997.got.cif
#   From: 2010.06.25/outbox.cif.g09.slc.cpg/sg58_2_cif.got.tgz:2997.got - 2010.06.26 21:38:00.
