data_PCOD8237126
_publ_section_title
;
Structure prediction by ZEFSAII (Michael W. Deem and Ramdas Pophale) SiO2 
 PCOD8237126
Probable space group: P N N M
;
_chemical_formula_sum "Si O2"
_cell_formula_units_Z 64
_cell_length_a 24.055962
_cell_length_b 15.186135
_cell_length_c 8.890511
_cell_angle_alpha 90.000000
_cell_angle_beta 90.000000
_cell_angle_gamma 90.000000
_cell_volume 3247.855576
_symmetry_space_group_name_H-M "P N N M"
_symmetry_group_IT_number 58
_symmetry_cell_setting 'orthorhombic'
loop_
_space_group_symop_operation_xyz
x,y,z
-x,-y,z
1/2+x,1/2-y,1/2-z
1/2-x,1/2+y,1/2-z
-x,-y,-z
x,y,-z
1/2-x,1/2+y,1/2+z
1/2+x,1/2-y,1/2+z
loop_
_atom_site_type_symbol
_atom_site_label
_atom_site_fract_x
_atom_site_fract_y
_atom_site_fract_z
Si Si1 0.253322 0.715960 0.823589
Si Si2 0.369411 0.169326 0.323187
Si Si3 0.118583 0.981120 0.674205
Si Si4 0.553692 0.692655 0.825784
Si Si5 0.347556 0.989976 0.173476
Si Si6 0.847366 0.687861 0.176877
Si Si7 0.222723 0.038903 0.173106
Si Si8 0.425219 0.672429 0.826599
O O1 0.188873 0.714451 0.773697
O O2 0.285101 0.794593 0.739281
O O3 0.282617 0.624699 0.777585
O O4 0.260438 0.730524 0.000000
O O5 0.370377 0.153403 0.500000
O O6 0.419516 0.231149 0.274155
O O7 0.376656 0.075221 0.244320
O O8 0.135406 0.975787 0.500000
O O9 0.078665 0.901410 0.720909
O O10 0.174301 0.972769 0.774399
O O11 0.085994 0.070721 0.711420
O O12 0.488891 0.692208 0.789489
O O13 0.565581 0.712864 0.000000
O O14 0.370653 0.902987 0.254476
O O15 0.281386 0.992022 0.197736
O O16 0.364306 0.986151 0.000000
O O17 0.888013 0.766731 0.221352
O O18 0.844549 0.678505 0.000000
O O19 0.214708 0.066925 0.000000
O O20 0.411001 0.693228 0.000000
#
# Coordination Sequence:
#
# PCOD8237126 Si02
#       8
#     8   8   8   8   8   8   8   8
#     4  10  20  36  57  82 117 159 195 235 294 356
#     4  10  22  40  61  87 120 156 198 250 303 350
#     4  10  20  35  58  87 120 159 199 241 289 350
#     4  10  22  39  61  88 117 159 207 246 295 357
#     4  10  22  40  61  85 120 159 197 244 299 362
#     4  12  24  37  59  90 121 155 200 249 298 353
#     4  10  20  34  55  86 120 153 192 239 292 349
#     4  10  21  40  62  85 120 161 203 248 295 353
#
# _framework density 19.705309
#
# number of rings (size 3 to 8) (size 9 to 14) (size 15 to 20)
#    0.000    1.750    1.250    3.000    1.750    5.500 
#    0.000    0.625    0.000    6.000    0.000    0.000 
#    0.000    0.000    0.000    0.000    0.000    0.000 
#
# Total GULP energy -793929.754793 kJ/mol
# GULP energy per Si atom -12405.152419 kJ/mol
# Density = 1.966046 g / cm^3
# Si number density = 19.705309 Si / 1000 Ang^3
#
#
#
# Elastic Constant Matrix: (Units=GPa)
#
#
# Indices 1 2 3 4 5 6 
#
# 1 46.1676 11.9958 15.7388 0.0000 0.0000 0.0000
# 2 11.9958 103.1261 41.0051 0.0000 0.0000 0.0000
# 3 15.7388 41.0051 89.6882 0.0000 0.0000 0.0000
# 4 0.0000 0.0000 0.0000 29.7193 0.0000 0.0000
# 5 0.0000 0.0000 0.0000 0.0000 27.3225 0.0000
# 6 0.0000 0.0000 0.0000 0.0000 0.0000 20.2662
#
#
#
# Elastic Compliance Matrix: (Units=1/GPa)
#
#
# Indices 1 2 3 4 5 6 
#
# 1 0.023184 -0.001319 -0.003465 0.000000 0.000000 0.000000
# 2 -0.001319 0.011926 -0.005221 0.000000 0.000000 0.000000
# 3 -0.003465 -0.005221 0.014145 0.000000 0.000000 0.000000
# 4 0.000000 0.000000 0.000000 0.033648 0.000000 0.000000
# 5 0.000000 0.000000 0.000000 0.000000 0.036600 0.000000
# 6 0.000000 0.000000 0.000000 0.000000 0.000000 0.049343
#
#
# Mechanical properties :
#
#
# Convention : Reuss Voigt Hill
#
# Bulk Modulus (GPa) = 34.19453 41.82904 38.01179
# Shear Modulus (GPa) = 25.17543 26.81108 25.99326
#
# Velocity S-wave (km/s) = 3.57823 3.69264 3.63588
# Velocity P-wave (km/s) = 5.87045 6.28125 6.07932
#
# Compressibility (1/GPa) = 0.02924444
#
# Stress axis : x y z
#
# Youngs Moduli (GPa) = 43.13266 83.84786 70.69639
#
# Poissons Ratio (x) = 0.11059 0.24500
# Poissons Ratio (y) = 0.05689 0.36912
# Poissons Ratio (z) = 0.14947 0.43779
#
# Static dielectric constant tensor:
#      x y z
#    x 3.501030 0.000000 0.000000 
#    y 0.000000 3.563470 0.000000 
#    z 0.000000 0.000000 3.525220 
# 
# 
# High freq. dielectric constant tensor:
#      x y z
#    x 1.757350 0.000000 0.000000 
#    y 0.000000 1.770480 0.000000 
#    z 0.000000 0.000000 1.768870 
# 
# From -- ./inp_files/6755.got.cif
#   From: 2010.06.25/outbox.cif.g09.slc.cpg/sg58_4_cif.got.tgz:6755.got - 2010.06.26 21:38:00.
