data_PCOD8237639
_publ_section_title
;
Structure prediction by ZEFSAII (Michael W. Deem and Ramdas Pophale) SiO2 
 PCOD8237639
Probable space group: P N N M
;
_chemical_formula_sum "Si O2"
_cell_formula_units_Z 64
_cell_length_a 23.666008
_cell_length_b 15.310681
_cell_length_c 8.376785
_cell_angle_alpha 90.000000
_cell_angle_beta 90.000000
_cell_angle_gamma 90.000000
_cell_volume 3035.266886
_symmetry_space_group_name_H-M "P N N M"
_symmetry_group_IT_number 58
_symmetry_cell_setting 'orthorhombic'
loop_
_space_group_symop_operation_xyz
x,y,z
-x,-y,z
1/2+x,1/2-y,1/2-z
1/2-x,1/2+y,1/2-z
-x,-y,-z
x,y,-z
1/2-x,1/2+y,1/2+z
1/2+x,1/2-y,1/2+z
loop_
_atom_site_type_symbol
_atom_site_label
_atom_site_fract_x
_atom_site_fract_y
_atom_site_fract_z
Si Si1 0.252852 0.429439 0.684230
Si Si2 0.358765 0.998520 0.316699
Si Si3 0.538395 0.421490 0.689986
Si Si4 0.028193 0.415845 0.815759
Si Si5 0.028897 0.755180 0.190155
Si Si6 0.636353 0.820780 0.187452
Si Si7 0.166953 0.081500 0.189766
Si Si8 0.254778 0.733476 0.186875
O O1 0.267106 0.416484 0.500000
O O2 0.193678 0.477801 0.704803
O O3 0.300509 0.494897 0.757922
O O4 0.248260 0.332259 0.762709
O O5 0.339356 0.008497 0.500000
O O6 0.404127 0.920748 0.298678
O O7 0.388049 0.087357 0.252999
O O8 0.500000 0.500000 0.756212
O O9 0.540978 0.423379 0.500000
O O10 0.506314 0.336583 0.754392
O O11 0.602696 0.423294 0.755998
O O12 0.000000 0.500000 0.731364
O O13 0.005549 0.327089 0.738702
O O14 0.009397 0.414930 0.000000
O O15 0.091921 0.754716 0.264356
O O16 0.034059 0.757471 0.000000
O O17 0.695037 0.809923 0.278362
O O18 0.647170 0.821341 0.000000
O O19 0.195764 0.173075 0.240590
O O20 0.168312 0.079356 0.000000
O O21 0.266450 0.739102 0.000000
#
# Coordination Sequence:
#
# PCOD8237639 Si02
#       8
#     8   8   8   8   8   8   8   8
#     4  10  23  40  60  88 124 160 198 252 311 365
#     4  11  21  36  61  88 120 158 199 242 297 370
#     4   9  20  37  63  92 117 157 210 257 301 356
#     4   9  17  31  52  83 117 150 192 236 280 347
#     4  10  20  37  61  86 117 159 205 248 296 361
#     4  12  24  39  59  87 123 158 202 257 311 361
#     4  10  21  40  64  93 127 158 200 262 314 360
#     4  11  24  41  63  91 121 164 208 249 309 375
#
# _framework density 21.085459
#
# number of rings (size 3 to 8) (size 9 to 14) (size 15 to 20)
#    0.000    1.750    2.500    1.875    3.500    1.000 
#    0.000    2.500    0.000    0.750    0.000    0.000 
#    0.000    0.000    0.000    0.000    0.000    0.000 
#
# Total GULP energy -793374.648489 kJ/mol
# GULP energy per Si atom -12396.478883 kJ/mol
# Density = 2.103747 g / cm^3
# Si number density = 21.085459 Si / 1000 Ang^3
#
#
#
# Elastic Constant Matrix: (Units=GPa)
#
#
# Indices 1 2 3 4 5 6 
#
# 1 154.0554 72.4891 10.0574 0.0000 0.0000 0.0000
# 2 72.4891 162.7641 14.5656 0.0000 0.0000 0.0000
# 3 10.0574 14.5656 24.0882 0.0000 0.0000 0.0000
# 4 0.0000 0.0000 0.0000 20.0613 0.0000 0.0000
# 5 0.0000 0.0000 0.0000 0.0000 25.4912 0.0000
# 6 0.0000 0.0000 0.0000 0.0000 0.0000 32.7107
#
#
#
# Elastic Compliance Matrix: (Units=1/GPa)
#
#
# Indices 1 2 3 4 5 6 
#
# 1 0.008250 -0.003559 -0.001293 0.000000 0.000000 0.000000
# 2 -0.003559 0.008030 -0.003370 0.000000 0.000000 0.000000
# 3 -0.001293 -0.003370 0.044092 0.000000 0.000000 0.000000
# 4 0.000000 0.000000 0.000000 0.049847 0.000000 0.000000
# 5 0.000000 0.000000 0.000000 0.000000 0.039229 0.000000
# 6 0.000000 0.000000 0.000000 0.000000 0.000000 0.030571
#
#
# Mechanical properties :
#
#
# Convention : Reuss Voigt Hill
#
# Bulk Modulus (GPa) = 22.76385 59.45909 41.11147
# Shear Modulus (GPa) = 23.68488 31.90567 27.79528
#
# Velocity S-wave (km/s) = 3.35517 3.89416 3.63467
# Velocity P-wave (km/s) = 5.08223 6.96273 6.09543
#
# Compressibility (1/GPa) = 0.04392930
#
# Stress axis : x y z
#
# Youngs Moduli (GPa) = 121.21193 124.52852 22.68006
#
# Poissons Ratio (x) = 0.44314 0.02932
# Poissons Ratio (y) = 0.43134 0.07643
# Poissons Ratio (z) = 0.15670 0.41965
#
# Static dielectric constant tensor:
#      x y z
#    x 3.847420 0.000000 0.000000 
#    y 0.000000 4.202850 0.000000 
#    z 0.000000 0.000000 3.319050 
# 
# 
# High freq. dielectric constant tensor:
#      x y z
#    x 1.836160 0.000000 0.000000 
#    y 0.000000 1.835590 0.000000 
#    z 0.000000 0.000000 1.783080 
# 
# From -- ./inp_files/10109.got.cif
#   From: 2010.06.25/outbox.cif.g09.slc.cpg/sg58_6_cif.got.tgz:10109.got - 2010.06.26 21:38:00.
