data_PCOD8237507
_publ_section_title
;
Structure prediction by ZEFSAII (Michael W. Deem and Ramdas Pophale) SiO2 
 PCOD8237507
Probable space group: P N N M
;
_chemical_formula_sum "Si O2"
_cell_formula_units_Z 64
_cell_length_a 11.348236
_cell_length_b 18.624058
_cell_length_c 14.424001
_cell_angle_alpha 90.000000
_cell_angle_beta 90.000000
_cell_angle_gamma 90.000000
_cell_volume 3048.515575
_symmetry_space_group_name_H-M "P N N M"
_symmetry_group_IT_number 58
_symmetry_cell_setting 'orthorhombic'
loop_
_space_group_symop_operation_xyz
x,y,z
-x,-y,z
1/2+x,1/2-y,1/2-z
1/2-x,1/2+y,1/2-z
-x,-y,-z
x,y,-z
1/2-x,1/2+y,1/2+z
1/2+x,1/2-y,1/2+z
loop_
_atom_site_type_symbol
_atom_site_label
_atom_site_fract_x
_atom_site_fract_y
_atom_site_fract_z
Si Si1 0.735282 0.827292 0.288838
Si Si2 0.252629 0.915102 0.200354
Si Si3 0.169956 0.224600 0.103105
Si Si4 0.397012 0.302279 0.391193
Si Si5 0.781156 0.123063 0.601390
Si Si6 0.036554 0.347720 0.394781
Si Si7 0.966201 0.813617 0.396132
Si Si8 0.609573 0.952603 0.211752
O O1 0.748730 0.813105 0.179046
O O2 0.674996 0.761447 0.342006
O O3 0.863920 0.842671 0.330109
O O4 0.657433 0.900297 0.293877
O O5 0.134959 0.880264 0.155110
O O6 0.250909 0.926465 0.311848
O O7 0.353023 0.858460 0.172734
O O8 0.287965 0.995611 0.168129
O O9 0.195848 0.308794 0.104834
O O10 0.033558 0.211489 0.126761
O O11 0.200514 0.194228 0.000000
O O12 0.365101 0.303326 0.500000
O O13 0.765137 0.085377 0.500000
O O14 0.917963 0.140073 0.616917
O O15 0.078746 0.357731 0.500000
O O16 0.992695 0.267525 0.373553
O O17 0.934186 0.404428 0.373929
O O18 0.916293 0.818500 0.500000
O O19 0.500000 0.000000 0.251470
#
# Coordination Sequence:
#
# PCOD8237507 Si02
#       8
#     8   8   8   8   8   8   8   8
#     4  12  22  38  67  90 128 170 214 272 317 384
#     4  11  21  38  59  88 129 168 213 260 324 390
#     4  10  22  37  59  95 128 160 208 267 324 376
#     4  11  23  38  64  98 129 165 215 276 334 386
#     4  10  20  36  60  88 123 164 210 263 318 376
#     4  10  20  36  61  94 129 163 210 271 330 387
#     4  10  20  36  64 100 122 153 217 281 327 370
#     4  10  26  40  59  93 135 177 216 258 325 399
#
# _framework density 20.993824
#
# number of rings (size 3 to 8) (size 9 to 14) (size 15 to 20)
#    0.000    1.500    2.500    2.250    5.250    4.250 
#    0.000    3.750    0.000    7.875    0.000    0.000 
#    0.000    0.000    0.000    0.000    0.000    0.000 
#
# Total GULP energy -793204.517228 kJ/mol
# GULP energy per Si atom -12393.820582 kJ/mol
# Density = 2.094604 g / cm^3
# Si number density = 20.993824 Si / 1000 Ang^3
#
#
#
# Elastic Constant Matrix: (Units=GPa)
#
#
# Indices 1 2 3 4 5 6 
#
# 1 75.8860 33.5033 43.8577 0.0000 0.0000 0.0000
# 2 33.5033 66.6510 20.6297 0.0000 0.0000 0.0000
# 3 43.8577 20.6297 125.5796 0.0000 0.0000 0.0000
# 4 0.0000 0.0000 0.0000 16.7161 0.0000 0.0000
# 5 0.0000 0.0000 0.0000 0.0000 34.0648 0.0000
# 6 0.0000 0.0000 0.0000 0.0000 0.0000 36.9190
#
#
#
# Elastic Compliance Matrix: (Units=1/GPa)
#
#
# Indices 1 2 3 4 5 6 
#
# 1 0.020146 -0.008375 -0.005660 0.000000 0.000000 0.000000
# 2 -0.008375 0.019289 -0.000244 0.000000 0.000000 0.000000
# 3 -0.005660 -0.000244 0.009980 0.000000 0.000000 0.000000
# 4 0.000000 0.000000 0.000000 0.059822 0.000000 0.000000
# 5 0.000000 0.000000 0.000000 0.000000 0.029356 0.000000
# 6 0.000000 0.000000 0.000000 0.000000 0.000000 0.027086
#
#
# Mechanical properties :
#
#
# Convention : Reuss Voigt Hill
#
# Bulk Modulus (GPa) = 47.94507 51.56647 49.75577
# Shear Modulus (GPa) = 24.85210 28.88172 26.86691
#
# Velocity S-wave (km/s) = 3.44435 3.71310 3.58124
# Velocity P-wave (km/s) = 6.22136 6.55735 6.39156
#
# Compressibility (1/GPa) = 0.02085720
#
# Stress axis : x y z
#
# Youngs Moduli (GPa) = 49.63647 51.84338 100.20143
#
# Poissons Ratio (x) = 0.43419 0.56716
# Poissons Ratio (y) = 0.41571 0.02443
# Poissons Ratio (z) = 0.28095 0.01264
#
# Static dielectric constant tensor:
#      x y z
#    x 3.925590 0.000000 0.000000 
#    y 0.000000 3.605680 0.000000 
#    z 0.000000 0.000000 4.059620 
# 
# 
# High freq. dielectric constant tensor:
#      x y z
#    x 1.831050 0.000000 0.000000 
#    y 0.000000 1.790930 0.000000 
#    z 0.000000 0.000000 1.826610 
# 
# From -- ./inp_files/21485.got.cif
#   From: 2010.06.25/outbox.cif.g09.slc.cpg/sg58_11_cif.got.tgz:21485.got - 2010.06.26 21:38:00.
