data_PCOD8237166
_publ_section_title
;
Structure prediction by ZEFSAII (Michael W. Deem and Ramdas Pophale) SiO2 
 PCOD8237166
Probable space group: P N N M
;
_chemical_formula_sum "Si O2"
_cell_formula_units_Z 64
_cell_length_a 10.773748
_cell_length_b 32.099015
_cell_length_c 9.306401
_cell_angle_alpha 90.000000
_cell_angle_beta 90.000000
_cell_angle_gamma 90.000000
_cell_volume 3218.401934
_symmetry_space_group_name_H-M "P N N M"
_symmetry_group_IT_number 58
_symmetry_cell_setting 'orthorhombic'
loop_
_space_group_symop_operation_xyz
x,y,z
-x,-y,z
1/2+x,1/2-y,1/2-z
1/2-x,1/2+y,1/2-z
-x,-y,-z
x,y,-z
1/2-x,1/2+y,1/2+z
1/2+x,1/2-y,1/2+z
loop_
_atom_site_type_symbol
_atom_site_label
_atom_site_fract_x
_atom_site_fract_y
_atom_site_fract_z
Si Si1 0.523024 0.280212 0.160843
Si Si2 0.617486 0.026099 0.669392
Si Si3 0.651275 0.398937 0.660666
Si Si4 0.399477 0.347620 0.662629
Si Si5 0.523194 0.200562 0.664501
Si Si6 0.131580 0.017618 0.329439
Si Si7 0.825489 0.618602 0.167918
Si Si8 0.733116 0.834342 0.342121
O O1 0.416701 0.303738 0.253214
O O2 0.569413 0.237616 0.234254
O O3 0.641046 0.309220 0.153133
O O4 0.471550 0.271611 0.000000
O O5 0.614590 0.020221 0.500000
O O6 0.750598 0.009214 0.726912
O O7 0.607852 0.075020 0.711171
O O8 0.500000 0.000000 0.735134
O O9 0.686073 0.413357 0.500000
O O10 0.524375 0.373753 0.661481
O O11 0.642333 0.436841 0.767397
O O12 0.761352 0.369991 0.721745
O O13 0.357121 0.337273 0.500000
O O14 0.299347 0.376335 0.741528
O O15 0.553775 0.212209 0.500000
O O16 0.584429 0.156660 0.707001
O O17 0.377114 0.197107 0.694758
O O18 0.131333 0.020386 0.500000
O O19 0.000000 0.000000 0.272947
O O20 0.789670 0.617919 0.000000
O O21 0.708027 0.854555 0.500000
#
# Coordination Sequence:
#
# PCOD8237166 Si02
#       8
#     8   8   8   8   8   8   8   8
#     4  10  21  37  58  85 114 149 190 235 283 335
#     4   9  19  35  58  86 117 152 193 239 290 348
#     4  10  21  36  57  85 114 149 188 235 288 337
#     4  10  21  38  59  83 117 155 191 235 288 341
#     4  10  22  37  57  85 116 149 186 233 285 340
#     4  10  20  34  58  88 114 147 193 244 289 342
#     4  10  21  37  59  87 116 150 194 237 285 344
#     4   9  20  38  58  81 111 147 187 230 278 336
#
# _framework density 19.885645
#
# number of rings (size 3 to 8) (size 9 to 14) (size 15 to 20)
#    0.000    2.250    0.000    1.875    3.500    4.250 
#    0.000    0.625    0.000    0.750    0.000    0.000 
#    0.000    0.000    0.000    0.000    0.000    0.000 
#
# Total GULP energy -793495.807268 kJ/mol
# GULP energy per Si atom -12398.371989 kJ/mol
# Density = 1.984038 g / cm^3
# Si number density = 19.885645 Si / 1000 Ang^3
#
#
#
# Elastic Constant Matrix: (Units=GPa)
#
#
# Indices 1 2 3 4 5 6 
#
# 1 59.8705 14.8162 23.6006 0.0000 0.0000 0.0000
# 2 14.8162 108.7486 35.1290 0.0000 0.0000 0.0000
# 3 23.6006 35.1290 61.9120 0.0000 0.0000 0.0000
# 4 0.0000 0.0000 0.0000 25.2394 0.0000 0.0000
# 5 0.0000 0.0000 0.0000 0.0000 18.9284 0.0000
# 6 0.0000 0.0000 0.0000 0.0000 0.0000 15.0775
#
#
#
# Elastic Compliance Matrix: (Units=1/GPa)
#
#
# Indices 1 2 3 4 5 6 
#
# 1 0.019665 -0.000316 -0.007317 0.000000 0.000000 0.000000
# 2 -0.000316 0.011264 -0.006271 0.000000 0.000000 0.000000
# 3 -0.007317 -0.006271 0.022499 0.000000 0.000000 0.000000
# 4 0.000000 0.000000 0.000000 0.039621 0.000000 0.000000
# 5 0.000000 0.000000 0.000000 0.000000 0.052831 0.000000
# 6 0.000000 0.000000 0.000000 0.000000 0.000000 0.066324
#
#
# Mechanical properties :
#
#
# Convention : Reuss Voigt Hill
#
# Bulk Modulus (GPa) = 39.03017 41.95807 40.49412
# Shear Modulus (GPa) = 20.11648 22.31475 21.21561
#
# Velocity S-wave (km/s) = 3.18403 3.35349 3.26986
# Velocity P-wave (km/s) = 5.76084 6.01166 5.88759
#
# Compressibility (1/GPa) = 0.02562121
#
# Stress axis : x y z
#
# Youngs Moduli (GPa) = 50.85117 88.77641 44.44550
#
# Poissons Ratio (x) = 0.02801 0.32522
# Poissons Ratio (y) = 0.01605 0.27872
# Poissons Ratio (z) = 0.37209 0.55672
#
# Static dielectric constant tensor:
#      x y z
#    x 3.757700 0.000000 0.000000 
#    y 0.000000 3.672900 0.000000 
#    z 0.000000 0.000000 3.692630 
# 
# 
# High freq. dielectric constant tensor:
#      x y z
#    x 1.772930 0.000000 0.000000 
#    y 0.000000 1.778790 0.000000 
#    z 0.000000 0.000000 1.759800 
# 
# From -- ./inp_files/4666.got.cif
#   From: 2010.06.25/outbox.cif.g09.slc.cpg/sg58_3_cif.got.tgz:4666.got - 2010.06.26 21:38:00.
