data_PCOD8237404
_publ_section_title
;
Structure prediction by ZEFSAII (Michael W. Deem and Ramdas Pophale) SiO2 
 PCOD8237404
Probable space group: P N N M
;
_chemical_formula_sum "Si O2"
_cell_formula_units_Z 64
_cell_length_a 15.177416
_cell_length_b 23.835553
_cell_length_c 9.050241
_cell_angle_alpha 90.000000
_cell_angle_beta 90.000000
_cell_angle_gamma 90.000000
_cell_volume 3274.034221
_symmetry_space_group_name_H-M "P N N M"
_symmetry_group_IT_number 58
_symmetry_cell_setting 'orthorhombic'
loop_
_space_group_symop_operation_xyz
x,y,z
-x,-y,z
1/2+x,1/2-y,1/2-z
1/2-x,1/2+y,1/2-z
-x,-y,-z
x,y,-z
1/2-x,1/2+y,1/2+z
1/2+x,1/2-y,1/2+z
loop_
_atom_site_type_symbol
_atom_site_label
_atom_site_fract_x
_atom_site_fract_y
_atom_site_fract_z
Si Si1 0.081319 0.390939 0.325176
Si Si2 0.146547 0.496319 0.830968
Si Si3 0.905170 0.378907 0.173144
Si Si4 0.247798 0.824820 0.824778
Si Si5 0.389556 0.619920 0.670855
Si Si6 0.588075 0.600162 0.329356
Si Si7 0.848710 0.995200 0.670630
Si Si8 0.743017 0.302016 0.174908
O O1 0.075910 0.391046 0.500000
O O2 0.089345 0.454710 0.268852
O O3 0.164223 0.355143 0.266348
O O4 0.993656 0.362727 0.259896
O O5 0.126900 0.559427 0.780243
O O6 0.249262 0.483280 0.809057
O O7 0.117639 0.487112 0.000000
O O8 0.830072 0.335605 0.222406
O O9 0.923981 0.374611 0.000000
O O10 0.161802 0.857570 0.765194
O O11 0.245925 0.761268 0.766427
O O12 0.245853 0.824773 0.000000
O O13 0.362793 0.616998 0.500000
O O14 0.493843 0.629472 0.690572
O O15 0.359169 0.562880 0.746142
O O16 0.342443 0.672348 0.747037
O O17 0.606971 0.585202 0.500000
O O18 0.587389 0.542092 0.238911
O O19 0.872712 0.985758 0.500000
O O20 0.727876 0.305314 0.000000
#
# Coordination Sequence:
#
# PCOD8237404 Si02
#       8
#     8   8   8   8   8   8   8   8
#     4  11  22  36  58  88 116 150 187 230 288 342
#     4  10  20  36  57  84 114 149 190 232 282 338
#     4  10  21  38  59  83 113 150 190 236 283 337
#     4   9  20  39  61  82 112 153 195 237 284 341
#     4  11  23  37  59  89 120 151 187 238 290 341
#     4  10  21  39  59  85 119 155 191 232 291 348
#     4  11  21  36  60  88 117 152 193 235 283 342
#     4  10  21  41  63  81 109 155 200 236 284 340
#
# _framework density 19.547749
#
# number of rings (size 3 to 8) (size 9 to 14) (size 15 to 20)
#    0.000    1.750    2.500    1.875    0.000    6.500 
#    0.000    3.125    0.000    0.000    0.000    0.000 
#    0.000    0.000    0.000    0.000    0.000    0.000 
#
# Total GULP energy -793916.738094 kJ/mol
# GULP energy per Si atom -12404.949033 kJ/mol
# Density = 1.950326 g / cm^3
# Si number density = 19.547749 Si / 1000 Ang^3
#
#
#
# Elastic Constant Matrix: (Units=GPa)
#
#
# Indices 1 2 3 4 5 6 
#
# 1 107.0685 41.6904 42.4491 0.0000 0.0000 0.0000
# 2 41.6904 124.3444 35.3503 0.0000 0.0000 0.0000
# 3 42.4491 35.3503 64.1122 0.0000 0.0000 0.0000
# 4 0.0000 0.0000 0.0000 24.4018 0.0000 0.0000
# 5 0.0000 0.0000 0.0000 0.0000 34.3482 0.0000
# 6 0.0000 0.0000 0.0000 0.0000 0.0000 18.1900
#
#
#
# Elastic Compliance Matrix: (Units=1/GPa)
#
#
# Indices 1 2 3 4 5 6 
#
# 1 0.013197 -0.002301 -0.007469 0.000000 0.000000 0.000000
# 2 -0.002301 0.009938 -0.003956 0.000000 0.000000 0.000000
# 3 -0.007469 -0.003956 0.022724 0.000000 0.000000 0.000000
# 4 0.000000 0.000000 0.000000 0.040981 0.000000 0.000000
# 5 0.000000 0.000000 0.000000 0.000000 0.029114 0.000000
# 6 0.000000 0.000000 0.000000 0.000000 0.000000 0.054975
#
#
# Mechanical properties :
#
#
# Convention : Reuss Voigt Hill
#
# Bulk Modulus (GPa) = 54.32747 59.38939 56.85843
# Shear Modulus (GPa) = 24.44774 27.12369 25.78572
#
# Velocity S-wave (km/s) = 3.54031 3.72904 3.63590
# Velocity P-wave (km/s) = 6.67565 6.99919 6.83933
#
# Compressibility (1/GPa) = 0.01840689
#
# Stress axis : x y z
#
# Youngs Moduli (GPa) = 75.77412 100.61882 44.00591
#
# Poissons Ratio (x) = 0.23156 0.32868
# Poissons Ratio (y) = 0.17438 0.17409
# Poissons Ratio (z) = 0.56595 0.39806
#
# Static dielectric constant tensor:
#      x y z
#    x 3.738120 0.000000 0.000000 
#    y 0.000000 3.568240 0.000000 
#    z 0.000000 0.000000 3.409340 
# 
# 
# High freq. dielectric constant tensor:
#      x y z
#    x 1.775770 0.000000 0.000000 
#    y 0.000000 1.756990 0.000000 
#    z 0.000000 0.000000 1.746240 
# 
# From -- ./inp_files/6907.got.cif
#   From: 2010.06.25/outbox.cif.g09.slc.cpg/sg58_4_cif.got.tgz:6907.got - 2010.06.26 21:38:00.
