data_PCOD8237641
_publ_section_title
;
Structure prediction by ZEFSAII (Michael W. Deem and Ramdas Pophale) SiO2 
 PCOD8237641
Probable space group: P N N M
;
_chemical_formula_sum "Si O2"
_cell_formula_units_Z 48
_cell_length_a 19.031302
_cell_length_b 14.959428
_cell_length_c 8.882284
_cell_angle_alpha 90.000000
_cell_angle_beta 90.000000
_cell_angle_gamma 90.000000
_cell_volume 2528.763090
_symmetry_space_group_name_H-M "P N N M"
_symmetry_group_IT_number 58
_symmetry_cell_setting 'orthorhombic'
loop_
_space_group_symop_operation_xyz
x,y,z
-x,-y,z
1/2+x,1/2-y,1/2-z
1/2-x,1/2+y,1/2-z
-x,-y,-z
x,y,-z
1/2-x,1/2+y,1/2+z
1/2+x,1/2-y,1/2+z
loop_
_atom_site_type_symbol
_atom_site_label
_atom_site_fract_x
_atom_site_fract_y
_atom_site_fract_z
Si Si1 0.924129 0.975156 0.176792
Si Si2 0.078076 0.523281 0.673634
Si Si3 0.566569 0.274227 0.675441
Si Si4 0.323438 0.371583 0.321636
Si Si5 0.172673 0.380935 0.176233
Si Si6 0.920742 0.268932 0.673611
O O1 0.904441 0.872966 0.214584
O O2 0.864874 0.041450 0.242583
O O3 0.928219 0.991721 0.000000
O O4 0.000000 0.000000 0.248041
O O5 0.086328 0.494119 0.500000
O O6 0.133634 0.470649 0.774001
O O7 0.093922 0.626887 0.697394
O O8 0.000000 0.500000 0.731218
O O9 0.546163 0.266530 0.500000
O O10 0.626586 0.204914 0.721578
O O11 0.498199 0.255060 0.772237
O O12 0.320328 0.372083 0.500000
O O13 0.245505 0.372758 0.260359
O O14 0.362386 0.282409 0.268599
O O15 0.186920 0.384476 0.000000
O O16 0.913978 0.241712 0.500000
#
# Coordination Sequence:
#
# PCOD8237641 Si02
#       6
#     8   8   8   8   8   8
#     4   9  17  34  61  87 110 147 199 240 283 354
#     4  10  21  39  62  87 118 159 203 244 299 365
#     4  10  20  37  61  87 116 153 197 243 296 356
#     4  11  23  40  62  86 121 162 199 243 302 363
#     4  11  24  39  59  90 126 156 196 252 303 354
#     4  11  22  37  61  90 120 153 199 251 297 354
#
# _framework density 18.981612999999999
#
# number of rings (size 3 to 8) (size 9 to 14) (size 15 to 20)
#    0.000    1.667    3.333    1.500    0.000    3.667 
#    0.000    5.833    0.000    0.000    0.000    0.000 
#    0.000    0.000    0.000    0.000    0.000    0.000 
#
# Total GULP energy -595366.005035 kJ/mol
# GULP energy per Si atom -12403.458438 kJ/mol
# Density = 1.893841 g / cm^3
# Si number density = 18.981613 Si / 1000 Ang^3
#
#
#
# Elastic Constant Matrix: (Units=GPa)
#
#
# Indices 1 2 3 4 5 6 
#
# 1 155.2154 71.0278 55.3556 0.0000 0.0000 0.0000
# 2 71.0278 124.9861 41.5577 0.0000 0.0000 0.0000
# 3 55.3556 41.5577 64.4082 0.0000 0.0000 0.0000
# 4 0.0000 0.0000 0.0000 24.2196 0.0000 0.0000
# 5 0.0000 0.0000 0.0000 0.0000 35.1057 0.0000
# 6 0.0000 0.0000 0.0000 0.0000 0.0000 19.9345
#
#
#
# Elastic Compliance Matrix: (Units=1/GPa)
#
#
# Indices 1 2 3 4 5 6 
#
# 1 0.010533 -0.003789 -0.006608 0.000000 0.000000 0.000000
# 2 -0.003789 0.011549 -0.004196 0.000000 0.000000 0.000000
# 3 -0.006608 -0.004196 0.023912 0.000000 0.000000 0.000000
# 4 0.000000 0.000000 0.000000 0.041289 0.000000 0.000000
# 5 0.000000 0.000000 0.000000 0.000000 0.028485 0.000000
# 6 0.000000 0.000000 0.000000 0.000000 0.000000 0.050164
#
#
# Mechanical properties :
#
#
# Convention : Reuss Voigt Hill
#
# Bulk Modulus (GPa) = 59.48897 75.61020 67.54958
# Shear Modulus (GPa) = 24.91025 27.62988 26.27006
#
# Velocity S-wave (km/s) = 3.62655 3.81939 3.72422
# Velocity P-wave (km/s) = 6.99601 7.70520 7.35915
#
# Compressibility (1/GPa) = 0.01680984
#
# Stress axis : x y z
#
# Youngs Moduli (GPa) = 94.93909 86.58837 41.81930
#
# Poissons Ratio (x) = 0.32805 0.27635
# Poissons Ratio (y) = 0.35969 0.17545
# Poissons Ratio (z) = 0.62737 0.36328
#
# Static dielectric constant tensor:
#      x y z
#    x 3.616000 0.000000 0.000000 
#    y 0.000000 3.473090 0.000000 
#    z 0.000000 0.000000 3.384660 
# 
# 
# High freq. dielectric constant tensor:
#      x y z
#    x 1.738500 0.000000 0.000000 
#    y 0.000000 1.754240 0.000000 
#    z 0.000000 0.000000 1.726120 
# 
# From -- ./inp_files/7744.got.cif
#   From: 2010.06.25/outbox.cif.g09.slc.cpg/sg58_4_cif.got.tgz:7744.got - 2010.06.26 21:38:00.
