data_PCOD8237465
_publ_section_title
;
Structure prediction by ZEFSAII (Michael W. Deem and Ramdas Pophale) SiO2 
 PCOD8237465
Probable space group: P N N M
;
_chemical_formula_sum "Si O2"
_cell_formula_units_Z 48
_cell_length_a 17.823029
_cell_length_b 15.415545
_cell_length_c 8.753349
_cell_angle_alpha 90.000000
_cell_angle_beta 90.000000
_cell_angle_gamma 90.000000
_cell_volume 2404.997567
_symmetry_space_group_name_H-M "P N N M"
_symmetry_group_IT_number 58
_symmetry_cell_setting 'orthorhombic'
loop_
_space_group_symop_operation_xyz
x,y,z
-x,-y,z
1/2+x,1/2-y,1/2-z
1/2-x,1/2+y,1/2-z
-x,-y,-z
x,y,-z
1/2-x,1/2+y,1/2+z
1/2+x,1/2-y,1/2+z
loop_
_atom_site_type_symbol
_atom_site_label
_atom_site_fract_x
_atom_site_fract_y
_atom_site_fract_z
Si Si1 0.288184 0.266284 0.677890
Si Si2 0.042156 0.414535 0.320124
Si Si3 0.289044 0.591506 0.819041
Si Si4 0.037064 0.747077 0.176607
Si Si5 0.540399 0.409869 0.178327
Si Si6 0.295248 0.923429 0.319687
O O1 0.270911 0.282948 0.500000
O O2 0.244670 0.181851 0.739994
O O3 0.375241 0.252710 0.709308
O O4 0.261045 0.347068 0.775855
O O5 0.051354 0.418983 0.500000
O O6 0.123856 0.406712 0.249448
O O7 0.000000 0.500000 0.257075
O O8 0.994725 0.330647 0.276904
O O9 0.374382 0.582325 0.763058
O O10 0.239444 0.512575 0.752770
O O11 0.285552 0.587431 0.000000
O O12 0.999585 0.836859 0.223325
O O13 0.020109 0.727891 0.000000
O O14 0.500000 0.500000 0.212101
O O15 0.536347 0.384914 0.000000
O O16 0.303241 0.927679 0.500000
#
# Coordination Sequence:
#
# PCOD8237465 Si02
#       6
#     8   8   8   8   8   8
#     4  10  21  38  58  82 116 155 193 236 288 344
#     4  11  24  41  61  86 118 156 196 241 296 355
#     4   9  19  36  57  80 110 150 189 228 282 346
#     4  11  23  38  59  87 118 155 199 247 294 343
#     4  10  20  36  59  85 116 155 196 239 292 353
#     4  11  22  38  62  89 116 149 193 241 290 348
#
# _framework density 19.95844
#
# number of rings (size 3 to 8) (size 9 to 14) (size 15 to 20)
#    0.000    1.667    0.000    4.500    0.000    7.000 
#    0.000    3.333    0.000    0.000    0.000    0.000 
#    0.000    0.000    0.000    0.000    0.000    0.000 
#
# Total GULP energy -595453.801385 kJ/mol
# GULP energy per Si atom -12405.287529 kJ/mol
# Density = 1.991301 g / cm^3
# Si number density = 19.958440 Si / 1000 Ang^3
#
#
#
# Elastic Constant Matrix: (Units=GPa)
#
#
# Indices 1 2 3 4 5 6 
#
# 1 107.0326 34.4763 29.1984 0.0000 0.0000 0.0000
# 2 34.4763 110.8895 17.0896 0.0000 0.0000 0.0000
# 3 29.1984 17.0896 42.8034 0.0000 0.0000 0.0000
# 4 0.0000 0.0000 0.0000 48.9262 0.0000 0.0000
# 5 0.0000 0.0000 0.0000 0.0000 23.9724 0.0000
# 6 0.0000 0.0000 0.0000 0.0000 0.0000 39.0121
#
#
#
# Elastic Compliance Matrix: (Units=1/GPa)
#
#
# Indices 1 2 3 4 5 6 
#
# 1 0.012179 -0.002670 -0.007241 0.000000 0.000000 0.000000
# 2 -0.002670 0.010195 -0.002249 0.000000 0.000000 0.000000
# 3 -0.007241 -0.002249 0.029200 0.000000 0.000000 0.000000
# 4 0.000000 0.000000 0.000000 0.020439 0.000000 0.000000
# 5 0.000000 0.000000 0.000000 0.000000 0.041715 0.000000
# 6 0.000000 0.000000 0.000000 0.000000 0.000000 0.025633
#
#
# Mechanical properties :
#
#
# Convention : Reuss Voigt Hill
#
# Bulk Modulus (GPa) = 36.69399 46.91712 41.80556
# Shear Modulus (GPa) = 28.94095 34.37955 31.66025
#
# Velocity S-wave (km/s) = 3.81210 4.15487 3.98717
# Velocity P-wave (km/s) = 6.14827 6.82464 6.49527
#
# Compressibility (1/GPa) = 0.02725242
#
# Stress axis : x y z
#
# Youngs Moduli (GPa) = 82.11144 98.08935 34.24633
#
# Poissons Ratio (x) = 0.26194 0.24799
# Poissons Ratio (y) = 0.21927 0.07701
# Poissons Ratio (z) = 0.59461 0.22058
#
# Static dielectric constant tensor:
#      x y z
#    x 3.831660 0.000000 0.000000 
#    y 0.000000 3.841550 0.000000 
#    z 0.000000 0.000000 3.451780 
# 
# 
# High freq. dielectric constant tensor:
#      x y z
#    x 1.798980 0.000000 0.000000 
#    y 0.000000 1.797130 0.000000 
#    z 0.000000 0.000000 1.761660 
# 
# From -- ./inp_files/5834.got.cif
#   From: 2010.06.25/outbox.cif.g09.slc.cpg/sg58_3_cif.got.tgz:5834.got - 2010.06.26 21:38:00.
