data_PCOD8237365
_publ_section_title
;
Structure prediction by ZEFSAII (Michael W. Deem and Ramdas Pophale) SiO2 
 PCOD8237365
Probable space group: P N N M
;
_chemical_formula_sum "Si O2"
_cell_formula_units_Z 48
_cell_length_a 19.106877
_cell_length_b 9.004477
_cell_length_c 13.611794
_cell_angle_alpha 90.000000
_cell_angle_beta 90.000000
_cell_angle_gamma 90.000000
_cell_volume 2341.874236
_symmetry_space_group_name_H-M "P N N M"
_symmetry_group_IT_number 58
_symmetry_cell_setting 'orthorhombic'
loop_
_space_group_symop_operation_xyz
x,y,z
-x,-y,z
1/2+x,1/2-y,1/2-z
1/2-x,1/2+y,1/2-z
-x,-y,-z
x,y,-z
1/2-x,1/2+y,1/2+z
1/2+x,1/2-y,1/2+z
loop_
_atom_site_type_symbol
_atom_site_label
_atom_site_fract_x
_atom_site_fract_y
_atom_site_fract_z
Si Si1 0.568157 0.308020 0.887501
Si Si2 0.547697 0.871207 0.202853
Si Si3 0.610829 0.572893 0.776059
Si Si4 0.168762 0.416392 0.699013
Si Si5 0.753297 0.635921 0.887270
Si Si6 0.800103 0.968687 0.108871
O O1 0.500118 0.200151 0.883453
O O2 0.556941 0.469761 0.837808
O O3 0.632181 0.239541 0.824578
O O4 0.589669 0.327438 0.000000
O O5 0.572791 0.724855 0.262406
O O6 0.500000 0.000000 0.258398
O O7 0.617429 0.951087 0.163323
O O8 0.675732 0.603238 0.848857
O O9 0.633199 0.486888 0.678285
O O10 0.188109 0.437293 0.815028
O O11 0.239958 0.413592 0.636700
O O12 0.764425 0.810335 0.880318
O O13 0.762764 0.578687 0.000000
O O14 0.827476 0.999713 0.000000
#
# Coordination Sequence:
#
# PCOD8237365 Si02
#       6
#     8   8   8   8   8   8
#     4  11  23  37  58  88 119 157 198 239 289 349
#     4  10  23  39  59  80 118 160 193 236 294 346
#     4  11  21  39  59  89 123 152 195 248 291 347
#     4  10  20  39  57  89 122 155 190 244 292 349
#     4  10  20  35  62  91 119 156 192 240 301 351
#     4  10  20  35  62  89 117 157 194 239 298 355
#
# _framework density 20.496403999999998
#
# number of rings (size 3 to 8) (size 9 to 14) (size 15 to 20)
#    0.000    1.667    3.333    1.500    0.000    5.667 
#    0.000    2.500    0.000   12.000    0.000    0.000 
#    0.000    0.000    0.000    0.000    0.000    0.000 
#
# Total GULP energy -594627.409238 kJ/mol
# GULP energy per Si atom -12388.071026 kJ/mol
# Density = 2.044975 g / cm^3
# Si number density = 20.496404 Si / 1000 Ang^3
#
#
#
# Elastic Constant Matrix: (Units=GPa)
#
#
# Indices 1 2 3 4 5 6 
#
# 1 82.9363 33.3497 49.2092 0.0000 0.0000 0.0000
# 2 33.3497 101.2365 44.0532 0.0000 0.0000 0.0000
# 3 49.2092 44.0532 142.8265 0.0000 0.0000 0.0000
# 4 0.0000 0.0000 0.0000 22.0150 0.0000 0.0000
# 5 0.0000 0.0000 0.0000 0.0000 17.0212 0.0000
# 6 0.0000 0.0000 0.0000 0.0000 0.0000 35.8586
#
#
#
# Elastic Compliance Matrix: (Units=1/GPa)
#
#
# Indices 1 2 3 4 5 6 
#
# 1 0.016073 -0.003332 -0.004510 0.000000 0.000000 0.000000
# 2 -0.003332 0.012100 -0.002584 0.000000 0.000000 0.000000
# 3 -0.004510 -0.002584 0.009352 0.000000 0.000000 0.000000
# 4 0.000000 0.000000 0.000000 0.045424 0.000000 0.000000
# 5 0.000000 0.000000 0.000000 0.000000 0.058750 0.000000
# 6 0.000000 0.000000 0.000000 0.000000 0.000000 0.027887
#
#
# Mechanical properties :
#
#
# Convention : Reuss Voigt Hill
#
# Bulk Modulus (GPa) = 59.97732 64.46928 62.22330
# Shear Modulus (GPa) = 25.51052 28.33811 26.92431
#
# Velocity S-wave (km/s) = 3.53176 3.72235 3.62831
# Velocity P-wave (km/s) = 6.77916 7.07084 6.92654
#
# Compressibility (1/GPa) = 0.01667297
#
# Stress axis : x y z
#
# Youngs Moduli (GPa) = 62.21448 82.64427 106.92443
#
# Poissons Ratio (x) = 0.27540 0.48224
# Poissons Ratio (y) = 0.20732 0.27629
# Poissons Ratio (z) = 0.28059 0.21355
#
# Static dielectric constant tensor:
#      x y z
#    x 3.775010 0.000000 0.000000 
#    y 0.000000 3.951490 0.000000 
#    z 0.000000 0.000000 3.514120 
# 
# 
# High freq. dielectric constant tensor:
#      x y z
#    x 1.805930 0.000000 0.000000 
#    y 0.000000 1.815380 0.000000 
#    z 0.000000 0.000000 1.761600 
# 
# From -- ./inp_files/19851.got.cif
#   From: 2010.06.25/outbox.cif.g09.slc.cpg/sg58_10_cif.got.tgz:19851.got - 2010.06.26 21:38:00.
