data_PCOD8237264
_publ_section_title
;
Structure prediction by ZEFSAII (Michael W. Deem and Ramdas Pophale) SiO2 
 PCOD8237264
Probable space group: P N N M
;
_chemical_formula_sum "Si O2"
_cell_formula_units_Z 64
_cell_length_a 24.200066
_cell_length_b 13.934539
_cell_length_c 9.211162
_cell_angle_alpha 90.000000
_cell_angle_beta 90.000000
_cell_angle_gamma 90.000000
_cell_volume 3106.158238
_symmetry_space_group_name_H-M "P N N M"
_symmetry_group_IT_number 58
_symmetry_cell_setting 'orthorhombic'
loop_
_space_group_symop_operation_xyz
x,y,z
-x,-y,z
1/2+x,1/2-y,1/2-z
1/2-x,1/2+y,1/2-z
-x,-y,-z
x,y,-z
1/2-x,1/2+y,1/2+z
1/2+x,1/2-y,1/2+z
loop_
_atom_site_type_symbol
_atom_site_label
_atom_site_fract_x
_atom_site_fract_y
_atom_site_fract_z
Si Si1 0.158452 0.096764 0.668620
Si Si2 0.258704 0.968132 0.668916
Si Si3 0.848844 0.230429 0.658756
Si Si4 0.846303 0.446375 0.657391
Si Si5 0.958000 0.916192 0.830646
Si Si6 0.445868 0.048280 0.665101
Si Si7 0.235294 0.276162 0.326752
Si Si8 0.450181 0.274944 0.336232
O O1 0.145379 0.110325 0.500000
O O2 0.100801 0.084181 0.750413
O O3 0.193591 0.190638 0.722048
O O4 0.194572 0.998719 0.693377
O O5 0.271953 0.954831 0.500000
O O6 0.283216 0.877856 0.758852
O O7 0.293411 0.055880 0.736202
O O8 0.836321 0.181180 0.500000
O O9 0.865906 0.338867 0.629842
O O10 0.796094 0.232846 0.760970
O O11 0.901319 0.180119 0.736213
O O12 0.834407 0.495237 0.500000
O O13 0.896710 0.497318 0.740144
O O14 0.990065 0.817528 0.792471
O O15 0.944341 0.926677 0.000000
O O16 0.000000 0.000000 0.779328
O O17 0.435222 0.016451 0.500000
O O18 0.452829 0.161665 0.677129
O O19 0.500000 0.000000 0.729803
O O20 0.239563 0.280176 0.500000
O O21 0.436135 0.307654 0.500000
#
# Coordination Sequence:
#
# PCOD8237264 Si02
#       8
#     8   8   8   8   8   8   8   8
#     4  10  24  44  64  90 127 166 207 258 314 372
#     4  11  23  40  61  90 123 161 208 252 309 379
#     4  10  20  35  58  87 116 150 197 248 302 363
#     4  10  20  35  56  84 118 155 196 243 301 359
#     4  10  23  41  61  88 121 163 213 258 304 361
#     4   9  18  33  55  82 113 153 199 245 301 364
#     4  11  23  40  62  90 123 160 201 252 315 370
#     4   9  19  36  56  80 113 153 196 248 305 359
#
# _framework density 20.604230999999999
#
# number of rings (size 3 to 8) (size 9 to 14) (size 15 to 20)
#    0.000    2.000    1.250    1.500    1.750    5.000 
#    0.000    1.250    0.000    0.000    0.000    0.000 
#    0.000    0.000    0.000    0.000    0.000    0.000 
#
# Total GULP energy -792987.013224 kJ/mol
# GULP energy per Si atom -12390.422082 kJ/mol
# Density = 2.055733 g / cm^3
# Si number density = 20.604231 Si / 1000 Ang^3
#
#
#
# Elastic Constant Matrix: (Units=GPa)
#
#
# Indices 1 2 3 4 5 6 
#
# 1 149.6656 23.9894 73.7092 0.0000 0.0000 0.0000
# 2 23.9894 41.0453 27.8932 0.0000 0.0000 0.0000
# 3 73.7092 27.8932 119.2686 0.0000 0.0000 0.0000
# 4 0.0000 0.0000 0.0000 19.5982 0.0000 0.0000
# 5 0.0000 0.0000 0.0000 0.0000 40.9530 0.0000
# 6 0.0000 0.0000 0.0000 0.0000 0.0000 32.5295
#
#
#
# Elastic Compliance Matrix: (Units=1/GPa)
#
#
# Indices 1 2 3 4 5 6 
#
# 1 0.009728 -0.001902 -0.005567 0.000000 0.000000 0.000000
# 2 -0.001902 0.029339 -0.005686 0.000000 0.000000 0.000000
# 3 -0.005567 -0.005686 0.013155 0.000000 0.000000 0.000000
# 4 0.000000 0.000000 0.000000 0.051025 0.000000 0.000000
# 5 0.000000 0.000000 0.000000 0.000000 0.024418 0.000000
# 6 0.000000 0.000000 0.000000 0.000000 0.000000 0.030741
#
#
# Mechanical properties :
#
#
# Convention : Reuss Voigt Hill
#
# Bulk Modulus (GPa) = 38.59333 62.35146 50.47239
# Shear Modulus (GPa) = 25.85916 30.90866 28.38391
#
# Velocity S-wave (km/s) = 3.54650 3.87733 3.71560
# Velocity P-wave (km/s) = 5.96168 7.09733 6.55415
#
# Compressibility (1/GPa) = 0.02591121
#
# Stress axis : x y z
#
# Youngs Moduli (GPa) = 102.79233 34.08421 76.01786
#
# Poissons Ratio (x) = 0.06484 0.42321
# Poissons Ratio (y) = 0.19556 0.43222
# Poissons Ratio (z) = 0.57227 0.19379
#
# Static dielectric constant tensor:
#      x y z
#    x 3.745010 0.000000 0.000000 
#    y 0.000000 3.979840 0.000000 
#    z 0.000000 0.000000 4.001560 
# 
# 
# High freq. dielectric constant tensor:
#      x y z
#    x 1.807540 0.000000 0.000000 
#    y 0.000000 1.799000 0.000000 
#    z 0.000000 0.000000 1.808620 
# 
# From -- ./inp_files/10098.got.cif
#   From: 2010.06.25/outbox.cif.g09.slc.cpg/sg58_6_cif.got.tgz:10098.got - 2010.06.26 21:38:00.
