data_PCOD8237867
_publ_section_title
;
Structure prediction by ZEFSAII (Michael W. Deem and Ramdas Pophale) SiO2 
 PCOD8237867
Probable space group: P N N M
;
_chemical_formula_sum "Si O2"
_cell_formula_units_Z 48
_cell_length_a 9.555103
_cell_length_b 14.994199
_cell_length_c 17.020365
_cell_angle_alpha 90.000000
_cell_angle_beta 90.000000
_cell_angle_gamma 90.000000
_cell_volume 2438.526686
_symmetry_space_group_name_H-M "P N N M"
_symmetry_group_IT_number 58
_symmetry_cell_setting 'orthorhombic'
loop_
_space_group_symop_operation_xyz
x,y,z
-x,-y,z
1/2+x,1/2-y,1/2-z
1/2-x,1/2+y,1/2-z
-x,-y,-z
x,y,-z
1/2-x,1/2+y,1/2+z
1/2+x,1/2-y,1/2+z
loop_
_atom_site_type_symbol
_atom_site_label
_atom_site_fract_x
_atom_site_fract_y
_atom_site_fract_z
Si Si1 0.812838 0.620127 0.912566
Si Si2 0.427324 0.240080 0.910572
Si Si3 0.489447 0.284109 0.590285
Si Si4 0.706546 0.221852 0.178168
Si Si5 0.222332 0.137686 0.186563
Si Si6 0.155418 0.467911 0.244607
O O1 0.666678 0.671658 0.903372
O O2 0.941286 0.687397 0.897285
O O3 0.821400 0.541122 0.849211
O O4 0.823881 0.578276 0.000000
O O5 0.567468 0.258564 0.862474
O O6 0.342865 0.154498 0.878156
O O7 0.466321 0.218464 0.000000
O O8 0.503349 0.314827 0.500000
O O9 0.328331 0.280181 0.613807
O O10 0.570194 0.354571 0.645986
O O11 0.748472 0.288015 0.247326
O O12 0.682682 0.124497 0.212650
O O13 0.234299 0.039640 0.222917
O O14 0.000000 0.500000 0.263298
#
# Coordination Sequence:
#
# PCOD8237867 Si02
#       6
#     8   8   8   8   8   8
#     4   9  20  40  66  92 127 165 205 259 318 376
#     4  10  20  40  65  90 122 165 203 250 315 367
#     4  10  21  40  64  91 125 167 207 258 319 366
#     4  12  22  40  63  95 127 160 212 262 307 373
#     4  11  22  39  64  91 125 166 205 255 312 373
#     4  12  23  38  64  97 123 164 218 257 311 375
#
# _framework density 19.684016
#
# number of rings (size 3 to 8) (size 9 to 14) (size 15 to 20)
#    0.000    1.333    5.000    4.000    0.000    1.000 
#    0.000    6.667    0.000    2.000    0.000    0.000 
#    0.000    0.000    0.000    0.000    0.000    0.000 
#
# Total GULP energy -595386.333224 kJ/mol
# GULP energy per Si atom -12403.881942 kJ/mol
# Density = 1.963921 g / cm^3
# Si number density = 19.684016 Si / 1000 Ang^3
#
#
#
# Elastic Constant Matrix: (Units=GPa)
#
#
# Indices 1 2 3 4 5 6 
#
# 1 91.0683 1.7001 12.6537 0.0000 0.0000 0.0000
# 2 1.7001 69.6582 26.2157 0.0000 0.0000 0.0000
# 3 12.6537 26.2157 96.7147 0.0000 0.0000 0.0000
# 4 0.0000 0.0000 0.0000 30.5158 0.0000 0.0000
# 5 0.0000 0.0000 0.0000 0.0000 26.7568 0.0000
# 6 0.0000 0.0000 0.0000 0.0000 0.0000 12.5256
#
#
#
# Elastic Compliance Matrix: (Units=1/GPa)
#
#
# Indices 1 2 3 4 5 6 
#
# 1 0.011190 0.000309 -0.001548 0.000000 0.000000 0.000000
# 2 0.000309 0.015995 -0.004376 0.000000 0.000000 0.000000
# 3 -0.001548 -0.004376 0.011728 0.000000 0.000000 0.000000
# 4 0.000000 0.000000 0.000000 0.032770 0.000000 0.000000
# 5 0.000000 0.000000 0.000000 0.000000 0.037374 0.000000
# 6 0.000000 0.000000 0.000000 0.000000 0.000000 0.079836
#
#
# Mechanical properties :
#
#
# Convention : Reuss Voigt Hill
#
# Bulk Modulus (GPa) = 36.12144 37.62002 36.87073
# Shear Modulus (GPa) = 23.88334 28.41777 26.15055
#
# Velocity S-wave (km/s) = 3.48708 3.80372 3.64884
# Velocity P-wave (km/s) = 5.88247 6.20037 6.04351
#
# Compressibility (1/GPa) = 0.02768439
#
# Stress axis : x y z
#
# Youngs Moduli (GPa) = 89.36492 62.51858 85.26279
#
# Poissons Ratio (x) = -0.01935 0.13198
# Poissons Ratio (y) = -0.02765 0.37313
# Poissons Ratio (z) = 0.13833 0.27359
#
# Static dielectric constant tensor:
#      x y z
#    x 3.650650 0.000000 0.000000 
#    y 0.000000 3.431250 0.000000 
#    z 0.000000 0.000000 3.866500 
# 
# 
# High freq. dielectric constant tensor:
#      x y z
#    x 1.773300 0.000000 0.000000 
#    y 0.000000 1.737070 0.000000 
#    z 0.000000 0.000000 1.786640 
# 
# From -- ./inp_files/25267.got.cif
#   From: 2010.06.25/outbox.cif.g09.slc.cpg/sg58_13_cif.got.tgz:25267.got - 2010.06.26 21:38:00.
