data_PCOD8237997
_publ_section_title
;
Structure prediction by ZEFSAII (Michael W. Deem and Ramdas Pophale) SiO2 
 PCOD8237997
Probable space group: P N N M
;
_chemical_formula_sum "Si O2"
_cell_formula_units_Z 64
_cell_length_a 18.849382
_cell_length_b 20.004584
_cell_length_c 8.397285
_cell_angle_alpha 90.000000
_cell_angle_beta 90.000000
_cell_angle_gamma 90.000000
_cell_volume 3166.398227
_symmetry_space_group_name_H-M "P N N M"
_symmetry_group_IT_number 58
_symmetry_cell_setting 'orthorhombic'
loop_
_space_group_symop_operation_xyz
x,y,z
-x,-y,z
1/2+x,1/2-y,1/2-z
1/2-x,1/2+y,1/2-z
-x,-y,-z
x,y,-z
1/2-x,1/2+y,1/2+z
1/2+x,1/2-y,1/2+z
loop_
_atom_site_type_symbol
_atom_site_label
_atom_site_fract_x
_atom_site_fract_y
_atom_site_fract_z
Si Si1 0.453744 0.562125 0.184296
Si Si2 0.317339 0.738699 0.313619
Si Si3 0.044903 0.821734 0.815577
Si Si4 0.792359 0.161131 0.812712
Si Si5 0.555806 0.054000 0.810414
Si Si6 0.805727 0.909891 0.185196
Si Si7 0.712881 0.028252 0.810435
Si Si8 0.038310 0.295773 0.686161
O O1 0.500000 0.500000 0.244228
O O2 0.495165 0.630872 0.211404
O O3 0.382716 0.558948 0.286438
O O4 0.433787 0.555752 0.000000
O O5 0.336997 0.735814 0.500000
O O6 0.247533 0.781778 0.285026
O O7 0.301419 0.664706 0.243024
O O8 0.382822 0.769297 0.218006
O O9 0.125671 0.833570 0.764402
O O10 0.021306 0.745759 0.780745
O O11 0.033509 0.838685 0.000000
O O12 0.762242 0.089843 0.756032
O O13 0.780570 0.172764 0.000000
O O14 0.633724 0.036967 0.740924
O O15 0.532745 0.127751 0.753771
O O16 0.500000 0.000000 0.742711
O O17 0.558516 0.051434 0.000000
O O18 0.746566 0.959695 0.259787
O O19 0.790699 0.905319 0.000000
O O20 0.710930 0.026137 0.000000
O O21 0.022099 0.290573 0.500000
#
# Coordination Sequence:
#
# PCOD8237997 Si02
#       8
#     8   8   8   8   8   8   8   8
#     4  11  23  37  55  82 118 155 192 242 299 355
#     4  11  22  36  58  88 119 154 199 245 292 354
#     4  11  23  38  59  87 118 155 202 247 296 359
#     4  10  21  38  60  84 113 156 198 241 295 355
#     4   9  18  33  59  91 117 149 198 250 294 347
#     4  10  21  36  58  84 113 154 196 243 292 348
#     4   9  17  34  57  82 113 150 197 241 289 347
#     4  11  21  37  62  87 119 158 196 246 304 354
#
# _framework density 20.212239
#
# number of rings (size 3 to 8) (size 9 to 14) (size 15 to 20)
#    0.000    1.750    2.500    2.250    0.000    4.500 
#    0.000    3.125    0.000    1.500    0.000    0.000 
#    0.000    0.000    0.000    0.000    0.000    0.000 
#
# Total GULP energy -793765.382147 kJ/mol
# GULP energy per Si atom -12402.584096 kJ/mol
# Density = 2.016623 g / cm^3
# Si number density = 20.212239 Si / 1000 Ang^3
#
#
#
# Elastic Constant Matrix: (Units=GPa)
#
#
# Indices 1 2 3 4 5 6 
#
# 1 134.2681 67.6738 2.9438 0.0000 0.0000 0.0000
# 2 67.6738 166.4664 8.9187 0.0000 0.0000 0.0000
# 3 2.9438 8.9187 15.8576 0.0000 0.0000 0.0000
# 4 0.0000 0.0000 0.0000 21.2078 0.0000 0.0000
# 5 0.0000 0.0000 0.0000 0.0000 22.8411 0.0000
# 6 0.0000 0.0000 0.0000 0.0000 0.0000 44.3846
#
#
#
# Elastic Compliance Matrix: (Units=1/GPa)
#
#
# Indices 1 2 3 4 5 6 
#
# 1 0.009370 -0.003831 0.000415 0.000000 0.000000 0.000000
# 2 -0.003831 0.007761 -0.003653 0.000000 0.000000 0.000000
# 3 0.000415 -0.003653 0.065039 0.000000 0.000000 0.000000
# 4 0.000000 0.000000 0.000000 0.047152 0.000000 0.000000
# 5 0.000000 0.000000 0.000000 0.000000 0.043781 0.000000
# 6 0.000000 0.000000 0.000000 0.000000 0.000000 0.022530
#
#
# Mechanical properties :
#
#
# Convention : Reuss Voigt Hill
#
# Bulk Modulus (GPa) = 14.69929 52.85163 33.77546
# Shear Modulus (GPa) = 21.51016 33.49042 27.50029
#
# Velocity S-wave (km/s) = 3.26577 4.07497 3.69260
# Velocity P-wave (km/s) = 4.63774 6.95310 5.90991
#
# Compressibility (1/GPa) = 0.06803048
#
# Stress axis : x y z
#
# Youngs Moduli (GPa) = 106.72632 128.85732 15.37540
#
# Poissons Ratio (x) = 0.49370 -0.00639
# Poissons Ratio (y) = 0.40891 0.05617
# Poissons Ratio (z) = -0.04434 0.47077
#
# Static dielectric constant tensor:
#      x y z
#    x 3.767890 0.000000 0.000000 
#    y 0.000000 4.026380 0.000000 
#    z 0.000000 0.000000 3.281300 
# 
# 
# High freq. dielectric constant tensor:
#      x y z
#    x 1.791590 0.000000 0.000000 
#    y 0.000000 1.804630 0.000000 
#    z 0.000000 0.000000 1.758390 
# 
# From -- ./inp_files/9251.got.cif
#   From: 2010.06.25/outbox.cif.g09.slc.cpg/sg58_5_cif.got.tgz:9251.got - 2010.06.26 21:38:00.
