data_PCOD8237396
_publ_section_title
;
Structure prediction by ZEFSAII (Michael W. Deem and Ramdas Pophale) SiO2 
 PCOD8237396
Probable space group: P N N M
;
_chemical_formula_sum "Si O2"
_cell_formula_units_Z 40
_cell_length_a 20.051327
_cell_length_b 11.905227
_cell_length_c 8.819762
_cell_angle_alpha 90.000000
_cell_angle_beta 90.000000
_cell_angle_gamma 90.000000
_cell_volume 2105.414774
_symmetry_space_group_name_H-M "P N N M"
_symmetry_group_IT_number 58
_symmetry_cell_setting 'orthorhombic'
loop_
_space_group_symop_operation_xyz
x,y,z
-x,-y,z
1/2+x,1/2-y,1/2-z
1/2-x,1/2+y,1/2-z
-x,-y,-z
x,y,-z
1/2-x,1/2+y,1/2+z
1/2+x,1/2-y,1/2+z
loop_
_atom_site_type_symbol
_atom_site_label
_atom_site_fract_x
_atom_site_fract_y
_atom_site_fract_z
Si Si1 0.139356 0.989336 0.321423
Si Si2 0.914449 0.809602 0.828101
Si Si3 0.730343 0.349074 0.328566
Si Si4 0.987183 0.377319 0.821873
Si Si5 0.642835 0.745829 0.323111
O O1 0.147798 0.989201 0.500000
O O2 0.121569 0.865786 0.264940
O O3 0.080143 0.075078 0.270158
O O4 0.209463 0.030810 0.245569
O O5 0.836421 0.770720 0.827731
O O6 0.960272 0.712926 0.753588
O O7 0.938010 0.836194 0.000000
O O8 0.756302 0.367791 0.500000
O O9 0.785885 0.289594 0.229126
O O10 0.000000 0.500000 0.748362
O O11 0.911985 0.340324 0.785002
O O12 0.000890 0.383964 0.000000
O O13 0.645162 0.717987 0.500000
#
# Coordination Sequence:
#
# PCOD8237396 Si02
#       5
#     8   8   8   8   8
#     4  10  20  36  57  81 112 150 195 237 289 342
#     4   8  17  36  58  81 112 149 191 234 284 340
#     4   9  19  36  57  82 114 150 190 237 290 343
#     4   9  19  36  58  85 114 152 194 234 286 352
#     4  11  21  34  58  89 119 148 191 241 290 349
#
# _framework density 18.998629999999999
#
# number of rings (size 3 to 8) (size 9 to 14) (size 15 to 20)
#    1.200    1.400    0.000    2.400    0.000    2.400 
#    0.000   10.000    0.000    4.200    0.000    0.000 
#    0.000    0.000    0.000    0.000    0.000    0.000 
#
# Total GULP energy -495668.320196 kJ/mol
# GULP energy per Si atom -12391.708005 kJ/mol
# Density = 1.895539 g / cm^3
# Si number density = 18.998630 Si / 1000 Ang^3
#
#
#
# Elastic Constant Matrix: (Units=GPa)
#
#
# Indices 1 2 3 4 5 6 
#
# 1 54.1515 17.2365 28.4958 0.0000 0.0000 0.0000
# 2 17.2365 106.5373 38.9020 0.0000 0.0000 0.0000
# 3 28.4958 38.9020 82.6761 0.0000 0.0000 0.0000
# 4 0.0000 0.0000 0.0000 22.4096 0.0000 0.0000
# 5 0.0000 0.0000 0.0000 0.0000 22.8191 0.0000
# 6 0.0000 0.0000 0.0000 0.0000 0.0000 31.2145
#
#
#
# Elastic Compliance Matrix: (Units=1/GPa)
#
#
# Indices 1 2 3 4 5 6 
#
# 1 0.022643 -0.000982 -0.007342 0.000000 0.000000 0.000000
# 2 -0.000982 0.011376 -0.005014 0.000000 0.000000 0.000000
# 3 -0.007342 -0.005014 0.016985 0.000000 0.000000 0.000000
# 4 0.000000 0.000000 0.000000 0.044624 0.000000 0.000000
# 5 0.000000 0.000000 0.000000 0.000000 0.043823 0.000000
# 6 0.000000 0.000000 0.000000 0.000000 0.000000 0.032036
#
#
# Mechanical properties :
#
#
# Convention : Reuss Voigt Hill
#
# Bulk Modulus (GPa) = 41.10652 45.84816 43.47734
# Shear Modulus (GPa) = 24.23955 25.87067 25.05511
#
# Velocity S-wave (km/s) = 3.57579 3.69414 3.63545
# Velocity P-wave (km/s) = 6.22350 6.51002 6.36837
#
# Compressibility (1/GPa) = 0.02432704
#
# Stress axis : x y z
#
# Youngs Moduli (GPa) = 44.16380 87.90201 58.87414
#
# Poissons Ratio (x) = 0.08636 0.43226
# Poissons Ratio (y) = 0.04339 0.29521
# Poissons Ratio (z) = 0.32425 0.44077
#
# Static dielectric constant tensor:
#      x y z
#    x 3.325470 0.000000 0.000000 
#    y 0.000000 3.478630 0.000000 
#    z 0.000000 0.000000 3.255320 
# 
# 
# High freq. dielectric constant tensor:
#      x y z
#    x 1.727810 0.000000 0.000000 
#    y 0.000000 1.729120 0.000000 
#    z 0.000000 0.000000 1.723210 
# 
# From -- ./inp_files/7576.got.cif
#   From: 2010.06.25/outbox.cif.g09.slc.cpg/sg58_4_cif.got.tgz:7576.got - 2010.06.26 21:38:00.
