data_PCOD8237068
_publ_section_title
;
Structure prediction by ZEFSAII (Michael W. Deem and Ramdas Pophale) SiO2 
 PCOD8237068
Probable space group: P N N M
;
_chemical_formula_sum "Si O2"
_cell_formula_units_Z 64
_cell_length_a 15.218781
_cell_length_b 24.583647
_cell_length_c 8.827315
_cell_angle_alpha 90.000000
_cell_angle_beta 90.000000
_cell_angle_gamma 90.000000
_cell_volume 3302.591078
_symmetry_space_group_name_H-M "P N N M"
_symmetry_group_IT_number 58
_symmetry_cell_setting 'orthorhombic'
loop_
_space_group_symop_operation_xyz
x,y,z
-x,-y,z
1/2+x,1/2-y,1/2-z
1/2-x,1/2+y,1/2-z
-x,-y,-z
x,y,-z
1/2-x,1/2+y,1/2+z
1/2+x,1/2-y,1/2+z
loop_
_atom_site_type_symbol
_atom_site_label
_atom_site_fract_x
_atom_site_fract_y
_atom_site_fract_z
Si Si1 0.800069 0.183814 0.320260
Si Si2 0.696197 0.455826 0.325659
Si Si3 0.118715 0.310541 0.321226
Si Si4 0.440812 0.918900 0.325869
Si Si5 0.627688 0.963286 0.674256
Si Si6 0.514452 0.721738 0.822333
Si Si7 0.864165 0.076117 0.824094
Si Si8 0.039116 0.102570 0.323019
O O1 0.792927 0.185129 0.500000
O O2 0.711620 0.208335 0.249063
O O3 0.884635 0.218824 0.261896
O O4 0.811818 0.121278 0.270423
O O5 0.678954 0.441415 0.500000
O O6 0.795396 0.440805 0.280687
O O7 0.682430 0.519193 0.291716
O O8 0.633557 0.419485 0.222603
O O9 0.126495 0.304277 0.500000
O O10 0.097759 0.372474 0.280666
O O11 0.041546 0.271771 0.253150
O O12 0.419661 0.904613 0.500000
O O13 0.545165 0.923641 0.300947
O O14 0.396300 0.975376 0.278072
O O15 0.657897 0.962247 0.500000
O O16 0.464652 0.666126 0.780359
O O17 0.519022 0.729807 0.000000
O O18 0.964601 0.070418 0.769558
O O19 0.861697 0.091991 0.000000
O O20 0.021663 0.093294 0.500000
#
# Coordination Sequence:
#
# PCOD8237068 Si02
#       8
#     8   8   8   8   8   8   8   8
#     4  10  20  37  59  82 108 144 188 230 271 328
#     4  11  22  33  49  79 114 145 179 221 274 333
#     4  11  21  36  59  85 111 142 180 229 283 329
#     4   9  19  37  58  81 107 140 182 225 268 321
#     4   9  19  36  56  77 109 146 180 221 266 321
#     4   8  19  39  57  76 108 144 181 227 277 323
#     4  10  20  34  53  80 113 143 178 227 276 325
#     4  10  20  36  56  75 104 146 187 227 271 325
#
# _framework density 19.378723000000001
#
# number of rings (size 3 to 8) (size 9 to 14) (size 15 to 20)
#    0.000    2.250    0.000    4.500    0.000    6.500 
#    2.250    8.750    0.000    0.000    0.000    0.000 
#    0.000    0.000    0.000    0.000    0.000    0.000 
#
# Total GULP energy -793676.680192 kJ/mol
# GULP energy per Si atom -12401.198128 kJ/mol
# Density = 1.933462 g / cm^3
# Si number density = 19.378723 Si / 1000 Ang^3
#
#
#
# Elastic Constant Matrix: (Units=GPa)
#
#
# Indices 1 2 3 4 5 6 
#
# 1 132.4039 44.6065 34.8090 0.0000 0.0000 0.0000
# 2 44.6065 51.0315 27.7991 0.0000 0.0000 0.0000
# 3 34.8090 27.7991 60.9141 0.0000 0.0000 0.0000
# 4 0.0000 0.0000 0.0000 19.5164 0.0000 0.0000
# 5 0.0000 0.0000 0.0000 0.0000 35.2778 0.0000
# 6 0.0000 0.0000 0.0000 0.0000 0.0000 27.3854
#
#
#
# Elastic Compliance Matrix: (Units=1/GPa)
#
#
# Indices 1 2 3 4 5 6 
#
# 1 0.010989 -0.008231 -0.002523 0.000000 0.000000 0.000000
# 2 -0.008231 0.032244 -0.010012 0.000000 0.000000 0.000000
# 3 -0.002523 -0.010012 0.022427 0.000000 0.000000 0.000000
# 4 0.000000 0.000000 0.000000 0.051239 0.000000 0.000000
# 5 0.000000 0.000000 0.000000 0.000000 0.028346 0.000000
# 6 0.000000 0.000000 0.000000 0.000000 0.000000 0.036516
#
#
# Mechanical properties :
#
#
# Convention : Reuss Voigt Hill
#
# Bulk Modulus (GPa) = 41.44399 50.97542 46.20971
# Shear Modulus (GPa) = 21.61356 25.57824 23.59590
#
# Velocity S-wave (km/s) = 3.34327 3.63700 3.49323
# Velocity P-wave (km/s) = 6.02794 6.63317 6.33779
#
# Compressibility (1/GPa) = 0.02412895
#
# Stress axis : x y z
#
# Youngs Moduli (GPa) = 91.00012 31.01343 44.58826
#
# Poissons Ratio (x) = 0.25527 0.11251
# Poissons Ratio (y) = 0.74901 0.44640
# Poissons Ratio (z) = 0.22962 0.31049
#
# Static dielectric constant tensor:
#      x y z
#    x 3.792190 0.000000 0.000000 
#    y 0.000000 3.419170 0.000000 
#    z 0.000000 0.000000 3.394480 
# 
# 
# High freq. dielectric constant tensor:
#      x y z
#    x 1.768140 0.000000 0.000000 
#    y 0.000000 1.734580 0.000000 
#    z 0.000000 0.000000 1.747180 
# 
# From -- ./inp_files/6749.got.cif
#   From: 2010.06.25/outbox.cif.g09.slc.cpg/sg58_4_cif.got.tgz:6749.got - 2010.06.26 21:38:00.
