data_PCOD8237227
_publ_section_title
;
Structure prediction by ZEFSAII (Michael W. Deem and Ramdas Pophale) SiO2 
 PCOD8237227
Probable space group: P N N M
;
_chemical_formula_sum "Si O2"
_cell_formula_units_Z 48
_cell_length_a 9.582940
_cell_length_b 29.100354
_cell_length_c 9.239049
_cell_angle_alpha 90.000000
_cell_angle_beta 90.000000
_cell_angle_gamma 90.000000
_cell_volume 2576.465382
_symmetry_space_group_name_H-M "P N N M"
_symmetry_group_IT_number 58
_symmetry_cell_setting 'orthorhombic'
loop_
_space_group_symop_operation_xyz
x,y,z
-x,-y,z
1/2+x,1/2-y,1/2-z
1/2-x,1/2+y,1/2-z
-x,-y,-z
x,y,-z
1/2-x,1/2+y,1/2+z
1/2+x,1/2-y,1/2+z
loop_
_atom_site_type_symbol
_atom_site_label
_atom_site_fract_x
_atom_site_fract_y
_atom_site_fract_z
Si Si1 0.330119 0.200702 0.669081
Si Si2 0.809782 0.629000 0.335048
Si Si3 0.623898 0.891667 0.168721
Si Si4 0.881735 0.062376 0.331964
Si Si5 0.307148 0.538907 0.830687
Si Si6 0.406192 0.772428 0.167266
O O1 0.359049 0.192468 0.500000
O O2 0.313375 0.152303 0.749101
O O3 0.455916 0.230861 0.734946
O O4 0.186173 0.227637 0.694117
O O5 0.764142 0.624145 0.500000
O O6 0.689573 0.605194 0.244100
O O7 0.818423 0.682314 0.288789
O O8 0.958500 0.604980 0.306728
O O9 0.688157 0.937726 0.235112
O O10 0.661451 0.887384 0.000000
O O11 0.855102 0.068181 0.500000
O O12 0.045902 0.063517 0.297668
O O13 0.815306 0.014095 0.281124
O O14 0.270134 0.542980 0.000000
O O15 0.453109 0.777213 0.000000
#
# Coordination Sequence:
#
# PCOD8237227 Si02
#       6
#     8   8   8   8   8   8
#     4  10  20  35  56  79 104 137 175 213 255 304
#     4   9  19  35  52  73 104 136 168 209 255 305
#     4  10  21  36  53  76 106 137 171 213 258 304
#     4   9  19  35  54  76 103 134 170 213 256 303
#     4   9  19  36  54  75 104 135 170 212 257 306
#     4   9  20  37  53  75 107 137 169 212 257 302
#
# _framework density 18.630174
#
# number of rings (size 3 to 8) (size 9 to 14) (size 15 to 20)
#    0.000    2.667    0.000    3.000    0.000    8.000 
#    0.000    8.333    0.000    0.000    0.000    0.000 
#    0.000    0.000    0.000    0.000    0.000    0.000 
#
# Total GULP energy -595266.216067 kJ/mol
# GULP energy per Si atom -12401.379501 kJ/mol
# Density = 1.858777 g / cm^3
# Si number density = 18.630174 Si / 1000 Ang^3
#
#
#
# Elastic Constant Matrix: (Units=GPa)
#
#
# Indices 1 2 3 4 5 6 
#
# 1 22.0253 -1.4589 13.1976 0.0000 0.0000 0.0000
# 2 -1.4589 26.0037 10.0749 0.0000 0.0000 0.0000
# 3 13.1976 10.0749 59.9622 0.0000 0.0000 0.0000
# 4 0.0000 0.0000 0.0000 29.5996 0.0000 0.0000
# 5 0.0000 0.0000 0.0000 0.0000 26.9706 0.0000
# 6 0.0000 0.0000 0.0000 0.0000 0.0000 35.3516
#
#
#
# Elastic Compliance Matrix: (Units=1/GPa)
#
#
# Indices 1 2 3 4 5 6 
#
# 1 0.053866 0.008146 -0.013225 0.000000 0.000000 0.000000
# 2 0.008146 0.042366 -0.008911 0.000000 0.000000 0.000000
# 3 -0.013225 -0.008911 0.021085 0.000000 0.000000 0.000000
# 4 0.000000 0.000000 0.000000 0.033784 0.000000 0.000000
# 5 0.000000 0.000000 0.000000 0.000000 0.037077 0.000000
# 6 0.000000 0.000000 0.000000 0.000000 0.000000 0.028287
#
#
# Mechanical properties :
#
#
# Convention : Reuss Voigt Hill
#
# Bulk Modulus (GPa) = 11.19356 16.84650 14.02003
# Shear Modulus (GPa) = 18.23323 24.12952 21.18138
#
# Velocity S-wave (km/s) = 3.13180 3.60277 3.37551
# Velocity P-wave (km/s) = 4.37023 5.13506 4.76801
#
# Compressibility (1/GPa) = 0.08933711
#
# Stress axis : x y z
#
# Youngs Moduli (GPa) = 18.56459 23.60397 47.42674
#
# Poissons Ratio (x) = -0.19228 0.62720
# Poissons Ratio (y) = -0.15123 0.42263
# Poissons Ratio (z) = 0.24551 0.21034
#
# Static dielectric constant tensor:
#      x y z
#    x 3.297250 0.000000 0.000000 
#    y 0.000000 3.369440 0.000000 
#    z 0.000000 0.000000 3.384300 
# 
# 
# High freq. dielectric constant tensor:
#      x y z
#    x 1.716730 0.000000 0.000000 
#    y 0.000000 1.723660 0.000000 
#    z 0.000000 0.000000 1.724170 
# 
# From -- ./inp_files/2900.got.cif
#   From: 2010.06.25/outbox.cif.g09.slc.cpg/sg58_2_cif.got.tgz:2900.got - 2010.06.26 21:38:00.
