data_PCOD8237783
_publ_section_title
;
Structure prediction by ZEFSAII (Michael W. Deem and Ramdas Pophale) SiO2 
 PCOD8237783
Probable space group: P N N M
;
_chemical_formula_sum "Si O2"
_cell_formula_units_Z 64
_cell_length_a 16.642106
_cell_length_b 21.769520
_cell_length_c 9.071406
_cell_angle_alpha 90.000000
_cell_angle_beta 90.000000
_cell_angle_gamma 90.000000
_cell_volume 3286.485662
_symmetry_space_group_name_H-M "P N N M"
_symmetry_group_IT_number 58
_symmetry_cell_setting 'orthorhombic'
loop_
_space_group_symop_operation_xyz
x,y,z
-x,-y,z
1/2+x,1/2-y,1/2-z
1/2-x,1/2+y,1/2-z
-x,-y,-z
x,y,-z
1/2-x,1/2+y,1/2+z
1/2+x,1/2-y,1/2+z
loop_
_atom_site_type_symbol
_atom_site_label
_atom_site_fract_x
_atom_site_fract_y
_atom_site_fract_z
Si Si1 0.788185 0.844990 0.328994
Si Si2 0.915222 0.751914 0.325729
Si Si3 0.048635 0.374236 0.173805
Si Si4 0.896729 0.951254 0.668304
Si Si5 0.655895 0.567841 0.327092
Si Si6 0.631123 0.906641 0.329006
Si Si7 0.834303 0.532474 0.325446
Si Si8 0.962877 0.142515 0.333871
O O1 0.811869 0.847112 0.500000
O O2 0.830476 0.782627 0.271521
O O3 0.829390 0.905938 0.262439
O O4 0.692622 0.849364 0.300546
O O5 0.915734 0.737559 0.500000
O O6 0.921227 0.689934 0.235595
O O7 0.988108 0.797402 0.280860
O O8 0.095963 0.429448 0.248108
O O9 0.955740 0.382586 0.216886
O O10 0.062267 0.376494 0.000000
O O11 0.877272 0.970618 0.500000
O O12 0.982297 0.918078 0.677157
O O13 0.896578 0.011450 0.767569
O O14 0.648003 0.570209 0.500000
O O15 0.748709 0.561268 0.278483
O O16 0.617077 0.630921 0.263538
O O17 0.633965 0.927145 0.500000
O O18 0.658734 0.962885 0.228813
O O19 0.846427 0.534401 0.500000
O O20 0.933895 0.153083 0.500000
#
# Coordination Sequence:
#
# PCOD8237783 Si02
#       8
#     8   8   8   8   8   8   8   8
#     4   8  15  32  60  86 109 146 188 228 275 336
#     4   9  19  39  62  83 113 152 193 230 275 338
#     4  11  24  40  60  87 116 149 190 238 293 343
#     4   9  16  30  54  80 109 147 189 226 274 341
#     4  11  22  33  49  80 117 149 185 233 287 333
#     4  10  20  38  64  90 113 143 188 239 291 344
#     4  11  24  40  58  84 117 153 192 237 290 343
#     4   9  19  34  55  82 110 150 194 227 273 342
#
# _framework density 19.473689
#
# number of rings (size 3 to 8) (size 9 to 14) (size 15 to 20)
#    0.000    2.250    1.250    3.375    0.000    6.500 
#    2.250    2.500    0.000    0.000    0.000    0.000 
#    0.000    0.000    0.000    0.000    0.000    0.000 
#
# Total GULP energy -793397.158009 kJ/mol
# GULP energy per Si atom -12396.830594 kJ/mol
# Density = 1.942937 g / cm^3
# Si number density = 19.473689 Si / 1000 Ang^3
#
#
#
# Elastic Constant Matrix: (Units=GPa)
#
#
# Indices 1 2 3 4 5 6 
#
# 1 109.5154 42.5978 40.0781 0.0000 0.0000 0.0000
# 2 42.5978 72.0402 30.2684 0.0000 0.0000 0.0000
# 3 40.0781 30.2684 60.2137 0.0000 0.0000 0.0000
# 4 0.0000 0.0000 0.0000 29.2276 0.0000 0.0000
# 5 0.0000 0.0000 0.0000 0.0000 -12.3186 0.0000
# 6 0.0000 0.0000 0.0000 0.0000 0.0000 22.9290
#
#
#
# Elastic Compliance Matrix: (Units=1/GPa)
#
#
# Indices 1 2 3 4 5 6 
#
# 1 0.013519 -0.005341 -0.006313 0.000000 0.000000 0.000000
# 2 -0.005341 0.019708 -0.006352 0.000000 0.000000 0.000000
# 3 -0.006313 -0.006352 0.024003 0.000000 0.000000 0.000000
# 4 0.000000 0.000000 0.000000 0.034214 0.000000 0.000000
# 5 0.000000 0.000000 0.000000 0.000000 -0.081178 0.000000
# 6 0.000000 0.000000 0.000000 0.000000 0.000000 0.043613
#
#
# Mechanical properties :
#
#
# Convention : Reuss Voigt Hill
#
# Bulk Modulus (GPa) = 47.13190 51.96199 49.54694
# Shear Modulus (GPa) = 51.56542 16.55595 34.06068
#
# Velocity S-wave (km/s) = 5.15141 2.91893 4.18672
# Velocity P-wave (km/s) = 7.72257 6.17263 6.99069
#
# Compressibility (1/GPa) = 0.02121705
#
# Stress axis : x y z
#
# Youngs Moduli (GPa) = 73.96914 50.74003 41.66211
#
# Poissons Ratio (x) = 0.27102 0.26303
# Poissons Ratio (y) = 0.39509 0.26463
# Poissons Ratio (z) = 0.46699 0.32229
#
# Static dielectric constant tensor:
#      x y z
#    x 3.756500 0.000000 0.000000 
#    y 0.000000 3.405480 0.000000 
#    z 0.000000 0.000000 3.364270 
# 
# 
# High freq. dielectric constant tensor:
#      x y z
#    x 1.767230 0.000000 0.000000 
#    y 0.000000 1.746590 0.000000 
#    z 0.000000 0.000000 1.739480 
# 
# From -- ./inp_files/8341.got.cif
#   From: 2010.06.25/outbox.cif.g09.slc.cpg/sg58_5_cif.got.tgz:8341.got - 2010.06.26 21:38:00.
