data_PCOD8237260
_publ_section_title
;
Structure prediction by ZEFSAII (Michael W. Deem and Ramdas Pophale) SiO2 
 PCOD8237260
Probable space group: P N N M
;
_chemical_formula_sum "Si O2"
_cell_formula_units_Z 64
_cell_length_a 14.256812
_cell_length_b 24.799854
_cell_length_c 9.184763
_cell_angle_alpha 90.000000
_cell_angle_beta 90.000000
_cell_angle_gamma 90.000000
_cell_volume 3247.427778
_symmetry_space_group_name_H-M "P N N M"
_symmetry_group_IT_number 58
_symmetry_cell_setting 'orthorhombic'
loop_
_space_group_symop_operation_xyz
x,y,z
-x,-y,z
1/2+x,1/2-y,1/2-z
1/2-x,1/2+y,1/2-z
-x,-y,-z
x,y,-z
1/2-x,1/2+y,1/2+z
1/2+x,1/2-y,1/2+z
loop_
_atom_site_type_symbol
_atom_site_label
_atom_site_fract_x
_atom_site_fract_y
_atom_site_fract_z
Si Si1 0.966506 0.851483 0.666185
Si Si2 0.207959 0.323714 0.836827
Si Si3 0.909049 0.567576 0.160075
Si Si4 0.240304 0.488916 0.668266
Si Si5 0.358949 0.382702 0.669315
Si Si6 0.572700 0.860015 0.329030
Si Si7 0.771936 0.903629 0.669332
Si Si8 0.046222 0.273043 0.330928
O O1 0.987800 0.867916 0.500000
O O2 0.860141 0.866257 0.707523
O O3 0.983425 0.788414 0.690562
O O4 0.035541 0.885156 0.770047
O O5 0.151130 0.378594 0.844899
O O6 0.305018 0.334667 0.753161
O O7 0.146186 0.280771 0.748282
O O8 0.229217 0.302107 0.000000
O O9 0.863346 0.525071 0.270491
O O10 0.013446 0.585581 0.209165
O O11 0.911303 0.540446 0.000000
O O12 0.228080 0.501365 0.500000
O O13 0.311898 0.440357 0.698632
O O14 0.283018 0.540891 0.744817
O O15 0.359217 0.368288 0.500000
O O16 0.561414 0.846405 0.500000
O O17 0.679484 0.870775 0.282696
O O18 0.535783 0.809217 0.238087
O O19 0.765987 0.918195 0.500000
O O20 0.058570 0.288468 0.500000
#
# Coordination Sequence:
#
# PCOD8237260 Si02
#       8
#     8   8   8   8   8   8   8   8
#     4  10  23  40  56  79 110 146 191 235 274 329
#     4   9  17  32  56  84 112 142 179 222 268 325
#     4   8  15  30  53  80 109 142 179 216 259 321
#     4  10  21  36  55  82 112 141 179 228 283 334
#     4  10  21  37  58  82 109 144 185 232 281 328
#     4   9  19  36  58  84 112 147 189 227 272 335
#     4  10  22  40  58  77 108 148 187 227 274 332
#     4  10  20  35  56  84 116 146 180 226 279 329
#
# _framework density 19.707903999999999
#
# number of rings (size 3 to 8) (size 9 to 14) (size 15 to 20)
#    0.000    2.500    0.000    2.250    0.000    8.500 
#    0.000    6.250    0.000    0.000    0.000    0.000 
#    0.000    0.000    0.000    0.000    0.000    0.000 
#
# Total GULP energy -793663.178378 kJ/mol
# GULP energy per Si atom -12400.987162 kJ/mol
# Density = 1.966305 g / cm^3
# Si number density = 19.707904 Si / 1000 Ang^3
#
#
#
# Elastic Constant Matrix: (Units=GPa)
#
#
# Indices 1 2 3 4 5 6 
#
# 1 142.0202 44.2187 66.0865 0.0000 0.0000 0.0000
# 2 44.2187 71.9545 55.8486 0.0000 0.0000 0.0000
# 3 66.0865 55.8486 119.0649 0.0000 0.0000 0.0000
# 4 0.0000 0.0000 0.0000 30.3944 0.0000 0.0000
# 5 0.0000 0.0000 0.0000 0.0000 29.5194 0.0000
# 6 0.0000 0.0000 0.0000 0.0000 0.0000 22.2816
#
#
#
# Elastic Compliance Matrix: (Units=1/GPa)
#
#
# Indices 1 2 3 4 5 6 
#
# 1 0.009850 -0.002846 -0.004132 0.000000 0.000000 0.000000
# 2 -0.002846 0.022676 -0.009057 0.000000 0.000000 0.000000
# 3 -0.004132 -0.009057 0.014941 0.000000 0.000000 0.000000
# 4 0.000000 0.000000 0.000000 0.032901 0.000000 0.000000
# 5 0.000000 0.000000 0.000000 0.000000 0.033876 0.000000
# 6 0.000000 0.000000 0.000000 0.000000 0.000000 0.044880
#
#
# Mechanical properties :
#
#
# Convention : Reuss Voigt Hill
#
# Bulk Modulus (GPa) = 64.94895 73.92746 69.43820
# Shear Modulus (GPa) = 25.46770 27.56479 26.51625
#
# Velocity S-wave (km/s) = 3.59870 3.74393 3.67203
# Velocity P-wave (km/s) = 7.09189 7.50216 7.29991
#
# Compressibility (1/GPa) = 0.01539671
#
# Stress axis : x y z
#
# Youngs Moduli (GPa) = 101.51969 44.09897 66.93106
#
# Poissons Ratio (x) = 0.12550 0.27659
# Poissons Ratio (y) = 0.28891 0.60619
# Poissons Ratio (z) = 0.41953 0.39940
#
# Static dielectric constant tensor:
#      x y z
#    x 3.705600 0.000000 0.000000 
#    y 0.000000 3.340210 0.000000 
#    z 0.000000 0.000000 3.668950 
# 
# 
# High freq. dielectric constant tensor:
#      x y z
#    x 1.770960 0.000000 0.000000 
#    y 0.000000 1.751360 0.000000 
#    z 0.000000 0.000000 1.769590 
# 
# From -- ./inp_files/6899.got.cif
#   From: 2010.06.25/outbox.cif.g09.slc.cpg/sg58_4_cif.got.tgz:6899.got - 2010.06.26 21:38:00.
