data_PCOD8237636
_publ_section_title
;
Structure prediction by ZEFSAII (Michael W. Deem and Ramdas Pophale) SiO2 
 PCOD8237636
Probable space group: P N N M
;
_chemical_formula_sum "Si O2"
_cell_formula_units_Z 64
_cell_length_a 19.548670
_cell_length_b 9.080569
_cell_length_c 18.214510
_cell_angle_alpha 90.000000
_cell_angle_beta 90.000000
_cell_angle_gamma 90.000000
_cell_volume 3233.313166
_symmetry_space_group_name_H-M "P N N M"
_symmetry_group_IT_number 58
_symmetry_cell_setting 'orthorhombic'
loop_
_space_group_symop_operation_xyz
x,y,z
-x,-y,z
1/2+x,1/2-y,1/2-z
1/2-x,1/2+y,1/2-z
-x,-y,-z
x,y,-z
1/2-x,1/2+y,1/2+z
1/2+x,1/2-y,1/2+z
loop_
_atom_site_type_symbol
_atom_site_label
_atom_site_fract_x
_atom_site_fract_y
_atom_site_fract_z
Si Si1 0.676085 0.874830 0.835938
Si Si2 0.035564 0.650581 0.080314
Si Si3 0.570674 0.077260 0.080117
Si Si4 0.692751 0.542528 0.840175
Si Si5 0.947264 0.872020 0.174758
Si Si6 0.188173 0.971089 0.166133
Si Si7 0.440051 0.621456 0.840540
Si Si8 0.324456 0.140078 0.338487
O O1 0.679630 0.709001 0.867725
O O2 0.667298 0.873337 0.748601
O O3 0.616253 0.975919 0.867178
O O4 0.746706 0.943613 0.863311
O O5 0.103133 0.607075 0.125093
O O6 0.000000 0.500000 0.063726
O O7 0.981617 0.748464 0.125148
O O8 0.052202 0.723436 0.000000
O O9 0.549326 0.235558 0.111140
O O10 0.500000 0.000000 0.068881
O O11 0.606423 0.094334 0.000000
O O12 0.688255 0.537323 0.753170
O O13 0.630505 0.446798 0.870859
O O14 0.765626 0.473639 0.866409
O O15 0.932075 0.816582 0.257272
O O16 0.878744 0.940116 0.137904
O O17 0.000000 0.000000 0.185173
O O18 0.193343 0.805486 0.135719
O O19 0.500000 0.500000 0.849626
#
# Coordination Sequence:
#
# PCOD8237636 Si02
#       8
#     8   8   8   8   8   8   8   8
#     4  10  21  36  64  89 118 156 202 251 297 357
#     4  11  26  41  56  88 128 161 205 250 302 365
#     4  11  25  41  58  87 122 151 194 246 299 361
#     4   9  19  35  58  94 123 150 199 255 299 346
#     4  10  20  37  63  91 120 154 204 254 293 352
#     4   9  18  35  57  94 121 149 202 254 298 348
#     4  10  21  37  65  93 121 154 201 247 297 366
#     4  10  20  37  61  85 122 162 200 249 300 354
#
# _framework density 19.793937
#
# number of rings (size 3 to 8) (size 9 to 14) (size 15 to 20)
#    0.000    2.000    1.250    1.500    7.000    2.500 
#    0.000    4.375    0.000    0.000    0.000    0.000 
#    0.000    0.000    0.000    0.000    0.000    0.000 
#
# Total GULP energy -793125.171222 kJ/mol
# GULP energy per Si atom -12392.580800 kJ/mol
# Density = 1.974889 g / cm^3
# Si number density = 19.793937 Si / 1000 Ang^3
#
#
#
# Elastic Constant Matrix: (Units=GPa)
#
#
# Indices 1 2 3 4 5 6 
#
# 1 131.5067 50.3813 37.9803 0.0000 0.0000 0.0000
# 2 50.3813 127.7326 45.6156 0.0000 0.0000 0.0000
# 3 37.9803 45.6156 68.7722 0.0000 0.0000 0.0000
# 4 0.0000 0.0000 0.0000 11.0052 0.0000 0.0000
# 5 0.0000 0.0000 0.0000 0.0000 21.4061 0.0000
# 6 0.0000 0.0000 0.0000 0.0000 0.0000 43.9153
#
#
#
# Elastic Compliance Matrix: (Units=1/GPa)
#
#
# Indices 1 2 3 4 5 6 
#
# 1 0.009613 -0.002484 -0.003661 0.000000 0.000000 0.000000
# 2 -0.002484 0.010901 -0.005858 0.000000 0.000000 0.000000
# 3 -0.003661 -0.005858 0.020449 0.000000 0.000000 0.000000
# 4 0.000000 0.000000 0.000000 0.090866 0.000000 0.000000
# 5 0.000000 0.000000 0.000000 0.000000 0.046716 0.000000
# 6 0.000000 0.000000 0.000000 0.000000 0.000000 0.022771
#
#
# Mechanical properties :
#
#
# Convention : Reuss Voigt Hill
#
# Bulk Modulus (GPa) = 58.98037 66.21843 62.59940
# Shear Modulus (GPa) = 21.64732 28.20094 24.92413
#
# Velocity S-wave (km/s) = 3.31060 3.77865 3.55234
# Velocity P-wave (km/s) = 6.66898 7.25011 6.96561
#
# Compressibility (1/GPa) = 0.01695479
#
# Stress axis : x y z
#
# Youngs Moduli (GPa) = 104.02222 91.73593 48.90316
#
# Poissons Ratio (x) = 0.22789 0.17905
# Poissons Ratio (y) = 0.25842 0.28650
# Poissons Ratio (z) = 0.38086 0.53743
#
# Static dielectric constant tensor:
#      x y z
#    x 3.764760 0.000000 0.000000 
#    y 0.000000 3.639860 0.000000 
#    z 0.000000 0.000000 3.611720 
# 
# 
# High freq. dielectric constant tensor:
#      x y z
#    x 1.785240 0.000000 0.000000 
#    y 0.000000 1.783520 0.000000 
#    z 0.000000 0.000000 1.737470 
# 
# From -- ./inp_files/30292.got.cif
#   From: 2010.06.25/outbox.cif.g09.slc.cpg/sg58_16_cif.got.tgz:30292.got - 2010.06.26 21:38:00.
