data_PCOD8237560
_publ_section_title
;
Structure prediction by ZEFSAII (Michael W. Deem and Ramdas Pophale) SiO2 
 PCOD8237560
Probable space group: P N N M
;
_chemical_formula_sum "Si O2"
_cell_formula_units_Z 64
_cell_length_a 24.947582
_cell_length_b 15.235601
_cell_length_c 9.185876
_cell_angle_alpha 90.000000
_cell_angle_beta 90.000000
_cell_angle_gamma 90.000000
_cell_volume 3491.472517
_symmetry_space_group_name_H-M "P N N M"
_symmetry_group_IT_number 58
_symmetry_cell_setting 'orthorhombic'
loop_
_space_group_symop_operation_xyz
x,y,z
-x,-y,z
1/2+x,1/2-y,1/2-z
1/2-x,1/2+y,1/2-z
-x,-y,-z
x,y,-z
1/2-x,1/2+y,1/2+z
1/2+x,1/2-y,1/2+z
loop_
_atom_site_type_symbol
_atom_site_label
_atom_site_fract_x
_atom_site_fract_y
_atom_site_fract_z
Si Si1 0.056858 0.810873 0.170764
Si Si2 0.219225 0.027213 0.164934
Si Si3 0.648042 0.195134 0.829815
Si Si4 0.333722 0.997452 0.829217
Si Si5 0.757702 0.772303 0.835809
Si Si6 0.395504 0.492067 0.673727
Si Si7 0.065635 0.179582 0.170658
Si Si8 0.362467 0.185575 0.171389
O O1 0.073218 0.906856 0.231782
O O2 0.090864 0.735870 0.247003
O O3 0.995004 0.793864 0.207450
O O4 0.068105 0.806190 0.000000
O O5 0.216022 0.132063 0.171612
O O6 0.273811 0.993498 0.242645
O O7 0.165122 0.989596 0.239310
O O8 0.218766 0.993491 0.000000
O O9 0.634440 0.092350 0.798199
O O10 0.708277 0.211467 0.772377
O O11 0.603890 0.252322 0.750465
O O12 0.646657 0.216108 0.000000
O O13 0.365424 0.083701 0.773930
O O14 0.323846 0.013187 0.000000
O O15 0.695575 0.774365 0.786651
O O16 0.762291 0.735594 0.000000
O O17 0.395012 0.493562 0.500000
O O18 0.424771 0.580621 0.728139
O O19 0.077992 0.186274 0.000000
O O20 0.372504 0.193067 0.000000
#
# Coordination Sequence:
#
# PCOD8237560 Si02
#       8
#     8   8   8   8   8   8   8   8
#     4  10  21  34  55  82 104 133 180 229 264 299
#     4   8  13  26  50  75  99 132 169 204 245 306
#     4  11  21  32  53  82 107 135 177 225 264 300
#     4   8  17  32  50  75 105 138 176 213 255 310
#     4   9  17  32  53  76 104 140 173 204 257 323
#     4   9  16  29  53  79 103 137 177 212 251 311
#     4  10  20  37  55  75 107 143 178 215 260 319
#     4   9  19  37  57  75 105 144 177 212 262 321
#
# _framework density 18.330373999999999
#
# number of rings (size 3 to 8) (size 9 to 14) (size 15 to 20)
#    0.000    2.750    1.250    2.250    1.750    2.500 
#    0.000    2.500    0.000    6.750    0.000    0.000 
#    0.000    0.000    0.000    0.000    0.000    0.000 
#
# Total GULP energy -793213.086166 kJ/mol
# GULP energy per Si atom -12393.954471 kJ/mol
# Density = 1.828865 g / cm^3
# Si number density = 18.330374 Si / 1000 Ang^3
#
#
#
# Elastic Constant Matrix: (Units=GPa)
#
#
# Indices 1 2 3 4 5 6 
#
# 1 95.9016 68.4948 38.0904 0.0000 0.0000 0.0000
# 2 68.4948 128.6811 40.3359 0.0000 0.0000 0.0000
# 3 38.0904 40.3359 38.4856 0.0000 0.0000 0.0000
# 4 0.0000 0.0000 0.0000 23.6398 0.0000 0.0000
# 5 0.0000 0.0000 0.0000 0.0000 40.3723 0.0000
# 6 0.0000 0.0000 0.0000 0.0000 0.0000 26.4630
#
#
#
# Elastic Compliance Matrix: (Units=1/GPa)
#
#
# Indices 1 2 3 4 5 6 
#
# 1 0.020511 -0.006783 -0.013192 0.000000 0.000000 0.000000
# 2 -0.006783 0.013816 -0.007767 0.000000 0.000000 0.000000
# 3 -0.013192 -0.007767 0.047181 0.000000 0.000000 0.000000
# 4 0.000000 0.000000 0.000000 0.042302 0.000000 0.000000
# 5 0.000000 0.000000 0.000000 0.000000 0.024769 0.000000
# 6 0.000000 0.000000 0.000000 0.000000 0.000000 0.037789
#
#
# Mechanical properties :
#
#
# Convention : Reuss Voigt Hill
#
# Bulk Modulus (GPa) = 38.42523 61.87894 50.15208
# Shear Modulus (GPa) = 19.95794 25.83816 22.89805
#
# Velocity S-wave (km/s) = 3.30326 3.75851 3.53822
# Velocity P-wave (km/s) = 5.96295 7.25714 6.64165
#
# Compressibility (1/GPa) = 0.02602457
#
# Stress axis : x y z
#
# Youngs Moduli (GPa) = 48.75372 72.37859 21.19499
#
# Poissons Ratio (x) = 0.49093 0.27960
# Poissons Ratio (y) = 0.33068 0.16463
# Poissons Ratio (z) = 0.64315 0.56219
#
# Static dielectric constant tensor:
#      x y z
#    x 3.405010 0.000000 0.000000 
#    y 0.000000 3.439200 0.000000 
#    z 0.000000 0.000000 2.957240 
# 
# 
# High freq. dielectric constant tensor:
#      x y z
#    x 1.711630 0.000000 0.000000 
#    y 0.000000 1.713460 0.000000 
#    z 0.000000 0.000000 1.664160 
# 
# From -- ./inp_files/9944.got.cif
#   From: 2010.06.25/outbox.cif.g09.slc.cpg/sg58_5_cif.got.tgz:9944.got - 2010.06.26 21:38:00.
