data_PCOD8237089
_publ_section_title
;
Structure prediction by ZEFSAII (Michael W. Deem and Ramdas Pophale) SiO2 
 PCOD8237089
Probable space group: P N N M
;
_chemical_formula_sum "Si O2"
_cell_formula_units_Z 56
_cell_length_a 16.754101
_cell_length_b 9.701049
_cell_length_c 17.220928
_cell_angle_alpha 90.000000
_cell_angle_beta 90.000000
_cell_angle_gamma 90.000000
_cell_volume 2798.957979
_symmetry_space_group_name_H-M "P N N M"
_symmetry_group_IT_number 58
_symmetry_cell_setting 'orthorhombic'
loop_
_space_group_symop_operation_xyz
x,y,z
-x,-y,z
1/2+x,1/2-y,1/2-z
1/2-x,1/2+y,1/2-z
-x,-y,-z
x,y,-z
1/2-x,1/2+y,1/2+z
1/2+x,1/2-y,1/2+z
loop_
_atom_site_type_symbol
_atom_site_label
_atom_site_fract_x
_atom_site_fract_y
_atom_site_fract_z
Si Si1 0.869474 0.242252 0.908443
Si Si2 0.194799 0.752739 0.589367
Si Si3 0.445095 0.630645 0.852490
Si Si4 0.774286 0.944254 0.407906
Si Si5 0.660094 0.431027 0.588456
Si Si6 0.019289 0.159286 0.178001
Si Si7 0.534369 0.862928 0.087467
O O1 0.804166 0.357026 0.882658
O O2 0.951905 0.259907 0.859563
O O3 0.836937 0.090758 0.885871
O O4 0.888089 0.256018 0.000000
O O5 0.175182 0.780820 0.500000
O O6 0.251668 0.623853 0.602493
O O7 0.111645 0.706050 0.630429
O O8 0.234230 0.895949 0.619109
O O9 0.500000 0.500000 0.872869
O O10 0.351212 0.604954 0.859690
O O11 0.468726 0.690674 0.768243
O O12 0.464894 0.749456 0.913878
O O13 0.788186 0.925964 0.500000
O O14 0.632079 0.420314 0.500000
O O15 0.603525 0.325121 0.634782
O O16 0.000000 0.000000 0.162639
O O17 0.500000 0.000000 0.130047
O O18 0.558760 0.905052 0.000000
#
# Coordination Sequence:
#
# PCOD8237089 Si02
#       7
#     8   8   8   8   8   8   8
#     4   9  18  34  59  84 108 141 189 242 278 326
#     4   9  18  33  52  80 109 137 176 226 280 329
#     4  11  21  36  55  78 112 152 186 220 275 336
#     4  10  20  34  54  82 111 143 187 230 278 336
#     4   9  17  33  57  80 105 140 182 232 284 329
#     4   9  19  36  55  80 109 143 189 229 281 338
#     4  10  21  35  54  78 109 145 183 226 269 323
#
# _framework density 20.007444
#
# number of rings (size 3 to 8) (size 9 to 14) (size 15 to 20)
#    0.000    2.429    1.429    0.857    2.000    2.286 
#    2.571    2.143    0.000    3.429    0.000    0.000 
#    0.000    0.000    0.000    0.000    0.000    0.000 
#
# Total GULP energy -693898.775391 kJ/mol
# GULP energy per Si atom -12391.049561 kJ/mol
# Density = 1.996191 g / cm^3
# Si number density = 20.007444 Si / 1000 Ang^3
#
#
#
# Elastic Constant Matrix: (Units=GPa)
#
#
# Indices 1 2 3 4 5 6 
#
# 1 85.1178 50.1855 22.6317 0.0000 0.0000 0.0000
# 2 50.1855 114.8980 19.9712 0.0000 0.0000 0.0000
# 3 22.6317 19.9712 38.5467 0.0000 0.0000 0.0000
# 4 0.0000 0.0000 0.0000 12.9222 0.0000 0.0000
# 5 0.0000 0.0000 0.0000 0.0000 20.3160 0.0000
# 6 0.0000 0.0000 0.0000 0.0000 0.0000 37.5589
#
#
#
# Elastic Compliance Matrix: (Units=1/GPa)
#
#
# Indices 1 2 3 4 5 6 
#
# 1 0.017336 -0.006377 -0.006874 0.000000 0.000000 0.000000
# 2 -0.006377 0.011911 -0.002427 0.000000 0.000000 0.000000
# 3 -0.006874 -0.002427 0.031236 0.000000 0.000000 0.000000
# 4 0.000000 0.000000 0.000000 0.077386 0.000000 0.000000
# 5 0.000000 0.000000 0.000000 0.000000 0.049222 0.000000
# 6 0.000000 0.000000 0.000000 0.000000 0.000000 0.026625
#
#
# Mechanical properties :
#
#
# Convention : Reuss Voigt Hill
#
# Bulk Modulus (GPa) = 34.33351 47.12660 40.73006
# Shear Modulus (GPa) = 19.62462 23.87769 21.75115
#
# Velocity S-wave (km/s) = 3.13528 3.45837 3.30078
# Velocity P-wave (km/s) = 5.50493 6.28910 5.91003
#
# Compressibility (1/GPa) = 0.02912606
#
# Stress axis : x y z
#
# Youngs Moduli (GPa) = 57.68235 83.95832 32.01436
#
# Poissons Ratio (x) = 0.53543 0.22008
# Poissons Ratio (y) = 0.36786 0.07769
# Poissons Ratio (z) = 0.39654 0.20374
#
# Static dielectric constant tensor:
#      x y z
#    x 3.716070 0.000000 0.000000 
#    y 0.000000 3.659150 0.000000 
#    z 0.000000 0.000000 3.313290 
# 
# 
# High freq. dielectric constant tensor:
#      x y z
#    x 1.785870 0.000000 0.000000 
#    y 0.000000 1.771840 0.000000 
#    z 0.000000 0.000000 1.746730 
# 
# From -- ./inp_files/30011.got.cif
#   From: 2010.06.25/outbox.cif.g09.slc.cpg/sg58_16_cif.got.tgz:30011.got - 2010.06.26 21:38:00.
