data_PCOD8237524
_publ_section_title
;
Structure prediction by ZEFSAII (Michael W. Deem and Ramdas Pophale) SiO2 
 PCOD8237524
Probable space group: P N N M
;
_chemical_formula_sum "Si O2"
_cell_formula_units_Z 64
_cell_length_a 10.897540
_cell_length_b 32.780432
_cell_length_c 9.021345
_cell_angle_alpha 90.000000
_cell_angle_beta 90.000000
_cell_angle_gamma 90.000000
_cell_volume 3222.659611
_symmetry_space_group_name_H-M "P N N M"
_symmetry_group_IT_number 58
_symmetry_cell_setting 'orthorhombic'
loop_
_space_group_symop_operation_xyz
x,y,z
-x,-y,z
1/2+x,1/2-y,1/2-z
1/2-x,1/2+y,1/2-z
-x,-y,-z
x,y,-z
1/2-x,1/2+y,1/2+z
1/2+x,1/2-y,1/2+z
loop_
_atom_site_type_symbol
_atom_site_label
_atom_site_fract_x
_atom_site_fract_y
_atom_site_fract_z
Si Si1 0.904220 0.147040 0.327177
Si Si2 0.489161 0.193116 0.674467
Si Si3 0.518578 0.283098 0.335613
Si Si4 0.355654 0.596665 0.826520
Si Si5 0.763082 0.334162 0.333101
Si Si6 0.147382 0.382352 0.175378
Si Si7 0.379499 0.974099 0.675811
Si Si8 0.138906 0.011782 0.824212
O O1 0.892243 0.153839 0.500000
O O2 0.783961 0.125110 0.260790
O O3 0.919872 0.192622 0.263003
O O4 0.014727 0.116913 0.287270
O O5 0.467282 0.188014 0.500000
O O6 0.549010 0.236838 0.715377
O O7 0.363657 0.194904 0.763376
O O8 0.565080 0.154595 0.738071
O O9 0.462278 0.281779 0.500000
O O10 0.642702 0.307586 0.330970
O O11 0.247928 0.626774 0.774581
O O12 0.339883 0.557527 0.726122
O O13 0.340964 0.586263 0.000000
O O14 0.795342 0.348218 0.500000
O O15 0.096531 0.426885 0.222248
O O16 0.151885 0.379669 0.000000
O O17 0.362308 0.979240 0.500000
O O18 0.500000 0.000000 0.728743
O O19 0.249656 0.986201 0.750141
O O20 0.150645 0.007230 0.000000
O O21 0.000000 0.000000 0.771463
#
# Coordination Sequence:
#
# PCOD8237524 Si02
#       8
#     8   8   8   8   8   8   8   8
#     4   9  18  34  59  85 112 149 190 236 286 340
#     4  10  21  36  56  80 111 151 191 232 283 347
#     4   9  20  36  54  80 113 149 186 234 290 338
#     4  10  20  36  61  89 116 150 193 241 289 344
#     4  10  21  37  56  82 115 149 189 236 289 347
#     4   9  19  36  58  83 113 148 190 236 287 348
#     4  10  22  40  63  91 120 156 203 254 308 368
#     4  11  24  40  61  91 125 161 199 249 308 361
#
# _framework density 19.859373000000001
#
# number of rings (size 3 to 8) (size 9 to 14) (size 15 to 20)
#    0.000    2.250    0.000    1.875    3.500    3.750 
#    0.000    1.875    0.000    0.000    0.000    0.000 
#    0.000    0.000    0.000    0.000    0.000    0.000 
#
# Total GULP energy -793233.554546 kJ/mol
# GULP energy per Si atom -12394.274290 kJ/mol
# Density = 1.981417 g / cm^3
# Si number density = 19.859373 Si / 1000 Ang^3
#
#
#
# Elastic Constant Matrix: (Units=GPa)
#
#
# Indices 1 2 3 4 5 6 
#
# 1 52.7542 27.9828 23.4923 0.0000 0.0000 0.0000
# 2 27.9828 143.0550 24.6223 0.0000 0.0000 0.0000
# 3 23.4923 24.6223 36.2192 0.0000 0.0000 0.0000
# 4 0.0000 0.0000 0.0000 29.4872 0.0000 0.0000
# 5 0.0000 0.0000 0.0000 0.0000 23.8831 0.0000
# 6 0.0000 0.0000 0.0000 0.0000 0.0000 14.7290
#
#
#
# Elastic Compliance Matrix: (Units=1/GPa)
#
#
# Indices 1 2 3 4 5 6 
#
# 1 0.027492 -0.002614 -0.016054 0.000000 0.000000 0.000000
# 2 -0.002614 0.008165 -0.003855 0.000000 0.000000 0.000000
# 3 -0.016054 -0.003855 0.040644 0.000000 0.000000 0.000000
# 4 0.000000 0.000000 0.000000 0.033913 0.000000 0.000000
# 5 0.000000 0.000000 0.000000 0.000000 0.041871 0.000000
# 6 0.000000 0.000000 0.000000 0.000000 0.000000 0.067893
#
#
# Mechanical properties :
#
#
# Convention : Reuss Voigt Hill
#
# Bulk Modulus (GPa) = 31.99701 42.69149 37.34425
# Shear Modulus (GPa) = 18.15258 24.01525 21.08391
#
# Velocity S-wave (km/s) = 3.02662 3.48122 3.26185
# Velocity P-wave (km/s) = 5.32547 6.14020 5.74729
#
# Compressibility (1/GPa) = 0.03125292
#
# Stress axis : x y z
#
# Youngs Moduli (GPa) = 36.37438 122.47016 24.60416
#
# Poissons Ratio (x) = 0.32019 0.39500
# Poissons Ratio (y) = 0.09510 0.09485
# Poissons Ratio (z) = 0.58397 0.47214
#
# Static dielectric constant tensor:
#      x y z
#    x 3.870750 0.000000 0.000000 
#    y 0.000000 3.923760 0.000000 
#    z 0.000000 0.000000 3.549060 
# 
# 
# High freq. dielectric constant tensor:
#      x y z
#    x 1.773440 0.000000 0.000000 
#    y 0.000000 1.788390 0.000000 
#    z 0.000000 0.000000 1.755310 
# 
# From -- ./inp_files/4843.got.cif
#   From: 2010.06.25/outbox.cif.g09.slc.cpg/sg58_3_cif.got.tgz:4843.got - 2010.06.26 21:38:00.
