data_PCOD8237321
_publ_section_title
;
Structure prediction by ZEFSAII (Michael W. Deem and Ramdas Pophale) SiO2 
 PCOD8237321
Probable space group: P N N M
;
_chemical_formula_sum "Si O2"
_cell_formula_units_Z 56
_cell_length_a 17.098914
_cell_length_b 11.721804
_cell_length_c 14.314692
_cell_angle_alpha 90.000000
_cell_angle_beta 90.000000
_cell_angle_gamma 90.000000
_cell_volume 2869.095414
_symmetry_space_group_name_H-M "P N N M"
_symmetry_group_IT_number 58
_symmetry_cell_setting 'orthorhombic'
loop_
_space_group_symop_operation_xyz
x,y,z
-x,-y,z
1/2+x,1/2-y,1/2-z
1/2-x,1/2+y,1/2-z
-x,-y,-z
x,y,-z
1/2-x,1/2+y,1/2+z
1/2+x,1/2-y,1/2+z
loop_
_atom_site_type_symbol
_atom_site_label
_atom_site_fract_x
_atom_site_fract_y
_atom_site_fract_z
Si Si1 0.340278 0.729239 0.896707
Si Si2 0.648093 0.971099 0.712816
Si Si3 0.084254 0.456441 0.397348
Si Si4 0.048469 0.700763 0.106425
Si Si5 0.193255 0.099599 0.770502
Si Si6 0.368332 0.795184 0.390868
Si Si7 0.684561 0.623454 0.392868
O O1 0.362472 0.635837 0.817232
O O2 0.260559 0.799652 0.873487
O O3 0.411982 0.819062 0.895217
O O4 0.333519 0.672569 0.000000
O O5 0.643310 0.991726 0.823437
O O6 0.574202 0.903781 0.671754
O O7 0.726133 0.896229 0.710643
O O8 0.657696 0.088128 0.657171
O O9 0.108340 0.501988 0.500000
O O10 0.000000 0.500000 0.368230
O O11 0.104230 0.808269 0.122778
O O12 0.959286 0.733612 0.130307
O O13 0.055285 0.657159 0.000000
O O14 0.186071 0.195161 0.850330
O O15 0.177850 0.977652 0.816951
O O16 0.351541 0.805315 0.500000
O O17 0.687919 0.576957 0.500000
#
# Coordination Sequence:
#
# PCOD8237321 Si02
#       7
#     8   8   8   8   8   8   8
#     4  10  20  37  56  82 118 156 201 245 293 350
#     4  12  22  36  62  87 123 156 199 248 302 354
#     4  10  20  35  58  85 112 149 199 250 293 337
#     4  10  22  40  63  90 123 159 196 246 309 368
#     4  12  22  36  58  88 121 160 198 240 291 362
#     4  11  24  40  61  94 124 153 195 252 309 358
#     4  10  20  37  59  83 116 160 199 238 294 362
#
# _framework density 19.518346999999999
#
# number of rings (size 3 to 8) (size 9 to 14) (size 15 to 20)
#    0.000    1.286    4.286    2.143    0.000    2.857 
#    0.000    2.143    0.000    0.000    0.000    1.000 
#    0.000    0.000    0.000    0.000    0.000    0.000 
#
# Total GULP energy -694018.188071 kJ/mol
# GULP energy per Si atom -12393.181930 kJ/mol
# Density = 1.947392 g / cm^3
# Si number density = 19.518347 Si / 1000 Ang^3
#
#
#
# Elastic Constant Matrix: (Units=GPa)
#
#
# Indices 1 2 3 4 5 6 
#
# 1 69.5538 26.1481 21.4211 0.0000 0.0000 0.0000
# 2 26.1481 81.0294 56.1172 0.0000 0.0000 0.0000
# 3 21.4211 56.1172 133.9993 0.0000 0.0000 0.0000
# 4 0.0000 0.0000 0.0000 38.8946 0.0000 0.0000
# 5 0.0000 0.0000 0.0000 0.0000 29.3695 0.0000
# 6 0.0000 0.0000 0.0000 0.0000 0.0000 26.4011
#
#
#
# Elastic Compliance Matrix: (Units=1/GPa)
#
#
# Indices 1 2 3 4 5 6 
#
# 1 0.016393 -0.004895 -0.000571 0.000000 0.000000 0.000000
# 2 -0.004895 0.018844 -0.007109 0.000000 0.000000 0.000000
# 3 -0.000571 -0.007109 0.010531 0.000000 0.000000 0.000000
# 4 0.000000 0.000000 0.000000 0.025710 0.000000 0.000000
# 5 0.000000 0.000000 0.000000 0.000000 0.034049 0.000000
# 6 0.000000 0.000000 0.000000 0.000000 0.000000 0.037877
#
#
# Mechanical properties :
#
#
# Convention : Reuss Voigt Hill
#
# Bulk Modulus (GPa) = 48.49855 54.66169 51.58012
# Shear Modulus (GPa) = 28.50168 30.99277 29.74723
#
# Velocity S-wave (km/s) = 3.82547 3.98914 3.90816
# Velocity P-wave (km/s) = 6.66437 7.02024 6.84462
#
# Compressibility (1/GPa) = 0.02061917
#
# Stress axis : x y z
#
# Youngs Moduli (GPa) = 61.00052 53.06643 94.95564
#
# Poissons Ratio (x) = 0.25975 0.05420
# Poissons Ratio (y) = 0.29859 0.67506
# Poissons Ratio (z) = 0.03482 0.37726
#
# Static dielectric constant tensor:
#      x y z
#    x 3.643960 0.000000 0.000000 
#    y 0.000000 3.470770 0.000000 
#    z 0.000000 0.000000 3.824250 
# 
# 
# High freq. dielectric constant tensor:
#      x y z
#    x 1.745910 0.000000 0.000000 
#    y 0.000000 1.743670 0.000000 
#    z 0.000000 0.000000 1.782770 
# 
# From -- ./inp_files/22223.got.cif
#   From: 2010.06.25/outbox.cif.g09.slc.cpg/sg58_12_cif.got.tgz:22223.got - 2010.06.26 21:38:00.
