data_PCOD8237012
_publ_section_title
;
Structure prediction by ZEFSAII (Michael W. Deem and Ramdas Pophale) SiO2 
 PCOD8237012
Probable space group: P N N M
;
_chemical_formula_sum "Si O2"
_cell_formula_units_Z 64
_cell_length_a 15.693767
_cell_length_b 15.985062
_cell_length_c 14.976325
_cell_angle_alpha 90.000000
_cell_angle_beta 90.000000
_cell_angle_gamma 90.000000
_cell_volume 3757.048329
_symmetry_space_group_name_H-M "P N N M"
_symmetry_group_IT_number 58
_symmetry_cell_setting 'orthorhombic'
loop_
_space_group_symop_operation_xyz
x,y,z
-x,-y,z
1/2+x,1/2-y,1/2-z
1/2-x,1/2+y,1/2-z
-x,-y,-z
x,y,-z
1/2-x,1/2+y,1/2+z
1/2+x,1/2-y,1/2+z
loop_
_atom_site_type_symbol
_atom_site_label
_atom_site_fract_x
_atom_site_fract_y
_atom_site_fract_z
Si Si1 0.882816 0.923961 0.250747
Si Si2 0.317192 0.684342 0.897055
Si Si3 0.421158 0.385283 0.245158
Si Si4 0.320032 0.318214 0.400141
Si Si5 0.741569 0.380709 0.395406
Si Si6 0.377541 0.254675 0.103584
Si Si7 0.449114 0.822794 0.894415
Si Si8 0.325745 0.954734 0.102063
O O1 0.824067 0.897303 0.334822
O O2 0.846174 0.883123 0.159735
O O3 0.977930 0.890416 0.263512
O O4 0.879471 0.023807 0.245963
O O5 0.226275 0.729446 0.883029
O O6 0.392542 0.744782 0.862678
O O7 0.329515 0.657603 0.000000
O O8 0.397669 0.330096 0.331843
O O9 0.380955 0.340523 0.158423
O O10 0.358201 0.320353 0.500000
O O11 0.253080 0.392370 0.387506
O O12 0.720016 0.394037 0.500000
O O13 0.788580 0.292490 0.379468
O O14 0.801735 0.455439 0.356068
O O15 0.453476 0.191688 0.134328
O O16 0.389213 0.278404 0.000000
O O17 0.409519 0.909692 0.854096
O O18 0.437928 0.829245 0.000000
O O19 0.346913 0.973962 0.000000
#
# Coordination Sequence:
#
# PCOD8237012 Si02
#       8
#     8   8   8   8   8   8   8   8
#     4  11  22  33  48  72 101 133 167 198 235 289
#     4   9  17  32  53  71  91 124 164 204 241 277
#     4  11  22  33  48  72 101 133 167 198 235 289
#     4   9  17  32  53  71  91 124 164 204 241 277
#     4  10  20  34  51  72 101 131 161 202 250 296
#     4  10  20  34  51  72 101 131 161 202 250 296
#     4   8  14  27  48  71  93 118 152 196 244 288
#     4   8  14  27  48  71  93 118 152 196 244 288
#
# _framework density 17.034648000000001
#
# number of rings (size 3 to 8) (size 9 to 14) (size 15 to 20)
#    0.000    2.500    2.500    2.250    0.000    1.500 
#    0.000    5.000    0.000    0.000    0.000    0.000 
#    0.000    0.000    0.000   16.500    0.000    0.250 
#
# Total GULP energy -793206.043037 kJ/mol
# GULP energy per Si atom -12393.844422 kJ/mol
# Density = 1.699588 g / cm^3
# Si number density = 17.034648 Si / 1000 Ang^3
#
#
#
# Elastic Constant Matrix: (Units=GPa)
#
#
# Indices 1 2 3 4 5 6 
#
# 1 41.1019 36.5939 35.4018 0.0000 0.0000 0.0000
# 2 36.5939 59.7269 44.1591 0.0000 0.0000 0.0000
# 3 35.4018 44.1591 87.5551 0.0000 0.0000 0.0000
# 4 0.0000 0.0000 0.0000 25.7090 0.0000 0.0000
# 5 0.0000 0.0000 0.0000 0.0000 25.2085 0.0000
# 6 0.0000 0.0000 0.0000 0.0000 0.0000 21.8726
#
#
#
# Elastic Compliance Matrix: (Units=1/GPa)
#
#
# Indices 1 2 3 4 5 6 
#
# 1 0.057430 -0.028732 -0.008730 0.000000 0.000000 0.000000
# 2 -0.028732 0.041074 -0.009098 0.000000 0.000000 0.000000
# 3 -0.008730 -0.009098 0.019540 0.000000 0.000000 0.000000
# 4 0.000000 0.000000 0.000000 0.038897 0.000000 0.000000
# 5 0.000000 0.000000 0.000000 0.000000 0.039669 0.000000
# 6 0.000000 0.000000 0.000000 0.000000 0.000000 0.045719
#
#
# Mechanical properties :
#
#
# Convention : Reuss Voigt Hill
#
# Bulk Modulus (GPa) = 40.12373 46.74373 43.43373
# Shear Modulus (GPa) = 14.54516 19.37328 16.95922
#
# Velocity S-wave (km/s) = 2.92525 3.37603 3.15869
# Velocity P-wave (km/s) = 5.91733 6.53427 6.23344
#
# Compressibility (1/GPa) = 0.02492291
#
# Stress axis : x y z
#
# Youngs Moduli (GPa) = 17.41254 24.34653 51.17731
#
# Poissons Ratio (x) = 0.69953 0.44676
# Poissons Ratio (y) = 0.50030 0.46563
# Poissons Ratio (z) = 0.15201 0.22151
#
# Static dielectric constant tensor:
#      x y z
#    x 3.097070 0.000000 0.000000 
#    y 0.000000 3.198350 0.000000 
#    z 0.000000 0.000000 2.993330 
# 
# 
# High freq. dielectric constant tensor:
#      x y z
#    x 1.644110 0.000000 0.000000 
#    y 0.000000 1.651510 0.000000 
#    z 0.000000 0.000000 1.632160 
# 
# From -- ./inp_files/22432.got.cif
#   From: 2010.06.25/outbox.cif.g09.slc.cpg/sg58_12_cif.got.tgz:22432.got - 2010.06.26 21:38:00.
