data_PCOD8237488
_publ_section_title
;
Structure prediction by ZEFSAII (Michael W. Deem and Ramdas Pophale) SiO2 
 PCOD8237488
Probable space group: P N N M
;
_chemical_formula_sum "Si O2"
_cell_formula_units_Z 64
_cell_length_a 23.663436
_cell_length_b 10.522367
_cell_length_c 12.940885
_cell_angle_alpha 90.000000
_cell_angle_beta 90.000000
_cell_angle_gamma 90.000000
_cell_volume 3222.220294
_symmetry_space_group_name_H-M "P N N M"
_symmetry_group_IT_number 58
_symmetry_cell_setting 'orthorhombic'
loop_
_space_group_symop_operation_xyz
x,y,z
-x,-y,z
1/2+x,1/2-y,1/2-z
1/2-x,1/2+y,1/2-z
-x,-y,-z
x,y,-z
1/2-x,1/2+y,1/2+z
1/2+x,1/2-y,1/2+z
loop_
_atom_site_type_symbol
_atom_site_label
_atom_site_fract_x
_atom_site_fract_y
_atom_site_fract_z
Si Si1 0.724835 0.005143 0.385362
Si Si2 0.731247 0.779116 0.118859
Si Si3 0.610351 0.882830 0.883688
Si Si4 0.079424 0.051299 0.624278
Si Si5 0.689222 0.340882 0.792127
Si Si6 0.372491 0.902807 0.258141
Si Si7 0.479440 0.302180 0.806045
Si Si8 0.519961 0.145057 0.620433
O O1 0.701321 0.011509 0.500000
O O2 0.763361 0.128475 0.359827
O O3 0.669669 0.001631 0.315438
O O4 0.760782 0.875589 0.371909
O O5 0.668657 0.818542 0.156605
O O6 0.781534 0.854596 0.179036
O O7 0.740987 0.813377 0.000000
O O8 0.557210 0.789988 0.877206
O O9 0.593955 0.010374 0.822416
O O10 0.619449 0.925124 0.000000
O O11 0.084495 0.025757 0.500000
O O12 0.139284 0.061667 0.681097
O O13 0.042204 0.179269 0.644638
O O14 0.050694 0.938085 0.688074
O O15 0.664256 0.200162 0.805191
O O16 0.415474 0.840399 0.340257
O O17 0.482722 0.243072 0.689701
O O18 0.515700 0.185339 0.500000
O O19 0.500000 0.000000 0.635814
#
# Coordination Sequence:
#
# PCOD8237488 Si02
#       8
#     8   8   8   8   8   8   8   8
#     4  10  20  36  60  84 113 160 205 248 308 375
#     4   9  20  38  60  86 117 159 208 256 312 370
#     4  11  21  37  61  88 124 162 202 256 316 375
#     4  11  23  40  64  95 132 168 208 259 318 378
#     4  11  21  37  61  90 124 159 206 262 311 373
#     4  11  22  39  58  90 122 157 205 260 312 379
#     4  11  22  42  64  93 124 165 209 259 310 382
#     4  11  23  43  67  88 119 162 208 261 315 372
#
# _framework density 19.862079999999999
#
# number of rings (size 3 to 8) (size 9 to 14) (size 15 to 20)
#    0.000    1.375    3.750    3.000    0.000    2.500 
#    0.000    2.500    0.000    0.000    0.000    0.000 
#    0.000    0.000    0.000    0.000    0.000    0.000 
#
# Total GULP energy -793080.434958 kJ/mol
# GULP energy per Si atom -12391.881796 kJ/mol
# Density = 1.981687 g / cm^3
# Si number density = 19.862080 Si / 1000 Ang^3
#
#
#
# Elastic Constant Matrix: (Units=GPa)
#
#
# Indices 1 2 3 4 5 6 
#
# 1 98.9308 31.2051 43.1592 0.0000 0.0000 0.0000
# 2 31.2051 71.2574 56.7647 0.0000 0.0000 0.0000
# 3 43.1592 56.7647 108.9381 0.0000 0.0000 0.0000
# 4 0.0000 0.0000 0.0000 31.5451 0.0000 0.0000
# 5 0.0000 0.0000 0.0000 0.0000 30.5551 0.0000
# 6 0.0000 0.0000 0.0000 0.0000 0.0000 35.4854
#
#
#
# Elastic Compliance Matrix: (Units=1/GPa)
#
#
# Indices 1 2 3 4 5 6 
#
# 1 0.012499 -0.002614 -0.003590 0.000000 0.000000 0.000000
# 2 -0.002614 0.024540 -0.011751 0.000000 0.000000 0.000000
# 3 -0.003590 -0.011751 0.016725 0.000000 0.000000 0.000000
# 4 0.000000 0.000000 0.000000 0.031701 0.000000 0.000000
# 5 0.000000 0.000000 0.000000 0.000000 0.032728 0.000000
# 6 0.000000 0.000000 0.000000 0.000000 0.000000 0.028181
#
#
# Mechanical properties :
#
#
# Convention : Reuss Voigt Hill
#
# Bulk Modulus (GPa) = 56.01164 60.15381 58.08272
# Shear Modulus (GPa) = 26.56279 29.38359 27.97319
#
# Velocity S-wave (km/s) = 3.66096 3.85045 3.75690
# Velocity P-wave (km/s) = 6.79203 7.07951 6.93726
#
# Compressibility (1/GPa) = 0.01785343
#
# Stress axis : x y z
#
# Youngs Moduli (GPa) = 80.00919 40.75043 59.79045
#
# Poissons Ratio (x) = 0.10651 0.21463
# Poissons Ratio (y) = 0.20912 0.70262
# Poissons Ratio (z) = 0.28721 0.47888
#
# Static dielectric constant tensor:
#      x y z
#    x 3.849540 0.000000 0.000000 
#    y 0.000000 3.609690 0.000000 
#    z 0.000000 0.000000 3.564110 
# 
# 
# High freq. dielectric constant tensor:
#      x y z
#    x 1.787710 0.000000 0.000000 
#    y 0.000000 1.762690 0.000000 
#    z 0.000000 0.000000 1.765370 
# 
# From -- ./inp_files/17537.got.cif
#   From: 2010.06.25/outbox.cif.g09.slc.cpg/sg58_9_cif.got.tgz:17537.got - 2010.06.26 21:38:00.
