data_PCOD8237305
_publ_section_title
;
Structure prediction by ZEFSAII (Michael W. Deem and Ramdas Pophale) SiO2 
 PCOD8237305
Probable space group: P N N M
;
_chemical_formula_sum "Si O2"
_cell_formula_units_Z 48
_cell_length_a 6.985133
_cell_length_b 27.447304
_cell_length_c 12.551349
_cell_angle_alpha 90.000000
_cell_angle_beta 90.000000
_cell_angle_gamma 90.000000
_cell_volume 2406.383150
_symmetry_space_group_name_H-M "P N N M"
_symmetry_group_IT_number 58
_symmetry_cell_setting 'orthorhombic'
loop_
_space_group_symop_operation_xyz
x,y,z
-x,-y,z
1/2+x,1/2-y,1/2-z
1/2-x,1/2+y,1/2-z
-x,-y,-z
x,y,-z
1/2-x,1/2+y,1/2+z
1/2+x,1/2-y,1/2+z
loop_
_atom_site_type_symbol
_atom_site_label
_atom_site_fract_x
_atom_site_fract_y
_atom_site_fract_z
Si Si1 0.116278 0.043096 0.116983
Si Si2 0.457346 0.313161 0.240216
Si Si3 0.111962 0.273736 0.122745
Si Si4 0.526307 0.944696 0.742429
Si Si5 0.192664 0.642372 0.877313
Si Si6 0.776572 0.110941 0.119413
O O1 0.307273 0.057648 0.173237
O O2 0.989752 0.091000 0.107642
O O3 0.173750 0.023006 0.000000
O O4 0.000000 0.000000 0.177423
O O5 0.328023 0.291763 0.144977
O O6 0.571764 0.271780 0.302004
O O7 0.613252 0.350535 0.191040
O O8 0.304396 0.337795 0.320999
O O9 0.956501 0.315050 0.148475
O O10 0.099996 0.257495 0.000000
O O11 0.586107 0.908835 0.646901
O O12 0.341946 0.926058 0.806614
O O13 0.500000 0.000000 0.698870
O O14 0.253092 0.641834 0.000000
O O15 0.686557 0.117934 0.000000
#
# Coordination Sequence:
#
# PCOD8237305 Si02
#       6
#     8   8   8   8   8   8
#     4  10  20  35  57  87 125 164 203 252 312 371
#     4  12  22  44  67  95 126 164 206 256 311 384
#     4  11  24  42  67  96 127 164 206 258 315 376
#     4  12  23  39  64  91 127 166 216 260 312 369
#     4  11  25  44  64  90 126 169 213 259 313 368
#     4  11  23  37  60  95 131 164 200 252 315 380
#
# _framework density 19.946947999999999
#
# number of rings (size 3 to 8) (size 9 to 14) (size 15 to 20)
#    0.000    0.833    6.667    1.500    0.000    1.000 
#    0.000    1.667    0.000    1.500    0.000    0.000 
#    0.000    0.000    0.000    0.000    0.000    0.000 
#
# Total GULP energy -595127.194453 kJ/mol
# GULP energy per Si atom -12398.483218 kJ/mol
# Density = 1.990155 g / cm^3
# Si number density = 19.946948 Si / 1000 Ang^3
#
#
#
# Elastic Constant Matrix: (Units=GPa)
#
#
# Indices 1 2 3 4 5 6 
#
# 1 83.1732 25.4269 32.8992 0.0000 0.0000 0.0000
# 2 25.4269 102.9198 45.3818 0.0000 0.0000 0.0000
# 3 32.8992 45.3818 85.5056 0.0000 0.0000 0.0000
# 4 0.0000 0.0000 0.0000 27.5613 0.0000 0.0000
# 5 0.0000 0.0000 0.0000 0.0000 25.3510 0.0000
# 6 0.0000 0.0000 0.0000 0.0000 0.0000 36.9610
#
#
#
# Elastic Compliance Matrix: (Units=1/GPa)
#
#
# Indices 1 2 3 4 5 6 
#
# 1 0.014345 -0.001450 -0.004750 0.000000 0.000000 0.000000
# 2 -0.001450 0.012831 -0.006253 0.000000 0.000000 0.000000
# 3 -0.004750 -0.006253 0.016841 0.000000 0.000000 0.000000
# 4 0.000000 0.000000 0.000000 0.036283 0.000000 0.000000
# 5 0.000000 0.000000 0.000000 0.000000 0.039446 0.000000
# 6 0.000000 0.000000 0.000000 0.000000 0.000000 0.027056
#
#
# Mechanical properties :
#
#
# Convention : Reuss Voigt Hill
#
# Bulk Modulus (GPa) = 52.31886 53.22382 52.77134
# Shear Modulus (GPa) = 28.07759 29.16735 28.62247
#
# Velocity S-wave (km/s) = 3.75589 3.82808 3.79216
# Velocity P-wave (km/s) = 6.71527 6.80291 6.75923
#
# Compressibility (1/GPa) = 0.01911357
#
# Stress axis : x y z
#
# Youngs Moduli (GPa) = 69.71002 77.93368 59.37779
#
# Poissons Ratio (x) = 0.11297 0.28205
# Poissons Ratio (y) = 0.10105 0.37126
# Poissons Ratio (z) = 0.33113 0.48728
#
# Static dielectric constant tensor:
#      x y z
#    x 3.598500 0.000000 0.000000 
#    y 0.000000 4.081930 0.000000 
#    z 0.000000 0.000000 3.562710 
# 
# 
# High freq. dielectric constant tensor:
#      x y z
#    x 1.785330 0.000000 0.000000 
#    y 0.000000 1.781860 0.000000 
#    z 0.000000 0.000000 1.767750 
# 
# From -- ./inp_files/18614.got.cif
#   From: 2010.06.25/outbox.cif.g09.slc.cpg/sg58_10_cif.got.tgz:18614.got - 2010.06.26 21:38:00.
