data_PCOD8237949
_publ_section_title
;
Structure prediction by ZEFSAII (Michael W. Deem and Ramdas Pophale) SiO2 
 PCOD8237949
Probable space group: P N N M
;
_chemical_formula_sum "Si O2"
_cell_formula_units_Z 48
_cell_length_a 10.106488
_cell_length_b 28.468409
_cell_length_c 8.339920
_cell_angle_alpha 90.000000
_cell_angle_beta 90.000000
_cell_angle_gamma 90.000000
_cell_volume 2399.525370
_symmetry_space_group_name_H-M "P N N M"
_symmetry_group_IT_number 58
_symmetry_cell_setting 'orthorhombic'
loop_
_space_group_symop_operation_xyz
x,y,z
-x,-y,z
1/2+x,1/2-y,1/2-z
1/2-x,1/2+y,1/2-z
-x,-y,-z
x,y,-z
1/2-x,1/2+y,1/2+z
1/2+x,1/2-y,1/2+z
loop_
_atom_site_type_symbol
_atom_site_label
_atom_site_fract_x
_atom_site_fract_y
_atom_site_fract_z
Si Si1 0.152601 0.790105 0.690250
Si Si2 0.754078 0.890816 0.309163
Si Si3 0.652386 0.290234 0.809809
Si Si4 0.245330 0.890833 0.690830
Si Si5 0.999726 0.948178 0.691451
Si Si6 0.000258 0.445928 0.808559
O O1 0.148024 0.789801 0.500000
O O2 0.250021 0.749996 0.750724
O O3 0.220662 0.838049 0.754144
O O4 0.000078 0.784795 0.754525
O O5 0.750449 0.890252 0.500000
O O6 0.779506 0.838115 0.245327
O O7 0.872148 0.922145 0.241797
O O8 0.622744 0.915720 0.241896
O O9 0.647156 0.290388 0.000000
O O10 0.248803 0.890429 0.500000
O O11 0.376403 0.915905 0.758122
O O12 0.126762 0.921867 0.758551
O O13 0.999970 0.948737 0.500000
O O14 0.000000 0.000000 0.763329
O O15 0.000000 0.500000 0.743883
O O16 0.000212 0.447847 0.000000
#
# Coordination Sequence:
#
# PCOD8237949 Si02
#       6
#     8   8   8   8   8   8
#     4  10  21  36  53  75 103 135 174 215 256 304
#     4   9  16  27  41  62  94 128 160 199 246 295
#     4  10  21  36  53  75 103 135 174 215 256 304
#     4   9  16  27  41  62  94 128 160 199 246 295
#     4   9  14  22  39  60  87 125 159 189 238 301
#     4   9  16  24  37  62  95 129 163 195 236 297
#
# _framework density 20.003955000000001
#
# number of rings (size 3 to 8) (size 9 to 14) (size 15 to 20)
#    0.000    2.667    1.667    1.000    2.333    4.667 
#    0.000    0.000    0.000    0.000    0.000    0.000 
#    0.000    8.000    0.000    0.000    0.000    0.000 
#
# Total GULP energy -594783.659707 kJ/mol
# GULP energy per Si atom -12391.326244 kJ/mol
# Density = 1.995842 g / cm^3
# Si number density = 20.003955 Si / 1000 Ang^3
#
#
#
# Elastic Constant Matrix: (Units=GPa)
#
#
# Indices 1 2 3 4 5 6 
#
# 1 224.3629 130.2191 6.5738 0.0000 0.0000 0.0000
# 2 130.2191 230.1817 7.1743 0.0000 0.0000 0.0000
# 3 6.5738 7.1743 5.1019 0.0000 0.0000 0.0000
# 4 0.0000 0.0000 0.0000 18.7492 0.0000 0.0000
# 5 0.0000 0.0000 0.0000 0.0000 10.4824 0.0000
# 6 0.0000 0.0000 0.0000 0.0000 0.0000 48.2863
#
#
#
# Elastic Compliance Matrix: (Units=1/GPa)
#
#
# Indices 1 2 3 4 5 6 
#
# 1 0.006694 -0.003679 -0.003451 0.000000 0.000000 0.000000
# 2 -0.003679 0.006566 -0.004492 0.000000 0.000000 0.000000
# 3 -0.003451 -0.004492 0.206770 0.000000 0.000000 0.000000
# 4 0.000000 0.000000 0.000000 0.053336 0.000000 0.000000
# 5 0.000000 0.000000 0.000000 0.000000 0.095398 0.000000
# 6 0.000000 0.000000 0.000000 0.000000 0.000000 0.020710
#
#
# Mechanical properties :
#
#
# Convention : Reuss Voigt Hill
#
# Bulk Modulus (GPa) = 5.08171 83.06457 44.07314
# Shear Modulus (GPa) = 10.45343 36.54886 23.50114
#
# Velocity S-wave (km/s) = 2.28845 4.27907 3.43129
# Velocity P-wave (km/s) = 3.08684 8.12577 6.14641
#
# Compressibility (1/GPa) = 0.19678418
#
# Stress axis : x y z
#
# Youngs Moduli (GPa) = 149.39818 152.30506 4.83630
#
# Poissons Ratio (x) = 0.56035 0.01669
# Poissons Ratio (y) = 0.54965 0.02173
# Poissons Ratio (z) = 0.51559 0.68419
#
# Static dielectric constant tensor:
#      x y z
#    x 4.283470 0.000000 0.000000 
#    y 0.000000 4.047790 0.000000 
#    z 0.000000 0.000000 2.818770 
# 
# 
# High freq. dielectric constant tensor:
#      x y z
#    x 1.799230 0.000000 0.000000 
#    y 0.000000 1.800830 0.000000 
#    z 0.000000 0.000000 1.700300 
# 
# From -- ./inp_files/13151.got.cif
#   From: 2010.06.25/outbox.cif.g09.slc.cpg/sg58_7_cif.got.tgz:13151.got - 2010.06.26 21:38:00.
