data_PCOD8237085
_publ_section_title
;
Structure prediction by ZEFSAII (Michael W. Deem and Ramdas Pophale) SiO2 
 PCOD8237085
Probable space group: P N N M
;
_chemical_formula_sum "Si O2"
_cell_formula_units_Z 64
_cell_length_a 21.919626
_cell_length_b 16.615731
_cell_length_c 9.178904
_cell_angle_alpha 90.000000
_cell_angle_beta 90.000000
_cell_angle_gamma 90.000000
_cell_volume 3343.054218
_symmetry_space_group_name_H-M "P N N M"
_symmetry_group_IT_number 58
_symmetry_cell_setting 'orthorhombic'
loop_
_space_group_symop_operation_xyz
x,y,z
-x,-y,z
1/2+x,1/2-y,1/2-z
1/2-x,1/2+y,1/2-z
-x,-y,-z
x,y,-z
1/2-x,1/2+y,1/2+z
1/2+x,1/2-y,1/2+z
loop_
_atom_site_type_symbol
_atom_site_label
_atom_site_fract_x
_atom_site_fract_y
_atom_site_fract_z
Si Si1 0.321149 0.078849 0.670644
Si Si2 0.682890 0.454647 0.827732
Si Si3 0.622305 0.065858 0.173071
Si Si4 0.967141 0.678894 0.828348
Si Si5 0.210530 0.323301 0.837286
Si Si6 0.376511 0.682737 0.663893
Si Si7 0.844507 0.133077 0.333220
Si Si8 0.099981 0.729260 0.168040
O O1 0.327091 0.057576 0.500000
O O2 0.251431 0.067279 0.725099
O O3 0.343410 0.169911 0.701031
O O4 0.366723 0.022435 0.761874
O O5 0.631940 0.394331 0.765967
O O6 0.663968 0.543071 0.770709
O O7 0.680597 0.450309 0.000000
O O8 0.560705 0.103692 0.240520
O O9 0.680110 0.120036 0.217187
O O10 0.616229 0.061570 0.000000
O O11 0.932545 0.761502 0.783396
O O12 0.037402 0.686287 0.782815
O O13 0.957483 0.662868 0.000000
O O14 0.185861 0.233237 0.825059
O O15 0.281929 0.318869 0.810186
O O16 0.196755 0.358771 0.000000
O O17 0.387958 0.652187 0.500000
O O18 0.864955 0.128942 0.500000
O O19 0.894642 0.185119 0.248722
O O20 0.095905 0.751449 0.000000
#
# Coordination Sequence:
#
# PCOD8237085 Si02
#       8
#     8   8   8   8   8   8   8   8
#     4  10  20  37  57  80 114 146 176 220 277 335
#     4  10  20  34  54  81 113 144 174 216 277 338
#     4  11  21  32  54  86 112 142 182 226 267 317
#     4   9  20  40  58  76 109 150 190 227 277 329
#     4   9  17  34  55  76 109 148 178 212 275 339
#     4   9  18  32  55  79 102 138 181 227 269 316
#     4  10  20  35  55  78 111 148 174 218 285 334
#     4  10  22  38  59  82 104 144 195 236 267 319
#
# _framework density 19.144169999999999
#
# number of rings (size 3 to 8) (size 9 to 14) (size 15 to 20)
#    0.000    2.250    1.250    2.625    0.000    5.000 
#    0.000    3.125    0.000    3.750    0.000    0.000 
#    0.000    0.000    0.000    0.000    0.000    0.000 
#
# Total GULP energy -793532.625258 kJ/mol
# GULP energy per Si atom -12398.947270 kJ/mol
# Density = 1.910060 g / cm^3
# Si number density = 19.144170 Si / 1000 Ang^3
#
#
#
# Elastic Constant Matrix: (Units=GPa)
#
#
# Indices 1 2 3 4 5 6 
#
# 1 44.8133 21.7043 21.1003 0.0000 0.0000 0.0000
# 2 21.7043 92.4826 39.1551 0.0000 0.0000 0.0000
# 3 21.1003 39.1551 60.2329 0.0000 0.0000 0.0000
# 4 0.0000 0.0000 0.0000 33.9596 0.0000 0.0000
# 5 0.0000 0.0000 0.0000 0.0000 24.0863 0.0000
# 6 0.0000 0.0000 0.0000 0.0000 0.0000 23.6750
#
#
#
# Elastic Compliance Matrix: (Units=1/GPa)
#
#
# Indices 1 2 3 4 5 6 
#
# 1 0.027420 -0.003268 -0.007481 0.000000 0.000000 0.000000
# 2 -0.003268 0.015308 -0.008807 0.000000 0.000000 0.000000
# 3 -0.007481 -0.008807 0.024948 0.000000 0.000000 0.000000
# 4 0.000000 0.000000 0.000000 0.029447 0.000000 0.000000
# 5 0.000000 0.000000 0.000000 0.000000 0.041517 0.000000
# 6 0.000000 0.000000 0.000000 0.000000 0.000000 0.042239
#
#
# Mechanical properties :
#
#
# Convention : Reuss Voigt Hill
#
# Bulk Modulus (GPa) = 35.00803 40.16091 37.58447
# Shear Modulus (GPa) = 21.78539 24.04881 22.91710
#
# Velocity S-wave (km/s) = 3.37703 3.54813 3.46364
# Velocity P-wave (km/s) = 5.79068 6.14893 5.97249
#
# Compressibility (1/GPa) = 0.02856488
#
# Stress axis : x y z
#
# Youngs Moduli (GPa) = 36.46979 65.32431 40.08354
#
# Poissons Ratio (x) = 0.21345 0.29988
# Poissons Ratio (y) = 0.11917 0.35300
# Poissons Ratio (z) = 0.27284 0.57529
#
# Static dielectric constant tensor:
#      x y z
#    x 3.403720 0.000000 0.000000 
#    y 0.000000 3.432300 0.000000 
#    z 0.000000 0.000000 3.332660 
# 
# 
# High freq. dielectric constant tensor:
#      x y z
#    x 1.730780 0.000000 0.000000 
#    y 0.000000 1.743770 0.000000 
#    z 0.000000 0.000000 1.728870 
# 
# From -- ./inp_files/9926.got.cif
#   From: 2010.06.25/outbox.cif.g09.slc.cpg/sg58_5_cif.got.tgz:9926.got - 2010.06.26 21:38:00.
