data_PCOD8237655
_publ_section_title
;
Structure prediction by ZEFSAII (Michael W. Deem and Ramdas Pophale) SiO2 
 PCOD8237655
Probable space group: P N N M
;
_chemical_formula_sum "Si O2"
_cell_formula_units_Z 40
_cell_length_a 9.492107
_cell_length_b 8.011082
_cell_length_c 24.818660
_cell_angle_alpha 90.000000
_cell_angle_beta 90.000000
_cell_angle_gamma 90.000000
_cell_volume 1887.261723
_symmetry_space_group_name_H-M "P N N M"
_symmetry_group_IT_number 58
_symmetry_cell_setting 'orthorhombic'
loop_
_space_group_symop_operation_xyz
x,y,z
-x,-y,z
1/2+x,1/2-y,1/2-z
1/2-x,1/2+y,1/2-z
-x,-y,-z
x,y,-z
1/2-x,1/2+y,1/2+z
1/2+x,1/2-y,1/2+z
loop_
_atom_site_type_symbol
_atom_site_label
_atom_site_fract_x
_atom_site_fract_y
_atom_site_fract_z
Si Si1 0.000000 0.500000 0.852837
Si Si2 0.544074 0.240020 0.559906
Si Si3 0.997975 0.815763 0.305868
Si Si4 0.298679 0.434376 0.405140
Si Si5 0.317939 0.268250 0.295738
Si Si6 0.000000 0.500000 0.378432
O O1 0.907006 0.612738 0.893806
O O2 0.894247 0.399907 0.815121
O O3 0.573341 0.169347 0.500000
O O4 0.632960 0.403927 0.569775
O O5 0.375400 0.277757 0.565908
O O6 0.108061 0.835541 0.257385
O O7 0.047208 0.662963 0.343981
O O8 0.843664 0.773873 0.282794
O O9 0.000000 0.000000 0.334728
O O10 0.325211 0.414243 0.340835
O O11 0.130922 0.442133 0.415775
#
# Coordination Sequence:
#
# PCOD8237655 Si02
#       6
#     4   8   8   8   8   4
#     4  10  22  36  62  83 122 149 200 244 304 354
#     4  10  20  37  62  89 111 146 193 250 305 363
#     4  11  26  38  61  84 127 160 210 242 286 346
#     4   9  20  37  59  81 117 148 196 240 293 358
#     4  10  24  38  55  89 113 166 195 247 287 346
#     4  10  23  42  55  89 120 163 199 240 293 352
#
# _framework density 21.194728999999999
#
# number of rings (size 3 to 8) (size 9 to 14) (size 15 to 20)
#    0.000    2.000    0.000    2.100   16.800    0.000 
#    0.000    2.000    0.000    0.000    0.000    5.600 
#    0.000    0.000    0.000    0.000    0.000    0.000 
#
# Total GULP energy -495709.387063 kJ/mol
# GULP energy per Si atom -12392.734677 kJ/mol
# Density = 2.114649 g / cm^3
# Si number density = 21.194729 Si / 1000 Ang^3
#
#
#
# Elastic Constant Matrix: (Units=GPa)
#
#
# Indices 1 2 3 4 5 6 
#
# 1 104.2508 -3.1518 9.6449 0.0000 0.0000 0.0000
# 2 -3.1518 90.0815 7.3787 0.0000 0.0000 0.0000
# 3 9.6449 7.3787 34.4235 0.0000 0.0000 0.0000
# 4 0.0000 0.0000 0.0000 55.6610 0.0000 0.0000
# 5 0.0000 0.0000 0.0000 0.0000 19.7150 0.0000
# 6 0.0000 0.0000 0.0000 0.0000 0.0000 23.2662
#
#
#
# Elastic Compliance Matrix: (Units=1/GPa)
#
#
# Indices 1 2 3 4 5 6 
#
# 1 0.009877 0.000583 -0.002892 0.000000 0.000000 0.000000
# 2 0.000583 0.011334 -0.002593 0.000000 0.000000 0.000000
# 3 -0.002892 -0.002593 0.030416 0.000000 0.000000 0.000000
# 4 0.000000 0.000000 0.000000 0.017966 0.000000 0.000000
# 5 0.000000 0.000000 0.000000 0.000000 0.050723 0.000000
# 6 0.000000 0.000000 0.000000 0.000000 0.000000 0.042981
#
#
# Mechanical properties :
#
#
# Convention : Reuss Voigt Hill
#
# Bulk Modulus (GPa) = 23.91065 28.49993 26.20529
# Shear Modulus (GPa) = 26.73189 34.05404 30.39297
#
# Velocity S-wave (km/s) = 3.55526 4.01274 3.79091
# Velocity P-wave (km/s) = 5.30652 5.91146 5.61714
#
# Compressibility (1/GPa) = 0.04182237
#
# Stress axis : x y z
#
# Youngs Moduli (GPa) = 101.24064 88.23163 32.87738
#
# Poissons Ratio (x) = -0.05140 0.09509
# Poissons Ratio (y) = -0.05897 0.08524
# Poissons Ratio (z) = 0.29283 0.22875
#
# Static dielectric constant tensor:
#      x y z
#    x 3.968920 0.000000 0.000000 
#    y 0.000000 4.178310 0.000000 
#    z 0.000000 0.000000 3.608430 
# 
# 
# High freq. dielectric constant tensor:
#      x y z
#    x 1.825220 0.000000 0.000000 
#    y 0.000000 1.841370 0.000000 
#    z 0.000000 0.000000 1.802230 
# 
# From -- ./inp_files/31307.got.cif
#   From: 2010.06.25/outbox.cif.g09.slc.cpg/sg58_16_cif.got.tgz:31307.got - 2010.06.26 21:38:00.
