data_PCOD8237073
_publ_section_title
;
Structure prediction by ZEFSAII (Michael W. Deem and Ramdas Pophale) SiO2 
 PCOD8237073
Probable space group: P N N M
;
_chemical_formula_sum "Si O2"
_cell_formula_units_Z 56
_cell_length_a 14.794780
_cell_length_b 20.915582
_cell_length_c 8.941995
_cell_angle_alpha 90.000000
_cell_angle_beta 90.000000
_cell_angle_gamma 90.000000
_cell_volume 2767.023758
_symmetry_space_group_name_H-M "P N N M"
_symmetry_group_IT_number 58
_symmetry_cell_setting 'orthorhombic'
loop_
_space_group_symop_operation_xyz
x,y,z
-x,-y,z
1/2+x,1/2-y,1/2-z
1/2-x,1/2+y,1/2-z
-x,-y,-z
x,y,-z
1/2-x,1/2+y,1/2+z
1/2+x,1/2-y,1/2+z
loop_
_atom_site_type_symbol
_atom_site_label
_atom_site_fract_x
_atom_site_fract_y
_atom_site_fract_z
Si Si1 0.319554 0.838907 0.171272
Si Si2 0.069278 0.138602 0.831512
Si Si3 0.737316 0.396211 0.174766
Si Si4 0.419119 0.452650 0.667521
Si Si5 0.307254 0.232368 0.177682
Si Si6 0.737952 0.037334 0.672170
Si Si7 0.985992 0.742246 0.670152
O O1 0.251278 0.790752 0.256114
O O2 0.316924 0.911452 0.231329
O O3 0.425961 0.821858 0.184875
O O4 0.287326 0.838189 0.000000
O O5 0.134647 0.093225 0.732742
O O6 0.072794 0.209835 0.769593
O O7 0.964908 0.117096 0.823737
O O8 0.106641 0.137624 0.000000
O O9 0.776610 0.336912 0.265769
O O10 0.790485 0.463274 0.205454
O O11 0.737705 0.379572 0.000000
O O12 0.500000 0.500000 0.704672
O O13 0.380020 0.465883 0.500000
O O14 0.343550 0.455172 0.792606
O O15 0.412034 0.235480 0.229308
O O16 0.298078 0.234932 0.000000
O O17 0.722080 0.053897 0.500000
O O18 0.987483 0.767068 0.500000
#
# Coordination Sequence:
#
# PCOD8237073 Si02
#       7
#     8   8   8   8   8   8   8
#     4  11  23  41  64  90 124 163 201 251 311 366
#     4  11  21  34  58  87 117 156 198 245 300 363
#     4  11  23  39  59  86 122 161 201 249 305 360
#     4  10  20  34  53  83 119 154 196 242 299 366
#     4  11  23  41  66  94 122 159 207 254 306 369
#     4  11  24  39  58  86 122 164 206 252 308 364
#     4  10  23  41  61  88 122 156 198 253 308 364
#
# _framework density 20.238353
#
# number of rings (size 3 to 8) (size 9 to 14) (size 15 to 20)
#    0.000    1.286    2.857    3.000    0.000    7.143 
#    0.000    0.714    0.000    4.286    0.000    0.000 
#    0.000    0.000    0.000    0.000    0.000    0.000 
#
# Total GULP energy -694141.380754 kJ/mol
# GULP energy per Si atom -12395.381799 kJ/mol
# Density = 2.019229 g / cm^3
# Si number density = 20.238353 Si / 1000 Ang^3
#
#
#
# Elastic Constant Matrix: (Units=GPa)
#
#
# Indices 1 2 3 4 5 6 
#
# 1 62.8023 13.1172 21.8236 0.0000 0.0000 0.0000
# 2 13.1172 101.9223 43.7068 0.0000 0.0000 0.0000
# 3 21.8236 43.7068 93.7794 0.0000 0.0000 0.0000
# 4 0.0000 0.0000 0.0000 31.9593 0.0000 0.0000
# 5 0.0000 0.0000 0.0000 0.0000 26.1660 0.0000
# 6 0.0000 0.0000 0.0000 0.0000 0.0000 25.8277
#
#
#
# Elastic Compliance Matrix: (Units=1/GPa)
#
#
# Indices 1 2 3 4 5 6 
#
# 1 0.017356 -0.000627 -0.003747 0.000000 0.000000 0.000000
# 2 -0.000627 0.012285 -0.005580 0.000000 0.000000 0.000000
# 3 -0.003747 -0.005580 0.014136 0.000000 0.000000 0.000000
# 4 0.000000 0.000000 0.000000 0.031290 0.000000 0.000000
# 5 0.000000 0.000000 0.000000 0.000000 0.038218 0.000000
# 6 0.000000 0.000000 0.000000 0.000000 0.000000 0.038718
#
#
# Mechanical properties :
#
#
# Convention : Reuss Voigt Hill
#
# Bulk Modulus (GPa) = 41.89390 46.19991 44.04691
# Shear Modulus (GPa) = 27.79865 28.78100 28.28982
#
# Velocity S-wave (km/s) = 3.71018 3.77517 3.74282
# Velocity P-wave (km/s) = 6.25293 6.47147 6.36314
#
# Compressibility (1/GPa) = 0.02386982
#
# Stress axis : x y z
#
# Youngs Moduli (GPa) = 57.61725 81.40193 70.74330
#
# Poissons Ratio (x) = 0.05104 0.26506
# Poissons Ratio (y) = 0.03613 0.39471
# Poissons Ratio (z) = 0.21588 0.45418
#
# Static dielectric constant tensor:
#      x y z
#    x 3.672700 0.000000 0.000000 
#    y 0.000000 3.829570 0.000000 
#    z 0.000000 0.000000 3.706310 
# 
# 
# High freq. dielectric constant tensor:
#      x y z
#    x 1.771470 0.000000 0.000000 
#    y 0.000000 1.798910 0.000000 
#    z 0.000000 0.000000 1.797350 
# 
# From -- ./inp_files/6399.got.cif
#   From: 2010.06.25/outbox.cif.g09.slc.cpg/sg58_4_cif.got.tgz:6399.got - 2010.06.26 21:38:00.
