data_PCOD8237794
_publ_section_title
;
Structure prediction by ZEFSAII (Michael W. Deem and Ramdas Pophale) SiO2 
 PCOD8237794
Probable space group: P N N M
;
_chemical_formula_sum "Si O2"
_cell_formula_units_Z 48
_cell_length_a 15.193876
_cell_length_b 13.834282
_cell_length_c 11.654838
_cell_angle_alpha 90.000000
_cell_angle_beta 90.000000
_cell_angle_gamma 90.000000
_cell_volume 2449.804585
_symmetry_space_group_name_H-M "P N N M"
_symmetry_group_IT_number 58
_symmetry_cell_setting 'orthorhombic'
loop_
_space_group_symop_operation_xyz
x,y,z
-x,-y,z
1/2+x,1/2-y,1/2-z
1/2-x,1/2+y,1/2-z
-x,-y,-z
x,y,-z
1/2-x,1/2+y,1/2+z
1/2+x,1/2-y,1/2+z
loop_
_atom_site_type_symbol
_atom_site_label
_atom_site_fract_x
_atom_site_fract_y
_atom_site_fract_z
Si Si1 0.604032 0.383197 0.000000
Si Si2 0.932225 0.639523 0.000000
Si Si3 0.018019 0.191590 0.126082
Si Si4 0.900347 0.112840 0.500000
Si Si5 0.650008 0.663680 0.752965
Si Si6 0.753245 0.842152 0.318370
Si Si7 0.370392 0.064978 0.500000
Si Si8 0.334477 0.541321 0.366422
O O1 0.653902 0.342852 0.887000
O O2 0.502069 0.350973 0.000000
O O3 0.607619 0.498203 0.000000
O O4 0.922320 0.709934 0.887351
O O5 0.862058 0.552715 0.000000
O O6 0.029622 0.595794 0.000000
O O7 0.074886 0.098024 0.157835
O O8 0.944201 0.209790 0.220865
O O9 0.973365 0.173308 0.000000
O O10 0.848033 0.152187 0.610178
O O11 0.728681 0.731969 0.710486
O O12 0.657191 0.563826 0.686164
O O13 0.676585 0.894094 0.388366
O O14 0.758365 0.900637 0.199447
O O15 0.310146 0.536899 0.500000
#
# Coordination Sequence:
#
# PCOD8237794 Si02
#       8
#     4   4   8   4   8   8   4   8
#     4  10  22  44  65  93 126 169 212 264 309 400
#     4   9  18  38  63  92 113 162 208 263 305 368
#     4   9  19  38  60  93 117 154 205 255 308 372
#     4  11  24  42  66  89 125 170 215 248 331 382
#     4  12  23  39  65  90 124 166 203 266 321 375
#     4  11  23  40  61  92 129 162 210 259 320 377
#     4  10  20  38  65  87 122 161 216 256 310 377
#     4  11  24  38  59  91 128 160 204 257 316 376
#
# _framework density 19.593401
#
# number of rings (size 3 to 8) (size 9 to 14) (size 15 to 20)
#    0.500    1.000    3.333    2.000    7.000    2.667 
#    0.000    0.000    0.000    0.000    0.000    3.500 
#    0.000    0.000    0.000    0.000    0.000    0.000 
#
# Total GULP energy -594968.252135 kJ/mol
# GULP energy per Si atom -12395.171919 kJ/mol
# Density = 1.954881 g / cm^3
# Si number density = 19.593401 Si / 1000 Ang^3
#
#
#
# Elastic Constant Matrix: (Units=GPa)
#
#
# Indices 1 2 3 4 5 6 
#
# 1 61.8808 38.3862 36.9923 0.0000 0.0000 0.0000
# 2 38.3862 134.4108 46.8735 0.0000 0.0000 0.0000
# 3 36.9923 46.8735 140.8862 0.0000 0.0000 0.0000
# 4 0.0000 0.0000 0.0000 -2.1928 0.0000 0.0000
# 5 0.0000 0.0000 0.0000 0.0000 10.3472 0.0000
# 6 0.0000 0.0000 0.0000 0.0000 0.0000 35.2834
#
#
#
# Elastic Compliance Matrix: (Units=1/GPa)
#
#
# Indices 1 2 3 4 5 6 
#
# 1 0.021531 -0.004726 -0.004081 0.000000 0.000000 0.000000
# 2 -0.004726 0.009454 -0.001904 0.000000 0.000000 0.000000
# 3 -0.004081 -0.001904 0.008803 0.000000 0.000000 0.000000
# 4 0.000000 0.000000 0.000000 -0.456031 0.000000 0.000000
# 5 0.000000 0.000000 0.000000 0.000000 0.096644 0.000000
# 6 0.000000 0.000000 0.000000 0.000000 0.000000 0.028342
#
#
# Mechanical properties :
#
#
# Convention : Reuss Voigt Hill
#
# Bulk Modulus (GPa) = 54.45055 64.63133 59.54094
# Shear Modulus (GPa) = -18.96004 23.01595 2.02795
#
# Velocity S-wave (km/s) = -3.11412 3.43108 1.01846
# Velocity P-wave (km/s) = 3.86267 6.98243 5.64245
#
# Compressibility (1/GPa) = 0.01836529
#
# Stress axis : x y z
#
# Youngs Moduli (GPa) = 46.44379 105.77906 113.59613
#
# Poissons Ratio (x) = 0.49990 0.46360
# Poissons Ratio (y) = 0.21949 0.21633
# Poissons Ratio (z) = 0.18954 0.20145
#
# Static dielectric constant tensor:
#      x y z
#    x 3.460620 0.000000 0.000000 
#    y 0.000000 3.761010 0.000000 
#    z 0.000000 0.000000 3.715180 
# 
# 
# High freq. dielectric constant tensor:
#      x y z
#    x 1.745410 0.000000 0.000000 
#    y 0.000000 1.765470 0.000000 
#    z 0.000000 0.000000 1.766870 
# 
# From -- ./inp_files/15654.got.cif
#   From: 2010.06.25/outbox.cif.g09.slc.cpg/sg58_8_cif.got.tgz:15654.got - 2010.06.26 21:38:00.
