data_PCOD8237192
_publ_section_title
;
Structure prediction by ZEFSAII (Michael W. Deem and Ramdas Pophale) SiO2 
 PCOD8237192
Probable space group: P N N M
;
_chemical_formula_sum "Si O2"
_cell_formula_units_Z 64
_cell_length_a 18.891099
_cell_length_b 23.039521
_cell_length_c 8.527809
_cell_angle_alpha 90.000000
_cell_angle_beta 90.000000
_cell_angle_gamma 90.000000
_cell_volume 3711.659554
_symmetry_space_group_name_H-M "P N N M"
_symmetry_group_IT_number 58
_symmetry_cell_setting 'orthorhombic'
loop_
_space_group_symop_operation_xyz
x,y,z
-x,-y,z
1/2+x,1/2-y,1/2-z
1/2-x,1/2+y,1/2-z
-x,-y,-z
x,y,-z
1/2-x,1/2+y,1/2+z
1/2+x,1/2-y,1/2+z
loop_
_atom_site_type_symbol
_atom_site_label
_atom_site_fract_x
_atom_site_fract_y
_atom_site_fract_z
Si Si1 0.853588 0.231929 0.820600
Si Si2 0.995355 0.258190 0.318646
Si Si3 0.762239 0.345118 0.181913
Si Si4 0.714457 0.170816 0.181864
Si Si5 0.488801 0.116118 0.682222
Si Si6 0.864345 0.777114 0.183577
Si Si7 0.353048 0.057769 0.819026
Si Si8 0.139670 0.433534 0.181532
O O1 0.818396 0.294180 0.787942
O O2 0.796999 0.181769 0.778035
O O3 0.921719 0.224408 0.710257
O O4 0.878276 0.227045 0.000000
O O5 0.003288 0.274483 0.500000
O O6 0.997678 0.316086 0.214875
O O7 0.058974 0.216579 0.263908
O O8 0.685483 0.326261 0.242753
O O9 0.787074 0.401237 0.277352
O O10 0.757321 0.360921 0.000000
O O11 0.665127 0.212616 0.284725
O O12 0.695219 0.104633 0.219250
O O13 0.700816 0.186115 0.000000
O O14 0.470178 0.106974 0.500000
O O15 0.426208 0.090272 0.785426
O O16 0.559845 0.082435 0.730577
O O17 0.871035 0.787605 0.000000
O O18 0.346313 0.000384 0.715576
O O19 0.349806 0.040449 0.000000
O O20 0.152408 0.420249 0.000000
#
# Coordination Sequence:
#
# PCOD8237192 Si02
#       8
#     8   8   8   8   8   8   8   8
#     4   9  19  34  53  75 104 137 169 213 269 314
#     4  12  22  32  52  79 107 140 179 216 260 315
#     4  10  20  36  55  75 103 136 175 220 265 311
#     4  10  20  35  54  76 103 135 175 220 263 311
#     4  11  22  36  51  72 105 143 183 221 261 306
#     4  11  21  34  53  76 106 138 173 215 266 318
#     4  12  24  36  53  76 104 141 183 222 261 311
#     4  11  23  37  54  74 103 143 182 221 263 309
#
# _framework density 17.242961000000001
#
# number of rings (size 3 to 8) (size 9 to 14) (size 15 to 20)
#    0.000    1.250    2.500    6.000    0.000    5.500 
#    0.000    0.000    0.000    0.000    0.000    0.875 
#    0.000    7.000    0.000    0.000    0.000    0.000 
#
# Total GULP energy -793973.053346 kJ/mol
# GULP energy per Si atom -12405.828959 kJ/mol
# Density = 1.720372 g / cm^3
# Si number density = 17.242961 Si / 1000 Ang^3
#
#
#
# Elastic Constant Matrix: (Units=GPa)
#
#
# Indices 1 2 3 4 5 6 
#
# 1 101.8477 33.2055 32.1419 0.0000 0.0000 0.0000
# 2 33.2055 59.2893 8.2142 0.0000 0.0000 0.0000
# 3 32.1419 8.2142 65.9504 0.0000 0.0000 0.0000
# 4 0.0000 0.0000 0.0000 24.6929 0.0000 0.0000
# 5 0.0000 0.0000 0.0000 0.0000 27.7855 0.0000
# 6 0.0000 0.0000 0.0000 0.0000 0.0000 20.3457
#
#
#
# Elastic Compliance Matrix: (Units=1/GPa)
#
#
# Indices 1 2 3 4 5 6 
#
# 1 0.013977 -0.007005 -0.005939 0.000000 0.000000 0.000000
# 2 -0.007005 0.020673 0.000839 0.000000 0.000000 0.000000
# 3 -0.005939 0.000839 0.017953 0.000000 0.000000 0.000000
# 4 0.000000 0.000000 0.000000 0.040497 0.000000 0.000000
# 5 0.000000 0.000000 0.000000 0.000000 0.035990 0.000000
# 6 0.000000 0.000000 0.000000 0.000000 0.000000 0.049150
#
#
# Mechanical properties :
#
#
# Convention : Reuss Voigt Hill
#
# Bulk Modulus (GPa) = 35.22022 41.57896 38.39959
# Shear Modulus (GPa) = 23.59429 24.79988 24.19709
#
# Velocity S-wave (km/s) = 3.70313 3.79656 3.75013
# Velocity P-wave (km/s) = 6.22530 6.58668 6.40854
#
# Compressibility (1/GPa) = 0.02839278
#
# Stress axis : x y z
#
# Youngs Moduli (GPa) = 71.54709 48.37138 55.70094
#
# Poissons Ratio (x) = 0.33884 0.33083
# Poissons Ratio (y) = 0.50119 -0.04674
# Poissons Ratio (z) = 0.42494 -0.04059
#
# Static dielectric constant tensor:
#      x y z
#    x 3.366760 0.000000 0.000000 
#    y 0.000000 2.984900 0.000000 
#    z 0.000000 0.000000 3.237390 
# 
# 
# High freq. dielectric constant tensor:
#      x y z
#    x 1.663390 0.000000 0.000000 
#    y 0.000000 1.633830 0.000000 
#    z 0.000000 0.000000 1.680390 
# 
# From -- ./inp_files/6942.got.cif
#   From: 2010.06.25/outbox.cif.g09.slc.cpg/sg58_4_cif.got.tgz:6942.got - 2010.06.26 21:38:00.
