data_PCOD8237422
_publ_section_title
;
Structure prediction by ZEFSAII (Michael W. Deem and Ramdas Pophale) SiO2 
 PCOD8237422
Probable space group: P N N M
;
_chemical_formula_sum "Si O2"
_cell_formula_units_Z 64
_cell_length_a 14.376712
_cell_length_b 24.106070
_cell_length_c 9.184153
_cell_angle_alpha 90.000000
_cell_angle_beta 90.000000
_cell_angle_gamma 90.000000
_cell_volume 3182.915406
_symmetry_space_group_name_H-M "P N N M"
_symmetry_group_IT_number 58
_symmetry_cell_setting 'orthorhombic'
loop_
_space_group_symop_operation_xyz
x,y,z
-x,-y,z
1/2+x,1/2-y,1/2-z
1/2-x,1/2+y,1/2-z
-x,-y,-z
x,y,-z
1/2-x,1/2+y,1/2+z
1/2+x,1/2-y,1/2+z
loop_
_atom_site_type_symbol
_atom_site_label
_atom_site_fract_x
_atom_site_fract_y
_atom_site_fract_z
Si Si1 0.740454 0.346267 0.842342
Si Si2 0.746476 0.466053 0.169139
Si Si3 0.954582 0.736586 0.670195
Si Si4 0.921836 0.041615 0.671924
Si Si5 0.953872 0.353319 0.158579
Si Si6 0.413364 0.333169 0.170287
Si Si7 0.266787 0.763729 0.672865
Si Si8 0.570297 0.951520 0.840879
O O1 0.694893 0.405972 0.801439
O O2 0.846015 0.363225 0.867021
O O3 0.734851 0.301047 0.716641
O O4 0.700141 0.323736 0.000000
O O5 0.677045 0.515346 0.212882
O O6 0.837109 0.474469 0.265875
O O7 0.773721 0.470670 0.000000
O O8 0.947387 0.724106 0.500000
O O9 0.860500 0.715715 0.748290
O O10 0.035512 0.700598 0.742080
O O11 0.989333 0.800008 0.700261
O O12 0.937751 0.045761 0.500000
O O13 0.923751 0.104794 0.737645
O O14 0.000000 0.000000 0.738232
O O15 0.987961 0.407048 0.245981
O O16 0.003719 0.347904 0.000000
O O17 0.322406 0.299094 0.230992
O O18 0.395368 0.337818 0.000000
O O19 0.276681 0.767892 0.500000
O O20 0.500000 0.000000 0.864926
O O21 0.596914 0.926491 0.000000
#
# Coordination Sequence:
#
# PCOD8237422 Si02
#       8
#     8   8   8   8   8   8   8   8
#     4   9  18  33  54  81 110 140 186 241 293 348
#     4   9  19  34  56  86 113 146 194 245 296 352
#     4  11  22  37  58  86 120 157 196 242 302 362
#     4   9  18  34  59  87 115 150 194 245 296 346
#     4  10  20  36  58  83 113 148 193 243 293 351
#     4   9  20  37  57  85 121 155 193 244 298 356
#     4  11  22  36  55  84 117 153 196 239 294 357
#     4  10  21  36  56  83 116 155 196 238 293 359
#
# _framework density 20.107351999999999
#
# number of rings (size 3 to 8) (size 9 to 14) (size 15 to 20)
#    0.000    2.250    1.250    2.250    1.750    4.000 
#    0.000    1.250    0.000    2.625    0.000    0.000 
#    0.000    0.000    0.000    0.000    0.000    0.000 
#
# Total GULP energy -792850.923761 kJ/mol
# GULP energy per Si atom -12388.295684 kJ/mol
# Density = 2.006159 g / cm^3
# Si number density = 20.107352 Si / 1000 Ang^3
#
#
#
# Elastic Constant Matrix: (Units=GPa)
#
#
# Indices 1 2 3 4 5 6 
#
# 1 61.1757 26.7810 30.9880 0.0000 0.0000 0.0000
# 2 26.7810 113.5451 40.3524 0.0000 0.0000 0.0000
# 3 30.9880 40.3524 95.5537 0.0000 0.0000 0.0000
# 4 0.0000 0.0000 0.0000 18.7415 0.0000 0.0000
# 5 0.0000 0.0000 0.0000 0.0000 11.7823 0.0000
# 6 0.0000 0.0000 0.0000 0.0000 0.0000 29.1663
#
#
#
# Elastic Compliance Matrix: (Units=1/GPa)
#
#
# Indices 1 2 3 4 5 6 
#
# 1 0.020332 -0.002885 -0.005375 0.000000 0.000000 0.000000
# 2 -0.002885 0.010772 -0.003613 0.000000 0.000000 0.000000
# 3 -0.005375 -0.003613 0.013734 0.000000 0.000000 0.000000
# 4 0.000000 0.000000 0.000000 0.053358 0.000000 0.000000
# 5 0.000000 0.000000 0.000000 0.000000 0.084873 0.000000
# 6 0.000000 0.000000 0.000000 0.000000 0.000000 0.034286
#
#
# Mechanical properties :
#
#
# Convention : Reuss Voigt Hill
#
# Bulk Modulus (GPa) = 47.41410 51.83527 49.62469
# Shear Modulus (GPa) = 20.15047 23.41489 21.78268
#
# Velocity S-wave (km/s) = 3.16910 3.41617 3.29495
# Velocity P-wave (km/s) = 6.08462 6.43394 6.26171
#
# Compressibility (1/GPa) = 0.02109077
#
# Stress axis : x y z
#
# Youngs Moduli (GPa) = 49.18294 92.83596 72.81006
#
# Poissons Ratio (x) = 0.26786 0.39137
# Poissons Ratio (y) = 0.14191 0.26308
# Poissons Ratio (z) = 0.26437 0.33543
#
# Static dielectric constant tensor:
#      x y z
#    x 3.609050 0.000000 0.000000 
#    y 0.000000 3.910920 0.000000 
#    z 0.000000 0.000000 3.674860 
# 
# 
# High freq. dielectric constant tensor:
#      x y z
#    x 1.776860 0.000000 0.000000 
#    y 0.000000 1.791150 0.000000 
#    z 0.000000 0.000000 1.759630 
# 
# From -- ./inp_files/6837.got.cif
#   From: 2010.06.25/outbox.cif.g09.slc.cpg/sg58_4_cif.got.tgz:6837.got - 2010.06.26 21:38:00.
