data_PCOD8237237
_publ_section_title
;
Structure prediction by ZEFSAII (Michael W. Deem and Ramdas Pophale) SiO2 
 PCOD8237237
Probable space group: P N N M
;
_chemical_formula_sum "Si O2"
_cell_formula_units_Z 48
_cell_length_a 17.829948
_cell_length_b 15.563279
_cell_length_c 8.419872
_cell_angle_alpha 90.000000
_cell_angle_beta 90.000000
_cell_angle_gamma 90.000000
_cell_volume 2336.450954
_symmetry_space_group_name_H-M "P N N M"
_symmetry_group_IT_number 58
_symmetry_cell_setting 'orthorhombic'
loop_
_space_group_symop_operation_xyz
x,y,z
-x,-y,z
1/2+x,1/2-y,1/2-z
1/2-x,1/2+y,1/2-z
-x,-y,-z
x,y,-z
1/2-x,1/2+y,1/2+z
1/2+x,1/2-y,1/2+z
loop_
_atom_site_type_symbol
_atom_site_label
_atom_site_fract_x
_atom_site_fract_y
_atom_site_fract_z
Si Si1 0.952252 0.084398 0.684778
Si Si2 0.540001 0.248163 0.188943
Si Si3 0.956382 0.418330 0.313127
Si Si4 0.290451 0.431278 0.315319
Si Si5 0.292494 0.091085 0.314844
Si Si6 0.291535 0.759624 0.188782
O O1 0.930357 0.093292 0.500000
O O2 0.878283 0.081672 0.790189
O O3 0.001008 0.164507 0.746046
O O4 0.000000 0.000000 0.716923
O O5 0.492423 0.168405 0.258901
O O6 0.624235 0.244171 0.258216
O O7 0.542948 0.245052 0.000000
O O8 0.967867 0.417561 0.500000
O O9 0.869230 0.425711 0.276067
O O10 0.000000 0.500000 0.239292
O O11 0.273119 0.447007 0.500000
O O12 0.263639 0.512544 0.214488
O O13 0.247379 0.346914 0.251874
O O14 0.309492 0.099921 0.500000
O O15 0.254962 0.177980 0.246655
O O16 0.293519 0.755743 0.000000
#
# Coordination Sequence:
#
# PCOD8237237 Si02
#       6
#     8   8   8   8   8   8
#     4  10  20  35  56  80 108 144 184 226 274 327
#     4   9  17  32  55  79 104 139 184 227 268 324
#     4  10  20  35  56  80 108 144 184 226 274 327
#     4  11  22  37  58  83 113 147 185 229 276 328
#     4  11  22  37  58  83 113 147 185 229 276 328
#     4   9  19  36  57  81 110 147 186 225 274 328
#
# _framework density 20.543979
#
# number of rings (size 3 to 8) (size 9 to 14) (size 15 to 20)
#    0.000    2.000    0.000    4.000    0.000    6.000 
#    0.000    2.500    0.000    4.000    0.000    0.000 
#    0.000    0.000    0.000    0.000    0.000    0.000 
#
# Total GULP energy -595387.774788 kJ/mol
# GULP energy per Si atom -12403.911975 kJ/mol
# Density = 2.049722 g / cm^3
# Si number density = 20.543979 Si / 1000 Ang^3
#
#
#
# Elastic Constant Matrix: (Units=GPa)
#
#
# Indices 1 2 3 4 5 6 
#
# 1 131.4866 49.5412 5.8541 0.0000 0.0000 0.0000
# 2 49.5412 163.3029 17.1065 0.0000 0.0000 0.0000
# 3 5.8541 17.1065 12.7148 0.0000 0.0000 0.0000
# 4 0.0000 0.0000 0.0000 12.1161 0.0000 0.0000
# 5 0.0000 0.0000 0.0000 0.0000 28.3689 0.0000
# 6 0.0000 0.0000 0.0000 0.0000 0.0000 45.8598
#
#
#
# Elastic Compliance Matrix: (Units=1/GPa)
#
#
# Indices 1 2 3 4 5 6 
#
# 1 0.008590 -0.002551 -0.000523 0.000000 0.000000 0.000000
# 2 -0.002551 0.007886 -0.009435 0.000000 0.000000 0.000000
# 3 -0.000523 -0.009435 0.091584 0.000000 0.000000 0.000000
# 4 0.000000 0.000000 0.000000 0.082535 0.000000 0.000000
# 5 0.000000 0.000000 0.000000 0.000000 0.035250 0.000000
# 6 0.000000 0.000000 0.000000 0.000000 0.000000 0.021806
#
#
# Mechanical properties :
#
#
# Convention : Reuss Voigt Hill
#
# Bulk Modulus (GPa) = 12.04216 50.27866 31.16041
# Shear Modulus (GPa) = 16.64735 32.93579 24.79157
#
# Velocity S-wave (km/s) = 2.84971 4.00832 3.47761
# Velocity P-wave (km/s) = 4.08683 6.77857 5.59693
#
# Compressibility (1/GPa) = 0.08304155
#
# Stress axis : x y z
#
# Youngs Moduli (GPa) = 116.41690 126.80861 10.91899
#
# Poissons Ratio (x) = 0.32351 0.00571
# Poissons Ratio (y) = 0.29700 0.10302
# Poissons Ratio (z) = 0.06083 1.19646
#
# Static dielectric constant tensor:
#      x y z
#    x 3.781700 0.000000 0.000000 
#    y 0.000000 4.068980 0.000000 
#    z 0.000000 0.000000 3.216910 
# 
# 
# High freq. dielectric constant tensor:
#      x y z
#    x 1.818440 0.000000 0.000000 
#    y 0.000000 1.824780 0.000000 
#    z 0.000000 0.000000 1.760210 
# 
# From -- ./inp_files/5907.got.cif
#   From: 2010.06.25/outbox.cif.g09.slc.cpg/sg58_3_cif.got.tgz:5907.got - 2010.06.26 21:38:00.
