data_PCOD8237660
_publ_section_title
;
Structure prediction by ZEFSAII (Michael W. Deem and Ramdas Pophale) SiO2 
 PCOD8237660
Probable space group: P N N M
;
_chemical_formula_sum "Si O2"
_cell_formula_units_Z 64
_cell_length_a 15.337975
_cell_length_b 23.749897
_cell_length_c 8.948904
_cell_angle_alpha 90.000000
_cell_angle_beta 90.000000
_cell_angle_gamma 90.000000
_cell_volume 3259.864926
_symmetry_space_group_name_H-M "P N N M"
_symmetry_group_IT_number 58
_symmetry_cell_setting 'orthorhombic'
loop_
_space_group_symop_operation_xyz
x,y,z
-x,-y,z
1/2+x,1/2-y,1/2-z
1/2-x,1/2+y,1/2-z
-x,-y,-z
x,y,-z
1/2-x,1/2+y,1/2+z
1/2+x,1/2-y,1/2+z
loop_
_atom_site_type_symbol
_atom_site_label
_atom_site_fract_x
_atom_site_fract_y
_atom_site_fract_z
Si Si1 0.247083 0.809066 0.822983
Si Si2 0.594214 0.886020 0.828947
Si Si3 0.352372 0.002242 0.323217
Si Si4 0.097260 0.876224 0.674190
Si Si5 0.656629 0.504033 0.176133
Si Si6 0.754230 0.810456 0.824221
Si Si7 0.400474 0.890339 0.828375
Si Si8 0.100266 0.116770 0.326570
O O1 0.155459 0.831806 0.762723
O O2 0.264525 0.747488 0.761571
O O3 0.326556 0.848330 0.766040
O O4 0.244149 0.806339 0.000000
O O5 0.663051 0.839119 0.774937
O O6 0.496004 0.861685 0.810946
O O7 0.600489 0.941758 0.730774
O O8 0.613926 0.902474 0.000000
O O9 0.354892 0.001093 0.500000
O O10 0.402292 0.947846 0.263695
O O11 0.254012 0.001918 0.259818
O O12 0.122105 0.872773 0.500000
O O13 0.996703 0.859743 0.699436
O O14 0.113423 0.939001 0.739964
O O15 0.601396 0.449019 0.221386
O O16 0.659037 0.509727 0.000000
O O17 0.834119 0.849952 0.778389
O O18 0.757054 0.799210 0.000000
O O19 0.380933 0.905147 0.000000
O O20 0.128594 0.123256 0.500000
#
# Coordination Sequence:
#
# PCOD8237660 Si02
#       8
#     8   8   8   8   8   8   8   8
#     4  11  24  41  61  84 114 152 199 248 295 343
#     4  10  22  40  60  83 115 155 194 233 285 349
#     4  11  20  33  59  91 121 150 187 236 287 340
#     4  10  20  37  62  89 119 156 194 233 285 348
#     4   9  17  32  57  88 120 151 186 230 283 343
#     4  11  24  41  61  84 114 152 199 248 295 343
#     4  10  22  40  60  83 115 155 194 233 285 349
#     4  10  20  37  62  89 119 156 194 233 285 348
#
# _framework density 19.632714
#
# number of rings (size 3 to 8) (size 9 to 14) (size 15 to 20)
#    0.000    1.750    2.500    1.875    0.000    6.000 
#    0.000    3.125    0.000    1.500    0.000    0.000 
#    0.000    0.000    0.000    0.000    0.000    0.000 
#
# Total GULP energy -793737.048895 kJ/mol
# GULP energy per Si atom -12402.141389 kJ/mol
# Density = 1.958803 g / cm^3
# Si number density = 19.632714 Si / 1000 Ang^3
#
#
#
# Elastic Constant Matrix: (Units=GPa)
#
#
# Indices 1 2 3 4 5 6 
#
# 1 104.4869 16.8760 28.0177 0.0000 0.0000 0.0000
# 2 16.8760 71.8910 26.1815 0.0000 0.0000 0.0000
# 3 28.0177 26.1815 54.4965 0.0000 0.0000 0.0000
# 4 0.0000 0.0000 0.0000 31.1491 0.0000 0.0000
# 5 0.0000 0.0000 0.0000 0.0000 25.3189 0.0000
# 6 0.0000 0.0000 0.0000 0.0000 0.0000 14.0457
#
#
#
# Elastic Compliance Matrix: (Units=1/GPa)
#
#
# Indices 1 2 3 4 5 6 
#
# 1 0.011125 -0.000641 -0.005412 0.000000 0.000000 0.000000
# 2 -0.000641 0.016897 -0.007788 0.000000 0.000000 0.000000
# 3 -0.005412 -0.007788 0.024874 0.000000 0.000000 0.000000
# 4 0.000000 0.000000 0.000000 0.032104 0.000000 0.000000
# 5 0.000000 0.000000 0.000000 0.000000 0.039496 0.000000
# 6 0.000000 0.000000 0.000000 0.000000 0.000000 0.071196
#
#
# Mechanical properties :
#
#
# Convention : Reuss Voigt Hill
#
# Bulk Modulus (GPa) = 39.66026 41.44721 40.55374
# Shear Modulus (GPa) = 21.57235 24.75603 23.16419
#
# Velocity S-wave (km/s) = 3.31841 3.55485 3.43866
# Velocity P-wave (km/s) = 5.90994 6.16493 6.03878
#
# Compressibility (1/GPa) = 0.02521416
#
# Stress axis : x y z
#
# Youngs Moduli (GPa) = 89.88584 59.18324 40.20291
#
# Poissons Ratio (x) = 0.03792 0.21757
# Poissons Ratio (y) = 0.05759 0.31311
# Poissons Ratio (z) = 0.48645 0.46093
#
# Static dielectric constant tensor:
#      x y z
#    x 3.767050 0.000000 0.000000 
#    y 0.000000 3.573090 0.000000 
#    z 0.000000 0.000000 3.396320 
# 
# 
# High freq. dielectric constant tensor:
#      x y z
#    x 1.779590 0.000000 0.000000 
#    y 0.000000 1.760730 0.000000 
#    z 0.000000 0.000000 1.747670 
# 
# From -- ./inp_files/6876.got.cif
#   From: 2010.06.25/outbox.cif.g09.slc.cpg/sg58_4_cif.got.tgz:6876.got - 2010.06.26 21:38:00.
