data_PCOD8237039
_publ_section_title
;
Structure prediction by ZEFSAII (Michael W. Deem and Ramdas Pophale) SiO2 
 PCOD8237039
Probable space group: P N N M
;
_chemical_formula_sum "Si O2"
_cell_formula_units_Z 56
_cell_length_a 21.887258
_cell_length_b 14.608426
_cell_length_c 9.315888
_cell_angle_alpha 90.000000
_cell_angle_beta 90.000000
_cell_angle_gamma 90.000000
_cell_volume 2978.647020
_symmetry_space_group_name_H-M "P N N M"
_symmetry_group_IT_number 58
_symmetry_cell_setting 'orthorhombic'
loop_
_space_group_symop_operation_xyz
x,y,z
-x,-y,z
1/2+x,1/2-y,1/2-z
1/2-x,1/2+y,1/2-z
-x,-y,-z
x,y,-z
1/2-x,1/2+y,1/2+z
1/2+x,1/2-y,1/2+z
loop_
_atom_site_type_symbol
_atom_site_label
_atom_site_fract_x
_atom_site_fract_y
_atom_site_fract_z
Si Si1 0.570121 0.514062 0.329354
Si Si2 0.471818 0.141464 0.840696
Si Si3 0.855702 0.838214 0.830296
Si Si4 0.361050 0.010133 0.162403
Si Si5 0.280992 0.174773 0.828793
Si Si6 0.116383 0.809387 0.666410
Si Si7 0.409616 0.852074 0.331274
O O1 0.500000 0.500000 0.279309
O O2 0.573183 0.524205 0.500000
O O3 0.609892 0.428170 0.272473
O O4 0.600210 0.603385 0.261279
O O5 0.428017 0.054313 0.833220
O O6 0.435711 0.234371 0.808771
O O7 0.522593 0.126495 0.721088
O O8 0.501501 0.146455 0.000000
O O9 0.787523 0.825822 0.766166
O O10 0.894672 0.750875 0.782949
O O11 0.850262 0.844479 0.000000
O O12 0.312708 0.081979 0.228090
O O13 0.360281 0.919762 0.259890
O O14 0.343533 0.982709 0.000000
O O15 0.318995 0.265174 0.780336
O O16 0.283851 0.172630 0.000000
O O17 0.120142 0.838577 0.500000
O O18 0.405613 0.865704 0.500000
#
# Coordination Sequence:
#
# PCOD8237039 Si02
#       7
#     8   8   8   8   8   8   8
#     4  10  20  34  52  75 104 138 172 204 247 306
#     4   9  18  33  51  72 100 131 161 195 240 297
#     4   9  19  34  50  70 100 136 169 202 245 300
#     4   9  18  33  53  73  95 128 166 200 238 292
#     4   8  16  34  55  72  95 131 170 203 245 302
#     4   9  18  33  55  78  97 125 168 214 253 289
#     4  11  21  31  48  75 103 130 160 199 246 290
#
# _framework density 18.800481999999999
#
# number of rings (size 3 to 8) (size 9 to 14) (size 15 to 20)
#    0.000    2.714    0.000    3.429    0.000    5.429 
#    0.000    3.571    0.000    3.429    0.000    0.000 
#    0.000    0.000    0.000    0.000    0.000    0.000 
#
# Total GULP energy -694271.441163 kJ/mol
# GULP energy per Si atom -12397.704306 kJ/mol
# Density = 1.875769 g / cm^3
# Si number density = 18.800482 Si / 1000 Ang^3
#
#
#
# Elastic Constant Matrix: (Units=GPa)
#
#
# Indices 1 2 3 4 5 6 
#
# 1 102.3956 35.8368 22.5803 0.0000 0.0000 0.0000
# 2 35.8368 127.2188 40.3969 0.0000 0.0000 0.0000
# 3 22.5803 40.3969 48.0872 0.0000 0.0000 0.0000
# 4 0.0000 0.0000 0.0000 31.7802 0.0000 0.0000
# 5 0.0000 0.0000 0.0000 0.0000 11.3059 0.0000
# 6 0.0000 0.0000 0.0000 0.0000 0.0000 19.0596
#
#
#
# Elastic Compliance Matrix: (Units=1/GPa)
#
#
# Indices 1 2 3 4 5 6 
#
# 1 0.011269 -0.002038 -0.003580 0.000000 0.000000 0.000000
# 2 -0.002038 0.011089 -0.008358 0.000000 0.000000 0.000000
# 3 -0.003580 -0.008358 0.029498 0.000000 0.000000 0.000000
# 4 0.000000 0.000000 0.000000 0.031466 0.000000 0.000000
# 5 0.000000 0.000000 0.000000 0.000000 0.088449 0.000000
# 6 0.000000 0.000000 0.000000 0.000000 0.000000 0.052467
#
#
# Mechanical properties :
#
#
# Convention : Reuss Voigt Hill
#
# Bulk Modulus (GPa) = 41.83410 52.81442 47.32426
# Shear Modulus (GPa) = 19.21914 24.35497 21.78705
#
# Velocity S-wave (km/s) = 3.20076 3.60313 3.40789
# Velocity P-wave (km/s) = 5.99664 6.74263 6.38055
#
# Compressibility (1/GPa) = 0.02390395
#
# Stress axis : x y z
#
# Youngs Moduli (GPa) = 88.74249 90.18269 33.90035
#
# Poissons Ratio (x) = 0.18376 0.12135
# Poissons Ratio (y) = 0.18082 0.28336
# Poissons Ratio (z) = 0.31766 0.75379
#
# Static dielectric constant tensor:
#      x y z
#    x 3.590330 0.000000 0.000000 
#    y 0.000000 3.547230 0.000000 
#    z 0.000000 0.000000 3.095360 
# 
# 
# High freq. dielectric constant tensor:
#      x y z
#    x 1.730150 0.000000 0.000000 
#    y 0.000000 1.740700 0.000000 
#    z 0.000000 0.000000 1.693340 
# 
# From -- ./inp_files/9062.got.cif
#   From: 2010.06.25/outbox.cif.g09.slc.cpg/sg58_5_cif.got.tgz:9062.got - 2010.06.26 21:38:00.
