data_PCOD8237287
_publ_section_title
;
Structure prediction by ZEFSAII (Michael W. Deem and Ramdas Pophale) SiO2 
 PCOD8237287
Probable space group: P N N M
;
_chemical_formula_sum "Si O2"
_cell_formula_units_Z 64
_cell_length_a 14.579313
_cell_length_b 24.479967
_cell_length_c 9.034898
_cell_angle_alpha 90.000000
_cell_angle_beta 90.000000
_cell_angle_gamma 90.000000
_cell_volume 3224.565045
_symmetry_space_group_name_H-M "P N N M"
_symmetry_group_IT_number 58
_symmetry_cell_setting 'orthorhombic'
loop_
_space_group_symop_operation_xyz
x,y,z
-x,-y,z
1/2+x,1/2-y,1/2-z
1/2-x,1/2+y,1/2-z
-x,-y,-z
x,y,-z
1/2-x,1/2+y,1/2+z
1/2+x,1/2-y,1/2+z
loop_
_atom_site_type_symbol
_atom_site_label
_atom_site_fract_x
_atom_site_fract_y
_atom_site_fract_z
Si Si1 0.361670 0.346633 0.833238
Si Si2 0.366821 0.736833 0.675834
Si Si3 0.953519 0.554939 0.328005
Si Si4 0.596512 0.474438 0.327397
Si Si5 0.999922 0.666669 0.172662
Si Si6 0.757287 0.064795 0.829672
Si Si7 0.936114 0.868165 0.666976
Si Si8 0.171068 0.739982 0.826711
O O1 0.279241 0.383249 0.771486
O O2 0.455402 0.381159 0.831787
O O3 0.377294 0.294966 0.728160
O O4 0.335713 0.328110 0.000000
O O5 0.365621 0.732964 0.500000
O O6 0.419676 0.791948 0.727772
O O7 0.421382 0.685776 0.738723
O O8 0.264489 0.733566 0.737096
O O9 0.976503 0.561055 0.500000
O O10 0.993130 0.608774 0.252061
O O11 0.846142 0.547789 0.298169
O O12 0.000000 0.500000 0.263282
O O13 0.500000 0.500000 0.277873
O O14 0.595294 0.460038 0.500000
O O15 0.678686 0.514505 0.284479
O O16 0.616439 0.419078 0.238417
O O17 0.100731 0.690886 0.207876
O O18 0.987855 0.656628 0.000000
O O19 0.774105 0.081253 0.000000
O O20 0.899695 0.859429 0.500000
O O21 0.192807 0.743893 0.000000
#
# Coordination Sequence:
#
# PCOD8237287 Si02
#       8
#     8   8   8   8   8   8   8   8
#     4  11  22  36  58  89 122 158 204 251 300 362
#     4  11  23  41  63  91 125 161 203 249 303 368
#     4  10  23  42  63  88 118 153 201 254 299 351
#     4  10  20  35  57  84 118 159 203 247 303 369
#     4  10  23  42  64  90 122 158 200 248 302 361
#     4  10  21  38  61  87 117 160 207 254 310 366
#     4  11  23  37  57  87 124 161 200 248 304 361
#     4  11  23  40  62  90 124 161 202 251 306 362
#
# _framework density 19.847638
#
# number of rings (size 3 to 8) (size 9 to 14) (size 15 to 20)
#    0.000    1.500    2.500    2.250    0.000    7.500 
#    0.000    1.250    0.000    0.000    0.000    0.000 
#    0.000    0.000    0.000    0.000    0.000    0.000 
#
# Total GULP energy -793787.218719 kJ/mol
# GULP energy per Si atom -12402.925292 kJ/mol
# Density = 1.980246 g / cm^3
# Si number density = 19.847638 Si / 1000 Ang^3
#
#
#
# Elastic Constant Matrix: (Units=GPa)
#
#
# Indices 1 2 3 4 5 6 
#
# 1 97.4275 57.7615 41.2622 0.0000 0.0000 0.0000
# 2 57.7615 159.1045 64.4913 0.0000 0.0000 0.0000
# 3 41.2622 64.4913 83.6304 0.0000 0.0000 0.0000
# 4 0.0000 0.0000 0.0000 37.1262 0.0000 0.0000
# 5 0.0000 0.0000 0.0000 0.0000 29.0190 0.0000
# 6 0.0000 0.0000 0.0000 0.0000 0.0000 33.1325
#
#
#
# Elastic Compliance Matrix: (Units=1/GPa)
#
#
# Indices 1 2 3 4 5 6 
#
# 1 0.014101 -0.003345 -0.004378 0.000000 0.000000 0.000000
# 2 -0.003345 0.009936 -0.006012 0.000000 0.000000 0.000000
# 3 -0.004378 -0.006012 0.018754 0.000000 0.000000 0.000000
# 4 0.000000 0.000000 0.000000 0.026935 0.000000 0.000000
# 5 0.000000 0.000000 0.000000 0.000000 0.034460 0.000000
# 6 0.000000 0.000000 0.000000 0.000000 0.000000 0.030182
#
#
# Mechanical properties :
#
#
# Convention : Reuss Voigt Hill
#
# Bulk Modulus (GPa) = 65.26831 74.13251 69.70041
# Shear Modulus (GPa) = 29.94983 31.63202 30.79093
#
# Velocity S-wave (km/s) = 3.88878 3.99650 3.94301
# Velocity P-wave (km/s) = 7.28832 7.66341 7.47822
#
# Compressibility (1/GPa) = 0.01532137
#
# Stress axis : x y z
#
# Youngs Moduli (GPa) = 70.91585 100.63970 53.32256
#
# Poissons Ratio (x) = 0.33661 0.23345
# Poissons Ratio (y) = 0.23719 0.32059
# Poissons Ratio (z) = 0.31048 0.60507
#
# Static dielectric constant tensor:
#      x y z
#    x 3.649490 0.000000 0.000000 
#    y 0.000000 3.622610 0.000000 
#    z 0.000000 0.000000 3.612180 
# 
# 
# High freq. dielectric constant tensor:
#      x y z
#    x 1.778570 0.000000 0.000000 
#    y 0.000000 1.775980 0.000000 
#    z 0.000000 0.000000 1.774430 
# 
# From -- ./inp_files/6767.got.cif
#   From: 2010.06.25/outbox.cif.g09.slc.cpg/sg58_4_cif.got.tgz:6767.got - 2010.06.26 21:38:00.
