data_PCOD8237036
_publ_section_title
;
Structure prediction by ZEFSAII (Michael W. Deem and Ramdas Pophale) SiO2 
 PCOD8237036
Probable space group: P N N M
;
_chemical_formula_sum "Si O2"
_cell_formula_units_Z 48
_cell_length_a 17.061038
_cell_length_b 18.244062
_cell_length_c 8.483193
_cell_angle_alpha 90.000000
_cell_angle_beta 90.000000
_cell_angle_gamma 90.000000
_cell_volume 2640.501007
_symmetry_space_group_name_H-M "P N N M"
_symmetry_group_IT_number 58
_symmetry_cell_setting 'orthorhombic'
loop_
_space_group_symop_operation_xyz
x,y,z
-x,-y,z
1/2+x,1/2-y,1/2-z
1/2-x,1/2+y,1/2-z
-x,-y,-z
x,y,-z
1/2-x,1/2+y,1/2+z
1/2+x,1/2-y,1/2+z
loop_
_atom_site_type_symbol
_atom_site_label
_atom_site_fract_x
_atom_site_fract_y
_atom_site_fract_z
Si Si1 0.691789 0.292656 0.818387
Si Si2 0.178026 0.803717 0.679466
Si Si3 0.581625 0.829322 0.185571
Si Si4 0.719381 0.085780 0.179944
Si Si5 0.215974 0.570207 0.179971
Si Si6 0.914661 0.683927 0.815738
O O1 0.749753 0.251746 0.699392
O O2 0.705766 0.379607 0.796751
O O3 0.606341 0.262731 0.766203
O O4 0.708772 0.270495 0.000000
O O5 0.171445 0.829836 0.500000
O O6 0.101781 0.755986 0.729661
O O7 0.195862 0.876241 0.783255
O O8 0.638317 0.884772 0.276803
O O9 0.493928 0.846385 0.238871
O O10 0.592267 0.842498 0.000000
O O11 0.652134 0.123027 0.285735
O O12 0.725832 0.999870 0.210576
O O13 0.696717 0.098946 0.000000
O O14 0.208532 0.544258 0.000000
O O15 0.927075 0.695567 0.000000
#
# Coordination Sequence:
#
# PCOD8237036 Si02
#       6
#     8   8   8   8   8   8
#     4   9  17  31  51  72  96 127 164 204 242 287
#     4   9  17  31  51  72  96 127 164 204 242 287
#     4  10  20  34  52  75 102 131 165 203 247 295
#     4  11  21  33  51  74 102 133 166 203 244 292
#     4  10  20  34  52  75 102 131 165 203 247 295
#     4  11  21  33  51  74 102 133 166 203 244 292
#
# _framework density 18.178367999999999
#
# number of rings (size 3 to 8) (size 9 to 14) (size 15 to 20)
#    0.000    2.000    0.000    7.000    0.000    4.667 
#    0.000    3.333    0.000    1.000    0.000    7.000 
#    0.000    0.000    0.000    0.000    0.000    0.000 
#
# Total GULP energy -594911.959755 kJ/mol
# GULP energy per Si atom -12393.999162 kJ/mol
# Density = 1.813699 g / cm^3
# Si number density = 18.178368 Si / 1000 Ang^3
#
#
#
# Elastic Constant Matrix: (Units=GPa)
#
#
# Indices 1 2 3 4 5 6 
#
# 1 17.7455 32.5503 12.8137 0.0000 0.0000 0.0000
# 2 32.5503 103.7107 21.8692 0.0000 0.0000 0.0000
# 3 12.8137 21.8692 64.9042 0.0000 0.0000 0.0000
# 4 0.0000 0.0000 0.0000 29.0764 0.0000 0.0000
# 5 0.0000 0.0000 0.0000 0.0000 21.2076 0.0000
# 6 0.0000 0.0000 0.0000 0.0000 0.0000 19.0663
#
#
#
# Elastic Compliance Matrix: (Units=1/GPa)
#
#
# Indices 1 2 3 4 5 6 
#
# 1 0.144045 -0.042212 -0.014215 0.000000 0.000000 0.000000
# 2 -0.042212 0.022750 0.000668 0.000000 0.000000 0.000000
# 3 -0.014215 0.000668 0.017989 0.000000 0.000000 0.000000
# 4 0.000000 0.000000 0.000000 0.034392 0.000000 0.000000
# 5 0.000000 0.000000 0.000000 0.000000 0.047153 0.000000
# 6 0.000000 0.000000 0.000000 0.000000 0.000000 0.052449
#
#
# Mechanical properties :
#
#
# Convention : Reuss Voigt Hill
#
# Bulk Modulus (GPa) = 13.64887 35.64742 24.64815
# Shear Modulus (GPa) = 10.99586 21.81189 16.40388
#
# Velocity S-wave (km/s) = 2.46211 3.46769 3.00723
# Velocity P-wave (km/s) = 3.95060 5.97374 5.06423
#
# Compressibility (1/GPa) = 0.07326615
#
# Stress axis : x y z
#
# Youngs Moduli (GPa) = 6.94226 43.95645 55.59097
#
# Poissons Ratio (x) = 1.85549 0.79022
# Poissons Ratio (y) = 0.29305 -0.03715
# Poissons Ratio (z) = 0.09868 -0.02937
#
# Static dielectric constant tensor:
#      x y z
#    x 3.339140 0.000000 0.000000 
#    y 0.000000 3.427320 0.000000 
#    z 0.000000 0.000000 3.390230 
# 
# 
# High freq. dielectric constant tensor:
#      x y z
#    x 1.672930 0.000000 0.000000 
#    y 0.000000 1.694190 0.000000 
#    z 0.000000 0.000000 1.721110 
# 
# From -- ./inp_files/5775.got.cif
#   From: 2010.06.25/outbox.cif.g09.slc.cpg/sg58_3_cif.got.tgz:5775.got - 2010.06.26 21:38:00.
