data_PCOD8237982
_publ_section_title
;
Structure prediction by ZEFSAII (Michael W. Deem and Ramdas Pophale) SiO2 
 PCOD8237982
Probable space group: P N N M
;
_chemical_formula_sum "Si O2"
_cell_formula_units_Z 56
_cell_length_a 16.223196
_cell_length_b 19.862499
_cell_length_c 9.046195
_cell_angle_alpha 90.000000
_cell_angle_beta 90.000000
_cell_angle_gamma 90.000000
_cell_volume 2914.984492
_symmetry_space_group_name_H-M "P N N M"
_symmetry_group_IT_number 58
_symmetry_cell_setting 'orthorhombic'
loop_
_space_group_symop_operation_xyz
x,y,z
-x,-y,z
1/2+x,1/2-y,1/2-z
1/2-x,1/2+y,1/2-z
-x,-y,-z
x,y,-z
1/2-x,1/2+y,1/2+z
1/2+x,1/2-y,1/2+z
loop_
_atom_site_type_symbol
_atom_site_label
_atom_site_fract_x
_atom_site_fract_y
_atom_site_fract_z
Si Si1 0.311250 0.113392 0.170338
Si Si2 0.654746 0.152100 0.325197
Si Si3 0.936596 0.054248 0.827916
Si Si4 0.512240 0.832052 0.829839
Si Si5 0.687359 0.289448 0.173614
Si Si6 0.003499 0.179978 0.330421
Si Si7 0.251440 0.965447 0.170774
O O1 0.407417 0.124151 0.204365
O O2 0.259181 0.161686 0.274654
O O3 0.291817 0.036734 0.208808
O O4 0.290301 0.130236 0.000000
O O5 0.655904 0.159403 0.500000
O O6 0.561317 0.140639 0.271261
O O7 0.695629 0.218284 0.255165
O O8 0.708633 0.088712 0.277914
O O9 0.845067 0.029204 0.792821
O O10 0.950652 0.127887 0.762695
O O11 0.953746 0.060801 0.000000
O O12 0.000000 0.000000 0.757895
O O13 0.531557 0.754080 0.794652
O O14 0.483754 0.839006 0.000000
O O15 0.599852 0.323427 0.213122
O O16 0.694860 0.275751 0.000000
O O17 0.990640 0.161058 0.500000
O O18 0.266452 0.945415 0.000000
#
# Coordination Sequence:
#
# PCOD8237982 Si02
#       7
#     8   8   8   8   8   8   8
#     4  10  21  38  62  88 117 155 197 239 293 362
#     4  11  23  39  60  85 115 155 202 247 295 352
#     4  10  21  36  56  83 116 152 193 237 283 345
#     4   9  20  39  60  85 115 148 191 243 298 352
#     4  10  21  38  60  86 119 153 191 244 300 351
#     4   9  19  35  55  81 113 147 186 235 290 346
#     4  10  22  39  58  85 121 159 195 240 300 354
#
# _framework density 19.211079000000002
#
# number of rings (size 3 to 8) (size 9 to 14) (size 15 to 20)
#    0.000    2.143    0.000    3.429    2.000    6.571 
#    0.000    2.857    0.000    0.000    0.000    0.000 
#    0.000    0.000    0.000    0.000    0.000    0.000 
#
# Total GULP energy -694646.986224 kJ/mol
# GULP energy per Si atom -12404.410468 kJ/mol
# Density = 1.916735 g / cm^3
# Si number density = 19.211079 Si / 1000 Ang^3
#
#
#
# Elastic Constant Matrix: (Units=GPa)
#
#
# Indices 1 2 3 4 5 6 
#
# 1 48.3919 34.8531 34.9617 0.0000 0.0000 0.0000
# 2 34.8531 91.2706 43.1567 0.0000 0.0000 0.0000
# 3 34.9617 43.1567 84.6540 0.0000 0.0000 0.0000
# 4 0.0000 0.0000 0.0000 31.9697 0.0000 0.0000
# 5 0.0000 0.0000 0.0000 0.0000 27.3035 0.0000
# 6 0.0000 0.0000 0.0000 0.0000 0.0000 37.2295
#
#
#
# Elastic Compliance Matrix: (Units=1/GPa)
#
#
# Indices 1 2 3 4 5 6 
#
# 1 0.033595 -0.008259 -0.009664 0.000000 0.000000 0.000000
# 2 -0.008259 0.016467 -0.004984 0.000000 0.000000 0.000000
# 3 -0.009664 -0.004984 0.018345 0.000000 0.000000 0.000000
# 4 0.000000 0.000000 0.000000 0.031280 0.000000 0.000000
# 5 0.000000 0.000000 0.000000 0.000000 0.036625 0.000000
# 6 0.000000 0.000000 0.000000 0.000000 0.000000 0.026860
#
#
# Mechanical properties :
#
#
# Convention : Reuss Voigt Hill
#
# Bulk Modulus (GPa) = 44.26236 50.02886 47.14561
# Shear Modulus (GPa) = 23.09284 26.72356 24.90820
#
# Velocity S-wave (km/s) = 3.47083 3.73372 3.60468
# Velocity P-wave (km/s) = 6.25718 6.68474 6.47449
#
# Compressibility (1/GPa) = 0.02259256
#
# Stress axis : x y z
#
# Youngs Moduli (GPa) = 29.76618 60.72778 54.51146
#
# Poissons Ratio (x) = 0.50157 0.52680
# Poissons Ratio (y) = 0.24585 0.27168
# Poissons Ratio (z) = 0.28766 0.30266
#
# Static dielectric constant tensor:
#      x y z
#    x 3.587470 0.000000 0.000000 
#    y 0.000000 3.524830 0.000000 
#    z 0.000000 0.000000 3.412910 
# 
# 
# High freq. dielectric constant tensor:
#      x y z
#    x 1.753230 0.000000 0.000000 
#    y 0.000000 1.751370 0.000000 
#    z 0.000000 0.000000 1.740380 
# 
# From -- ./inp_files/6447.got.cif
#   From: 2010.06.25/outbox.cif.g09.slc.cpg/sg58_4_cif.got.tgz:6447.got - 2010.06.26 21:38:00.
