data_PCOD8237334
_publ_section_title
;
Structure prediction by ZEFSAII (Michael W. Deem and Ramdas Pophale) SiO2 
 PCOD8237334
Probable space group: P N N M
;
_chemical_formula_sum "Si O2"
_cell_formula_units_Z 56
_cell_length_a 23.938125
_cell_length_b 13.106313
_cell_length_c 8.655550
_cell_angle_alpha 90.000000
_cell_angle_beta 90.000000
_cell_angle_gamma 90.000000
_cell_volume 2715.597094
_symmetry_space_group_name_H-M "P N N M"
_symmetry_group_IT_number 58
_symmetry_cell_setting 'orthorhombic'
loop_
_space_group_symop_operation_xyz
x,y,z
-x,-y,z
1/2+x,1/2-y,1/2-z
1/2-x,1/2+y,1/2-z
-x,-y,-z
x,y,-z
1/2-x,1/2+y,1/2+z
1/2+x,1/2-y,1/2+z
loop_
_atom_site_type_symbol
_atom_site_label
_atom_site_fract_x
_atom_site_fract_y
_atom_site_fract_z
Si Si1 0.654863 0.750635 0.321365
Si Si2 0.332181 0.019031 0.679059
Si Si3 0.948303 0.779155 0.179429
Si Si4 0.125656 0.059709 0.679415
Si Si5 0.555649 0.060119 0.819957
Si Si6 0.776410 0.055381 0.821117
Si Si7 0.556413 0.640410 0.178777
O O1 0.636734 0.743164 0.500000
O O2 0.677469 0.862317 0.280225
O O3 0.703524 0.669960 0.281394
O O4 0.600257 0.729546 0.218517
O O5 0.322055 0.997087 0.500000
O O6 0.394308 0.986518 0.721622
O O7 0.288213 0.952257 0.775271
O O8 0.892481 0.841161 0.223995
O O9 0.952594 0.678052 0.280941
O O10 0.001447 0.849419 0.218013
O O11 0.946645 0.750517 0.000000
O O12 0.124642 0.087714 0.500000
O O13 0.188152 0.027751 0.725895
O O14 0.083524 0.968017 0.719301
O O15 0.500000 0.000000 0.772314
O O16 0.569012 0.047284 0.000000
O O17 0.784656 0.031087 0.000000
O O18 0.539465 0.648244 0.000000
#
# Coordination Sequence:
#
# PCOD8237334 Si02
#       7
#     8   8   8   8   8   8   8
#     4   9  20  38  60  84 114 154 196 242 293 346
#     4  11  23  40  62  88 118 154 196 242 295 350
#     4  12  24  37  58  87 120 158 196 240 294 350
#     4  10  21  38  59  86 121 157 196 244 295 347
#     4  11  25  44  64  87 116 151 194 243 294 351
#     4  10  21  39  61  87 119 156 200 245 292 347
#     4  10  20  35  58  87 119 156 197 241 290 346
#
# _framework density 20.621617000000001
#
# number of rings (size 3 to 8) (size 9 to 14) (size 15 to 20)
#    0.000    1.571    0.000    4.714    0.000    9.714 
#    0.000    4.286    0.000    0.000    0.000    0.000 
#    0.000    0.000    0.000    0.000    0.000    0.000 
#
# Total GULP energy -694794.022652 kJ/mol
# GULP energy per Si atom -12407.036119 kJ/mol
# Density = 2.057468 g / cm^3
# Si number density = 20.621617 Si / 1000 Ang^3
#
#
#
# Elastic Constant Matrix: (Units=GPa)
#
#
# Indices 1 2 3 4 5 6 
#
# 1 101.4872 32.9409 17.3860 0.0000 0.0000 0.0000
# 2 32.9409 76.9666 18.9913 0.0000 0.0000 0.0000
# 3 17.3860 18.9913 47.6516 0.0000 0.0000 0.0000
# 4 0.0000 0.0000 0.0000 31.3202 0.0000 0.0000
# 5 0.0000 0.0000 0.0000 0.0000 39.7082 0.0000
# 6 0.0000 0.0000 0.0000 0.0000 0.0000 27.1306
#
#
#
# Elastic Compliance Matrix: (Units=1/GPa)
#
#
# Indices 1 2 3 4 5 6 
#
# 1 0.011710 -0.004389 -0.002523 0.000000 0.000000 0.000000
# 2 -0.004389 0.016055 -0.004797 0.000000 0.000000 0.000000
# 3 -0.002523 -0.004797 0.023818 0.000000 0.000000 0.000000
# 4 0.000000 0.000000 0.000000 0.031928 0.000000 0.000000
# 5 0.000000 0.000000 0.000000 0.000000 0.025184 0.000000
# 6 0.000000 0.000000 0.000000 0.000000 0.000000 0.036859
#
#
# Mechanical properties :
#
#
# Convention : Reuss Voigt Hill
#
# Bulk Modulus (GPa) = 35.50628 40.52687 38.01658
# Shear Modulus (GPa) = 28.03291 30.08427 29.05859
#
# Velocity S-wave (km/s) = 3.69100 3.82366 3.75791
# Velocity P-wave (km/s) = 5.95147 6.26012 6.10774
#
# Compressibility (1/GPa) = 0.02816403
#
# Stress axis : x y z
#
# Youngs Moduli (GPa) = 85.39400 62.28626 41.98471
#
# Poissons Ratio (x) = 0.27339 0.10594
# Poissons Ratio (y) = 0.37482 0.20141
# Poissons Ratio (z) = 0.21547 0.29880
#
# Static dielectric constant tensor:
#      x y z
#    x 3.666310 0.000000 0.000000 
#    y 0.000000 3.791430 0.000000 
#    z 0.000000 0.000000 3.710850 
# 
# 
# High freq. dielectric constant tensor:
#      x y z
#    x 1.805900 0.000000 0.000000 
#    y 0.000000 1.808540 0.000000 
#    z 0.000000 0.000000 1.812840 
# 
# From -- ./inp_files/9029.got.cif
#   From: 2010.06.25/outbox.cif.g09.slc.cpg/sg58_5_cif.got.tgz:9029.got - 2010.06.26 21:38:00.
