data_PCOD8237717
_publ_section_title
;
Structure prediction by ZEFSAII (Michael W. Deem and Ramdas Pophale) SiO2 
 PCOD8237717
Probable space group: P N N M
;
_chemical_formula_sum "Si O2"
_cell_formula_units_Z 48
_cell_length_a 14.929481
_cell_length_b 18.658361
_cell_length_c 8.884670
_cell_angle_alpha 90.000000
_cell_angle_beta 90.000000
_cell_angle_gamma 90.000000
_cell_volume 2474.910530
_symmetry_space_group_name_H-M "P N N M"
_symmetry_group_IT_number 58
_symmetry_cell_setting 'orthorhombic'
loop_
_space_group_symop_operation_xyz
x,y,z
-x,-y,z
1/2+x,1/2-y,1/2-z
1/2-x,1/2+y,1/2-z
-x,-y,-z
x,y,-z
1/2-x,1/2+y,1/2+z
1/2+x,1/2-y,1/2+z
loop_
_atom_site_type_symbol
_atom_site_label
_atom_site_fract_x
_atom_site_fract_y
_atom_site_fract_z
Si Si1 0.800432 0.740058 0.678295
Si Si2 0.504050 0.281248 0.821111
Si Si3 0.349821 0.175395 0.824185
Si Si4 0.442524 0.434403 0.821817
Si Si5 0.257351 0.909812 0.323117
Si Si6 0.898206 0.487217 0.325322
O O1 0.799291 0.734399 0.500000
O O2 0.899850 0.755996 0.739848
O O3 0.738831 0.805620 0.731665
O O4 0.764139 0.666830 0.745991
O O5 0.431028 0.224303 0.764077
O O6 0.480230 0.359647 0.755417
O O7 0.504586 0.283340 0.000000
O O8 0.373287 0.093881 0.789407
O O9 0.332449 0.188887 0.000000
O O10 0.500000 0.500000 0.752107
O O11 0.338373 0.444102 0.777668
O O12 0.454013 0.433514 0.000000
O O13 0.263557 0.897491 0.500000
O O14 0.335814 0.961661 0.271484
O O15 0.885246 0.506754 0.500000
O O16 0.000000 0.500000 0.275337
#
# Coordination Sequence:
#
# PCOD8237717 Si02
#       6
#     8   8   8   8   8   8
#     4  11  22  36  60  88 116 152 196 239 286 352
#     4   9  18  35  58  81 110 152 196 231 277 347
#     4  10  20  38  60  84 115 151 192 240 291 342
#     4   9  18  33  56  83 111 149 194 236 281 341
#     4  11  22  38  62  87 118 153 193 246 296 342
#     4  10  22  40  62  85 117 159 198 238 293 360
#
# _framework density 19.394641
#
# number of rings (size 3 to 8) (size 9 to 14) (size 15 to 20)
#    0.000    2.000    1.667    2.000    2.333    3.667 
#    0.000    3.333    0.000    2.000    0.000    0.000 
#    0.000    0.000    0.000    0.000    0.000    0.000 
#
# Total GULP energy -595325.706007 kJ/mol
# GULP energy per Si atom -12402.618875 kJ/mol
# Density = 1.935050 g / cm^3
# Si number density = 19.394641 Si / 1000 Ang^3
#
#
#
# Elastic Constant Matrix: (Units=GPa)
#
#
# Indices 1 2 3 4 5 6 
#
# 1 126.5364 37.0460 35.3118 0.0000 0.0000 0.0000
# 2 37.0460 97.7462 29.9605 0.0000 0.0000 0.0000
# 3 35.3118 29.9605 45.5532 0.0000 0.0000 0.0000
# 4 0.0000 0.0000 0.0000 17.0744 0.0000 0.0000
# 5 0.0000 0.0000 0.0000 0.0000 29.0758 0.0000
# 6 0.0000 0.0000 0.0000 0.0000 0.0000 42.0459
#
#
#
# Elastic Compliance Matrix: (Units=1/GPa)
#
#
# Indices 1 2 3 4 5 6 
#
# 1 0.010340 -0.001831 -0.006811 0.000000 0.000000 0.000000
# 2 -0.001831 0.013138 -0.007221 0.000000 0.000000 0.000000
# 3 -0.006811 -0.007221 0.031981 0.000000 0.000000 0.000000
# 4 0.000000 0.000000 0.000000 0.058567 0.000000 0.000000
# 5 0.000000 0.000000 0.000000 0.000000 0.034393 0.000000
# 6 0.000000 0.000000 0.000000 0.000000 0.000000 0.023784
#
#
# Mechanical properties :
#
#
# Convention : Reuss Voigt Hill
#
# Bulk Modulus (GPa) = 42.13634 52.71916 47.42775
# Shear Modulus (GPa) = 23.60269 28.80705 26.20487
#
# Velocity S-wave (km/s) = 3.49229 3.85815 3.67977
# Velocity P-wave (km/s) = 6.16721 6.86210 6.52391
#
# Compressibility (1/GPa) = 0.02373249
#
# Stress axis : x y z
#
# Youngs Moduli (GPa) = 96.71568 76.11470 31.26817
#
# Poissons Ratio (x) = 0.13938 0.21296
# Poissons Ratio (y) = 0.17710 0.22580
# Poissons Ratio (z) = 0.65870 0.54966
#
# Static dielectric constant tensor:
#      x y z
#    x 3.826720 0.000000 0.000000 
#    y 0.000000 3.798290 0.000000 
#    z 0.000000 0.000000 3.185150 
# 
# 
# High freq. dielectric constant tensor:
#      x y z
#    x 1.773260 0.000000 0.000000 
#    y 0.000000 1.768720 0.000000 
#    z 0.000000 0.000000 1.718320 
# 
# From -- ./inp_files/5759.got.cif
#   From: 2010.06.25/outbox.cif.g09.slc.cpg/sg58_3_cif.got.tgz:5759.got - 2010.06.26 21:38:00.
