data_PCOD8237686
_publ_section_title
;
Structure prediction by ZEFSAII (Michael W. Deem and Ramdas Pophale) SiO2 
 PCOD8237686
Probable space group: P N N M
;
_chemical_formula_sum "Si O2"
_cell_formula_units_Z 64
_cell_length_a 12.196704
_cell_length_b 19.569415
_cell_length_c 13.312805
_cell_angle_alpha 90.000000
_cell_angle_beta 90.000000
_cell_angle_gamma 90.000000
_cell_volume 3177.531745
_symmetry_space_group_name_H-M "P N N M"
_symmetry_group_IT_number 58
_symmetry_cell_setting 'orthorhombic'
loop_
_space_group_symop_operation_xyz
x,y,z
-x,-y,z
1/2+x,1/2-y,1/2-z
1/2-x,1/2+y,1/2-z
-x,-y,-z
x,y,-z
1/2-x,1/2+y,1/2+z
1/2+x,1/2-y,1/2+z
loop_
_atom_site_type_symbol
_atom_site_label
_atom_site_fract_x
_atom_site_fract_y
_atom_site_fract_z
Si Si1 0.318393 0.827903 0.889923
Si Si2 0.478550 0.075792 0.111460
Si Si3 0.869918 0.359885 0.203608
Si Si4 0.744118 0.621753 0.189445
Si Si5 0.924574 0.720391 0.885215
Si Si6 0.636796 0.306322 0.209516
Si Si7 0.372119 0.001184 0.385309
Si Si8 0.991468 0.078627 0.382110
O O1 0.405977 0.887398 0.892959
O O2 0.231615 0.849340 0.803411
O O3 0.384390 0.757996 0.864231
O O4 0.261116 0.820977 0.000000
O O5 0.396126 0.114019 0.185090
O O6 0.500000 0.000000 0.152926
O O7 0.425026 0.073694 0.000000
O O8 0.768366 0.309388 0.214444
O O9 0.830593 0.422181 0.132960
O O10 0.972404 0.323132 0.152558
O O11 0.814479 0.675334 0.124421
O O12 0.808153 0.549787 0.188318
O O13 0.625006 0.612300 0.142435
O O14 0.912816 0.789029 0.819163
O O15 0.942574 0.742035 0.000000
O O16 0.584476 0.376566 0.171554
O O17 0.348193 0.979312 0.500000
O O18 0.500000 0.000000 0.359427
O O19 0.013212 0.081155 0.500000
O O20 0.000000 0.000000 0.343859
#
# Coordination Sequence:
#
# PCOD8237686 Si02
#       8
#     8   8   8   8   8   8   8   8
#     4  10  21  38  61  90 126 165 210 260 317 378
#     4  10  20  37  63  94 128 165 204 257 321 378
#     4  12  22  39  62  91 127 161 208 267 313 377
#     4  11  21  39  63  93 128 162 208 259 318 379
#     4  11  24  41  63  94 126 163 209 264 324 369
#     4  11  26  41  61  92 127 169 215 262 316 383
#     4  11  20  33  59  93 126 157 197 261 325 371
#     4  11  25  45  67  92 127 170 214 259 317 390
#
# _framework density 20.14142
#
# number of rings (size 3 to 8) (size 9 to 14) (size 15 to 20)
#    0.000    1.125    3.750    3.750    3.500    3.500 
#    0.000    0.000    0.000    3.000    0.000    0.000 
#    0.000    0.000    0.000    0.000    0.000    0.000 
#
# Total GULP energy -793625.502508 kJ/mol
# GULP energy per Si atom -12400.398477 kJ/mol
# Density = 2.009558 g / cm^3
# Si number density = 20.141420 Si / 1000 Ang^3
#
#
#
# Elastic Constant Matrix: (Units=GPa)
#
#
# Indices 1 2 3 4 5 6 
#
# 1 77.2727 27.6826 32.7055 0.0000 0.0000 0.0000
# 2 27.6826 104.8563 47.2758 0.0000 0.0000 0.0000
# 3 32.7055 47.2758 142.1645 0.0000 0.0000 0.0000
# 4 0.0000 0.0000 0.0000 26.3250 0.0000 0.0000
# 5 0.0000 0.0000 0.0000 0.0000 18.1512 0.0000
# 6 0.0000 0.0000 0.0000 0.0000 0.0000 26.3239
#
#
#
# Elastic Compliance Matrix: (Units=1/GPa)
#
#
# Indices 1 2 3 4 5 6 
#
# 1 0.015020 -0.002832 -0.002514 0.000000 0.000000 0.000000
# 2 -0.002832 0.011753 -0.003257 0.000000 0.000000 0.000000
# 3 -0.002514 -0.003257 0.008695 0.000000 0.000000 0.000000
# 4 0.000000 0.000000 0.000000 0.037987 0.000000 0.000000
# 5 0.000000 0.000000 0.000000 0.000000 0.055093 0.000000
# 6 0.000000 0.000000 0.000000 0.000000 0.000000 0.037988
#
#
# Mechanical properties :
#
#
# Convention : Reuss Voigt Hill
#
# Bulk Modulus (GPa) = 54.75507 59.95789 57.35648
# Shear Modulus (GPa) = 26.33962 28.60200 27.47081
#
# Velocity S-wave (km/s) = 3.62018 3.77245 3.69710
# Velocity P-wave (km/s) = 6.68720 6.98629 6.83838
#
# Compressibility (1/GPa) = 0.01826315
#
# Stress axis : x y z
#
# Youngs Moduli (GPa) = 66.57973 85.08533 115.00333
#
# Poissons Ratio (x) = 0.24096 0.28907
# Poissons Ratio (y) = 0.18855 0.37455
# Poissons Ratio (z) = 0.16735 0.27711
#
# Static dielectric constant tensor:
#      x y z
#    x 3.480670 0.000000 0.000000 
#    y 0.000000 3.862410 0.000000 
#    z 0.000000 0.000000 4.070670 
# 
# 
# High freq. dielectric constant tensor:
#      x y z
#    x 1.765350 0.000000 0.000000 
#    y 0.000000 1.794590 0.000000 
#    z 0.000000 0.000000 1.793540 
# 
# From -- ./inp_files/21491.got.cif
#   From: 2010.06.25/outbox.cif.g09.slc.cpg/sg58_11_cif.got.tgz:21491.got - 2010.06.26 21:38:00.
