data_PCOD8237065
_publ_section_title
;
Structure prediction by ZEFSAII (Michael W. Deem and Ramdas Pophale) SiO2 
 PCOD8237065
Probable space group: P N N M
;
_chemical_formula_sum "Si O2"
_cell_formula_units_Z 56
_cell_length_a 23.355233
_cell_length_b 13.604210
_cell_length_c 9.248877
_cell_angle_alpha 90.000000
_cell_angle_beta 90.000000
_cell_angle_gamma 90.000000
_cell_volume 2938.641012
_symmetry_space_group_name_H-M "P N N M"
_symmetry_group_IT_number 58
_symmetry_cell_setting 'orthorhombic'
loop_
_space_group_symop_operation_xyz
x,y,z
-x,-y,z
1/2+x,1/2-y,1/2-z
1/2-x,1/2+y,1/2-z
-x,-y,-z
x,y,-z
1/2-x,1/2+y,1/2+z
1/2+x,1/2-y,1/2+z
loop_
_atom_site_type_symbol
_atom_site_label
_atom_site_fract_x
_atom_site_fract_y
_atom_site_fract_z
Si Si1 0.475579 0.608070 0.665587
Si Si2 0.541309 0.774121 0.830392
Si Si3 0.837774 0.523464 0.830726
Si Si4 0.064198 0.390889 0.340766
Si Si5 0.624441 0.318475 0.161592
Si Si6 0.719711 0.224993 0.333842
Si Si7 0.167419 0.668003 0.333328
O O1 0.500000 0.500000 0.676606
O O2 0.466365 0.641073 0.500000
O O3 0.520339 0.681538 0.739227
O O4 0.414406 0.606754 0.746659
O O5 0.502525 0.872151 0.798855
O O6 0.605731 0.795438 0.779372
O O7 0.537671 0.747114 0.000000
O O8 0.902529 0.541865 0.773608
O O9 0.795760 0.613498 0.788440
O O10 0.812263 0.426635 0.756800
O O11 0.841268 0.506455 0.000000
O O12 0.068935 0.440317 0.500000
O O13 0.091652 0.283802 0.344347
O O14 0.685414 0.304010 0.238393
O O15 0.634339 0.360431 0.000000
O O16 0.701967 0.241731 0.500000
O O17 0.787063 0.244115 0.308686
O O18 0.164833 0.636421 0.500000
#
# Coordination Sequence:
#
# PCOD8237065 Si02
#       7
#     8   8   8   8   8   8   8
#     4  10  20  34  53  79 113 146 180 223 276 334
#     4   9  19  35  55  79 108 143 185 227 272 324
#     4  10  20  34  54  80 107 139 182 228 272 328
#     4   8  15  30  52  76 102 133 172 215 264 322
#     4   9  17  31  54  79 102 136 182 225 265 314
#     4   9  19  37  57  76 107 146 183 226 277 327
#     4  10  21  38  57  78 110 149 183 226 279 329
#
# _framework density 19.056426999999999
#
# number of rings (size 3 to 8) (size 9 to 14) (size 15 to 20)
#    0.000    2.714    0.000    2.143    0.000    6.857 
#    2.571    2.857    0.000    0.000    0.000    0.000 
#    0.000    0.000    0.000    0.000    0.000    0.000 
#
# Total GULP energy -694340.845397 kJ/mol
# GULP energy per Si atom -12398.943668 kJ/mol
# Density = 1.901305 g / cm^3
# Si number density = 19.056427 Si / 1000 Ang^3
#
#
#
# Elastic Constant Matrix: (Units=GPa)
#
#
# Indices 1 2 3 4 5 6 
#
# 1 122.0785 36.5147 40.4265 0.0000 0.0000 0.0000
# 2 36.5147 67.2038 43.7471 0.0000 0.0000 0.0000
# 3 40.4265 43.7471 95.1011 0.0000 0.0000 0.0000
# 4 0.0000 0.0000 0.0000 29.5542 0.0000 0.0000
# 5 0.0000 0.0000 0.0000 0.0000 25.3237 0.0000
# 6 0.0000 0.0000 0.0000 0.0000 0.0000 22.8932
#
#
#
# Elastic Compliance Matrix: (Units=1/GPa)
#
#
# Indices 1 2 3 4 5 6 
#
# 1 0.010196 -0.003881 -0.002549 0.000000 0.000000 0.000000
# 2 -0.003881 0.022717 -0.008801 0.000000 0.000000 0.000000
# 3 -0.002549 -0.008801 0.015647 0.000000 0.000000 0.000000
# 4 0.000000 0.000000 0.000000 0.033836 0.000000 0.000000
# 5 0.000000 0.000000 0.000000 0.000000 0.039489 0.000000
# 6 0.000000 0.000000 0.000000 0.000000 0.000000 0.043681
#
#
# Mechanical properties :
#
#
# Convention : Reuss Voigt Hill
#
# Bulk Modulus (GPa) = 55.24858 58.41780 56.83319
# Shear Modulus (GPa) = 24.74498 26.46721 25.60610
#
# Velocity S-wave (km/s) = 3.60740 3.73082 3.66963
# Velocity P-wave (km/s) = 6.81220 7.02000 6.91688
#
# Compressibility (1/GPa) = 0.01810001
#
# Stress axis : x y z
#
# Youngs Moduli (GPa) = 98.07399 44.01900 63.90965
#
# Poissons Ratio (x) = 0.17082 0.16292
# Poissons Ratio (y) = 0.38059 0.56244
# Poissons Ratio (z) = 0.25002 0.38739
#
# Static dielectric constant tensor:
#      x y z
#    x 3.637330 0.000000 0.000000 
#    y 0.000000 3.237980 0.000000 
#    z 0.000000 0.000000 3.612680 
# 
# 
# High freq. dielectric constant tensor:
#      x y z
#    x 1.739800 0.000000 0.000000 
#    y 0.000000 1.719800 0.000000 
#    z 0.000000 0.000000 1.742400 
# 
# From -- ./inp_files/9013.got.cif
#   From: 2010.06.25/outbox.cif.g09.slc.cpg/sg58_5_cif.got.tgz:9013.got - 2010.06.26 21:38:00.
