data_PCOD8237530
_publ_section_title
;
Structure prediction by ZEFSAII (Michael W. Deem and Ramdas Pophale) SiO2 
 PCOD8237530
Probable space group: P N N M
;
_chemical_formula_sum "Si O2"
_cell_formula_units_Z 56
_cell_length_a 15.683484
_cell_length_b 11.218593
_cell_length_c 15.305589
_cell_angle_alpha 90.000000
_cell_angle_beta 90.000000
_cell_angle_gamma 90.000000
_cell_volume 2692.966710
_symmetry_space_group_name_H-M "P N N M"
_symmetry_group_IT_number 58
_symmetry_cell_setting 'orthorhombic'
loop_
_space_group_symop_operation_xyz
x,y,z
-x,-y,z
1/2+x,1/2-y,1/2-z
1/2-x,1/2+y,1/2-z
-x,-y,-z
x,y,-z
1/2-x,1/2+y,1/2+z
1/2+x,1/2-y,1/2+z
loop_
_atom_site_type_symbol
_atom_site_label
_atom_site_fract_x
_atom_site_fract_y
_atom_site_fract_z
Si Si1 0.365532 0.189067 0.899879
Si Si2 0.388114 0.161246 0.402038
Si Si3 0.959089 0.729220 0.673534
Si Si4 0.799398 0.093327 0.700234
Si Si5 0.379088 0.992159 0.243940
Si Si6 0.458899 0.378281 0.681706
Si Si7 0.194711 0.144906 0.598678
O O1 0.463955 0.230278 0.895676
O O2 0.305209 0.295648 0.866445
O O3 0.351689 0.076970 0.836152
O O4 0.342075 0.156356 0.000000
O O5 0.401192 0.108840 0.500000
O O6 0.447322 0.278780 0.393572
O O7 0.289302 0.195969 0.385978
O O8 0.412402 0.064595 0.328645
O O9 0.955123 0.597741 0.716938
O O10 0.870663 0.751794 0.624824
O O11 0.976021 0.830557 0.745316
O O12 0.702483 0.088974 0.732973
O O13 0.864480 0.106003 0.779976
O O14 0.824771 0.972211 0.653051
O O15 0.500000 0.500000 0.643374
O O16 0.179421 0.107243 0.500000
#
# Coordination Sequence:
#
# PCOD8237530 Si02
#       7
#     8   8   8   8   8   8   8
#     4  11  24  40  64  99 132 161 205 266 324 380
#     4  10  22  41  63  88 120 170 222 263 306 367
#     4  11  22  36  62  95 130 167 201 250 323 385
#     4  10  21  38  62  89 124 172 210 255 305 375
#     4  11  23  40  66  88 128 175 210 256 313 381
#     4  11  21  38  61  90 122 161 208 258 316 373
#     4  10  20  36  61  92 124 164 211 253 305 382
#
# _framework density 20.794910000000002
#
# number of rings (size 3 to 8) (size 9 to 14) (size 15 to 20)
#    0.000    1.429    4.286    2.143    2.000    2.571 
#    0.000    4.286    0.000    1.714    0.000    0.000 
#    0.000    0.000    0.000    0.000    0.000    0.000 
#
# Total GULP energy -694441.762871 kJ/mol
# GULP energy per Si atom -12400.745766 kJ/mol
# Density = 2.074758 g / cm^3
# Si number density = 20.794910 Si / 1000 Ang^3
#
#
#
# Elastic Constant Matrix: (Units=GPa)
#
#
# Indices 1 2 3 4 5 6 
#
# 1 41.2896 16.5692 14.7166 0.0000 0.0000 0.0000
# 2 16.5692 86.9807 27.7771 0.0000 0.0000 0.0000
# 3 14.7166 27.7771 102.7858 0.0000 0.0000 0.0000
# 4 0.0000 0.0000 0.0000 13.0747 0.0000 0.0000
# 5 0.0000 0.0000 0.0000 0.0000 20.9188 0.0000
# 6 0.0000 0.0000 0.0000 0.0000 0.0000 44.0488
#
#
#
# Elastic Compliance Matrix: (Units=1/GPa)
#
#
# Indices 1 2 3 4 5 6 
#
# 1 0.026891 -0.004261 -0.002699 0.000000 0.000000 0.000000
# 2 -0.004261 0.013258 -0.002973 0.000000 0.000000 0.000000
# 3 -0.002699 -0.002973 0.010919 0.000000 0.000000 0.000000
# 4 0.000000 0.000000 0.000000 0.076484 0.000000 0.000000
# 5 0.000000 0.000000 0.000000 0.000000 0.047804 0.000000
# 6 0.000000 0.000000 0.000000 0.000000 0.000000 0.022702
#
#
# Mechanical properties :
#
#
# Convention : Reuss Voigt Hill
#
# Bulk Modulus (GPa) = 32.04824 38.79801 35.42313
# Shear Modulus (GPa) = 21.89887 27.07468 24.48677
#
# Velocity S-wave (km/s) = 3.24865 3.61222 3.43525
# Velocity P-wave (km/s) = 5.43293 6.00795 5.72766
#
# Compressibility (1/GPa) = 0.03120296
#
# Stress axis : x y z
#
# Youngs Moduli (GPa) = 37.18733 75.42741 91.58563
#
# Poissons Ratio (x) = 0.32137 0.24717
# Poissons Ratio (y) = 0.15844 0.27226
# Poissons Ratio (z) = 0.10036 0.22423
#
# Static dielectric constant tensor:
#      x y z
#    x 3.712720 0.000000 0.000000 
#    y 0.000000 3.743380 0.000000 
#    z 0.000000 0.000000 3.651580 
# 
# 
# High freq. dielectric constant tensor:
#      x y z
#    x 1.816640 0.000000 0.000000 
#    y 0.000000 1.817000 0.000000 
#    z 0.000000 0.000000 1.801400 
# 
# From -- ./inp_files/22201.got.cif
#   From: 2010.06.25/outbox.cif.g09.slc.cpg/sg58_12_cif.got.tgz:22201.got - 2010.06.26 21:38:00.
