data_PCOD8237224
_publ_section_title
;
Structure prediction by ZEFSAII (Michael W. Deem and Ramdas Pophale) SiO2 
 PCOD8237224
Probable space group: P N N M
;
_chemical_formula_sum "Si O2"
_cell_formula_units_Z 64
_cell_length_a 12.259497
_cell_length_b 15.385620
_cell_length_c 17.253904
_cell_angle_alpha 90.000000
_cell_angle_beta 90.000000
_cell_angle_gamma 90.000000
_cell_volume 3254.430721
_symmetry_space_group_name_H-M "P N N M"
_symmetry_group_IT_number 58
_symmetry_cell_setting 'orthorhombic'
loop_
_space_group_symop_operation_xyz
x,y,z
-x,-y,z
1/2+x,1/2-y,1/2-z
1/2-x,1/2+y,1/2-z
-x,-y,-z
x,y,-z
1/2-x,1/2+y,1/2+z
1/2+x,1/2-y,1/2+z
loop_
_atom_site_type_symbol
_atom_site_label
_atom_site_fract_x
_atom_site_fract_y
_atom_site_fract_z
Si Si1 0.298268 0.521223 0.646052
Si Si2 0.560335 0.314510 0.663918
Si Si3 0.378116 0.145822 0.091363
Si Si4 0.564265 0.370031 0.168493
Si Si5 0.271188 0.807826 0.591332
Si Si6 0.336382 0.345610 0.412616
Si Si7 0.104933 0.294427 0.411377
Si Si8 0.168423 0.956983 0.314720
O O1 0.392369 0.592822 0.636513
O O2 0.180939 0.566609 0.634774
O O3 0.326285 0.450049 0.581309
O O4 0.295995 0.466510 0.725804
O O5 0.584591 0.309587 0.755678
O O6 0.615498 0.233204 0.620829
O O7 0.432658 0.312206 0.643039
O O8 0.323939 0.238990 0.111527
O O9 0.503580 0.148203 0.121417
O O10 0.369395 0.129299 0.000000
O O11 0.572630 0.306874 0.095268
O O12 0.656057 0.444049 0.154511
O O13 0.447588 0.411887 0.178855
O O14 0.278001 0.827002 0.500000
O O15 0.253014 0.899749 0.635346
O O16 0.355455 0.309992 0.500000
O O17 0.222774 0.312151 0.373146
O O18 0.117640 0.319852 0.500000
#
# Coordination Sequence:
#
# PCOD8237224 Si02
#       8
#     8   8   8   8   8   8   8   8
#     4  10  20  35  55  85 118 148 187 240 292 344
#     4  10  21  36  57  84 117 153 195 241 287 345
#     4   9  18  35  56  82 116 150 186 232 289 345
#     4  10  20  36  59  85 117 149 189 245 293 340
#     4  10  20  35  59  87 114 150 193 241 290 341
#     4  11  22  35  56  84 115 155 194 234 287 347
#     4  10  22  38  57  84 118 156 196 237 288 351
#     4  10  20  35  57  89 115 148 190 240 297 342
#
# _framework density 19.665497999999999
#
# number of rings (size 3 to 8) (size 9 to 14) (size 15 to 20)
#    0.000    2.000    2.500    1.125    1.750    3.000 
#    2.250    3.125    0.000    0.750    0.000    2.625 
#    0.000    0.000    0.000    0.000    0.000    0.000 
#
# Total GULP energy -793225.881900 kJ/mol
# GULP energy per Si atom -12394.154405 kJ/mol
# Density = 1.962074 g / cm^3
# Si number density = 19.665498 Si / 1000 Ang^3
#
#
#
# Elastic Constant Matrix: (Units=GPa)
#
#
# Indices 1 2 3 4 5 6 
#
# 1 145.3916 49.8461 30.9476 0.0000 0.0000 0.0000
# 2 49.8461 65.7189 21.6154 0.0000 0.0000 0.0000
# 3 30.9476 21.6154 27.5642 0.0000 0.0000 0.0000
# 4 0.0000 0.0000 0.0000 33.7402 0.0000 0.0000
# 5 0.0000 0.0000 0.0000 0.0000 23.5280 0.0000
# 6 0.0000 0.0000 0.0000 0.0000 0.0000 27.6691
#
#
#
# Elastic Compliance Matrix: (Units=1/GPa)
#
#
# Indices 1 2 3 4 5 6 
#
# 1 0.010285 -0.005394 -0.007317 0.000000 0.000000 0.000000
# 2 -0.005394 0.023334 -0.012242 0.000000 0.000000 0.000000
# 3 -0.007317 -0.012242 0.054095 0.000000 0.000000 0.000000
# 4 0.000000 0.000000 0.000000 0.029638 0.000000 0.000000
# 5 0.000000 0.000000 0.000000 0.000000 0.042503 0.000000
# 6 0.000000 0.000000 0.000000 0.000000 0.000000 0.036141
#
#
# Mechanical properties :
#
#
# Convention : Reuss Voigt Hill
#
# Bulk Modulus (GPa) = 26.45045 49.27698 37.86372
# Shear Modulus (GPa) = 19.34200 26.07183 22.70692
#
# Velocity S-wave (km/s) = 3.13956 3.64506 3.40171
# Velocity P-wave (km/s) = 5.15964 6.54425 5.89275
#
# Compressibility (1/GPa) = 0.03780653
#
# Stress axis : x y z
#
# Youngs Moduli (GPa) = 97.23084 42.85573 18.48615
#
# Poissons Ratio (x) = 0.23117 0.13527
# Poissons Ratio (y) = 0.52447 0.22631
# Poissons Ratio (z) = 0.71147 0.52465
#
# Static dielectric constant tensor:
#      x y z
#    x 3.673700 0.000000 0.000000 
#    y 0.000000 3.741580 0.000000 
#    z 0.000000 0.000000 3.437550 
# 
# 
# High freq. dielectric constant tensor:
#      x y z
#    x 1.762940 0.000000 0.000000 
#    y 0.000000 1.756090 0.000000 
#    z 0.000000 0.000000 1.751920 
# 
# From -- ./inp_files/26367.got.cif
#   From: 2010.06.25/outbox.cif.g09.slc.cpg/sg58_14_cif.got.tgz:26367.got - 2010.06.26 21:38:00.
