data_PCOD8237603
_publ_section_title
;
Structure prediction by ZEFSAII (Michael W. Deem and Ramdas Pophale) SiO2 
 PCOD8237603
Probable space group: P N N M
;
_chemical_formula_sum "Si O2"
_cell_formula_units_Z 48
_cell_length_a 18.601244
_cell_length_b 14.947660
_cell_length_c 8.869655
_cell_angle_alpha 90.000000
_cell_angle_beta 90.000000
_cell_angle_gamma 90.000000
_cell_volume 2466.163853
_symmetry_space_group_name_H-M "P N N M"
_symmetry_group_IT_number 58
_symmetry_cell_setting 'orthorhombic'
loop_
_space_group_symop_operation_xyz
x,y,z
-x,-y,z
1/2+x,1/2-y,1/2-z
1/2-x,1/2+y,1/2-z
-x,-y,-z
x,y,-z
1/2-x,1/2+y,1/2+z
1/2+x,1/2-y,1/2+z
loop_
_atom_site_type_symbol
_atom_site_label
_atom_site_fract_x
_atom_site_fract_y
_atom_site_fract_z
Si Si1 0.905912 0.245069 0.675263
Si Si2 0.779990 0.505052 0.320607
Si Si3 0.433635 0.055523 0.822492
Si Si4 0.256922 0.298162 0.678310
Si Si5 0.828622 0.854289 0.177807
Si Si6 0.524071 0.399742 0.825655
O O1 0.884363 0.241487 0.500000
O O2 0.943289 0.339593 0.715069
O O3 0.833976 0.236920 0.770702
O O4 0.959412 0.165793 0.719959
O O5 0.781237 0.502901 0.500000
O O6 0.858593 0.480986 0.254645
O O7 0.755557 0.601617 0.260502
O O8 0.723061 0.432633 0.259905
O O9 0.500000 0.000000 0.750272
O O10 0.432651 0.039278 0.000000
O O11 0.251927 0.294506 0.500000
O O12 0.193411 0.238356 0.745557
O O13 0.909652 0.876964 0.220093
O O14 0.821592 0.843920 0.000000
O O15 0.500000 0.500000 0.791130
O O16 0.545679 0.386739 0.000000
#
# Coordination Sequence:
#
# PCOD8237603 Si02
#       6
#     8   8   8   8   8   8
#     4  10  20  37  60  83 114 152 190 233 286 347
#     4   9  19  35  56  82 111 147 195 236 277 343
#     4   9  17  31  55  81 105 143 192 233 270 329
#     4  11  22  36  59  87 115 148 191 243 291 338
#     4  11  22  39  60  85 118 155 196 239 288 354
#     4  10  22  38  58  88 121 152 192 244 297 347
#
# _framework density 19.463425999999998
#
# number of rings (size 3 to 8) (size 9 to 14) (size 15 to 20)
#    0.000    2.000    1.667    2.000    2.333    1.000 
#    0.000    2.500    0.000    0.500    0.000    0.000 
#    0.000    0.000    0.000    0.000    0.000    0.000 
#
# Total GULP energy -595350.358252 kJ/mol
# GULP energy per Si atom -12403.132464 kJ/mol
# Density = 1.941913 g / cm^3
# Si number density = 19.463426 Si / 1000 Ang^3
#
#
#
# Elastic Constant Matrix: (Units=GPa)
#
#
# Indices 1 2 3 4 5 6 
#
# 1 98.9513 35.7283 24.2192 0.0000 0.0000 0.0000
# 2 35.7283 126.1337 27.9677 0.0000 0.0000 0.0000
# 3 24.2192 27.9677 42.1585 0.0000 0.0000 0.0000
# 4 0.0000 0.0000 0.0000 19.4286 0.0000 0.0000
# 5 0.0000 0.0000 0.0000 0.0000 28.8241 0.0000
# 6 0.0000 0.0000 0.0000 0.0000 0.0000 40.6219
#
#
#
# Elastic Compliance Matrix: (Units=1/GPa)
#
#
# Indices 1 2 3 4 5 6 
#
# 1 0.012278 -0.002244 -0.005565 0.000000 0.000000 0.000000
# 2 -0.002244 0.009706 -0.005149 0.000000 0.000000 0.000000
# 3 -0.005565 -0.005149 0.030333 0.000000 0.000000 0.000000
# 4 0.000000 0.000000 0.000000 0.051471 0.000000 0.000000
# 5 0.000000 0.000000 0.000000 0.000000 0.034693 0.000000
# 6 0.000000 0.000000 0.000000 0.000000 0.000000 0.024617
#
#
# Mechanical properties :
#
#
# Convention : Reuss Voigt Hill
#
# Bulk Modulus (GPa) = 37.87875 49.23044 43.55459
# Shear Modulus (GPa) = 25.27618 29.73015 27.50316
#
# Velocity S-wave (km/s) = 3.60759 3.91255 3.76316
# Velocity P-wave (km/s) = 6.07097 6.76457 6.42713
#
# Compressibility (1/GPa) = 0.02640003
#
# Stress axis : x y z
#
# Youngs Moduli (GPa) = 81.44453 103.03425 32.96732
#
# Poissons Ratio (x) = 0.23121 0.18346
# Poissons Ratio (y) = 0.18276 0.16976
# Poissons Ratio (z) = 0.45324 0.53057
#
# Static dielectric constant tensor:
#      x y z
#    x 3.644750 0.000000 0.000000 
#    y 0.000000 3.777410 0.000000 
#    z 0.000000 0.000000 3.169880 
# 
# 
# High freq. dielectric constant tensor:
#      x y z
#    x 1.767140 0.000000 0.000000 
#    y 0.000000 1.777980 0.000000 
#    z 0.000000 0.000000 1.720220 
# 
# From -- ./inp_files/5891.got.cif
#   From: 2010.06.25/outbox.cif.g09.slc.cpg/sg58_3_cif.got.tgz:5891.got - 2010.06.26 21:38:00.
