data_PCOD8237562
_publ_section_title
;
Structure prediction by ZEFSAII (Michael W. Deem and Ramdas Pophale) SiO2 
 PCOD8237562
Probable space group: P N N M
;
_chemical_formula_sum "Si O2"
_cell_formula_units_Z 64
_cell_length_a 17.535172
_cell_length_b 13.951114
_cell_length_c 13.498495
_cell_angle_alpha 90.000000
_cell_angle_beta 90.000000
_cell_angle_gamma 90.000000
_cell_volume 3302.206802
_symmetry_space_group_name_H-M "P N N M"
_symmetry_group_IT_number 58
_symmetry_cell_setting 'orthorhombic'
loop_
_space_group_symop_operation_xyz
x,y,z
-x,-y,z
1/2+x,1/2-y,1/2-z
1/2-x,1/2+y,1/2-z
-x,-y,-z
x,y,-z
1/2-x,1/2+y,1/2+z
1/2+x,1/2-y,1/2+z
loop_
_atom_site_type_symbol
_atom_site_label
_atom_site_fract_x
_atom_site_fract_y
_atom_site_fract_z
Si Si1 0.150428 0.408954 0.884855
Si Si2 0.592058 0.694838 0.291208
Si Si3 0.328721 0.403830 0.114285
Si Si4 0.653088 0.893619 0.718557
Si Si5 0.935027 0.734411 0.740002
Si Si6 0.036715 0.602776 0.390026
Si Si7 0.831241 0.902377 0.279129
Si Si8 0.413375 0.495819 0.386548
O O1 0.239253 0.387033 0.866776
O O2 0.129912 0.516659 0.849819
O O3 0.101554 0.333384 0.823236
O O4 0.128685 0.399988 0.000000
O O5 0.623993 0.671388 0.180616
O O6 0.625077 0.795063 0.332418
O O7 0.500327 0.700505 0.290283
O O8 0.617988 0.611476 0.366077
O O9 0.350458 0.513302 0.143020
O O10 0.350768 0.387411 0.000000
O O11 0.613228 0.901170 0.825278
O O12 0.742445 0.885749 0.732853
O O13 0.871800 0.803162 0.689201
O O14 0.973022 0.673199 0.653404
O O15 0.059390 0.637531 0.500000
O O16 0.000000 0.500000 0.393968
O O17 0.862115 0.928171 0.170625
O O18 0.500000 0.500000 0.348650
O O19 0.405788 0.523452 0.500000
#
# Coordination Sequence:
#
# PCOD8237562 Si02
#       8
#     8   8   8   8   8   8   8   8
#     4  10  21  38  60  85 117 154 194 243 295 350
#     4  10  21  35  58  82 116 153 190 243 288 344
#     4   9  20  39  60  85 116 152 195 243 295 351
#     4  10  21  39  61  87 116 154 200 242 293 348
#     4  11  21  36  57  86 117 150 195 239 293 346
#     4  10  21  39  60  83 118 156 195 240 284 345
#     4  10  21  37  62  86 119 153 192 247 295 343
#     4  10  20  37  57  83 118 155 194 236 289 350
#
# _framework density 19.380977999999999
#
# number of rings (size 3 to 8) (size 9 to 14) (size 15 to 20)
#    0.000    2.000    2.500    0.750    0.000    4.500 
#    0.000    5.000    0.000    0.000    0.000    0.000 
#    0.000    0.000    0.000    0.000    0.000    0.000 
#
# Total GULP energy -793612.074590 kJ/mol
# GULP energy per Si atom -12400.188665 kJ/mol
# Density = 1.933687 g / cm^3
# Si number density = 19.380978 Si / 1000 Ang^3
#
#
#
# Elastic Constant Matrix: (Units=GPa)
#
#
# Indices 1 2 3 4 5 6 
#
# 1 88.1765 29.6159 27.5044 0.0000 0.0000 0.0000
# 2 29.6159 81.8250 14.1257 0.0000 0.0000 0.0000
# 3 27.5044 14.1257 52.8287 0.0000 0.0000 0.0000
# 4 0.0000 0.0000 0.0000 20.5368 0.0000 0.0000
# 5 0.0000 0.0000 0.0000 0.0000 18.6493 0.0000
# 6 0.0000 0.0000 0.0000 0.0000 0.0000 35.9744
#
#
#
# Elastic Compliance Matrix: (Units=1/GPa)
#
#
# Indices 1 2 3 4 5 6 
#
# 1 0.014813 -0.004225 -0.006583 0.000000 0.000000 0.000000
# 2 -0.004225 0.014018 -0.001548 0.000000 0.000000 0.000000
# 3 -0.006583 -0.001548 0.022770 0.000000 0.000000 0.000000
# 4 0.000000 0.000000 0.000000 0.048693 0.000000 0.000000
# 5 0.000000 0.000000 0.000000 0.000000 0.053621 0.000000
# 6 0.000000 0.000000 0.000000 0.000000 0.000000 0.027798
#
#
# Mechanical properties :
#
#
# Convention : Reuss Voigt Hill
#
# Bulk Modulus (GPa) = 37.18989 40.59137 38.89063
# Shear Modulus (GPa) = 23.21389 25.13771 24.17580
#
# Velocity S-wave (km/s) = 3.46463 3.60534 3.53568
# Velocity P-wave (km/s) = 5.93594 6.19037 6.06449
#
# Compressibility (1/GPa) = 0.02688903
#
# Stress axis : x y z
#
# Youngs Moduli (GPa) = 67.50713 71.33801 43.91708
#
# Poissons Ratio (x) = 0.30142 0.28908
# Poissons Ratio (y) = 0.28523 0.06800
# Poissons Ratio (z) = 0.44437 0.11046
#
# Static dielectric constant tensor:
#      x y z
#    x 3.669740 0.000000 0.000000 
#    y 0.000000 3.724320 0.000000 
#    z 0.000000 0.000000 3.419140 
# 
# 
# High freq. dielectric constant tensor:
#      x y z
#    x 1.756740 0.000000 0.000000 
#    y 0.000000 1.772930 0.000000 
#    z 0.000000 0.000000 1.737160 
# 
# From -- ./inp_files/16564.got.cif
#   From: 2010.06.25/outbox.cif.g09.slc.cpg/sg58_9_cif.got.tgz:16564.got - 2010.06.26 21:38:00.
