data_PCOD8237727
_publ_section_title
;
Structure prediction by ZEFSAII (Michael W. Deem and Ramdas Pophale) SiO2 
 PCOD8237727
Probable space group: P N N M
;
_chemical_formula_sum "Si O2"
_cell_formula_units_Z 64
_cell_length_a 9.126386
_cell_length_b 29.860889
_cell_length_c 12.081480
_cell_angle_alpha 90.000000
_cell_angle_beta 90.000000
_cell_angle_gamma 90.000000
_cell_volume 3292.469084
_symmetry_space_group_name_H-M "P N N M"
_symmetry_group_IT_number 58
_symmetry_cell_setting 'orthorhombic'
loop_
_space_group_symop_operation_xyz
x,y,z
-x,-y,z
1/2+x,1/2-y,1/2-z
1/2-x,1/2+y,1/2-z
-x,-y,-z
x,y,-z
1/2-x,1/2+y,1/2+z
1/2+x,1/2-y,1/2+z
loop_
_atom_site_type_symbol
_atom_site_label
_atom_site_fract_x
_atom_site_fract_y
_atom_site_fract_z
Si Si1 0.696417 0.357922 0.739170
Si Si2 0.955687 0.090164 0.626117
Si Si3 0.642104 0.521002 0.301854
Si Si4 0.060717 0.696883 0.873309
Si Si5 0.816070 0.443090 0.374621
Si Si6 0.782265 0.652853 0.213490
Si Si7 0.872894 0.585368 0.619697
Si Si8 0.946121 0.199329 0.130444
O O1 0.600625 0.387050 0.824375
O O2 0.823332 0.330336 0.800435
O O3 0.769135 0.392389 0.653425
O O4 0.596811 0.322753 0.672290
O O5 0.987068 0.077411 0.500000
O O6 0.910520 0.043991 0.687413
O O7 0.823636 0.125849 0.631526
O O8 0.500000 0.500000 0.362855
O O9 0.751857 0.478902 0.286561
O O10 0.719179 0.558644 0.376080
O O11 0.059172 0.748605 0.840152
O O12 0.891682 0.682561 0.858232
O O13 0.107067 0.689757 0.000000
O O14 0.762949 0.454063 0.500000
O O15 0.991226 0.448289 0.367630
O O16 0.887434 0.619972 0.281516
O O17 0.691464 0.679447 0.305169
O O18 0.878654 0.609521 0.500000
O O19 0.929063 0.190122 0.000000
#
# Coordination Sequence:
#
# PCOD8237727 Si02
#       8
#     8   8   8   8   8   8   8   8
#     4  11  21  40  60  87 118 155 195 243 290 348
#     4  10  22  40  60  82 114 157 201 240 287 343
#     4  11  22  38  56  88 114 150 189 240 288 341
#     4  11  22  38  61  87 118 156 199 245 295 348
#     4  11  22  38  58  84 117 152 188 232 293 355
#     4  10  20  38  61  84 118 152 197 242 293 349
#     4  10  21  37  59  82 116 153 186 235 290 350
#     4  10  22  38  59  90 122 153 191 243 302 358
#
# _framework density 19.438299000000001
#
# number of rings (size 3 to 8) (size 9 to 14) (size 15 to 20)
#    0.000    1.500    2.500    3.000    0.000    2.250 
#    0.000    0.000    0.000    7.500    0.000    0.000 
#    0.000    0.000    0.000    0.000    0.000    0.000 
#
# Total GULP energy -793334.916341 kJ/mol
# GULP energy per Si atom -12395.858068 kJ/mol
# Density = 1.939406 g / cm^3
# Si number density = 19.438299 Si / 1000 Ang^3
#
#
#
# Elastic Constant Matrix: (Units=GPa)
#
#
# Indices 1 2 3 4 5 6 
#
# 1 93.3191 28.3222 31.8589 0.0000 0.0000 0.0000
# 2 28.3222 95.2896 35.2037 0.0000 0.0000 0.0000
# 3 31.8589 35.2037 77.6092 0.0000 0.0000 0.0000
# 4 0.0000 0.0000 0.0000 14.7313 0.0000 0.0000
# 5 0.0000 0.0000 0.0000 0.0000 21.1943 0.0000
# 6 0.0000 0.0000 0.0000 0.0000 0.0000 30.6464
#
#
#
# Elastic Compliance Matrix: (Units=1/GPa)
#
#
# Indices 1 2 3 4 5 6 
#
# 1 0.012851 -0.002247 -0.004256 0.000000 0.000000 0.000000
# 2 -0.002247 0.013000 -0.004974 0.000000 0.000000 0.000000
# 3 -0.004256 -0.004974 0.016889 0.000000 0.000000 0.000000
# 4 0.000000 0.000000 0.000000 0.067883 0.000000 0.000000
# 5 0.000000 0.000000 0.000000 0.000000 0.047183 0.000000
# 6 0.000000 0.000000 0.000000 0.000000 0.000000 0.032630
#
#
# Mechanical properties :
#
#
# Convention : Reuss Voigt Hill
#
# Bulk Modulus (GPa) = 50.54508 50.77637 50.66072
# Shear Modulus (GPa) = 22.72883 24.70326 23.71604
#
# Velocity S-wave (km/s) = 3.42318 3.56877 3.49674
# Velocity P-wave (km/s) = 6.45628 6.56963 6.51320
#
# Compressibility (1/GPa) = 0.01978432
#
# Stress axis : x y z
#
# Youngs Moduli (GPa) = 77.81529 76.92327 59.21172
#
# Poissons Ratio (x) = 0.17287 0.25201
# Poissons Ratio (y) = 0.17487 0.29454
# Poissons Ratio (z) = 0.33118 0.38264
#
# Static dielectric constant tensor:
#      x y z
#    x 3.657500 0.000000 0.000000 
#    y 0.000000 3.685310 0.000000 
#    z 0.000000 0.000000 3.370490 
# 
# 
# High freq. dielectric constant tensor:
#      x y z
#    x 1.772260 0.000000 0.000000 
#    y 0.000000 1.764120 0.000000 
#    z 0.000000 0.000000 1.743670 
# 
# From -- ./inp_files/13438.got.cif
#   From: 2010.06.25/outbox.cif.g09.slc.cpg/sg58_7_cif.got.tgz:13438.got - 2010.06.26 21:38:00.
