data_PCOD8237497
_publ_section_title
;
Structure prediction by ZEFSAII (Michael W. Deem and Ramdas Pophale) SiO2 
 PCOD8237497
Probable space group: P N N M
;
_chemical_formula_sum "Si O2"
_cell_formula_units_Z 48
_cell_length_a 8.992140
_cell_length_b 30.784282
_cell_length_c 8.505290
_cell_angle_alpha 90.000000
_cell_angle_beta 90.000000
_cell_angle_gamma 90.000000
_cell_volume 2354.405235
_symmetry_space_group_name_H-M "P N N M"
_symmetry_group_IT_number 58
_symmetry_cell_setting 'orthorhombic'
loop_
_space_group_symop_operation_xyz
x,y,z
-x,-y,z
1/2+x,1/2-y,1/2-z
1/2-x,1/2+y,1/2-z
-x,-y,-z
x,y,-z
1/2-x,1/2+y,1/2+z
1/2+x,1/2-y,1/2+z
loop_
_atom_site_type_symbol
_atom_site_label
_atom_site_fract_x
_atom_site_fract_y
_atom_site_fract_z
Si Si1 0.182763 0.298639 0.817945
Si Si2 0.841528 0.452576 0.184701
Si Si3 0.839086 0.543569 0.316976
Si Si4 0.356035 0.375804 0.681223
Si Si5 0.841474 0.283612 0.185098
Si Si6 0.675001 0.368465 0.183500
O O1 0.232592 0.339727 0.715987
O O2 0.284679 0.257711 0.779455
O O3 0.013849 0.288485 0.773569
O O4 0.199579 0.310719 0.000000
O O5 0.782254 0.495502 0.273075
O O6 0.749096 0.411968 0.254828
O O7 0.015393 0.444673 0.216631
O O8 0.815690 0.458711 0.000000
O O9 0.881097 0.545943 0.500000
O O10 0.709442 0.577216 0.273722
O O11 0.402385 0.373756 0.500000
O O12 0.500705 0.366798 0.784160
O O13 0.754285 0.325596 0.252146
O O14 0.814471 0.276574 0.000000
O O15 0.706233 0.368911 0.000000
#
# Coordination Sequence:
#
# PCOD8237497 Si02
#       6
#     8   8   8   8   8   8
#     4  11  23  39  61  86 114 148 186 232 281 331
#     4  10  20  36  60  87 113 146 190 236 282 335
#     4  10  21  37  57  83 115 151 190 233 283 337
#     4  11  24  39  57  83 115 151 191 233 279 335
#     4  10  22  40  60  85 116 148 186 230 279 336
#     4  10  22  39  59  84 115 150 189 234 282 334
#
# _framework density 20.387315999999998
#
# number of rings (size 3 to 8) (size 9 to 14) (size 15 to 20)
#    0.000    1.667    0.000    5.000    0.000   10.667 
#    0.000    3.333    0.000    0.000    0.000    0.000 
#    0.000    0.000    0.000    0.000    0.000    0.000 
#
# Total GULP energy -595460.283800 kJ/mol
# GULP energy per Si atom -12405.422579 kJ/mol
# Density = 2.034091 g / cm^3
# Si number density = 20.387316 Si / 1000 Ang^3
#
#
#
# Elastic Constant Matrix: (Units=GPa)
#
#
# Indices 1 2 3 4 5 6 
#
# 1 78.7308 24.5740 10.5906 0.0000 0.0000 0.0000
# 2 24.5740 106.2490 21.2706 0.0000 0.0000 0.0000
# 3 10.5906 21.2706 25.3335 0.0000 0.0000 0.0000
# 4 0.0000 0.0000 0.0000 32.2817 0.0000 0.0000
# 5 0.0000 0.0000 0.0000 0.0000 24.8362 0.0000
# 6 0.0000 0.0000 0.0000 0.0000 0.0000 40.6756
#
#
#
# Elastic Compliance Matrix: (Units=1/GPa)
#
#
# Indices 1 2 3 4 5 6 
#
# 1 0.013982 -0.002481 -0.003762 0.000000 0.000000 0.000000
# 2 -0.002481 0.011754 -0.008832 0.000000 0.000000 0.000000
# 3 -0.003762 -0.008832 0.048461 0.000000 0.000000 0.000000
# 4 0.000000 0.000000 0.000000 0.030977 0.000000 0.000000
# 5 0.000000 0.000000 0.000000 0.000000 0.040264 0.000000
# 6 0.000000 0.000000 0.000000 0.000000 0.000000 0.024585
#
#
# Mechanical properties :
#
#
# Convention : Reuss Voigt Hill
#
# Bulk Modulus (GPa) = 22.70254 35.90930 29.30592
# Shear Modulus (GPa) = 23.27156 29.81724 26.54440
#
# Velocity S-wave (km/s) = 3.38223 3.82846 3.61225
# Velocity P-wave (km/s) = 5.13931 6.09874 5.63946
#
# Compressibility (1/GPa) = 0.04404793
#
# Stress axis : x y z
#
# Youngs Moduli (GPa) = 71.52119 85.07999 20.63494
#
# Poissons Ratio (x) = 0.21105 0.07763
# Poissons Ratio (y) = 0.17742 0.18224
# Poissons Ratio (z) = 0.26908 0.75139
#
# Static dielectric constant tensor:
#      x y z
#    x 3.569720 0.000000 0.000000 
#    y 0.000000 4.043510 0.000000 
#    z 0.000000 0.000000 3.582360 
# 
# 
# High freq. dielectric constant tensor:
#      x y z
#    x 1.796080 0.000000 0.000000 
#    y 0.000000 1.815630 0.000000 
#    z 0.000000 0.000000 1.791480 
# 
# From -- ./inp_files/2985.got.cif
#   From: 2010.06.25/outbox.cif.g09.slc.cpg/sg58_2_cif.got.tgz:2985.got - 2010.06.26 21:38:00.
