data_PCOD8237071
_publ_section_title
;
Structure prediction by ZEFSAII (Michael W. Deem and Ramdas Pophale) SiO2 
 PCOD8237071
Probable space group: P N N M
;
_chemical_formula_sum "Si O2"
_cell_formula_units_Z 64
_cell_length_a 28.062695
_cell_length_b 12.424618
_cell_length_c 9.614719
_cell_angle_alpha 90.000000
_cell_angle_beta 90.000000
_cell_angle_gamma 90.000000
_cell_volume 3352.347396
_symmetry_space_group_name_H-M "P N N M"
_symmetry_group_IT_number 58
_symmetry_cell_setting 'orthorhombic'
loop_
_space_group_symop_operation_xyz
x,y,z
-x,-y,z
1/2+x,1/2-y,1/2-z
1/2-x,1/2+y,1/2-z
-x,-y,-z
x,y,-z
1/2-x,1/2+y,1/2+z
1/2+x,1/2-y,1/2+z
loop_
_atom_site_type_symbol
_atom_site_label
_atom_site_fract_x
_atom_site_fract_y
_atom_site_fract_z
Si Si1 0.551571 0.531721 0.159164
Si Si2 0.064768 0.768534 0.157906
Si Si3 0.615241 0.152645 0.836977
Si Si4 0.479243 0.884783 0.337023
Si Si5 0.200542 0.949291 0.160088
Si Si6 0.140528 0.109524 0.341637
Si Si7 0.305890 0.018639 0.159299
Si Si8 0.669072 0.785284 0.658820
O O1 0.500000 0.500000 0.218994
O O2 0.572733 0.629002 0.246360
O O3 0.586374 0.430764 0.176686
O O4 0.547210 0.569656 0.000000
O O5 0.112253 0.696229 0.171415
O O6 0.019228 0.701212 0.206571
O O7 0.058546 0.808539 0.000000
O O8 0.567492 0.139664 0.749871
O O9 0.640692 0.265301 0.799843
O O10 0.651330 0.058648 0.792802
O O11 0.602388 0.148569 0.000000
O O12 0.466884 0.878877 0.500000
O O13 0.500000 0.000000 0.295957
O O14 0.257121 0.953880 0.180136
O O15 0.183061 0.833222 0.214739
O O16 0.176563 0.045456 0.244701
O O17 0.185388 0.964238 0.000000
O O18 0.157712 0.093250 0.500000
O O19 0.304277 0.126043 0.250440
O O20 0.312713 0.053838 0.000000
O O21 0.686416 0.798295 0.500000
#
# Coordination Sequence:
#
# PCOD8237071 Si02
#       8
#     8   8   8   8   8   8   8   8
#     4  10  20  34  53  81 114 149 189 232 280 338
#     4  10  20  35  56  83 112 148 190 236 288 341
#     4  10  22  40  60  85 119 157 196 238 290 348
#     4  10  21  37  58  84 117 154 197 243 287 342
#     4  10  22  40  61  86 115 150 193 243 295 348
#     4  10  21  37  59  85 116 154 194 237 289 347
#     4  10  23  40  60  87 117 149 192 245 293 344
#     4  10  21  39  63  87 115 152 194 238 292 352
#
# _framework density 19.091099
#
# number of rings (size 3 to 8) (size 9 to 14) (size 15 to 20)
#    0.000    2.000    1.250    1.500    1.750    5.500 
#    0.000    0.000    0.000    0.000    0.000    0.000 
#    0.000    0.000    0.000    0.000    0.000    0.000 
#
# Total GULP energy -793860.629054 kJ/mol
# GULP energy per Si atom -12404.072329 kJ/mol
# Density = 1.904765 g / cm^3
# Si number density = 19.091099 Si / 1000 Ang^3
#
#
#
# Elastic Constant Matrix: (Units=GPa)
#
#
# Indices 1 2 3 4 5 6 
#
# 1 95.3705 36.0690 38.4353 0.0000 0.0000 0.0000
# 2 36.0690 121.0797 53.6863 0.0000 0.0000 0.0000
# 3 38.4353 53.6863 63.3343 0.0000 0.0000 0.0000
# 4 0.0000 0.0000 0.0000 30.8922 0.0000 0.0000
# 5 0.0000 0.0000 0.0000 0.0000 33.9500 0.0000
# 6 0.0000 0.0000 0.0000 0.0000 0.0000 30.3651
#
#
#
# Elastic Compliance Matrix: (Units=1/GPa)
#
#
# Indices 1 2 3 4 5 6 
#
# 1 0.013911 -0.000642 -0.007898 0.000000 0.000000 0.000000
# 2 -0.000642 0.013262 -0.010852 0.000000 0.000000 0.000000
# 3 -0.007898 -0.010852 0.029781 0.000000 0.000000 0.000000
# 4 0.000000 0.000000 0.000000 0.032371 0.000000 0.000000
# 5 0.000000 0.000000 0.000000 0.000000 0.029455 0.000000
# 6 0.000000 0.000000 0.000000 0.000000 0.000000 0.032933
#
#
# Mechanical properties :
#
#
# Convention : Reuss Voigt Hill
#
# Bulk Modulus (GPa) = 55.03536 59.57396 57.30466
# Shear Modulus (GPa) = 25.43832 29.14771 27.29301
#
# Velocity S-wave (km/s) = 3.65426 3.91163 3.78513
# Velocity P-wave (km/s) = 6.83339 7.18846 7.01317
#
# Compressibility (1/GPa) = 0.01817014
#
# Stress axis : x y z
#
# Youngs Moduli (GPa) = 71.88447 75.40268 33.57828
#
# Poissons Ratio (x) = 0.04842 0.26520
# Poissons Ratio (y) = 0.04616 0.36440
# Poissons Ratio (z) = 0.56773 0.81828
#
# Static dielectric constant tensor:
#      x y z
#    x 3.518770 0.000000 0.000000 
#    y 0.000000 3.477380 0.000000 
#    z 0.000000 0.000000 3.433620 
# 
# 
# High freq. dielectric constant tensor:
#      x y z
#    x 1.751710 0.000000 0.000000 
#    y 0.000000 1.745510 0.000000 
#    z 0.000000 0.000000 1.735100 
# 
# From -- ./inp_files/10990.got.cif
#   From: 2010.06.25/outbox.cif.g09.slc.cpg/sg58_6_cif.got.tgz:10990.got - 2010.06.26 21:38:00.
