data_PCOD8237735
_publ_section_title
;
Structure prediction by ZEFSAII (Michael W. Deem and Ramdas Pophale) SiO2 
 PCOD8237735
Probable space group: P N N M
;
_chemical_formula_sum "Si O2"
_cell_formula_units_Z 48
_cell_length_a 20.101604
_cell_length_b 14.253031
_cell_length_c 8.921489
_cell_angle_alpha 90.000000
_cell_angle_beta 90.000000
_cell_angle_gamma 90.000000
_cell_volume 2556.084973
_symmetry_space_group_name_H-M "P N N M"
_symmetry_group_IT_number 58
_symmetry_cell_setting 'orthorhombic'
loop_
_space_group_symop_operation_xyz
x,y,z
-x,-y,z
1/2+x,1/2-y,1/2-z
1/2-x,1/2+y,1/2-z
-x,-y,-z
x,y,-z
1/2-x,1/2+y,1/2+z
1/2+x,1/2-y,1/2+z
loop_
_atom_site_type_symbol
_atom_site_label
_atom_site_fract_x
_atom_site_fract_y
_atom_site_fract_z
Si Si1 0.876078 0.476122 0.827302
Si Si2 0.294146 0.718413 0.672630
Si Si3 0.563380 0.795531 0.176683
Si Si4 0.173213 0.818207 0.825439
Si Si5 0.572937 0.179803 0.326692
Si Si6 0.761398 0.989897 0.170814
O O1 0.906656 0.394104 0.728924
O O2 0.919870 0.568725 0.802047
O O3 0.800771 0.497415 0.781131
O O4 0.877425 0.444878 0.000000
O O5 0.280609 0.746362 0.500000
O O6 0.233144 0.752585 0.771889
O O7 0.361414 0.766710 0.731006
O O8 0.301197 0.606782 0.692600
O O9 0.605955 0.709258 0.240467
O O10 0.488093 0.782577 0.230149
O O11 0.566410 0.792303 0.000000
O O12 0.187964 0.926698 0.789179
O O13 0.162596 0.799895 0.000000
O O14 0.559577 0.203257 0.500000
O O15 0.735382 0.999757 0.000000
#
# Coordination Sequence:
#
# PCOD8237735 Si02
#       6
#     8   8   8   8   8   8
#     4  11  21  35  59  90 120 152 188 238 298 352
#     4  10  20  38  61  86 116 153 192 238 291 345
#     4  12  25  39  57  83 118 159 199 242 294 346
#     4  11  22  37  59  87 118 154 195 238 288 345
#     4  10  22  39  59  85 119 155 194 238 295 355
#     4  10  21  36  59  90 120 150 191 238 286 346
#
# _framework density 18.778718000000001
#
# number of rings (size 3 to 8) (size 9 to 14) (size 15 to 20)
#    0.000    1.333    3.333    3.000    0.000    4.667 
#    0.000    0.833    0.000    5.000    0.000    0.000 
#    0.000    0.000    0.000    0.000    0.000    0.000 
#
# Total GULP energy -595475.819768 kJ/mol
# GULP energy per Si atom -12405.746245 kJ/mol
# Density = 1.873598 g / cm^3
# Si number density = 18.778718 Si / 1000 Ang^3
#
#
#
# Elastic Constant Matrix: (Units=GPa)
#
#
# Indices 1 2 3 4 5 6 
#
# 1 73.9734 4.5108 31.6727 0.0000 0.0000 0.0000
# 2 4.5108 71.1640 15.9137 0.0000 0.0000 0.0000
# 3 31.6727 15.9137 87.0434 0.0000 0.0000 0.0000
# 4 0.0000 0.0000 0.0000 23.6221 0.0000 0.0000
# 5 0.0000 0.0000 0.0000 0.0000 35.1050 0.0000
# 6 0.0000 0.0000 0.0000 0.0000 0.0000 29.1582
#
#
#
# Elastic Compliance Matrix: (Units=1/GPa)
#
#
# Indices 1 2 3 4 5 6 
#
# 1 0.016019 0.000300 -0.005884 0.000000 0.000000 0.000000
# 2 0.000300 0.014657 -0.002789 0.000000 0.000000 0.000000
# 3 -0.005884 -0.002789 0.014139 0.000000 0.000000 0.000000
# 4 0.000000 0.000000 0.000000 0.042333 0.000000 0.000000
# 5 0.000000 0.000000 0.000000 0.000000 0.028486 0.000000
# 6 0.000000 0.000000 0.000000 0.000000 0.000000 0.034296
#
#
# Mechanical properties :
#
#
# Convention : Reuss Voigt Hill
#
# Bulk Modulus (GPa) = 35.62459 37.37502 36.49981
# Shear Modulus (GPa) = 28.40393 29.58263 28.99328
#
# Velocity S-wave (km/s) = 3.89338 3.97335 3.93357
# Velocity P-wave (km/s) = 6.26284 6.40281 6.33321
#
# Compressibility (1/GPa) = 0.02807050
#
# Stress axis : x y z
#
# Youngs Moduli (GPa) = 62.42456 68.22836 70.72438
#
# Poissons Ratio (x) = -0.02049 0.41614
# Poissons Ratio (y) = -0.01875 0.19724
# Poissons Ratio (z) = 0.36730 0.19028
#
# Static dielectric constant tensor:
#      x y z
#    x 3.480380 0.000000 0.000000 
#    y 0.000000 3.593870 0.000000 
#    z 0.000000 0.000000 3.502640 
# 
# 
# High freq. dielectric constant tensor:
#      x y z
#    x 1.724380 0.000000 0.000000 
#    y 0.000000 1.732810 0.000000 
#    z 0.000000 0.000000 1.733050 
# 
# From -- ./inp_files/5739.got.cif
#   From: 2010.06.25/outbox.cif.g09.slc.cpg/sg58_3_cif.got.tgz:5739.got - 2010.06.26 21:38:00.
