data_PCOD8237848
_publ_section_title
;
Structure prediction by ZEFSAII (Michael W. Deem and Ramdas Pophale) SiO2 
 PCOD8237848
Probable space group: P N N M
;
_chemical_formula_sum "Si O2"
_cell_formula_units_Z 64
_cell_length_a 14.333988
_cell_length_b 11.369959
_cell_length_c 17.481061
_cell_angle_alpha 90.000000
_cell_angle_beta 90.000000
_cell_angle_gamma 90.000000
_cell_volume 2849.008359
_symmetry_space_group_name_H-M "P N N M"
_symmetry_group_IT_number 58
_symmetry_cell_setting 'orthorhombic'
loop_
_space_group_symop_operation_xyz
x,y,z
-x,-y,z
1/2+x,1/2-y,1/2-z
1/2-x,1/2+y,1/2-z
-x,-y,-z
x,y,-z
1/2-x,1/2+y,1/2+z
1/2+x,1/2-y,1/2+z
loop_
_atom_site_type_symbol
_atom_site_label
_atom_site_fract_x
_atom_site_fract_y
_atom_site_fract_z
Si Si1 0.632064 0.038410 0.913592
Si Si2 0.155663 0.009416 0.914051
Si Si3 0.368301 0.279548 0.665600
Si Si4 0.602616 0.787263 0.913904
Si Si5 0.255363 0.076419 0.587265
Si Si6 0.088030 0.213685 0.366560
Si Si7 0.078059 0.200453 0.197851
Si Si8 0.256404 0.341891 0.184770
O O1 0.614413 0.147560 0.857712
O O2 0.734038 0.982224 0.900372
O O3 0.567013 0.922736 0.899314
O O4 0.619881 0.087161 0.000000
O O5 0.096935 0.092576 0.858228
O O6 0.124302 0.874806 0.901685
O O7 0.129295 0.046311 0.000000
O O8 0.329597 0.158114 0.631169
O O9 0.472223 0.251781 0.695190
O O10 0.300921 0.338120 0.730204
O O11 0.516082 0.700359 0.899238
O O12 0.688789 0.758433 0.860467
O O13 0.638513 0.772483 0.000000
O O14 0.287640 0.043681 0.500000
O O15 0.159047 0.147766 0.577750
O O16 0.235168 0.964856 0.640807
O O17 0.095250 0.153608 0.283639
O O18 0.147457 0.308894 0.182438
#
# Coordination Sequence:
#
# PCOD8237848 Si02
#       8
#     8   8   8   8   8   8   8   8
#     4  10  20  39  70 103 135 175 225 284 344 403
#     4  11  23  43  73 101 131 175 235 294 343 398
#     4  12  26  47  73 102 142 185 235 288 352 422
#     4  11  23  42  70 105 141 181 229 289 351 413
#     4  12  27  47  73 105 145 193 242 292 355 426
#     4  12  23  42  70 103 146 179 230 286 352 428
#     4  12  26  45  72 107 136 185 233 289 359 422
#     4  12  26  47  71 101 145 185 231 287 347 428
#
# _framework density 22.463957000000001
#
# number of rings (size 3 to 8) (size 9 to 14) (size 15 to 20)
#    0.000    0.500    5.000    3.375    0.000    5.000 
#    2.250    1.875    0.000    0.000    0.000    0.000 
#    0.000    0.000    0.000    0.000    0.000    0.000 
#
# Total GULP energy -793591.722274 kJ/mol
# GULP energy per Si atom -12399.870661 kJ/mol
# Density = 2.241283 g / cm^3
# Si number density = 22.463957 Si / 1000 Ang^3
#
#
#
# Elastic Constant Matrix: (Units=GPa)
#
#
# Indices 1 2 3 4 5 6 
#
# 1 95.4425 22.4022 23.3406 0.0000 0.0000 0.0000
# 2 22.4022 87.6528 38.1458 0.0000 0.0000 0.0000
# 3 23.3406 38.1458 122.0276 0.0000 0.0000 0.0000
# 4 0.0000 0.0000 0.0000 35.2520 0.0000 0.0000
# 5 0.0000 0.0000 0.0000 0.0000 24.6207 0.0000
# 6 0.0000 0.0000 0.0000 0.0000 0.0000 28.0425
#
#
#
# Elastic Compliance Matrix: (Units=1/GPa)
#
#
# Indices 1 2 3 4 5 6 
#
# 1 0.011368 -0.002268 -0.001466 0.000000 0.000000 0.000000
# 2 -0.002268 0.013657 -0.003836 0.000000 0.000000 0.000000
# 3 -0.001466 -0.003836 0.009674 0.000000 0.000000 0.000000
# 4 0.000000 0.000000 0.000000 0.028367 0.000000 0.000000
# 5 0.000000 0.000000 0.000000 0.000000 0.040616 0.000000
# 6 0.000000 0.000000 0.000000 0.000000 0.000000 0.035660
#
#
# Mechanical properties :
#
#
# Convention : Reuss Voigt Hill
#
# Bulk Modulus (GPa) = 51.11895 52.54446 51.83171
# Shear Modulus (GPa) = 31.05559 32.33200 31.69380
#
# Velocity S-wave (km/s) = 3.72218 3.79790 3.76023
# Velocity P-wave (km/s) = 6.42481 6.53249 6.47888
#
# Compressibility (1/GPa) = 0.01956222
#
# Stress axis : x y z
#
# Youngs Moduli (GPa) = 87.96481 73.22025 103.36792
#
# Poissons Ratio (x) = 0.16604 0.15149
# Poissons Ratio (y) = 0.19947 0.39647
# Poissons Ratio (z) = 0.12892 0.28084
#
# Static dielectric constant tensor:
#      x y z
#    x 4.225250 0.000000 0.000000 
#    y 0.000000 3.841520 0.000000 
#    z 0.000000 0.000000 4.037860 
# 
# 
# High freq. dielectric constant tensor:
#      x y z
#    x 1.895240 0.000000 0.000000 
#    y 0.000000 1.875430 0.000000 
#    z 0.000000 0.000000 1.889530 
# 
# From -- ./inp_files/27032.got.cif
#   From: 2010.06.25/outbox.cif.g09.slc.cpg/sg58_14_cif.got.tgz:27032.got - 2010.06.26 21:38:00.
