data_PCOD8237159
_publ_section_title
;
Structure prediction by ZEFSAII (Michael W. Deem and Ramdas Pophale) SiO2 
 PCOD8237159
Probable space group: P N N M
;
_chemical_formula_sum "Si O2"
_cell_formula_units_Z 64
_cell_length_a 10.879949
_cell_length_b 32.964125
_cell_length_c 9.329442
_cell_angle_alpha 90.000000
_cell_angle_beta 90.000000
_cell_angle_gamma 90.000000
_cell_volume 3345.985703
_symmetry_space_group_name_H-M "P N N M"
_symmetry_group_IT_number 58
_symmetry_cell_setting 'orthorhombic'
loop_
_space_group_symop_operation_xyz
x,y,z
-x,-y,z
1/2+x,1/2-y,1/2-z
1/2-x,1/2+y,1/2-z
-x,-y,-z
x,y,-z
1/2-x,1/2+y,1/2+z
1/2+x,1/2-y,1/2+z
loop_
_atom_site_type_symbol
_atom_site_label
_atom_site_fract_x
_atom_site_fract_y
_atom_site_fract_z
Si Si1 0.385489 0.643650 0.339082
Si Si2 0.358695 0.401543 0.662777
Si Si3 0.461366 0.281197 0.330349
Si Si4 0.135724 0.981867 0.335733
Si Si5 0.655806 0.882868 0.671209
Si Si6 0.612970 0.972723 0.331670
Si Si7 0.505107 0.808105 0.658866
Si Si8 0.772545 0.168428 0.659881
O O1 0.330705 0.641843 0.500000
O O2 0.505463 0.616185 0.327731
O O3 0.420046 0.690255 0.298210
O O4 0.292724 0.624822 0.225820
O O5 0.310605 0.401744 0.500000
O O6 0.353488 0.446165 0.723674
O O7 0.269170 0.374459 0.759589
O O8 0.435820 0.282188 0.500000
O O9 0.478213 0.235833 0.266905
O O10 0.344312 0.298278 0.249625
O O11 0.150247 0.966982 0.500000
O O12 0.249116 0.011605 0.295518
O O13 0.000000 0.000000 0.313621
O O14 0.657108 0.883456 0.500000
O O15 0.604909 0.926373 0.727684
O O16 0.573187 0.845961 0.735636
O O17 0.593408 0.971983 0.500000
O O18 0.500000 0.000000 0.265567
O O19 0.561886 0.804773 0.500000
O O20 0.363312 0.816054 0.649042
O O21 0.828995 0.163389 0.500000
#
# Coordination Sequence:
#
# PCOD8237159 Si02
#       8
#     8   8   8   8   8   8   8   8
#     4   9  19  35  55  77 110 149 178 216 275 333
#     4  10  21  37  57  81 112 151 184 224 284 337
#     4   9  19  37  55  77 113 149 178 222 282 333
#     4  10  20  34  57  88 113 141 189 245 282 327
#     4  10  20  35  57  82 107 141 186 227 270 329
#     4   9  19  34  55  81 112 147 180 224 287 342
#     4   9  20  35  55  81 110 144 182 227 276 330
#     4  10  20  35  57  83 108 141 188 232 270 324
#
# _framework density 19.127397999999999
#
# number of rings (size 3 to 8) (size 9 to 14) (size 15 to 20)
#    0.000    2.500    0.000    2.250    3.500    3.750 
#    0.000    3.125    0.000    0.750    0.000    0.000 
#    0.000    0.000    0.000    0.000    0.000    0.000 
#
# Total GULP energy -793159.462001 kJ/mol
# GULP energy per Si atom -12393.116594 kJ/mol
# Density = 1.908386 g / cm^3
# Si number density = 19.127398 Si / 1000 Ang^3
#
#
#
# Elastic Constant Matrix: (Units=GPa)
#
#
# Indices 1 2 3 4 5 6 
#
# 1 71.1102 42.7717 17.5474 0.0000 0.0000 0.0000
# 2 42.7717 164.5562 41.3283 0.0000 0.0000 0.0000
# 3 17.5474 41.3283 54.7152 0.0000 0.0000 0.0000
# 4 0.0000 0.0000 0.0000 17.6516 0.0000 0.0000
# 5 0.0000 0.0000 0.0000 0.0000 29.3257 0.0000
# 6 0.0000 0.0000 0.0000 0.0000 0.0000 19.7439
#
#
#
# Elastic Compliance Matrix: (Units=1/GPa)
#
#
# Indices 1 2 3 4 5 6 
#
# 1 0.016964 -0.003755 -0.002604 0.000000 0.000000 0.000000
# 2 -0.003755 0.008331 -0.005088 0.000000 0.000000 0.000000
# 3 -0.002604 -0.005088 0.022955 0.000000 0.000000 0.000000
# 4 0.000000 0.000000 0.000000 0.056652 0.000000 0.000000
# 5 0.000000 0.000000 0.000000 0.000000 0.034100 0.000000
# 6 0.000000 0.000000 0.000000 0.000000 0.000000 0.050649
#
#
# Mechanical properties :
#
#
# Convention : Reuss Voigt Hill
#
# Bulk Modulus (GPa) = 39.44026 54.85293 47.14660
# Shear Modulus (GPa) = 22.62471 25.92651 24.27561
#
# Velocity S-wave (km/s) = 3.44298 3.68566 3.56638
# Velocity P-wave (km/s) = 6.03904 6.84485 6.45453
#
# Compressibility (1/GPa) = 0.02535480
#
# Stress axis : x y z
#
# Youngs Moduli (GPa) = 58.94833 120.03394 43.56358
#
# Poissons Ratio (x) = 0.45077 0.11344
# Poissons Ratio (y) = 0.22137 0.22167
# Poissons Ratio (z) = 0.15350 0.61077
#
# Static dielectric constant tensor:
#      x y z
#    x 3.426620 0.000000 0.000000 
#    y 0.000000 3.978950 0.000000 
#    z 0.000000 0.000000 3.443230 
# 
# 
# High freq. dielectric constant tensor:
#      x y z
#    x 1.737130 0.000000 0.000000 
#    y 0.000000 1.760640 0.000000 
#    z 0.000000 0.000000 1.716230 
# 
# From -- ./inp_files/4699.got.cif
#   From: 2010.06.25/outbox.cif.g09.slc.cpg/sg58_3_cif.got.tgz:4699.got - 2010.06.26 21:38:00.
