data_PCOD8237389
_publ_section_title
;
Structure prediction by ZEFSAII (Michael W. Deem and Ramdas Pophale) SiO2 
 PCOD8237389
Probable space group: P N N M
;
_chemical_formula_sum "Si O2"
_cell_formula_units_Z 64
_cell_length_a 14.545119
_cell_length_b 24.835605
_cell_length_c 8.897262
_cell_angle_alpha 90.000000
_cell_angle_beta 90.000000
_cell_angle_gamma 90.000000
_cell_volume 3214.018722
_symmetry_space_group_name_H-M "P N N M"
_symmetry_group_IT_number 58
_symmetry_cell_setting 'orthorhombic'
loop_
_space_group_symop_operation_xyz
x,y,z
-x,-y,z
1/2+x,1/2-y,1/2-z
1/2-x,1/2+y,1/2-z
-x,-y,-z
x,y,-z
1/2-x,1/2+y,1/2+z
1/2+x,1/2-y,1/2+z
loop_
_atom_site_type_symbol
_atom_site_label
_atom_site_fract_x
_atom_site_fract_y
_atom_site_fract_z
Si Si1 0.066357 0.450632 0.177020
Si Si2 0.761568 0.413307 0.175947
Si Si3 0.254066 0.480944 0.327163
Si Si4 0.046020 0.946494 0.173350
Si Si5 0.632182 0.757398 0.172122
Si Si6 0.015862 0.829091 0.173247
Si Si7 0.686213 0.312877 0.671807
Si Si8 0.938970 0.373246 0.677799
O O1 0.170940 0.460331 0.224912
O O2 0.000000 0.500000 0.224943
O O3 0.036127 0.395781 0.263316
O O4 0.062598 0.440667 0.000000
O O5 0.712971 0.460993 0.267327
O O6 0.706164 0.359486 0.209968
O O7 0.865385 0.409816 0.235392
O O8 0.762725 0.425829 0.000000
O O9 0.222105 0.483959 0.500000
O O10 0.343731 0.443969 0.307805
O O11 0.010049 0.889633 0.244117
O O12 0.016252 0.948279 0.000000
O O13 0.000000 0.000000 0.250606
O O14 0.598492 0.705445 0.260010
O O15 0.742069 0.764334 0.202285
O O16 0.576932 0.810979 0.223370
O O17 0.611413 0.745837 0.000000
O O18 0.919866 0.796545 0.197534
O O19 0.039902 0.835785 0.000000
O O20 0.701783 0.333618 0.500000
O O21 0.928126 0.380789 0.500000
#
# Coordination Sequence:
#
# PCOD8237389 Si02
#       8
#     8   8   8   8   8   8   8   8
#     4  11  22  35  53  82 119 154 194 245 294 345
#     4  11  20  31  52  83 115 145 189 240 283 331
#     4  11  21  34  55  81 115 157 193 230 290 354
#     4   9  19  37  61  88 115 147 193 245 289 344
#     4   9  20  38  58  84 116 145 185 238 289 345
#     4  10  20  38  64  89 114 149 196 243 291 348
#     4   9  19  37  60  83 109 148 194 234 283 346
#     4  10  20  36  57  79 109 153 198 237 283 344
#
# _framework density 19.912766999999999
#
# number of rings (size 3 to 8) (size 9 to 14) (size 15 to 20)
#    0.000    2.000    1.250    3.750    0.000    5.500 
#    2.250    1.250    0.000    2.625    0.000    0.000 
#    0.000    0.000    0.000    0.000    0.000    0.000 
#
# Total GULP energy -793369.943035 kJ/mol
# GULP energy per Si atom -12396.405360 kJ/mol
# Density = 1.986744 g / cm^3
# Si number density = 19.912767 Si / 1000 Ang^3
#
#
#
# Elastic Constant Matrix: (Units=GPa)
#
#
# Indices 1 2 3 4 5 6 
#
# 1 98.9346 50.4011 26.5086 0.0000 0.0000 0.0000
# 2 50.4011 109.0196 28.2930 0.0000 0.0000 0.0000
# 3 26.5086 28.2930 56.6715 0.0000 0.0000 0.0000
# 4 0.0000 0.0000 0.0000 28.7255 0.0000 0.0000
# 5 0.0000 0.0000 0.0000 0.0000 19.4327 0.0000
# 6 0.0000 0.0000 0.0000 0.0000 0.0000 30.9662
#
#
#
# Elastic Compliance Matrix: (Units=1/GPa)
#
#
# Indices 1 2 3 4 5 6 
#
# 1 0.013893 -0.005441 -0.003782 0.000000 0.000000 0.000000
# 2 -0.005441 0.012669 -0.003780 0.000000 0.000000 0.000000
# 3 -0.003782 -0.003780 0.021302 0.000000 0.000000 0.000000
# 4 0.000000 0.000000 0.000000 0.034812 0.000000 0.000000
# 5 0.000000 0.000000 0.000000 0.000000 0.051460 0.000000
# 6 0.000000 0.000000 0.000000 0.000000 0.000000 0.032293
#
#
# Mechanical properties :
#
#
# Convention : Reuss Voigt Hill
#
# Bulk Modulus (GPa) = 45.75077 52.78123 49.26600
# Shear Modulus (GPa) = 25.03485 26.45308 25.74397
#
# Velocity S-wave (km/s) = 3.54959 3.64874 3.59951
# Velocity P-wave (km/s) = 6.31070 6.65694 6.48613
#
# Compressibility (1/GPa) = 0.02185755
#
# Stress axis : x y z
#
# Youngs Moduli (GPa) = 71.97813 78.93130 46.94468
#
# Poissons Ratio (x) = 0.42950 0.17754
# Poissons Ratio (y) = 0.39166 0.17744
# Poissons Ratio (z) = 0.27222 0.29834
#
# Static dielectric constant tensor:
#      x y z
#    x 3.632570 0.000000 0.000000 
#    y 0.000000 3.595800 0.000000 
#    z 0.000000 0.000000 3.400650 
# 
# 
# High freq. dielectric constant tensor:
#      x y z
#    x 1.778190 0.000000 0.000000 
#    y 0.000000 1.761950 0.000000 
#    z 0.000000 0.000000 1.760250 
# 
# From -- ./inp_files/6958.got.cif
#   From: 2010.06.25/outbox.cif.g09.slc.cpg/sg58_4_cif.got.tgz:6958.got - 2010.06.26 21:38:00.
