data_PCOD8237543
_publ_section_title
;
Structure prediction by ZEFSAII (Michael W. Deem and Ramdas Pophale) SiO2 
 PCOD8237543
Probable space group: P N N M
;
_chemical_formula_sum "Si O2"
_cell_formula_units_Z 64
_cell_length_a 18.070201
_cell_length_b 12.066581
_cell_length_c 13.579152
_cell_angle_alpha 90.000000
_cell_angle_beta 90.000000
_cell_angle_gamma 90.000000
_cell_volume 2960.873586
_symmetry_space_group_name_H-M "P N N M"
_symmetry_group_IT_number 58
_symmetry_cell_setting 'orthorhombic'
loop_
_space_group_symop_operation_xyz
x,y,z
-x,-y,z
1/2+x,1/2-y,1/2-z
1/2-x,1/2+y,1/2-z
-x,-y,-z
x,y,-z
1/2-x,1/2+y,1/2+z
1/2+x,1/2-y,1/2+z
loop_
_atom_site_type_symbol
_atom_site_label
_atom_site_fract_x
_atom_site_fract_y
_atom_site_fract_z
Si Si1 0.380597 0.199646 0.893508
Si Si2 0.945747 0.768912 0.111988
Si Si3 0.737726 0.978168 0.109295
Si Si4 0.093895 0.685517 0.817184
Si Si5 0.253914 0.770136 0.116908
Si Si6 0.850079 0.888925 0.742171
Si Si7 0.138384 0.455530 0.114580
Si Si8 0.306341 0.427974 0.111080
O O1 0.431464 0.207805 0.796721
O O2 0.319713 0.297055 0.884869
O O3 0.342165 0.079651 0.891199
O O4 0.422860 0.212157 0.000000
O O5 0.924313 0.857551 0.196964
O O6 0.900214 0.659513 0.140015
O O7 0.033256 0.744694 0.115091
O O8 0.927619 0.808921 0.000000
O O9 0.731375 0.103352 0.148362
O O10 0.788728 0.901858 0.174899
O O11 0.772126 0.980267 0.000000
O O12 0.174343 0.734465 0.841136
O O13 0.094744 0.553501 0.831371
O O14 0.321171 0.701870 0.164589
O O15 0.255568 0.751039 0.000000
O O16 0.862547 0.003921 0.682094
O O17 0.223469 0.452743 0.149715
O O18 0.134246 0.481643 0.000000
O O19 0.316274 0.472209 0.000000
#
# Coordination Sequence:
#
# PCOD8237543 Si02
#       8
#     8   8   8   8   8   8   8   8
#     4  10  21  38  62  91 124 164 211 260 310 369
#     4  11  26  42  60  92 132 172 209 255 316 384
#     4  10  21  37  58  89 124 156 201 258 310 361
#     4  12  22  39  64  90 131 171 214 253 315 381
#     4  11  23  38  62  95 126 160 206 260 313 369
#     4  12  22  36  63  90 123 162 207 255 312 364
#     4  10  20  36  62  93 126 164 209 264 316 370
#     4  10  20  37  64  97 123 153 209 269 313 360
#
# _framework density 21.615241999999999
#
# number of rings (size 3 to 8) (size 9 to 14) (size 15 to 20)
#    0.000    1.250    2.500    3.750    3.500    3.000 
#    0.000    3.750    0.000    7.500    0.000    0.000 
#    0.000    0.000    0.000    0.000    0.000    0.000 
#
# Total GULP energy -793390.273227 kJ/mol
# GULP energy per Si atom -12396.723019 kJ/mol
# Density = 2.156604 g / cm^3
# Si number density = 21.615242 Si / 1000 Ang^3
#
#
#
# Elastic Constant Matrix: (Units=GPa)
#
#
# Indices 1 2 3 4 5 6 
#
# 1 35.1751 10.3951 15.1947 0.0000 0.0000 0.0000
# 2 10.3951 88.0510 21.4236 0.0000 0.0000 0.0000
# 3 15.1947 21.4236 110.4411 0.0000 0.0000 0.0000
# 4 0.0000 0.0000 0.0000 40.2246 0.0000 0.0000
# 5 0.0000 0.0000 0.0000 0.0000 28.5760 0.0000
# 6 0.0000 0.0000 0.0000 0.0000 0.0000 17.4899
#
#
#
# Elastic Compliance Matrix: (Units=1/GPa)
#
#
# Indices 1 2 3 4 5 6 
#
# 1 0.030842 -0.002738 -0.003712 0.000000 0.000000 0.000000
# 2 -0.002738 0.012163 -0.001983 0.000000 0.000000 0.000000
# 3 -0.003712 -0.001983 0.009950 0.000000 0.000000 0.000000
# 4 0.000000 0.000000 0.000000 0.024860 0.000000 0.000000
# 5 0.000000 0.000000 0.000000 0.000000 0.034994 0.000000
# 6 0.000000 0.000000 0.000000 0.000000 0.000000 0.057176
#
#
# Mechanical properties :
#
#
# Convention : Reuss Voigt Hill
#
# Bulk Modulus (GPa) = 27.70927 36.41043 32.05985
# Shear Modulus (GPa) = 25.14073 29.70167 27.42120
#
# Velocity S-wave (km/s) = 3.41413 3.71092 3.56561
# Velocity P-wave (km/s) = 5.32812 5.93655 5.64054
#
# Compressibility (1/GPa) = 0.03608900
#
# Stress axis : x y z
#
# Youngs Moduli (GPa) = 32.42342 82.21871 100.50323
#
# Poissons Ratio (x) = 0.22511 0.37309
# Poissons Ratio (y) = 0.08877 0.19926
# Poissons Ratio (z) = 0.12036 0.16301
#
# Static dielectric constant tensor:
#      x y z
#    x 3.389410 0.000000 0.000000 
#    y 0.000000 3.965910 0.000000 
#    z 0.000000 0.000000 4.380620 
# 
# 
# High freq. dielectric constant tensor:
#      x y z
#    x 1.790690 0.000000 0.000000 
#    y 0.000000 1.855770 0.000000 
#    z 0.000000 0.000000 1.879710 
# 
# From -- ./inp_files/22972.got.cif
#   From: 2010.06.25/outbox.cif.g09.slc.cpg/sg58_12_cif.got.tgz:22972.got - 2010.06.26 21:38:00.
