data_PCOD8237967
_publ_section_title
;
Structure prediction by ZEFSAII (Michael W. Deem and Ramdas Pophale) SiO2 
 PCOD8237967
Probable space group: P N N M
;
_chemical_formula_sum "Si O2"
_cell_formula_units_Z 40
_cell_length_a 5.037594
_cell_length_b 29.740292
_cell_length_c 13.083074
_cell_angle_alpha 90.000000
_cell_angle_beta 90.000000
_cell_angle_gamma 90.000000
_cell_volume 1960.099822
_symmetry_space_group_name_H-M "P N N M"
_symmetry_group_IT_number 58
_symmetry_cell_setting 'orthorhombic'
loop_
_space_group_symop_operation_xyz
x,y,z
-x,-y,z
1/2+x,1/2-y,1/2-z
1/2-x,1/2+y,1/2-z
-x,-y,-z
x,y,-z
1/2-x,1/2+y,1/2+z
1/2+x,1/2-y,1/2+z
loop_
_atom_site_type_symbol
_atom_site_label
_atom_site_fract_x
_atom_site_fract_y
_atom_site_fract_z
Si Si1 0.410459 0.549783 0.383364
Si Si2 0.921133 0.774268 0.621548
Si Si3 0.240188 0.970496 0.613689
Si Si4 0.105453 0.408962 0.711850
Si Si5 0.078899 0.308102 0.767751
O O1 0.500000 0.500000 0.350111
O O2 0.316070 0.550992 0.500000
O O3 0.660360 0.583317 0.370361
O O4 0.158957 0.563800 0.316055
O O5 0.957750 0.770474 0.500000
O O6 0.938471 0.724764 0.670380
O O7 0.642173 0.797049 0.647853
O O8 0.144177 0.805458 0.672671
O O9 0.165177 0.953832 0.500000
O O10 0.281501 0.926143 0.680274
O O11 0.500000 0.000000 0.612478
O O12 0.000000 0.000000 0.659655
O O13 0.035102 0.356895 0.719991
#
# Coordination Sequence:
#
# PCOD8237967 Si02
#       5
#     8   8   8   8   8
#     4  11  24  40  60  87 120 160 200 238 291 351
#     4  10  21  41  63  84 122 159 187 242 305 354
#     4  10  21  36  55  81 113 153 195 232 282 340
#     4  12  22  39  62  87 121 153 195 252 293 337
#     4  10  23  39  60  94 117 149 206 240 289 369
#
# _framework density 20.407122999999999
#
# number of rings (size 3 to 8) (size 9 to 14) (size 15 to 20)
#    0.000    1.400    0.000    6.000    0.000    4.800 
#    0.000    2.000    0.000    0.000    0.000    0.000 
#    0.000    0.000    0.000    0.000    0.000    0.000 
#
# Total GULP energy -496172.310924 kJ/mol
# GULP energy per Si atom -12404.307773 kJ/mol
# Density = 2.036068 g / cm^3
# Si number density = 20.407123 Si / 1000 Ang^3
#
#
#
# Elastic Constant Matrix: (Units=GPa)
#
#
# Indices 1 2 3 4 5 6 
#
# 1 116.2034 38.4162 26.5078 0.0000 0.0000 0.0000
# 2 38.4162 122.2881 48.5085 0.0000 0.0000 0.0000
# 3 26.5078 48.5085 113.1237 0.0000 0.0000 0.0000
# 4 0.0000 0.0000 0.0000 13.8880 0.0000 0.0000
# 5 0.0000 0.0000 0.0000 0.0000 22.9473 0.0000
# 6 0.0000 0.0000 0.0000 0.0000 0.0000 23.0706
#
#
#
# Elastic Compliance Matrix: (Units=1/GPa)
#
#
# Indices 1 2 3 4 5 6 
#
# 1 0.009729 -0.002593 -0.001168 0.000000 0.000000 0.000000
# 2 -0.002593 0.010545 -0.003914 0.000000 0.000000 0.000000
# 3 -0.001168 -0.003914 0.010792 0.000000 0.000000 0.000000
# 4 0.000000 0.000000 0.000000 0.072004 0.000000 0.000000
# 5 0.000000 0.000000 0.000000 0.000000 0.043578 0.000000
# 6 0.000000 0.000000 0.000000 0.000000 0.000000 0.043345
#
#
# Mechanical properties :
#
#
# Convention : Reuss Voigt Hill
#
# Bulk Modulus (GPa) = 63.63019 64.27557 63.95288
# Shear Modulus (GPa) = 23.74369 27.86002 25.80186
#
# Velocity S-wave (km/s) = 3.41471 3.69888 3.55964
# Velocity P-wave (km/s) = 6.84069 7.05743 6.94991
#
# Compressibility (1/GPa) = 0.01571581
#
# Stress axis : x y z
#
# Youngs Moduli (GPa) = 102.78245 94.83512 92.66212
#
# Poissons Ratio (x) = 0.24592 0.10822
# Poissons Ratio (y) = 0.26653 0.36268
# Poissons Ratio (z) = 0.12003 0.37118
#
# Static dielectric constant tensor:
#      x y z
#    x 3.869120 0.000000 0.000000 
#    y 0.000000 3.510880 0.000000 
#    z 0.000000 0.000000 3.818860 
# 
# 
# High freq. dielectric constant tensor:
#      x y z
#    x 1.818480 0.000000 0.000000 
#    y 0.000000 1.781960 0.000000 
#    z 0.000000 0.000000 1.807660 
# 
# From -- ./inp_files/11744.got.cif
#   From: 2010.06.25/outbox.cif.g09.slc.cpg/sg58_6_cif.got.tgz:11744.got - 2010.06.26 21:38:00.
