data_PCOD8237936
_publ_section_title
;
Structure prediction by ZEFSAII (Michael W. Deem and Ramdas Pophale) SiO2 
 PCOD8237936
Probable space group: P N N M
;
_chemical_formula_sum "Si O2"
_cell_formula_units_Z 56
_cell_length_a 20.005167
_cell_length_b 16.120646
_cell_length_c 9.036103
_cell_angle_alpha 90.000000
_cell_angle_beta 90.000000
_cell_angle_gamma 90.000000
_cell_volume 2914.109019
_symmetry_space_group_name_H-M "P N N M"
_symmetry_group_IT_number 58
_symmetry_cell_setting 'orthorhombic'
loop_
_space_group_symop_operation_xyz
x,y,z
-x,-y,z
1/2+x,1/2-y,1/2-z
1/2-x,1/2+y,1/2-z
-x,-y,-z
x,y,-z
1/2-x,1/2+y,1/2+z
1/2+x,1/2-y,1/2+z
loop_
_atom_site_type_symbol
_atom_site_label
_atom_site_fract_x
_atom_site_fract_y
_atom_site_fract_z
Si Si1 0.044655 0.077546 0.673775
Si Si2 0.177279 0.517640 0.327651
Si Si3 0.686418 0.491903 0.827639
Si Si4 0.099100 0.683810 0.326727
Si Si5 0.026082 0.248720 0.174612
Si Si6 0.801521 0.179206 0.672690
Si Si7 0.655097 0.150204 0.325203
O O1 0.035847 0.093242 0.500000
O O2 0.121755 0.061352 0.716403
O O3 0.018210 0.157382 0.759236
O O4 0.000000 0.000000 0.724685
O O5 0.185766 0.499728 0.500000
O O6 0.250291 0.540352 0.263963
O O7 0.128033 0.593368 0.296208
O O8 0.143671 0.438471 0.250827
O O9 0.670676 0.587892 0.789790
O O10 0.703904 0.483183 0.000000
O O11 0.086303 0.699542 0.500000
O O12 0.150071 0.751873 0.256704
O O13 0.029639 0.690650 0.240738
O O14 0.097514 0.286331 0.221465
O O15 0.018036 0.244017 0.000000
O O16 0.800557 0.196776 0.500000
O O17 0.725526 0.188093 0.732174
O O18 0.656928 0.134117 0.500000
#
# Coordination Sequence:
#
# PCOD8237936 Si02
#       7
#     8   8   8   8   8   8   8
#     4  10  21  38  60  84 116 157 193 225 277 352
#     4  10  21  35  57  86 112 144 188 242 290 332
#     4   9  18  34  57  82 110 147 187 228 275 337
#     4  10  21  37  58  81 110 150 190 231 284 348
#     4  11  24  38  57  85 115 150 190 242 292 331
#     4   8  15  33  59  79 102 144 190 222 263 334
#     4   9  20  39  59  78 109 152 191 231 286 347
#
# _framework density 19.216850999999998
#
# number of rings (size 3 to 8) (size 9 to 14) (size 15 to 20)
#    0.000    2.429    0.000    2.571    2.000    6.000 
#    0.000    8.571    0.000    0.000    0.000    0.000 
#    0.000    0.000    0.000    0.000    0.000    0.000 
#
# Total GULP energy -694478.420465 kJ/mol
# GULP energy per Si atom -12401.400365 kJ/mol
# Density = 1.917311 g / cm^3
# Si number density = 19.216851 Si / 1000 Ang^3
#
#
#
# Elastic Constant Matrix: (Units=GPa)
#
#
# Indices 1 2 3 4 5 6 
#
# 1 87.9925 36.9572 36.3224 0.0000 0.0000 0.0000
# 2 36.9572 73.9336 33.5830 0.0000 0.0000 0.0000
# 3 36.3224 33.5830 52.5372 0.0000 0.0000 0.0000
# 4 0.0000 0.0000 0.0000 26.9852 0.0000 0.0000
# 5 0.0000 0.0000 0.0000 0.0000 29.8199 0.0000
# 6 0.0000 0.0000 0.0000 0.0000 0.0000 33.9683
#
#
#
# Elastic Compliance Matrix: (Units=1/GPa)
#
#
# Indices 1 2 3 4 5 6 
#
# 1 0.016868 -0.004417 -0.008839 0.000000 0.000000 0.000000
# 2 -0.004417 0.020216 -0.009869 0.000000 0.000000 0.000000
# 3 -0.008839 -0.009869 0.031453 0.000000 0.000000 0.000000
# 4 0.000000 0.000000 0.000000 0.037057 0.000000 0.000000
# 5 0.000000 0.000000 0.000000 0.000000 0.033535 0.000000
# 6 0.000000 0.000000 0.000000 0.000000 0.000000 0.029439
#
#
# Mechanical properties :
#
#
# Convention : Reuss Voigt Hill
#
# Bulk Modulus (GPa) = 44.86596 47.57648 46.22122
# Shear Modulus (GPa) = 22.49736 25.32805 23.91271
#
# Velocity S-wave (km/s) = 3.42528 3.63438 3.53138
# Velocity P-wave (km/s) = 6.24830 6.51330 6.38218
#
# Compressibility (1/GPa) = 0.02228861
#
# Stress axis : x y z
#
# Youngs Moduli (GPa) = 59.28271 49.46466 31.79320
#
# Poissons Ratio (x) = 0.21849 0.28101
# Poissons Ratio (y) = 0.26186 0.31376
# Poissons Ratio (z) = 0.52398 0.48816
#
# Static dielectric constant tensor:
#      x y z
#    x 3.751070 0.000000 0.000000 
#    y 0.000000 3.496050 0.000000 
#    z 0.000000 0.000000 3.298240 
# 
# 
# High freq. dielectric constant tensor:
#      x y z
#    x 1.758030 0.000000 0.000000 
#    y 0.000000 1.749650 0.000000 
#    z 0.000000 0.000000 1.726660 
# 
# From -- ./inp_files/6324.got.cif
#   From: 2010.06.25/outbox.cif.g09.slc.cpg/sg58_4_cif.got.tgz:6324.got - 2010.06.26 21:38:00.
