data_PCOD8237188
_publ_section_title
;
Structure prediction by ZEFSAII (Michael W. Deem and Ramdas Pophale) SiO2 
 PCOD8237188
Probable space group: P N N M
;
_chemical_formula_sum "Si O2"
_cell_formula_units_Z 56
_cell_length_a 21.711497
_cell_length_b 15.464049
_cell_length_c 9.491078
_cell_angle_alpha 90.000000
_cell_angle_beta 90.000000
_cell_angle_gamma 90.000000
_cell_volume 3186.607167
_symmetry_space_group_name_H-M "P N N M"
_symmetry_group_IT_number 58
_symmetry_cell_setting 'orthorhombic'
loop_
_space_group_symop_operation_xyz
x,y,z
-x,-y,z
1/2+x,1/2-y,1/2-z
1/2-x,1/2+y,1/2-z
-x,-y,-z
x,y,-z
1/2-x,1/2+y,1/2+z
1/2+x,1/2-y,1/2+z
loop_
_atom_site_type_symbol
_atom_site_label
_atom_site_fract_x
_atom_site_fract_y
_atom_site_fract_z
Si Si1 0.059659 0.547890 0.657715
Si Si2 0.319349 0.067213 0.666839
Si Si3 0.986831 0.867577 0.161028
Si Si4 0.312752 0.238327 0.166284
Si Si5 0.548980 0.754632 0.846814
Si Si6 0.216609 0.927129 0.337431
Si Si7 0.898258 0.013199 0.837590
O O1 0.077943 0.513827 0.500000
O O2 0.115851 0.539173 0.766165
O O3 0.037508 0.644945 0.643831
O O4 0.000000 0.500000 0.719773
O O5 0.326276 0.085513 0.500000
O O6 0.292160 0.154197 0.742607
O O7 0.276199 0.984539 0.696262
O O8 0.993703 0.781168 0.251145
O O9 0.045427 0.925366 0.202943
O O10 0.989936 0.840346 0.000000
O O11 0.922497 0.915728 0.192518
O O12 0.382263 0.263329 0.212467
O O13 0.272413 0.324790 0.200646
O O14 0.310100 0.213024 0.000000
O O15 0.543305 0.710827 0.000000
O O16 0.198282 0.932756 0.500000
O O17 0.160781 0.968811 0.254073
O O18 0.879875 0.024317 0.000000
#
# Coordination Sequence:
#
# PCOD8237188 Si02
#       7
#     8   8   8   8   8   8   8
#     4   9  19  37  57  75  99 132 169 209 254 307
#     4  10  21  35  54  81 107 130 168 220 262 301
#     4   9  17  29  44  70 104 132 162 204 246 287
#     4   9  18  34  53  73 101 137 174 210 253 309
#     4   9  16  28  50  75  96 128 171 207 247 298
#     4  10  20  35  53  75 104 138 174 213 255 302
#     4   9  18  30  46  70 102 136 167 199 242 296
#
# _framework density 17.573550999999998
#
# number of rings (size 3 to 8) (size 9 to 14) (size 15 to 20)
#    0.000    2.714    1.429    2.143    0.000    4.857 
#    0.000    2.857    0.000    6.857    0.000    0.000 
#    0.000    0.000    0.000    0.000    0.000    0.000 
#
# Total GULP energy -693945.197296 kJ/mol
# GULP energy per Si atom -12391.878523 kJ/mol
# Density = 1.753355 g / cm^3
# Si number density = 17.573551 Si / 1000 Ang^3
#
#
#
# Elastic Constant Matrix: (Units=GPa)
#
#
# Indices 1 2 3 4 5 6 
#
# 1 75.6513 56.2419 50.1795 0.0000 0.0000 0.0000
# 2 56.2419 99.2687 50.7596 0.0000 0.0000 0.0000
# 3 50.1795 50.7596 77.7033 0.0000 0.0000 0.0000
# 4 0.0000 0.0000 0.0000 27.3612 0.0000 0.0000
# 5 0.0000 0.0000 0.0000 0.0000 18.7474 0.0000
# 6 0.0000 0.0000 0.0000 0.0000 0.0000 31.7418
#
#
#
# Elastic Compliance Matrix: (Units=1/GPa)
#
#
# Indices 1 2 3 4 5 6 
#
# 1 0.028637 -0.010163 -0.011854 0.000000 0.000000 0.000000
# 2 -0.010163 0.018733 -0.005674 0.000000 0.000000 0.000000
# 3 -0.011854 -0.005674 0.024231 0.000000 0.000000 0.000000
# 4 0.000000 0.000000 0.000000 0.036548 0.000000 0.000000
# 5 0.000000 0.000000 0.000000 0.000000 0.053341 0.000000
# 6 0.000000 0.000000 0.000000 0.000000 0.000000 0.031504
#
#
# Mechanical properties :
#
#
# Convention : Reuss Voigt Hill
#
# Bulk Modulus (GPa) = 61.65848 62.99838 62.32843
# Shear Modulus (GPa) = 19.70174 21.93290 20.81732
#
# Velocity S-wave (km/s) = 3.35192 3.53663 3.44551
# Velocity P-wave (km/s) = 7.08114 7.25281 7.16749
#
# Compressibility (1/GPa) = 0.01621837
#
# Stress axis : x y z
#
# Youngs Moduli (GPa) = 34.91951 53.38120 41.26867
#
# Poissons Ratio (x) = 0.54253 0.48921
# Poissons Ratio (y) = 0.35490 0.23416
# Poissons Ratio (z) = 0.41395 0.30289
#
# Static dielectric constant tensor:
#      x y z
#    x -0.741850 0.000000 0.000000 
#    y 0.000000 3.515900 0.000000 
#    z 0.000000 0.000000 3.306250 
# 
# 
# High freq. dielectric constant tensor:
#      x y z
#    x 1.650400 0.000000 0.000000 
#    y 0.000000 1.679780 0.000000 
#    z 0.000000 0.000000 1.680110 
# 
# From -- ./inp_files/9188.got.cif
#   From: 2010.06.25/outbox.cif.g09.slc.cpg/sg58_5_cif.got.tgz:9188.got - 2010.06.26 21:38:00.
