data_PCOD8237963
_publ_section_title
;
Structure prediction by ZEFSAII (Michael W. Deem and Ramdas Pophale) SiO2 
 PCOD8237963
Probable space group: P N N M
;
_chemical_formula_sum "Si O2"
_cell_formula_units_Z 56
_cell_length_a 16.725805
_cell_length_b 19.769698
_cell_length_c 8.956057
_cell_angle_alpha 90.000000
_cell_angle_beta 90.000000
_cell_angle_gamma 90.000000
_cell_volume 2961.446650
_symmetry_space_group_name_H-M "P N N M"
_symmetry_group_IT_number 58
_symmetry_cell_setting 'orthorhombic'
loop_
_space_group_symop_operation_xyz
x,y,z
-x,-y,z
1/2+x,1/2-y,1/2-z
1/2-x,1/2+y,1/2-z
-x,-y,-z
x,y,-z
1/2-x,1/2+y,1/2+z
1/2+x,1/2-y,1/2+z
loop_
_atom_site_type_symbol
_atom_site_label
_atom_site_fract_x
_atom_site_fract_y
_atom_site_fract_z
Si Si1 0.570201 0.548876 0.172917
Si Si2 0.736567 0.515669 0.677630
Si Si3 0.240069 0.759957 0.824286
Si Si4 0.086583 0.801498 0.330361
Si Si5 0.642862 0.130421 0.822716
Si Si6 0.808281 0.385542 0.822633
Si Si7 0.967745 0.344255 0.675184
O O1 0.500000 0.500000 0.232148
O O2 0.649381 0.536852 0.268037
O O3 0.540953 0.626994 0.193973
O O4 0.589065 0.532957 0.000000
O O5 0.736409 0.511296 0.500000
O O6 0.803541 0.568456 0.736631
O O7 0.758318 0.444025 0.746652
O O8 0.164550 0.803025 0.771159
O O9 0.319392 0.798291 0.766608
O O10 0.236324 0.682878 0.767852
O O11 0.236257 0.760665 0.000000
O O12 0.116259 0.795147 0.500000
O O13 0.031653 0.736597 0.291092
O O14 0.551860 0.125962 0.764758
O O15 0.642038 0.129660 0.000000
O O16 0.899399 0.383587 0.765274
O O17 0.808247 0.394312 0.000000
O O18 0.955465 0.358720 0.500000
#
# Coordination Sequence:
#
# PCOD8237963 Si02
#       7
#     8   8   8   8   8   8   8
#     4  10  21  36  55  82 114 147 182 223 279 338
#     4  11  22  37  57  80 110 148 188 229 276 330
#     4   9  17  33  56  77 101 140 185 226 272 328
#     4   9  17  31  53  78 104 136 174 223 273 321
#     4   9  18  33  56  82 105 141 188 228 269 325
#     4  10  21  36  55  80 113 147 182 228 280 330
#     4   9  18  34  55  79 106 139 185 230 273 323
#
# _framework density 18.909676000000001
#
# number of rings (size 3 to 8) (size 9 to 14) (size 15 to 20)
#    0.000    2.429    1.429    0.857    0.000    2.571 
#    0.000    9.286    0.000    3.429    0.000    0.000 
#    0.000    0.000    0.000    0.000    0.000    0.000 
#
# Total GULP energy -694176.920961 kJ/mol
# GULP energy per Si atom -12396.016446 kJ/mol
# Density = 1.886664 g / cm^3
# Si number density = 18.909676 Si / 1000 Ang^3
#
#
#
# Elastic Constant Matrix: (Units=GPa)
#
#
# Indices 1 2 3 4 5 6 
#
# 1 64.6840 34.1245 18.0600 0.0000 0.0000 0.0000
# 2 34.1245 97.3530 26.0991 0.0000 0.0000 0.0000
# 3 18.0600 26.0991 31.5957 0.0000 0.0000 0.0000
# 4 0.0000 0.0000 0.0000 23.6560 0.0000 0.0000
# 5 0.0000 0.0000 0.0000 0.0000 26.8806 0.0000
# 6 0.0000 0.0000 0.0000 0.0000 0.0000 30.7984
#
#
#
# Elastic Compliance Matrix: (Units=1/GPa)
#
#
# Indices 1 2 3 4 5 6 
#
# 1 0.020204 -0.005120 -0.007320 0.000000 0.000000 0.000000
# 2 -0.005120 0.014491 -0.009044 0.000000 0.000000 0.000000
# 3 -0.007320 -0.009044 0.043304 0.000000 0.000000 0.000000
# 4 0.000000 0.000000 0.000000 0.042273 0.000000 0.000000
# 5 0.000000 0.000000 0.000000 0.000000 0.037202 0.000000
# 6 0.000000 0.000000 0.000000 0.000000 0.000000 0.032469
#
#
# Mechanical properties :
#
#
# Convention : Reuss Voigt Hill
#
# Bulk Modulus (GPa) = 28.54421 38.91112 33.72767
# Shear Modulus (GPa) = 20.44264 23.95692 22.19978
#
# Velocity S-wave (km/s) = 3.29153 3.56323 3.43007
# Velocity P-wave (km/s) = 5.43814 6.12788 5.79328
#
# Compressibility (1/GPa) = 0.03503337
#
# Stress axis : x y z
#
# Youngs Moduli (GPa) = 49.49403 69.00849 23.09255
#
# Poissons Ratio (x) = 0.35331 0.16903
# Poissons Ratio (y) = 0.25340 0.20884
# Poissons Ratio (z) = 0.36228 0.62408
#
# Static dielectric constant tensor:
#      x y z
#    x 3.572730 0.000000 0.000000 
#    y 0.000000 3.759670 0.000000 
#    z 0.000000 0.000000 3.299310 
# 
# 
# High freq. dielectric constant tensor:
#      x y z
#    x 1.724910 0.000000 0.000000 
#    y 0.000000 1.747530 0.000000 
#    z 0.000000 0.000000 1.716080 
# 
# From -- ./inp_files/6344.got.cif
#   From: 2010.06.25/outbox.cif.g09.slc.cpg/sg58_4_cif.got.tgz:6344.got - 2010.06.26 21:38:00.
