data_PCOD8237182
_publ_section_title
;
Structure prediction by ZEFSAII (Michael W. Deem and Ramdas Pophale) SiO2 
 PCOD8237182
Probable space group: P N N M
;
_chemical_formula_sum "Si O2"
_cell_formula_units_Z 64
_cell_length_a 23.154116
_cell_length_b 18.823160
_cell_length_c 8.896541
_cell_angle_alpha 90.000000
_cell_angle_beta 90.000000
_cell_angle_gamma 90.000000
_cell_volume 3877.411760
_symmetry_space_group_name_H-M "P N N M"
_symmetry_group_IT_number 58
_symmetry_cell_setting 'orthorhombic'
loop_
_space_group_symop_operation_xyz
x,y,z
-x,-y,z
1/2+x,1/2-y,1/2-z
1/2-x,1/2+y,1/2-z
-x,-y,-z
x,y,-z
1/2-x,1/2+y,1/2+z
1/2+x,1/2-y,1/2+z
loop_
_atom_site_type_symbol
_atom_site_label
_atom_site_fract_x
_atom_site_fract_y
_atom_site_fract_z
Si Si1 0.334324 0.264732 0.326961
Si Si2 0.771986 0.638533 0.327425
Si Si3 0.229582 0.645324 0.322741
Si Si4 0.617033 0.498393 0.824057
Si Si5 0.663545 0.277749 0.825100
Si Si6 0.750964 0.497547 0.175578
Si Si7 0.932570 0.859540 0.824774
Si Si8 0.565242 0.633463 0.327104
O O1 0.324551 0.243023 0.500000
O O2 0.288441 0.325262 0.281694
O O3 0.324037 0.194909 0.226722
O O4 0.397989 0.295178 0.296332
O O5 0.770561 0.613760 0.500000
O O6 0.823592 0.694609 0.298109
O O7 0.782316 0.570437 0.223297
O O8 0.235016 0.645357 0.500000
O O9 0.289156 0.672865 0.253044
O O10 0.217931 0.566105 0.263813
O O11 0.683913 0.501736 0.777907
O O12 0.586243 0.435887 0.734757
O O13 0.586234 0.571431 0.781361
O O14 0.609350 0.484589 0.000000
O O15 0.601187 0.295926 0.757700
O O16 0.665210 0.297204 0.000000
O O17 0.759430 0.485395 0.000000
O O18 0.999649 0.847264 0.789932
O O19 0.918816 0.855875 0.000000
O O20 0.572923 0.608579 0.500000
#
# Coordination Sequence:
#
# PCOD8237182 Si02
#       8
#     8   8   8   8   8   8   8   8
#     4   9  18  34  52  70  98 131 163 205 251 294
#     4   9  18  32  52  72  95 128 165 203 250 300
#     4  11  21  32  51  74  99 129 165 206 248 298
#     4  11  22  33  47  70 102 138 175 210 244 289
#     4  10  20  35  51  71  99 131 165 206 253 297
#     4  11  21  32  49  74 103 133 166 203 248 299
#     4  11  22  34  51  73  98 135 177 211 244 291
#     4  10  21  36  52  71  99 136 175 210 248 292
#
# _framework density 16.505856999999999
#
# number of rings (size 3 to 8) (size 9 to 14) (size 15 to 20)
#    0.000    1.750    2.500    3.750    0.000    6.500 
#    0.000    0.000    0.000    0.000    0.000    0.875 
#    0.000    7.000    0.000    0.000    0.000    0.000 
#
# Total GULP energy -793840.150795 kJ/mol
# GULP energy per Si atom -12403.752356 kJ/mol
# Density = 1.646829 g / cm^3
# Si number density = 16.505857 Si / 1000 Ang^3
#
#
#
# Elastic Constant Matrix: (Units=GPa)
#
#
# Indices 1 2 3 4 5 6 
#
# 1 76.4495 51.4946 38.2116 0.0000 0.0000 0.0000
# 2 51.4946 114.1171 59.5748 0.0000 0.0000 0.0000
# 3 38.2116 59.5748 96.8893 0.0000 0.0000 0.0000
# 4 0.0000 0.0000 0.0000 30.9971 0.0000 0.0000
# 5 0.0000 0.0000 0.0000 0.0000 17.9946 0.0000
# 6 0.0000 0.0000 0.0000 0.0000 0.0000 21.0292
#
#
#
# Elastic Compliance Matrix: (Units=1/GPa)
#
#
# Indices 1 2 3 4 5 6 
#
# 1 0.019508 -0.007049 -0.003359 0.000000 0.000000 0.000000
# 2 -0.007049 0.015453 -0.006721 0.000000 0.000000 0.000000
# 3 -0.003359 -0.006721 0.015779 0.000000 0.000000 0.000000
# 4 0.000000 0.000000 0.000000 0.032261 0.000000 0.000000
# 5 0.000000 0.000000 0.000000 0.000000 0.055572 0.000000
# 6 0.000000 0.000000 0.000000 0.000000 0.000000 0.047553
#
#
# Mechanical properties :
#
#
# Convention : Reuss Voigt Hill
#
# Bulk Modulus (GPa) = 60.68090 65.11312 62.89701
# Shear Modulus (GPa) = 22.13585 23.21583 22.67584
#
# Velocity S-wave (km/s) = 3.66606 3.75443 3.71051
# Velocity P-wave (km/s) = 7.40021 7.63731 7.51969
#
# Compressibility (1/GPa) = 0.01647965
#
# Stress axis : x y z
#
# Youngs Moduli (GPa) = 51.26201 64.71368 63.37638
#
# Poissons Ratio (x) = 0.45617 0.21290
# Poissons Ratio (y) = 0.36135 0.42598
# Poissons Ratio (z) = 0.17220 0.43497
#
# Static dielectric constant tensor:
#      x y z
#    x 3.023580 0.000000 0.000000 
#    y 0.000000 3.101500 0.000000 
#    z 0.000000 0.000000 3.154480 
# 
# 
# High freq. dielectric constant tensor:
#      x y z
#    x 1.607670 0.000000 0.000000 
#    y 0.000000 1.630700 0.000000 
#    z 0.000000 0.000000 1.646790 
# 
# From -- ./inp_files/6917.got.cif
#   From: 2010.06.25/outbox.cif.g09.slc.cpg/sg58_4_cif.got.tgz:6917.got - 2010.06.26 21:38:00.
