data_PCOD8237741
_publ_section_title
;
Structure prediction by ZEFSAII (Michael W. Deem and Ramdas Pophale) SiO2 
 PCOD8237741
Probable space group: P N N M
;
_chemical_formula_sum "Si O2"
_cell_formula_units_Z 64
_cell_length_a 23.885472
_cell_length_b 15.347082
_cell_length_c 8.779790
_cell_angle_alpha 90.000000
_cell_angle_beta 90.000000
_cell_angle_gamma 90.000000
_cell_volume 3218.427791
_symmetry_space_group_name_H-M "P N N M"
_symmetry_group_IT_number 58
_symmetry_cell_setting 'orthorhombic'
loop_
_space_group_symop_operation_xyz
x,y,z
-x,-y,z
1/2+x,1/2-y,1/2-z
1/2-x,1/2+y,1/2-z
-x,-y,-z
x,y,-z
1/2-x,1/2+y,1/2+z
1/2+x,1/2-y,1/2+z
loop_
_atom_site_type_symbol
_atom_site_label
_atom_site_fract_x
_atom_site_fract_y
_atom_site_fract_z
Si Si1 0.642729 0.911662 0.679649
Si Si2 0.865863 0.894010 0.324064
Si Si3 0.250327 0.655075 0.321283
Si Si4 0.051497 0.253003 0.680397
Si Si5 0.128802 0.409746 0.320508
Si Si6 0.353836 0.410960 0.825354
Si Si7 0.574425 0.754284 0.179920
Si Si8 0.249947 0.839529 0.822141
O O1 0.643999 0.909504 0.500000
O O2 0.705986 0.909162 0.742322
O O3 0.607739 0.830449 0.739078
O O4 0.613928 0.000590 0.736421
O O5 0.851963 0.871826 0.500000
O O6 0.812117 0.871742 0.225164
O O7 0.917008 0.834665 0.264416
O O8 0.882668 0.994853 0.302539
O O9 0.242408 0.645449 0.500000
O O10 0.236759 0.753230 0.272806
O O11 0.049255 0.253421 0.500000
O O12 0.084780 0.337887 0.738707
O O13 0.988695 0.253772 0.745454
O O14 0.124012 0.424775 0.500000
O O15 0.190555 0.378261 0.273699
O O16 0.398581 0.338347 0.776102
O O17 0.298618 0.407867 0.720087
O O18 0.335201 0.397833 0.000000
O O19 0.576007 0.770769 0.000000
O O20 0.248760 0.816870 0.000000
#
# Coordination Sequence:
#
# PCOD8237741 Si02
#       8
#     8   8   8   8   8   8   8   8
#     4  12  25  40  60  87 119 157 197 247 300 350
#     4  10  20  38  61  90 123 156 196 242 291 347
#     4  12  23  37  60  89 120 154 194 240 296 360
#     4   9  19  38  63  87 118 158 202 245 290 345
#     4  10  21  39  62  88 118 156 196 241 294 356
#     4  10  21  35  58  90 123 156 195 239 287 343
#     4  10  21  39  61  87 118 159 204 246 290 344
#     4  11  21  36  61  88 120 155 192 237 296 357
#
# _framework density 19.885484999999999
#
# number of rings (size 3 to 8) (size 9 to 14) (size 15 to 20)
#    0.000    1.500    2.500    3.375    0.000    4.500 
#    0.000    6.250    0.000    0.000    0.000    2.625 
#    0.000    0.000    0.000    0.000    0.000    0.000 
#
# Total GULP energy -793883.852976 kJ/mol
# GULP energy per Si atom -12404.435203 kJ/mol
# Density = 1.984023 g / cm^3
# Si number density = 19.885485 Si / 1000 Ang^3
#
#
#
# Elastic Constant Matrix: (Units=GPa)
#
#
# Indices 1 2 3 4 5 6 
#
# 1 117.9172 37.6877 37.0720 0.0000 0.0000 0.0000
# 2 37.6877 119.7218 41.3562 0.0000 0.0000 0.0000
# 3 37.0720 41.3562 67.3495 0.0000 0.0000 0.0000
# 4 0.0000 0.0000 0.0000 18.8919 0.0000 0.0000
# 5 0.0000 0.0000 0.0000 0.0000 24.1685 0.0000
# 6 0.0000 0.0000 0.0000 0.0000 0.0000 11.9682
#
#
#
# Elastic Compliance Matrix: (Units=1/GPa)
#
#
# Indices 1 2 3 4 5 6 
#
# 1 0.010510 -0.001663 -0.004764 0.000000 0.000000 0.000000
# 2 -0.001663 0.010864 -0.005756 0.000000 0.000000 0.000000
# 3 -0.004764 -0.005756 0.021005 0.000000 0.000000 0.000000
# 4 0.000000 0.000000 0.000000 0.052933 0.000000 0.000000
# 5 0.000000 0.000000 0.000000 0.000000 0.041376 0.000000
# 6 0.000000 0.000000 0.000000 0.000000 0.000000 0.083555
#
#
# Mechanical properties :
#
#
# Convention : Reuss Voigt Hill
#
# Bulk Modulus (GPa) = 55.51460 59.69115 57.60288
# Shear Modulus (GPa) = 19.95110 23.59723 21.77416
#
# Velocity S-wave (km/s) = 3.17093 3.44852 3.31263
# Velocity P-wave (km/s) = 6.43305 6.77783 6.60769
#
# Compressibility (1/GPa) = 0.01801328
#
# Stress axis : x y z
#
# Youngs Moduli (GPa) = 95.15011 92.04300 47.60821
#
# Poissons Ratio (x) = 0.15304 0.22680
# Poissons Ratio (y) = 0.15821 0.27404
# Poissons Ratio (z) = 0.45329 0.52981
#
# Static dielectric constant tensor:
#      x y z
#    x 3.755380 0.000000 0.000000 
#    y 0.000000 3.838510 0.000000 
#    z 0.000000 0.000000 3.385920 
# 
# 
# High freq. dielectric constant tensor:
#      x y z
#    x 1.772270 0.000000 0.000000 
#    y 0.000000 1.791630 0.000000 
#    z 0.000000 0.000000 1.754600 
# 
# From -- ./inp_files/6831.got.cif
#   From: 2010.06.25/outbox.cif.g09.slc.cpg/sg58_4_cif.got.tgz:6831.got - 2010.06.26 21:38:00.
