data_PCOD8237205
_publ_section_title
;
Structure prediction by ZEFSAII (Michael W. Deem and Ramdas Pophale) SiO2 
 PCOD8237205
Probable space group: P N N M
;
_chemical_formula_sum "Si O2"
_cell_formula_units_Z 48
_cell_length_a 9.446452
_cell_length_b 30.200227
_cell_length_c 9.031247
_cell_angle_alpha 90.000000
_cell_angle_beta 90.000000
_cell_angle_gamma 90.000000
_cell_volume 2576.479253
_symmetry_space_group_name_H-M "P N N M"
_symmetry_group_IT_number 58
_symmetry_cell_setting 'orthorhombic'
loop_
_space_group_symop_operation_xyz
x,y,z
-x,-y,z
1/2+x,1/2-y,1/2-z
1/2-x,1/2+y,1/2-z
-x,-y,-z
x,y,-z
1/2-x,1/2+y,1/2+z
1/2+x,1/2-y,1/2+z
loop_
_atom_site_type_symbol
_atom_site_label
_atom_site_fract_x
_atom_site_fract_y
_atom_site_fract_z
Si Si1 0.915493 0.715687 0.827749
Si Si2 0.897970 0.463192 0.825935
Si Si3 0.093026 0.136842 0.828206
Si Si4 0.115467 0.635488 0.827297
Si Si5 0.616546 0.464117 0.331718
Si Si6 0.588858 0.707654 0.825083
O O1 0.752129 0.714108 0.778382
O O2 0.986105 0.668257 0.794502
O O3 0.995495 0.751699 0.730724
O O4 0.930021 0.728435 0.000000
O O5 0.934566 0.413244 0.772370
O O6 0.741125 0.475803 0.779074
O O7 0.000000 0.500000 0.752308
O O8 0.910666 0.465900 0.000000
O O9 0.245130 0.150635 0.761264
O O10 0.058691 0.085225 0.802521
O O11 0.967132 0.162708 0.747992
O O12 0.095791 0.149912 0.000000
O O13 0.156464 0.634769 0.000000
O O14 0.500000 0.500000 0.294248
O O15 0.670886 0.468128 0.500000
O O16 0.573624 0.703566 0.000000
#
# Coordination Sequence:
#
# PCOD8237205 Si02
#       6
#     8   8   8   8   8   8
#     4  10  22  38  55  77 105 137 173 212 255 306
#     4   9  18  32  52  79 108 139 175 214 258 307
#     4  10  20  35  55  78 105 137 174 215 258 307
#     4   9  18  35  56  77 106 141 174 213 260 306
#     4   9  19  35  53  75 105 140 176 214 257 305
#     4  11  23  37  55  79 105 134 170 212 258 308
#
# _framework density 18.630074
#
# number of rings (size 3 to 8) (size 9 to 14) (size 15 to 20)
#    0.000    2.333    0.000    2.000    0.000    7.333 
#    0.000    1.667    0.000    0.000    0.000    0.000 
#    0.000    0.000    0.000    0.000    0.000    0.000 
#
# Total GULP energy -595248.908403 kJ/mol
# GULP energy per Si atom -12401.018925 kJ/mol
# Density = 1.858767 g / cm^3
# Si number density = 18.630074 Si / 1000 Ang^3
#
#
#
# Elastic Constant Matrix: (Units=GPa)
#
#
# Indices 1 2 3 4 5 6 
#
# 1 134.1489 79.1444 44.9070 0.0000 0.0000 0.0000
# 2 79.1444 114.6564 36.0951 0.0000 0.0000 0.0000
# 3 44.9070 36.0951 45.7486 0.0000 0.0000 0.0000
# 4 0.0000 0.0000 0.0000 23.5615 0.0000 0.0000
# 5 0.0000 0.0000 0.0000 0.0000 24.0144 0.0000
# 6 0.0000 0.0000 0.0000 0.0000 0.0000 39.8419
#
#
#
# Elastic Compliance Matrix: (Units=1/GPa)
#
#
# Indices 1 2 3 4 5 6 
#
# 1 0.014729 -0.007471 -0.008563 0.000000 0.000000 0.000000
# 2 -0.007471 0.015394 -0.004812 0.000000 0.000000 0.000000
# 3 -0.008563 -0.004812 0.034061 0.000000 0.000000 0.000000
# 4 0.000000 0.000000 0.000000 0.042442 0.000000 0.000000
# 5 0.000000 0.000000 0.000000 0.000000 0.041642 0.000000
# 6 0.000000 0.000000 0.000000 0.000000 0.000000 0.025099
#
#
# Mechanical properties :
#
#
# Convention : Reuss Voigt Hill
#
# Bulk Modulus (GPa) = 44.46223 68.31630 56.38926
# Shear Modulus (GPa) = 22.46637 26.44404 24.45521
#
# Velocity S-wave (km/s) = 3.47640 3.77162 3.62701
# Velocity P-wave (km/s) = 6.32704 7.46434 6.91910
#
# Compressibility (1/GPa) = 0.02249100
#
# Stress axis : x y z
#
# Youngs Moduli (GPa) = 67.89470 64.96217 29.35942
#
# Poissons Ratio (x) = 0.48534 0.25141
# Poissons Ratio (y) = 0.50725 0.14127
# Poissons Ratio (z) = 0.58139 0.31258
#
# Static dielectric constant tensor:
#      x y z
#    x 3.455360 0.000000 0.000000 
#    y 0.000000 3.694360 0.000000 
#    z 0.000000 0.000000 3.406130 
# 
# 
# High freq. dielectric constant tensor:
#      x y z
#    x 1.717850 0.000000 0.000000 
#    y 0.000000 1.737550 0.000000 
#    z 0.000000 0.000000 1.721110 
# 
# From -- ./inp_files/2905.got.cif
#   From: 2010.06.25/outbox.cif.g09.slc.cpg/sg58_2_cif.got.tgz:2905.got - 2010.06.26 21:38:00.
