data_PCOD8237215
_publ_section_title
;
Structure prediction by ZEFSAII (Michael W. Deem and Ramdas Pophale) SiO2 
 PCOD8237215
Probable space group: P N N M
;
_chemical_formula_sum "Si O2"
_cell_formula_units_Z 64
_cell_length_a 21.749298
_cell_length_b 16.801358
_cell_length_c 9.167336
_cell_angle_alpha 90.000000
_cell_angle_beta 90.000000
_cell_angle_gamma 90.000000
_cell_volume 3349.907221
_symmetry_space_group_name_H-M "P N N M"
_symmetry_group_IT_number 58
_symmetry_cell_setting 'orthorhombic'
loop_
_space_group_symop_operation_xyz
x,y,z
-x,-y,z
1/2+x,1/2-y,1/2-z
1/2-x,1/2+y,1/2-z
-x,-y,-z
x,y,-z
1/2-x,1/2+y,1/2+z
1/2+x,1/2-y,1/2+z
loop_
_atom_site_type_symbol
_atom_site_label
_atom_site_fract_x
_atom_site_fract_y
_atom_site_fract_z
Si Si1 0.684606 0.961741 0.673551
Si Si2 0.617332 0.555398 0.337248
Si Si3 0.320510 0.577297 0.831451
Si Si4 0.120994 0.691822 0.827460
Si Si5 0.337433 0.860665 0.672203
Si Si6 0.978296 0.187927 0.173563
Si Si7 0.779866 0.184090 0.164486
Si Si8 0.099832 0.225656 0.330603
O O1 0.688549 0.959567 0.500000
O O2 0.661614 0.047859 0.727316
O O3 0.752431 0.938742 0.735621
O O4 0.633109 0.898169 0.728767
O O5 0.602654 0.525512 0.500000
O O6 0.627024 0.478088 0.238898
O O7 0.560944 0.609945 0.281833
O O8 0.680018 0.604865 0.335708
O O9 0.340487 0.669096 0.807241
O O10 0.319814 0.554850 0.000000
O O11 0.058246 0.732584 0.770052
O O12 0.180209 0.742131 0.779518
O O13 0.117238 0.695868 0.000000
O O14 0.347375 0.854218 0.500000
O O15 0.272858 0.823199 0.716578
O O16 0.390540 0.810875 0.752797
O O17 0.041947 0.182476 0.257798
O O18 0.988862 0.190689 0.000000
O O19 0.753314 0.198728 0.000000
O O20 0.086479 0.240092 0.500000
#
# Coordination Sequence:
#
# PCOD8237215 Si02
#       8
#     8   8   8   8   8   8   8   8
#     4   9  17  31  53  82 108 132 171 221 265 313
#     4   9  18  32  54  83 112 143 173 216 269 315
#     4  10  20  35  55  80 110 142 178 219 265 324
#     4   8  15  31  56  79 102 138 181 221 261 313
#     4  11  21  33  53  79 108 139 174 223 272 317
#     4   9  19  37  58  79 105 141 187 228 263 312
#     4   9  16  30  53  79 108 140 172 207 263 327
#     4  11  24  39  55  75 105 147 185 224 272 322
#
# _framework density 19.105007000000001
#
# number of rings (size 3 to 8) (size 9 to 14) (size 15 to 20)
#    0.000    2.500    1.250    3.000    0.000    4.000 
#    0.000    5.000    0.000    6.750    0.000    0.000 
#    0.000    0.000    0.000    0.000    0.000    0.000 
#
# Total GULP energy -793301.119254 kJ/mol
# GULP energy per Si atom -12395.329988 kJ/mol
# Density = 1.906152 g / cm^3
# Si number density = 19.105007 Si / 1000 Ang^3
#
#
#
# Elastic Constant Matrix: (Units=GPa)
#
#
# Indices 1 2 3 4 5 6 
#
# 1 46.2420 18.9677 17.8534 0.0000 0.0000 0.0000
# 2 18.9677 103.1601 29.6872 0.0000 0.0000 0.0000
# 3 17.8534 29.6872 49.5164 0.0000 0.0000 0.0000
# 4 0.0000 0.0000 0.0000 23.6092 0.0000 0.0000
# 5 0.0000 0.0000 0.0000 0.0000 27.9105 0.0000
# 6 0.0000 0.0000 0.0000 0.0000 0.0000 21.3708
#
#
#
# Elastic Compliance Matrix: (Units=1/GPa)
#
#
# Indices 1 2 3 4 5 6 
#
# 1 0.025638 -0.002482 -0.007756 0.000000 0.000000 0.000000
# 2 -0.002482 0.011955 -0.006273 0.000000 0.000000 0.000000
# 3 -0.007756 -0.006273 0.026753 0.000000 0.000000 0.000000
# 4 0.000000 0.000000 0.000000 0.042356 0.000000 0.000000
# 5 0.000000 0.000000 0.000000 0.000000 0.035829 0.000000
# 6 0.000000 0.000000 0.000000 0.000000 0.000000 0.046793
#
#
# Mechanical properties :
#
#
# Convention : Reuss Voigt Hill
#
# Bulk Modulus (GPa) = 31.92395 36.88168 34.40282
# Shear Modulus (GPa) = 21.47894 23.40545 22.44219
#
# Velocity S-wave (km/s) = 3.35663 3.50393 3.43107
# Velocity P-wave (km/s) = 5.63637 5.97634 5.80884
#
# Compressibility (1/GPa) = 0.03132445
#
# Stress axis : x y z
#
# Youngs Moduli (GPa) = 39.00482 83.64570 37.37960
#
# Poissons Ratio (x) = 0.20761 0.28991
# Poissons Ratio (y) = 0.09681 0.23447
# Poissons Ratio (z) = 0.30251 0.52469
#
# Static dielectric constant tensor:
#      x y z
#    x 3.402560 0.000000 0.000000 
#    y 0.000000 3.744480 0.000000 
#    z 0.000000 0.000000 3.194440 
# 
# 
# High freq. dielectric constant tensor:
#      x y z
#    x 1.730240 0.000000 0.000000 
#    y 0.000000 1.750530 0.000000 
#    z 0.000000 0.000000 1.708980 
# 
# From -- ./inp_files/10144.got.cif
#   From: 2010.06.25/outbox.cif.g09.slc.cpg/sg58_6_cif.got.tgz:10144.got - 2010.06.26 21:38:00.
