data_PCOD8237117
_publ_section_title
;
Structure prediction by ZEFSAII (Michael W. Deem and Ramdas Pophale) SiO2 
 PCOD8237117
Probable space group: P N N M
;
_chemical_formula_sum "Si O2"
_cell_formula_units_Z 64
_cell_length_a 32.565322
_cell_length_b 10.947021
_cell_length_c 9.138848
_cell_angle_alpha 90.000000
_cell_angle_beta 90.000000
_cell_angle_gamma 90.000000
_cell_volume 3257.937751
_symmetry_space_group_name_H-M "P N N M"
_symmetry_group_IT_number 58
_symmetry_cell_setting 'orthorhombic'
loop_
_space_group_symop_operation_xyz
x,y,z
-x,-y,z
1/2+x,1/2-y,1/2-z
1/2-x,1/2+y,1/2-z
-x,-y,-z
x,y,-z
1/2-x,1/2+y,1/2+z
1/2+x,1/2-y,1/2+z
loop_
_atom_site_type_symbol
_atom_site_label
_atom_site_fract_x
_atom_site_fract_y
_atom_site_fract_z
Si Si1 0.674707 0.766688 0.661589
Si Si2 0.614804 0.363394 0.326467
Si Si3 0.408024 0.132443 0.663715
Si Si4 0.695293 0.492089 0.665867
Si Si5 0.030360 0.111696 0.673479
Si Si6 0.511359 0.864323 0.172452
Si Si7 0.854458 0.601783 0.169277
Si Si8 0.285528 0.025343 0.172390
O O1 0.684855 0.823491 0.500000
O O2 0.625273 0.758918 0.675187
O O3 0.693684 0.635992 0.676693
O O4 0.692606 0.848050 0.790781
O O5 0.609658 0.384095 0.500000
O O6 0.655049 0.432515 0.260451
O O7 0.574148 0.413989 0.248247
O O8 0.621583 0.222811 0.283166
O O9 0.426825 0.124012 0.500000
O O10 0.442526 0.163567 0.780122
O O11 0.385487 0.007013 0.706723
O O12 0.695493 0.443784 0.500000
O O13 0.739332 0.461370 0.738344
O O14 0.035855 0.111582 0.500000
O O15 0.015150 0.247106 0.727710
O O16 0.000000 0.000000 0.720172
O O17 0.500000 0.000000 0.237483
O O18 0.508623 0.870215 0.000000
O O19 0.811498 0.585658 0.256118
O O20 0.842451 0.606089 0.000000
O O21 0.284127 0.001731 0.000000
#
# Coordination Sequence:
#
# PCOD8237117 Si02
#       8
#     8   8   8   8   8   8   8   8
#     4   9  19  37  55  75 110 147 178 222 278 323
#     4  10  21  38  61  84 108 146 193 231 272 331
#     4   9  18  32  54  81 107 138 176 220 269 319
#     4   9  20  36  55  80 112 144 181 231 276 321
#     4  10  23  41  57  80 118 152 181 230 293 346
#     4  10  21  36  56  80 107 142 181 225 277 330
#     4   9  19  36  57  83 117 150 180 227 283 328
#     4  10  20  34  55  84 111 144 188 230 273 326
#
# _framework density 19.644328999999999
#
# number of rings (size 3 to 8) (size 9 to 14) (size 15 to 20)
#    0.000    2.500    0.000    1.875    3.500    3.500 
#    0.000    2.500    0.000    0.000    0.000    0.000 
#    0.000    0.000    0.000    0.000    0.000    0.000 
#
# Total GULP energy -793151.163759 kJ/mol
# GULP energy per Si atom -12392.986934 kJ/mol
# Density = 1.959962 g / cm^3
# Si number density = 19.644329 Si / 1000 Ang^3
#
#
#
# Elastic Constant Matrix: (Units=GPa)
#
#
# Indices 1 2 3 4 5 6 
#
# 1 142.4879 36.9471 35.5431 0.0000 0.0000 0.0000
# 2 36.9471 57.3150 18.2601 0.0000 0.0000 0.0000
# 3 35.5431 18.2601 28.1792 0.0000 0.0000 0.0000
# 4 0.0000 0.0000 0.0000 18.7341 0.0000 0.0000
# 5 0.0000 0.0000 0.0000 0.0000 31.1262 0.0000
# 6 0.0000 0.0000 0.0000 0.0000 0.0000 26.0842
#
#
#
# Elastic Compliance Matrix: (Units=1/GPa)
#
#
# Indices 1 2 3 4 5 6 
#
# 1 0.010707 -0.003276 -0.011382 0.000000 0.000000 0.000000
# 2 -0.003276 0.022989 -0.010765 0.000000 0.000000 0.000000
# 3 -0.011382 -0.010765 0.056819 0.000000 0.000000 0.000000
# 4 0.000000 0.000000 0.000000 0.053379 0.000000 0.000000
# 5 0.000000 0.000000 0.000000 0.000000 0.032127 0.000000
# 6 0.000000 0.000000 0.000000 0.000000 0.000000 0.038337
#
#
# Mechanical properties :
#
#
# Convention : Reuss Voigt Hill
#
# Bulk Modulus (GPa) = 25.20837 45.49808 35.35322
# Shear Modulus (GPa) = 17.95805 24.33767 21.14786
#
# Velocity S-wave (km/s) = 3.02679 3.52364 3.28462
# Velocity P-wave (km/s) = 5.00754 6.30602 5.69392
#
# Compressibility (1/GPa) = 0.03966937
#
# Stress axis : x y z
#
# Youngs Moduli (GPa) = 93.39918 43.49961 17.59965
#
# Poissons Ratio (x) = 0.14249 0.20032
# Poissons Ratio (y) = 0.30595 0.18946
# Poissons Ratio (z) = 1.06307 0.46827
#
# Static dielectric constant tensor:
#      x y z
#    x 3.707140 0.000000 0.000000 
#    y 0.000000 3.767770 0.000000 
#    z 0.000000 0.000000 3.315840 
# 
# 
# High freq. dielectric constant tensor:
#      x y z
#    x 1.775260 0.000000 0.000000 
#    y 0.000000 1.767360 0.000000 
#    z 0.000000 0.000000 1.736660 
# 
# From -- ./inp_files/11088.got.cif
#   From: 2010.06.25/outbox.cif.g09.slc.cpg/sg58_6_cif.got.tgz:11088.got - 2010.06.26 21:38:00.
