data_PCOD8237943
_publ_section_title
;
Structure prediction by ZEFSAII (Michael W. Deem and Ramdas Pophale) SiO2 
 PCOD8237943
Probable space group: P N N M
;
_chemical_formula_sum "Si O2"
_cell_formula_units_Z 64
_cell_length_a 27.974408
_cell_length_b 12.756553
_cell_length_c 9.486128
_cell_angle_alpha 90.000000
_cell_angle_beta 90.000000
_cell_angle_gamma 90.000000
_cell_volume 3385.191353
_symmetry_space_group_name_H-M "P N N M"
_symmetry_group_IT_number 58
_symmetry_cell_setting 'orthorhombic'
loop_
_space_group_symop_operation_xyz
x,y,z
-x,-y,z
1/2+x,1/2-y,1/2-z
1/2-x,1/2+y,1/2-z
-x,-y,-z
x,y,-z
1/2-x,1/2+y,1/2+z
1/2+x,1/2-y,1/2+z
loop_
_atom_site_type_symbol
_atom_site_label
_atom_site_fract_x
_atom_site_fract_y
_atom_site_fract_z
Si Si1 0.402376 0.556398 0.837214
Si Si2 0.332171 0.240418 0.667273
Si Si3 0.834711 0.824766 0.154871
Si Si4 0.323929 0.002057 0.665606
Si Si5 0.080314 0.817924 0.664258
Si Si6 0.473103 0.739587 0.163290
Si Si7 0.092693 0.366467 0.156707
Si Si8 0.747600 0.172700 0.666665
O O1 0.352673 0.584157 0.758972
O O2 0.418858 0.440384 0.797539
O O3 0.445393 0.633466 0.792711
O O4 0.390170 0.567436 0.000000
O O5 0.333499 0.260515 0.500000
O O6 0.315665 0.122453 0.704223
O O7 0.384099 0.256399 0.733778
O O8 0.295916 0.320117 0.743015
O O9 0.873299 0.733420 0.150688
O O10 0.784372 0.774910 0.203020
O O11 0.829280 0.875040 0.000000
O O12 0.327081 0.981350 0.500000
O O13 0.375442 0.961009 0.724112
O O14 0.279449 0.932399 0.720849
O O15 0.093338 0.799719 0.500000
O O16 0.028277 0.774131 0.701058
O O17 0.452928 0.840640 0.246269
O O18 0.465374 0.762959 0.000000
O O19 0.073815 0.394357 0.000000
O O20 0.759575 0.167432 0.500000
#
# Coordination Sequence:
#
# PCOD8237943 Si02
#       8
#     8   8   8   8   8   8   8   8
#     4   9  17  30  51  76 102 135 171 205 246 300
#     4  11  23  37  53  76 103 131 170 214 248 287
#     4   8  15  28  49  77 104 128 160 205 251 295
#     4   8  17  36  58  75  98 134 168 200 245 303
#     4  10  21  36  50  68 102 143 173 202 251 306
#     4   9  17  31  52  77 102 130 169 212 248 291
#     4   8  14  29  53  76  97 126 164 203 247 297
#     4   9  18  36  58  76  99 134 169 201 249 306
#
# _framework density 18.905874000000001
#
# number of rings (size 3 to 8) (size 9 to 14) (size 15 to 20)
#    0.000    3.000    0.000    2.250    0.000    4.000 
#    0.000    8.750    0.000    7.500    0.000    0.000 
#    0.000    0.000    0.000    0.000    0.000    0.000 
#
# Total GULP energy -793361.940065 kJ/mol
# GULP energy per Si atom -12396.280314 kJ/mol
# Density = 1.886284 g / cm^3
# Si number density = 18.905874 Si / 1000 Ang^3
#
#
#
# Elastic Constant Matrix: (Units=GPa)
#
#
# Indices 1 2 3 4 5 6 
#
# 1 86.0850 36.0364 42.0984 0.0000 0.0000 0.0000
# 2 36.0364 65.8954 33.9962 0.0000 0.0000 0.0000
# 3 42.0984 33.9962 62.1598 0.0000 0.0000 0.0000
# 4 0.0000 0.0000 0.0000 23.6527 0.0000 0.0000
# 5 0.0000 0.0000 0.0000 0.0000 31.1434 0.0000
# 6 0.0000 0.0000 0.0000 0.0000 0.0000 25.0960
#
#
#
# Elastic Compliance Matrix: (Units=1/GPa)
#
#
# Indices 1 2 3 4 5 6 
#
# 1 0.018521 -0.005095 -0.009757 0.000000 0.000000 0.000000
# 2 -0.005095 0.022542 -0.008878 0.000000 0.000000 0.000000
# 3 -0.009757 -0.008878 0.027551 0.000000 0.000000 0.000000
# 4 0.000000 0.000000 0.000000 0.042278 0.000000 0.000000
# 5 0.000000 0.000000 0.000000 0.000000 0.032110 0.000000
# 6 0.000000 0.000000 0.000000 0.000000 0.000000 0.039847
#
#
# Mechanical properties :
#
#
# Convention : Reuss Voigt Hill
#
# Bulk Modulus (GPa) = 47.27181 48.71135 47.99158
# Shear Modulus (GPa) = 21.06506 22.77903 21.92205
#
# Velocity S-wave (km/s) = 3.34160 3.47488 3.40889
# Velocity P-wave (km/s) = 6.32032 6.47463 6.39794
#
# Compressibility (1/GPa) = 0.02115426
#
# Stress axis : x y z
#
# Youngs Moduli (GPa) = 53.99400 44.36139 36.29610
#
# Poissons Ratio (x) = 0.22601 0.35414
# Poissons Ratio (y) = 0.27508 0.32224
# Poissons Ratio (z) = 0.52681 0.39385
#
# Static dielectric constant tensor:
#      x y z
#    x 3.474140 0.000000 0.000000 
#    y 0.000000 3.413080 0.000000 
#    z 0.000000 0.000000 3.408550 
# 
# 
# High freq. dielectric constant tensor:
#      x y z
#    x 1.732580 0.000000 0.000000 
#    y 0.000000 1.720980 0.000000 
#    z 0.000000 0.000000 1.716620 
# 
# From -- ./inp_files/10970.got.cif
#   From: 2010.06.25/outbox.cif.g09.slc.cpg/sg58_6_cif.got.tgz:10970.got - 2010.06.26 21:38:00.
