data_PCOD8237630
_publ_section_title
;
Structure prediction by ZEFSAII (Michael W. Deem and Ramdas Pophale) SiO2 
 PCOD8237630
Probable space group: P N N M
;
_chemical_formula_sum "Si O2"
_cell_formula_units_Z 48
_cell_length_a 13.932131
_cell_length_b 19.959501
_cell_length_c 8.816965
_cell_angle_alpha 90.000000
_cell_angle_beta 90.000000
_cell_angle_gamma 90.000000
_cell_volume 2451.807367
_symmetry_space_group_name_H-M "P N N M"
_symmetry_group_IT_number 58
_symmetry_cell_setting 'orthorhombic'
loop_
_space_group_symop_operation_xyz
x,y,z
-x,-y,z
1/2+x,1/2-y,1/2-z
1/2-x,1/2+y,1/2-z
-x,-y,-z
x,y,-z
1/2-x,1/2+y,1/2+z
1/2+x,1/2-y,1/2+z
loop_
_atom_site_type_symbol
_atom_site_label
_atom_site_fract_x
_atom_site_fract_y
_atom_site_fract_z
Si Si1 0.749194 0.609147 0.679351
Si Si2 0.941402 0.565324 0.823004
Si Si3 0.757807 0.254391 0.322234
Si Si4 0.042283 0.684664 0.670536
Si Si5 0.084945 0.185816 0.670711
Si Si6 0.052860 0.931478 0.678355
O O1 0.747298 0.610795 0.500000
O O2 0.841511 0.567134 0.732601
O O3 0.757864 0.684727 0.737599
O O4 0.654525 0.571803 0.738447
O O5 0.000000 0.500000 0.773227
O O6 0.008624 0.628135 0.785597
O O7 0.917036 0.565338 0.000000
O O8 0.756238 0.239273 0.500000
O O9 0.857636 0.286253 0.270021
O O10 0.677398 0.308788 0.278050
O O11 0.052233 0.655388 0.500000
O O12 0.965386 0.743067 0.671566
O O13 0.116912 0.166294 0.500000
O O14 0.013992 0.129241 0.736040
O O15 0.072486 0.924962 0.500000
O O16 0.000000 0.000000 0.721436
#
# Coordination Sequence:
#
# PCOD8237630 Si02
#       6
#     8   8   8   8   8   8
#     4  12  24  39  63  91 123 162 202 251 308 365
#     4  11  25  43  64  90 122 161 206 252 302 367
#     4  11  22  38  62  91 124 161 206 254 303 362
#     4  10  21  38  61  90 123 158 199 252 304 353
#     4  10  20  37  60  91 124 156 202 250 300 355
#     4  10  22  42  66  90 125 167 203 248 302 362
#
# _framework density 19.577396
#
# number of rings (size 3 to 8) (size 9 to 14) (size 15 to 20)
#    0.000    1.333    3.333    2.500    0.000    5.000 
#    0.000    5.000    0.000    0.000    0.000    0.000 
#    0.000    0.000    0.000    0.000    0.000    0.000 
#
# Total GULP energy -595425.283590 kJ/mol
# GULP energy per Si atom -12404.693408 kJ/mol
# Density = 1.953284 g / cm^3
# Si number density = 19.577396 Si / 1000 Ang^3
#
#
#
# Elastic Constant Matrix: (Units=GPa)
#
#
# Indices 1 2 3 4 5 6 
#
# 1 139.3157 40.1767 56.4196 0.0000 0.0000 0.0000
# 2 40.1767 98.8067 39.9412 0.0000 0.0000 0.0000
# 3 56.4196 39.9412 88.4785 0.0000 0.0000 0.0000
# 4 0.0000 0.0000 0.0000 180.3188 0.0000 0.0000
# 5 0.0000 0.0000 0.0000 0.0000 28.8473 0.0000
# 6 0.0000 0.0000 0.0000 0.0000 0.0000 31.1326
#
#
#
# Elastic Compliance Matrix: (Units=1/GPa)
#
#
# Indices 1 2 3 4 5 6 
#
# 1 0.009934 -0.001809 -0.005518 0.000000 0.000000 0.000000
# 2 -0.001809 0.012709 -0.004584 0.000000 0.000000 0.000000
# 3 -0.005518 -0.004584 0.016890 0.000000 0.000000 0.000000
# 4 0.000000 0.000000 0.000000 0.005546 0.000000 0.000000
# 5 0.000000 0.000000 0.000000 0.000000 0.034665 0.000000
# 6 0.000000 0.000000 0.000000 0.000000 0.000000 0.032121
#
#
# Mechanical properties :
#
#
# Convention : Reuss Voigt Hill
#
# Bulk Modulus (GPa) = 63.64550 66.63063 65.13806
# Shear Modulus (GPa) = 35.48000 60.73064 48.10532
#
# Velocity S-wave (km/s) = 4.26172 5.57567 4.96238
# Velocity P-wave (km/s) = 7.53635 8.69248 8.13498
#
# Compressibility (1/GPa) = 0.01571203
#
# Stress axis : x y z
#
# Youngs Moduli (GPa) = 100.66097 78.68314 59.20595
#
# Poissons Ratio (x) = 0.14232 0.32671
# Poissons Ratio (y) = 0.18208 0.27139
# Poissons Ratio (z) = 0.55547 0.36067
#
# Static dielectric constant tensor:
#      x y z
#    x 3.798920 0.000000 0.000000 
#    y 0.000000 3.632320 0.000000 
#    z 0.000000 0.000000 3.541800 
# 
# 
# High freq. dielectric constant tensor:
#      x y z
#    x 1.779770 0.000000 0.000000 
#    y 0.000000 1.757800 0.000000 
#    z 0.000000 0.000000 1.759310 
# 
# From -- ./inp_files/5899.got.cif
#   From: 2010.06.25/outbox.cif.g09.slc.cpg/sg58_3_cif.got.tgz:5899.got - 2010.06.26 21:38:00.
