data_PCOD8237766
_publ_section_title
;
Structure prediction by ZEFSAII (Michael W. Deem and Ramdas Pophale) SiO2 
 PCOD8237766
Probable space group: P N N M
;
_chemical_formula_sum "Si O2"
_cell_formula_units_Z 64
_cell_length_a 14.276353
_cell_length_b 24.844920
_cell_length_c 9.058308
_cell_angle_alpha 90.000000
_cell_angle_beta 90.000000
_cell_angle_gamma 90.000000
_cell_volume 3212.935181
_symmetry_space_group_name_H-M "P N N M"
_symmetry_group_IT_number 58
_symmetry_cell_setting 'orthorhombic'
loop_
_space_group_symop_operation_xyz
x,y,z
-x,-y,z
1/2+x,1/2-y,1/2-z
1/2-x,1/2+y,1/2-z
-x,-y,-z
x,y,-z
1/2-x,1/2+y,1/2+z
1/2+x,1/2-y,1/2+z
loop_
_atom_site_type_symbol
_atom_site_label
_atom_site_fract_x
_atom_site_fract_y
_atom_site_fract_z
Si Si1 0.532893 0.350194 0.667182
Si Si2 0.448276 0.944386 0.826436
Si Si3 0.249628 0.176261 0.833058
Si Si4 0.257499 0.913177 0.324253
Si Si5 0.054551 0.948322 0.325666
Si Si6 0.014135 0.263932 0.168086
Si Si7 0.591670 0.868119 0.667888
Si Si8 0.287906 0.793828 0.324886
O O1 0.501349 0.364115 0.500000
O O2 0.643449 0.341981 0.677300
O O3 0.501795 0.396654 0.774880
O O4 0.486204 0.294833 0.731616
O O5 0.346190 0.942334 0.751054
O O6 0.514555 0.898704 0.761241
O O7 0.500000 0.000000 0.789693
O O8 0.435595 0.935647 0.000000
O O9 0.305206 0.131065 0.738110
O O10 0.263784 0.238371 0.775048
O O11 0.287244 0.172698 0.000000
O O12 0.273183 0.915409 0.500000
O O13 0.163553 0.945163 0.275088
O O14 0.245480 0.850862 0.268141
O O15 0.050948 0.949884 0.500000
O O16 0.000000 0.000000 0.258772
O O17 0.106414 0.290618 0.241057
O O18 0.928973 0.304578 0.178121
O O19 0.043712 0.250839 0.000000
O O20 0.591787 0.889701 0.500000
O O21 0.288798 0.796436 0.500000
#
# Coordination Sequence:
#
# PCOD8237766 Si02
#       8
#     8   8   8   8   8   8   8   8
#     4   9  19  37  59  81 111 155 196 236 289 348
#     4  11  25  43  61  86 120 154 196 250 299 351
#     4   9  19  34  55  85 123 161 195 237 292 348
#     4  10  20  38  63  86 113 155 199 241 295 354
#     4  10  23  40  58  85 119 151 193 250 294 334
#     4   8  15  30  53  81 113 144 182 236 285 336
#     4  11  21  35  58  87 121 157 193 237 292 355
#     4   8  14  30  55  80 111 152 193 231 280 344
#
# _framework density 19.919481000000001
#
# number of rings (size 3 to 8) (size 9 to 14) (size 15 to 20)
#    0.000    2.500    1.250    2.250    1.750    3.250 
#    0.000    3.750    0.000    0.000    0.000    0.000 
#    0.000    0.000    0.000    0.000    0.000    0.000 
#
# Total GULP energy -792983.831291 kJ/mol
# GULP energy per Si atom -12390.372364 kJ/mol
# Density = 1.987414 g / cm^3
# Si number density = 19.919481 Si / 1000 Ang^3
#
#
#
# Elastic Constant Matrix: (Units=GPa)
#
#
# Indices 1 2 3 4 5 6 
#
# 1 95.0142 56.7942 38.3511 0.0000 0.0000 0.0000
# 2 56.7942 108.1887 31.7202 0.0000 0.0000 0.0000
# 3 38.3511 31.7202 38.6717 0.0000 0.0000 0.0000
# 4 0.0000 0.0000 0.0000 25.0525 0.0000 0.0000
# 5 0.0000 0.0000 0.0000 0.0000 27.0386 0.0000
# 6 0.0000 0.0000 0.0000 0.0000 0.0000 30.2489
#
#
#
# Elastic Compliance Matrix: (Units=1/GPa)
#
#
# Indices 1 2 3 4 5 6 
#
# 1 0.020338 -0.006271 -0.015026 0.000000 0.000000 0.000000
# 2 -0.006271 0.014104 -0.005349 0.000000 0.000000 0.000000
# 3 -0.015026 -0.005349 0.045147 0.000000 0.000000 0.000000
# 4 0.000000 0.000000 0.000000 0.039916 0.000000 0.000000
# 5 0.000000 0.000000 0.000000 0.000000 0.036984 0.000000
# 6 0.000000 0.000000 0.000000 0.000000 0.000000 0.033059
#
#
# Mechanical properties :
#
#
# Convention : Reuss Voigt Hill
#
# Bulk Modulus (GPa) = 38.02694 55.06730 46.54712
# Shear Modulus (GPa) = 19.87230 24.13527 22.00379
#
# Velocity S-wave (km/s) = 3.16196 3.48464 3.32721
# Velocity P-wave (km/s) = 5.69758 6.62535 6.17890
#
# Compressibility (1/GPa) = 0.02629715
#
# Stress axis : x y z
#
# Youngs Moduli (GPa) = 49.16843 70.90422 22.14965
#
# Poissons Ratio (x) = 0.44466 0.33281
# Poissons Ratio (y) = 0.30835 0.11848
# Poissons Ratio (z) = 0.73879 0.37927
#
# Static dielectric constant tensor:
#      x y z
#    x 3.617550 0.000000 0.000000 
#    y 0.000000 3.831760 0.000000 
#    z 0.000000 0.000000 3.367180 
# 
# 
# High freq. dielectric constant tensor:
#      x y z
#    x 1.779830 0.000000 0.000000 
#    y 0.000000 1.779600 0.000000 
#    z 0.000000 0.000000 1.744890 
# 
# From -- ./inp_files/6972.got.cif
#   From: 2010.06.25/outbox.cif.g09.slc.cpg/sg58_4_cif.got.tgz:6972.got - 2010.06.26 21:38:00.
