data_PCOD8237737
_publ_section_title
;
Structure prediction by ZEFSAII (Michael W. Deem and Ramdas Pophale) SiO2 
 PCOD8237737
Probable space group: P N N M
;
_chemical_formula_sum "Si O2"
_cell_formula_units_Z 32
_cell_length_a 13.429840
_cell_length_b 9.121821
_cell_length_c 12.985930
_cell_angle_alpha 90.000000
_cell_angle_beta 90.000000
_cell_angle_gamma 90.000000
_cell_volume 1590.836115
_symmetry_space_group_name_H-M "P N N M"
_symmetry_group_IT_number 58
_symmetry_cell_setting 'orthorhombic'
loop_
_space_group_symop_operation_xyz
x,y,z
-x,-y,z
1/2+x,1/2-y,1/2-z
1/2-x,1/2+y,1/2-z
-x,-y,-z
x,y,-z
1/2-x,1/2+y,1/2+z
1/2+x,1/2-y,1/2+z
loop_
_atom_site_type_symbol
_atom_site_label
_atom_site_fract_x
_atom_site_fract_y
_atom_site_fract_z
Si Si1 0.616446 0.213676 0.283729
Si Si2 0.465075 0.165283 0.112480
Si Si3 0.464660 0.726078 0.500000
Si Si4 0.158893 0.931025 0.000000
Si Si5 0.270999 0.042900 0.814621
O O1 0.529500 0.244004 0.200411
O O2 0.568715 0.190493 0.396587
O O3 0.682187 0.359643 0.269274
O O4 0.677312 0.062786 0.268562
O O5 0.348290 0.162835 0.140464
O O6 0.500000 0.000000 0.104945
O O7 0.479230 0.241637 0.000000
O O8 0.585006 0.708750 0.500000
O O9 0.409897 0.572275 0.500000
O O10 0.230287 0.930943 0.098919
#
# Coordination Sequence:
#
# PCOD8237737 Si02
#       5
#     8   8   4   4   8
#     4  10  22  37  59  87 120 154 192 242 293 344
#     4   9  18  36  58  82 113 151 196 241 281 342
#     4   9  20  38  54  88 121 151 192 250 288 337
#     4   9  18  36  64  81 110 161 212 224 272 363
#     4  10  20  38  61  88 113 155 197 239 289 348
#
# _framework density 20.115206000000001
#
# number of rings (size 3 to 8) (size 9 to 14) (size 15 to 20)
#    0.000    2.500    1.250    0.000    5.250    0.000 
#    2.250    5.625    0.000    1.500    0.000    0.000 
#    0.000    0.000    0.000    0.000    0.000    0.000 
#
# Total GULP energy -396641.663755 kJ/mol
# GULP energy per Si atom -12395.051992 kJ/mol
# Density = 2.006942 g / cm^3
# Si number density = 20.115206 Si / 1000 Ang^3
#
#
#
# Elastic Constant Matrix: (Units=GPa)
#
#
# Indices 1 2 3 4 5 6 
#
# 1 139.0341 34.7326 81.9807 0.0000 0.0000 0.0000
# 2 34.7326 47.3761 46.3976 0.0000 0.0000 0.0000
# 3 81.9807 46.3976 182.8511 0.0000 0.0000 0.0000
# 4 0.0000 0.0000 0.0000 25.6645 0.0000 0.0000
# 5 0.0000 0.0000 0.0000 0.0000 7.9921 0.0000
# 6 0.0000 0.0000 0.0000 0.0000 0.0000 39.2695
#
#
#
# Elastic Compliance Matrix: (Units=1/GPa)
#
#
# Indices 1 2 3 4 5 6 
#
# 1 0.010328 -0.004041 -0.003605 0.000000 0.000000 0.000000
# 2 -0.004041 0.029669 -0.005717 0.000000 0.000000 0.000000
# 3 -0.003605 -0.005717 0.008536 0.000000 0.000000 0.000000
# 4 0.000000 0.000000 0.000000 0.038964 0.000000 0.000000
# 5 0.000000 0.000000 0.000000 0.000000 0.125124 0.000000
# 6 0.000000 0.000000 0.000000 0.000000 0.000000 0.025465
#
#
# Mechanical properties :
#
#
# Convention : Reuss Voigt Hill
#
# Bulk Modulus (GPa) = 45.85655 77.27591 61.56623
# Shear Modulus (GPa) = 18.37699 28.32857 23.35278
#
# Velocity S-wave (km/s) = 3.02584 3.75683 3.41097
# Velocity P-wave (km/s) = 5.92065 7.57089 6.79604
#
# Compressibility (1/GPa) = 0.02180713
#
# Stress axis : x y z
#
# Youngs Moduli (GPa) = 96.82783 33.70560 117.15404
#
# Poissons Ratio (x) = 0.13620 0.42234
# Poissons Ratio (y) = 0.39127 0.66972
# Poissons Ratio (z) = 0.34906 0.19268
#
# Static dielectric constant tensor:
#      x y z
#    x 4.221590 0.000000 0.000000 
#    y 0.000000 3.122510 0.000000 
#    z 0.000000 0.000000 3.941100 
# 
# 
# High freq. dielectric constant tensor:
#      x y z
#    x 1.806760 0.000000 0.000000 
#    y 0.000000 1.733410 0.000000 
#    z 0.000000 0.000000 1.789680 
# 
# From -- ./inp_files/13788.got.cif
#   From: 2010.06.25/outbox.cif.g09.slc.cpg/sg58_7_cif.got.tgz:13788.got - 2010.06.26 21:38:00.
