data_PCOD8237074
_publ_section_title
;
Structure prediction by ZEFSAII (Michael W. Deem and Ramdas Pophale) SiO2 
 PCOD8237074
Probable space group: P N N M
;
_chemical_formula_sum "Si O2"
_cell_formula_units_Z 64
_cell_length_a 9.144015
_cell_length_b 14.753624
_cell_length_c 24.459026
_cell_angle_alpha 90.000000
_cell_angle_beta 90.000000
_cell_angle_gamma 90.000000
_cell_volume 3299.702605
_symmetry_space_group_name_H-M "P N N M"
_symmetry_group_IT_number 58
_symmetry_cell_setting 'orthorhombic'
loop_
_space_group_symop_operation_xyz
x,y,z
-x,-y,z
1/2+x,1/2-y,1/2-z
1/2-x,1/2+y,1/2-z
-x,-y,-z
x,y,-z
1/2-x,1/2+y,1/2+z
1/2+x,1/2-y,1/2+z
loop_
_atom_site_type_symbol
_atom_site_label
_atom_site_fract_x
_atom_site_fract_y
_atom_site_fract_z
Si Si1 0.438869 0.318829 0.179020
Si Si2 0.743488 0.872256 0.346514
Si Si3 0.497281 0.189904 0.272696
Si Si4 0.678550 0.270194 0.635002
Si Si5 0.278160 0.961047 0.275048
Si Si6 0.667593 0.473850 0.662217
Si Si7 0.355766 0.436238 0.440474
Si Si8 0.574340 0.774861 0.438326
O O1 0.582869 0.359733 0.151939
O O2 0.482729 0.230483 0.213105
O O3 0.333865 0.281195 0.131289
O O4 0.357605 0.392005 0.217550
O O5 0.662331 0.810869 0.301025
O O6 0.680065 0.843923 0.405575
O O7 0.713877 0.976391 0.329245
O O8 0.605362 0.253600 0.306350
O O9 0.566372 0.089406 0.269592
O O10 0.689238 0.377688 0.632564
O O11 0.587881 0.223207 0.586581
O O12 0.254701 0.018688 0.219284
O O13 0.500000 0.500000 0.674756
O O14 0.735517 0.539323 0.614409
O O15 0.500000 0.500000 0.436922
O O16 0.280733 0.455952 0.500000
O O17 0.378993 0.329414 0.435727
O O18 0.570389 0.811341 0.500000
#
# Coordination Sequence:
#
# PCOD8237074 Si02
#       8
#     8   8   8   8   8   8   8   8
#     4  11  22  35  55  83 122 157 190 240 308 370
#     4  11  22  37  58  82 118 158 202 249 298 364
#     4  10  21  35  55  80 118 156 197 235 290 362
#     4  10  20  34  53  85 114 149 194 250 298 357
#     4  11  22  35  56  86 122 156 197 242 299 368
#     4  11  18  29  54  86 121 154 196 242 305 380
#     4   9  17  30  54  86 115 149 204 260 300 356
#     4  10  21  39  62  85 112 157 214 264 307 361
#
# _framework density 19.395686999999999
#
# number of rings (size 3 to 8) (size 9 to 14) (size 15 to 20)
#    0.000    1.625    2.500    5.250    3.500    0.000 
#    0.000    0.625    0.000   15.000    0.000    1.750 
#    0.000    0.000    0.000    0.000    0.000    0.000 
#
# Total GULP energy -793094.155504 kJ/mol
# GULP energy per Si atom -12392.096180 kJ/mol
# Density = 1.935154 g / cm^3
# Si number density = 19.395687 Si / 1000 Ang^3
#
#
#
# Elastic Constant Matrix: (Units=GPa)
#
#
# Indices 1 2 3 4 5 6 
#
# 1 72.6564 20.1987 30.2659 0.0000 0.0000 0.0000
# 2 20.1987 83.9201 38.5816 0.0000 0.0000 0.0000
# 3 30.2659 38.5816 126.3356 0.0000 0.0000 0.0000
# 4 0.0000 0.0000 0.0000 29.2958 0.0000 0.0000
# 5 0.0000 0.0000 0.0000 0.0000 12.8372 0.0000
# 6 0.0000 0.0000 0.0000 0.0000 0.0000 27.7905
#
#
#
# Elastic Compliance Matrix: (Units=1/GPa)
#
#
# Indices 1 2 3 4 5 6 
#
# 1 0.015688 -0.002383 -0.003031 0.000000 0.000000 0.000000
# 2 -0.002383 0.014224 -0.003773 0.000000 0.000000 0.000000
# 3 -0.003031 -0.003773 0.009794 0.000000 0.000000 0.000000
# 4 0.000000 0.000000 0.000000 0.034135 0.000000 0.000000
# 5 0.000000 0.000000 0.000000 0.000000 0.077898 0.000000
# 6 0.000000 0.000000 0.000000 0.000000 0.000000 0.035984
#
#
# Mechanical properties :
#
#
# Convention : Reuss Voigt Hill
#
# Bulk Modulus (GPa) = 46.87525 51.22273 49.04899
# Shear Modulus (GPa) = 23.45138 26.90910 25.18024
#
# Velocity S-wave (km/s) = 3.48099 3.72879 3.60702
# Velocity P-wave (km/s) = 6.35427 6.70859 6.53383
#
# Compressibility (1/GPa) = 0.02133322
#
# Stress axis : x y z
#
# Youngs Moduli (GPa) = 63.74178 70.30248 102.10561
#
# Poissons Ratio (x) = 0.16751 0.30946
# Poissons Ratio (y) = 0.15187 0.38526
# Poissons Ratio (z) = 0.19319 0.26526
#
# Static dielectric constant tensor:
#      x y z
#    x 3.495580 0.000000 0.000000 
#    y 0.000000 3.583940 0.000000 
#    z 0.000000 0.000000 3.695100 
# 
# 
# High freq. dielectric constant tensor:
#      x y z
#    x 1.733950 0.000000 0.000000 
#    y 0.000000 1.762420 0.000000 
#    z 0.000000 0.000000 1.737020 
# 
# From -- ./inp_files/31634.got.cif
#   From: 2010.06.25/outbox.cif.g09.slc.cpg/sg58_16_cif.got.tgz:31634.got - 2010.06.26 21:38:00.
