data_PCOD8237960
_publ_section_title
;
Structure prediction by ZEFSAII (Michael W. Deem and Ramdas Pophale) SiO2 
 PCOD8237960
Probable space group: P N N M
;
_chemical_formula_sum "Si O2"
_cell_formula_units_Z 64
_cell_length_a 20.158545
_cell_length_b 17.030258
_cell_length_c 9.740553
_cell_angle_alpha 90.000000
_cell_angle_beta 90.000000
_cell_angle_gamma 90.000000
_cell_volume 3343.982713
_symmetry_space_group_name_H-M "P N N M"
_symmetry_group_IT_number 58
_symmetry_cell_setting 'orthorhombic'
loop_
_space_group_symop_operation_xyz
x,y,z
-x,-y,z
1/2+x,1/2-y,1/2-z
1/2-x,1/2+y,1/2-z
-x,-y,-z
x,y,-z
1/2-x,1/2+y,1/2+z
1/2+x,1/2-y,1/2+z
loop_
_atom_site_type_symbol
_atom_site_label
_atom_site_fract_x
_atom_site_fract_y
_atom_site_fract_z
Si Si1 0.699188 0.949525 0.849805
Si Si2 0.232863 0.718588 0.663089
Si Si3 0.395022 0.978133 0.348603
Si Si4 0.996912 0.235290 0.341261
Si Si5 0.487297 0.127363 0.346600
Si Si6 0.863564 0.143398 0.342294
Si Si7 0.880598 0.821423 0.838060
Si Si8 0.150833 0.003959 0.849877
O O1 0.699129 0.862219 0.781168
O O2 0.663692 0.015184 0.759026
O O3 0.772481 0.980244 0.865799
O O4 0.665095 0.946662 0.000000
O O5 0.228723 0.713721 0.500000
O O6 0.190513 0.793519 0.717110
O O7 0.310641 0.719754 0.706281
O O8 0.363241 0.976531 0.500000
O O9 0.442034 0.052234 0.330533
O O10 0.436159 0.898536 0.324420
O O11 0.016318 0.249438 0.500000
O O12 0.939065 0.171692 0.329148
O O13 0.966647 0.313560 0.273448
O O14 0.061558 0.214603 0.253542
O O15 0.479270 0.163876 0.500000
O O16 0.845536 0.125953 0.500000
O O17 0.862089 0.062777 0.260513
O O18 0.882438 0.914143 0.804060
O O19 0.893672 0.806819 0.000000
O O20 0.123054 0.977899 0.000000
#
# Coordination Sequence:
#
# PCOD8237960 Si02
#       8
#     8   8   8   8   8   8   8   8
#     4   9  17  32  54  77 103 133 168 214 263 310
#     4   8  16  34  57  77 100 137 179 211 253 316
#     4   9  18  32  51  76 105 138 175 212 253 308
#     4  11  23  36  53  80 109 137 175 223 272 317
#     4   9  19  35  51  71 104 142 177 211 251 309
#     4  10  21  36  55  79 107 138 172 216 266 313
#     4   9  19  38  60  77 101 141 181 216 258 312
#     4   9  20  37  55  77 103 135 177 219 261 312
#
# _framework density 19.138855
#
# number of rings (size 3 to 8) (size 9 to 14) (size 15 to 20)
#    0.000    2.750    0.000    3.375    0.000    5.500 
#    0.000   10.625    0.000    0.000    0.000    0.000 
#    0.000    0.000    0.000    0.000    0.000    0.000 
#
# Total GULP energy -793155.478009 kJ/mol
# GULP energy per Si atom -12393.054344 kJ/mol
# Density = 1.909529 g / cm^3
# Si number density = 19.138855 Si / 1000 Ang^3
#
#
#
# Elastic Constant Matrix: (Units=GPa)
#
#
# Indices 1 2 3 4 5 6 
#
# 1 47.0753 10.0138 22.9944 0.0000 0.0000 0.0000
# 2 10.0138 48.5877 35.9901 0.0000 0.0000 0.0000
# 3 22.9944 35.9901 85.2109 0.0000 0.0000 0.0000
# 4 0.0000 0.0000 0.0000 39.5786 0.0000 0.0000
# 5 0.0000 0.0000 0.0000 0.0000 26.4016 0.0000
# 6 0.0000 0.0000 0.0000 0.0000 0.0000 19.8482
#
#
#
# Elastic Compliance Matrix: (Units=1/GPa)
#
#
# Indices 1 2 3 4 5 6 
#
# 1 0.024469 -0.000221 -0.006510 0.000000 0.000000 0.000000
# 2 -0.000221 0.029954 -0.012592 0.000000 0.000000 0.000000
# 3 -0.006510 -0.012592 0.018811 0.000000 0.000000 0.000000
# 4 0.000000 0.000000 0.000000 0.025266 0.000000 0.000000
# 5 0.000000 0.000000 0.000000 0.000000 0.037877 0.000000
# 6 0.000000 0.000000 0.000000 0.000000 0.000000 0.050382
#
#
# Mechanical properties :
#
#
# Convention : Reuss Voigt Hill
#
# Bulk Modulus (GPa) = 28.91133 35.43006 32.17069
# Shear Modulus (GPa) = 21.10292 24.62406 22.86349
#
# Velocity S-wave (km/s) = 3.32418 3.59081 3.46006
# Velocity P-wave (km/s) = 5.46557 5.97865 5.72785
#
# Compressibility (1/GPa) = 0.03458852
#
# Stress axis : x y z
#
# Youngs Moduli (GPa) = 40.86746 33.38445 53.16150
#
# Poissons Ratio (x) = 0.00738 0.34606
# Poissons Ratio (y) = 0.00904 0.66940
# Poissons Ratio (z) = 0.26603 0.42037
#
# Static dielectric constant tensor:
#      x y z
#    x 3.633840 0.000000 0.000000 
#    y 0.000000 3.974340 0.000000 
#    z 0.000000 0.000000 3.755650 
# 
# 
# High freq. dielectric constant tensor:
#      x y z
#    x 1.741740 0.000000 0.000000 
#    y 0.000000 1.741270 0.000000 
#    z 0.000000 0.000000 1.728980 
# 
# From -- ./inp_files/9241.got.cif
#   From: 2010.06.25/outbox.cif.g09.slc.cpg/sg58_5_cif.got.tgz:9241.got - 2010.06.26 21:38:00.
