data_PCOD8237687
_publ_section_title
;
Structure prediction by ZEFSAII (Michael W. Deem and Ramdas Pophale) SiO2 
 PCOD8237687
Probable space group: P N N M
;
_chemical_formula_sum "Si O2"
_cell_formula_units_Z 48
_cell_length_a 15.517526
_cell_length_b 18.954943
_cell_length_c 7.678308
_cell_angle_alpha 90.000000
_cell_angle_beta 90.000000
_cell_angle_gamma 90.000000
_cell_volume 2258.450070
_symmetry_space_group_name_H-M "P N N M"
_symmetry_group_IT_number 58
_symmetry_cell_setting 'orthorhombic'
loop_
_space_group_symop_operation_xyz
x,y,z
-x,-y,z
1/2+x,1/2-y,1/2-z
1/2-x,1/2+y,1/2-z
-x,-y,-z
x,y,-z
1/2-x,1/2+y,1/2+z
1/2+x,1/2-y,1/2+z
loop_
_atom_site_type_symbol
_atom_site_label
_atom_site_fract_x
_atom_site_fract_y
_atom_site_fract_z
Si Si1 0.903486 0.480125 0.705519
Si Si2 0.379377 0.177824 0.793979
Si Si3 0.035561 0.225404 0.302134
Si Si4 0.637429 0.516079 0.500000
Si Si5 0.720501 0.228687 0.294823
Si Si6 0.975169 0.884788 0.000000
Si Si7 0.749434 0.568930 0.194930
O O1 0.887304 0.484975 0.500000
O O2 0.881265 0.401937 0.777819
O O3 0.845364 0.537589 0.802266
O O4 0.000000 0.500000 0.755363
O O5 0.466416 0.217351 0.733283
O O6 0.294286 0.218178 0.724232
O O7 0.377330 0.176348 0.000000
O O8 0.013232 0.201903 0.500000
O O9 0.131078 0.257458 0.301989
O O10 0.029702 0.158853 0.176901
O O11 0.562601 0.572583 0.500000
O O12 0.606351 0.436017 0.500000
O O13 0.691996 0.523974 0.325332
O O14 0.705081 0.237809 0.500000
O O15 0.750510 0.150186 0.246248
O O16 0.711450 0.562501 0.000000
#
# Coordination Sequence:
#
# PCOD8237687 Si02
#       7
#     8   8   8   4   8   4   8
#     4  10  20  37  63  94 135 178 214 265 338 404
#     4   9  20  38  63  91 128 172 212 264 328 392
#     4  11  23  42  68  98 133 167 222 277 332 397
#     4  11  26  46  69  90 134 182 223 275 343 400
#     4  10  21  39  63  93 130 174 217 272 327 389
#     4  11  26  46  68  96 129 178 222 281 340 395
#     4  11  24  41  66  97 134 175 230 275 328 405
#
# _framework density 21.253513000000002
#
# number of rings (size 3 to 8) (size 9 to 14) (size 15 to 20)
#    0.000    1.667    1.667    2.000    3.500    4.333 
#    3.000    1.667    0.000    0.000    0.000    0.000 
#    0.000    0.000    0.000    0.000    0.000    0.000 
#
# Total GULP energy -595375.754551 kJ/mol
# GULP energy per Si atom -12403.661553 kJ/mol
# Density = 2.120514 g / cm^3
# Si number density = 21.253513 Si / 1000 Ang^3
#
#
#
# Elastic Constant Matrix: (Units=GPa)
#
#
# Indices 1 2 3 4 5 6 
#
# 1 99.9090 38.2888 5.2795 0.0000 0.0000 0.0000
# 2 38.2888 128.2281 27.7568 0.0000 0.0000 0.0000
# 3 5.2795 27.7568 76.8628 0.0000 0.0000 0.0000
# 4 0.0000 0.0000 0.0000 27.5324 0.0000 0.0000
# 5 0.0000 0.0000 0.0000 0.0000 28.9913 0.0000
# 6 0.0000 0.0000 0.0000 0.0000 0.0000 2.5767
#
#
#
# Elastic Compliance Matrix: (Units=1/GPa)
#
#
# Indices 1 2 3 4 5 6 
#
# 1 0.011319 -0.003484 0.000481 0.000000 0.000000 0.000000
# 2 -0.003484 0.009532 -0.003203 0.000000 0.000000 0.000000
# 3 0.000481 -0.003203 0.014134 0.000000 0.000000 0.000000
# 4 0.000000 0.000000 0.000000 0.036321 0.000000 0.000000
# 5 0.000000 0.000000 0.000000 0.000000 0.034493 0.000000
# 6 0.000000 0.000000 0.000000 0.000000 0.000000 0.388088
#
#
# Mechanical properties :
#
#
# Convention : Reuss Voigt Hill
#
# Bulk Modulus (GPa) = 44.30169 49.73891 47.02030
# Shear Modulus (GPa) = 9.73097 27.39842 18.56469
#
# Velocity S-wave (km/s) = 2.14207 3.59433 2.95869
# Velocity P-wave (km/s) = 5.19688 6.37802 5.81750
#
# Compressibility (1/GPa) = 0.02257250
#
# Stress axis : x y z
#
# Youngs Moduli (GPa) = 88.34826 104.90752 70.75215
#
# Poissons Ratio (x) = 0.36548 -0.03401
# Poissons Ratio (y) = 0.30779 0.22662
# Poissons Ratio (z) = -0.04246 0.33602
#
# Static dielectric constant tensor:
#      x y z
#    x 4.053170 0.000000 0.000000 
#    y 0.000000 4.010050 0.000000 
#    z 0.000000 0.000000 3.644610 
# 
# 
# High freq. dielectric constant tensor:
#      x y z
#    x 1.843590 0.000000 0.000000 
#    y 0.000000 1.839730 0.000000 
#    z 0.000000 0.000000 1.825010 
# 
# From -- ./inp_files/5928.got.cif
#   From: 2010.06.25/outbox.cif.g09.slc.cpg/sg58_3_cif.got.tgz:5928.got - 2010.06.26 21:38:00.
