data_PCOD8237233
_publ_section_title
;
Structure prediction by ZEFSAII (Michael W. Deem and Ramdas Pophale) SiO2 
 PCOD8237233
Probable space group: P N N M
;
_chemical_formula_sum "Si O2"
_cell_formula_units_Z 48
_cell_length_a 8.920920
_cell_length_b 30.865500
_cell_length_c 9.152039
_cell_angle_alpha 90.000000
_cell_angle_beta 90.000000
_cell_angle_gamma 90.000000
_cell_volume 2520.001641
_symmetry_space_group_name_H-M "P N N M"
_symmetry_group_IT_number 58
_symmetry_cell_setting 'orthorhombic'
loop_
_space_group_symop_operation_xyz
x,y,z
-x,-y,z
1/2+x,1/2-y,1/2-z
1/2-x,1/2+y,1/2-z
-x,-y,-z
x,y,-z
1/2-x,1/2+y,1/2+z
1/2+x,1/2-y,1/2+z
loop_
_atom_site_type_symbol
_atom_site_label
_atom_site_fract_x
_atom_site_fract_y
_atom_site_fract_z
Si Si1 0.084187 0.542060 0.326676
Si Si2 0.089307 0.877731 0.327317
Si Si3 0.423029 0.546110 0.331732
Si Si4 0.406552 0.706749 0.828106
Si Si5 0.093084 0.710794 0.330129
Si Si6 0.097821 0.374107 0.329633
O O1 0.087674 0.538743 0.500000
O O2 0.254386 0.543513 0.268746
O O3 0.000000 0.500000 0.260933
O O4 0.997790 0.584854 0.274658
O O5 0.101856 0.881948 0.500000
O O6 0.252945 0.871198 0.263044
O O7 0.015643 0.920673 0.264407
O O8 0.990347 0.836780 0.279819
O O9 0.500000 0.500000 0.315453
O O10 0.424152 0.561668 0.500000
O O11 0.246301 0.707400 0.755071
O O12 0.502678 0.747582 0.772543
O O13 0.382371 0.709322 0.000000
O O14 0.131185 0.715210 0.500000
O O15 0.996625 0.668500 0.296763
O O16 0.139039 0.378622 0.500000
#
# Coordination Sequence:
#
# PCOD8237233 Si02
#       6
#     8   8   8   8   8   8
#     4   9  17  31  53  81 108 133 170 222 273 320
#     4  11  23  37  54  79 113 148 181 222 276 336
#     4  10  20  36  60  85 109 142 183 227 274 322
#     4  10  22  38  55  80 113 146 181 226 280 331
#     4  10  21  37  58  83 109 143 190 236 275 325
#     4  10  20  35  56  80 106 140 185 231 272 321
#
# _framework density 19.047606999999999
#
# number of rings (size 3 to 8) (size 9 to 14) (size 15 to 20)
#    0.000    2.000    0.000    3.500    0.000    7.000 
#    0.000    0.833    0.000    2.000    0.000    0.000 
#    0.000    0.000    0.000    0.000    0.000    0.000 
#
# Total GULP energy -595401.041690 kJ/mol
# GULP energy per Si atom -12404.188369 kJ/mol
# Density = 1.900425 g / cm^3
# Si number density = 19.047607 Si / 1000 Ang^3
#
#
#
# Elastic Constant Matrix: (Units=GPa)
#
#
# Indices 1 2 3 4 5 6 
#
# 1 146.0421 56.3844 54.9313 0.0000 0.0000 0.0000
# 2 56.3844 128.3915 45.7850 0.0000 0.0000 0.0000
# 3 54.9313 45.7850 46.4880 0.0000 0.0000 0.0000
# 4 0.0000 0.0000 0.0000 3.3596 0.0000 0.0000
# 5 0.0000 0.0000 0.0000 0.0000 35.8803 0.0000
# 6 0.0000 0.0000 0.0000 0.0000 0.0000 21.5802
#
#
#
# Elastic Compliance Matrix: (Units=1/GPa)
#
#
# Indices 1 2 3 4 5 6 
#
# 1 0.012335 -0.000338 -0.014242 0.000000 0.000000 0.000000
# 2 -0.000338 0.012014 -0.011433 0.000000 0.000000 0.000000
# 3 -0.014242 -0.011433 0.049600 0.000000 0.000000 0.000000
# 4 0.000000 0.000000 0.000000 0.297654 0.000000 0.000000
# 5 0.000000 0.000000 0.000000 0.000000 0.027870 0.000000
# 6 0.000000 0.000000 0.000000 0.000000 0.000000 0.046339
#
#
# Mechanical properties :
#
#
# Convention : Reuss Voigt Hill
#
# Bulk Modulus (GPa) = 45.61546 70.56920 58.09233
# Shear Modulus (GPa) = 9.89813 23.08541 16.49177
#
# Velocity S-wave (km/s) = 2.28206 3.48513 2.94567
# Velocity P-wave (km/s) = 5.56272 7.30234 6.49107
#
# Compressibility (1/GPa) = 0.02192239
#
# Stress axis : x y z
#
# Youngs Moduli (GPa) = 81.07147 83.23461 20.16147
#
# Poissons Ratio (x) = 0.02815 0.28714
# Poissons Ratio (y) = 0.02742 0.23050
# Poissons Ratio (z) = 1.15462 0.95162
#
# Static dielectric constant tensor:
#      x y z
#    x 3.604850 0.000000 0.000000 
#    y 0.000000 3.559400 0.000000 
#    z 0.000000 0.000000 3.248010 
# 
# 
# High freq. dielectric constant tensor:
#      x y z
#    x 1.759270 0.000000 0.000000 
#    y 0.000000 1.761920 0.000000 
#    z 0.000000 0.000000 1.713660 
# 
# From -- ./inp_files/2886.got.cif
#   From: 2010.06.25/outbox.cif.g09.slc.cpg/sg58_2_cif.got.tgz:2886.got - 2010.06.26 21:38:00.
