data_PCOD8237825
_publ_section_title
;
Structure prediction by ZEFSAII (Michael W. Deem and Ramdas Pophale) SiO2 
 PCOD8237825
Probable space group: P N N M
;
_chemical_formula_sum "Si O2"
_cell_formula_units_Z 56
_cell_length_a 19.881895
_cell_length_b 9.921626
_cell_length_c 14.992123
_cell_angle_alpha 90.000000
_cell_angle_beta 90.000000
_cell_angle_gamma 90.000000
_cell_volume 2957.357073
_symmetry_space_group_name_H-M "P N N M"
_symmetry_group_IT_number 58
_symmetry_cell_setting 'orthorhombic'
loop_
_space_group_symop_operation_xyz
x,y,z
-x,-y,z
1/2+x,1/2-y,1/2-z
1/2-x,1/2+y,1/2-z
-x,-y,-z
x,y,-z
1/2-x,1/2+y,1/2+z
1/2+x,1/2-y,1/2+z
loop_
_atom_site_type_symbol
_atom_site_label
_atom_site_fract_x
_atom_site_fract_y
_atom_site_fract_z
Si Si1 0.574618 0.643134 0.810164
Si Si2 0.071187 0.145083 0.242181
Si Si3 0.805170 0.347218 0.272927
Si Si4 0.179531 0.089572 0.894724
Si Si5 0.641864 0.113411 0.837853
Si Si6 0.937294 0.589016 0.500000
Si Si7 0.276997 0.290943 0.598359
Si Si8 0.517019 0.654585 0.000000
O O1 0.510360 0.663774 0.742327
O O2 0.592571 0.484334 0.802221
O O3 0.638762 0.734211 0.790158
O O4 0.557961 0.685451 0.910762
O O5 0.106111 0.132059 0.144297
O O6 0.100520 0.278863 0.283803
O O7 0.740502 0.335909 0.339888
O O8 0.832231 0.498812 0.271300
O O9 0.786811 0.325675 0.170226
O O10 0.182828 0.928774 0.880600
O O11 0.184691 0.127598 0.000000
O O12 0.597740 0.038220 0.910728
O O13 0.698592 0.179038 0.898773
O O14 0.000000 0.500000 0.500000
O O15 0.950963 0.750490 0.500000
O O16 0.296619 0.236999 0.500000
O O17 0.500000 0.500000 0.000000
#
# Coordination Sequence:
#
# PCOD8237825 Si02
#       8
#     8   8   8   8   8   4   8   4
#     4  11  23  37  60  91 125 166 202 259 311 373
#     4  11  21  40  60  85 128 164 205 253 310 364
#     4  11  23  38  61  91 124 158 208 261 314 368
#     4  10  22  40  64  89 122 167 214 258 303 372
#     4  11  22  36  59  88 124 162 197 251 312 370
#     4  12  22  36  58  92 128 166 200 239 316 399
#     4  10  20  39  62  86 118 163 209 253 308 374
#     4  12  20  36  56  90 128 160 205 244 310 384
#
# _framework density 18.935825999999999
#
# number of rings (size 3 to 8) (size 9 to 14) (size 15 to 20)
#    0.000    1.143    6.429    0.857    2.000    0.000 
#    0.000    2.857    0.000    0.000    0.000    2.000 
#    0.000    0.000    0.000    0.000    0.000    0.000 
#
# Total GULP energy -693803.122875 kJ/mol
# GULP energy per Si atom -12389.341480 kJ/mol
# Density = 1.889273 g / cm^3
# Si number density = 18.935826 Si / 1000 Ang^3
#
#
#
# Elastic Constant Matrix: (Units=GPa)
#
#
# Indices 1 2 3 4 5 6 
#
# 1 94.4669 38.3064 55.0921 0.0000 0.0000 0.0000
# 2 38.3064 71.0519 41.7714 0.0000 0.0000 0.0000
# 3 55.0921 41.7714 151.8013 0.0000 0.0000 0.0000
# 4 0.0000 0.0000 0.0000 28.7868 0.0000 0.0000
# 5 0.0000 0.0000 0.0000 0.0000 29.1328 0.0000
# 6 0.0000 0.0000 0.0000 0.0000 0.0000 20.5437
#
#
#
# Elastic Compliance Matrix: (Units=1/GPa)
#
#
# Indices 1 2 3 4 5 6 
#
# 1 0.015273 -0.005936 -0.003909 0.000000 0.000000 0.000000
# 2 -0.005936 0.019097 -0.003101 0.000000 0.000000 0.000000
# 3 -0.003909 -0.003101 0.008860 0.000000 0.000000 0.000000
# 4 0.000000 0.000000 0.000000 0.034738 0.000000 0.000000
# 5 0.000000 0.000000 0.000000 0.000000 0.034326 0.000000
# 6 0.000000 0.000000 0.000000 0.000000 0.000000 0.048677
#
#
# Mechanical properties :
#
#
# Convention : Reuss Voigt Hill
#
# Bulk Modulus (GPa) = 57.67778 65.29554 61.48666
# Shear Modulus (GPa) = 25.95501 27.83600 26.89550
#
# Velocity S-wave (km/s) = 3.70629 3.83824 3.77284
# Velocity P-wave (km/s) = 6.98865 7.36208 7.17779
#
# Compressibility (1/GPa) = 0.01733770
#
# Stress axis : x y z
#
# Youngs Moduli (GPa) = 65.47692 52.36347 112.87115
#
# Poissons Ratio (x) = 0.31081 0.44126
# Poissons Ratio (y) = 0.38864 0.35000
# Poissons Ratio (z) = 0.25598 0.16237
#
# Static dielectric constant tensor:
#      x y z
#    x 3.853580 0.000000 0.000000 
#    y 0.000000 3.482910 0.000000 
#    z 0.000000 0.000000 3.989130 
# 
# 
# High freq. dielectric constant tensor:
#      x y z
#    x 1.737990 0.000000 0.000000 
#    y 0.000000 1.731580 0.000000 
#    z 0.000000 0.000000 1.731510 
# 
# From -- ./inp_files/23288.got.cif
#   From: 2010.06.25/outbox.cif.g09.slc.cpg/sg58_12_cif.got.tgz:23288.got - 2010.06.26 21:38:00.
