data_PCOD8237191
_publ_section_title
;
Structure prediction by ZEFSAII (Michael W. Deem and Ramdas Pophale) SiO2 
 PCOD8237191
Probable space group: P N N M
;
_chemical_formula_sum "Si O2"
_cell_formula_units_Z 64
_cell_length_a 12.702913
_cell_length_b 28.348713
_cell_length_c 9.192403
_cell_angle_alpha 90.000000
_cell_angle_beta 90.000000
_cell_angle_gamma 90.000000
_cell_volume 3310.287596
_symmetry_space_group_name_H-M "P N N M"
_symmetry_group_IT_number 58
_symmetry_cell_setting 'orthorhombic'
loop_
_space_group_symop_operation_xyz
x,y,z
-x,-y,z
1/2+x,1/2-y,1/2-z
1/2-x,1/2+y,1/2-z
-x,-y,-z
x,y,-z
1/2-x,1/2+y,1/2+z
1/2+x,1/2-y,1/2+z
loop_
_atom_site_type_symbol
_atom_site_label
_atom_site_fract_x
_atom_site_fract_y
_atom_site_fract_z
Si Si1 0.941234 0.406620 0.830748
Si Si2 0.120524 0.095580 0.162990
Si Si3 0.999938 0.830068 0.668002
Si Si4 0.815939 0.334525 0.663940
Si Si5 0.749469 0.475502 0.169471
Si Si6 0.186776 0.238658 0.671319
Si Si7 0.259892 0.325764 0.169649
Si Si8 0.673973 0.074438 0.671877
O O1 0.914451 0.359311 0.741463
O O2 0.857475 0.447614 0.801564
O O3 0.053721 0.424518 0.772620
O O4 0.944855 0.392605 0.000000
O O5 0.220332 0.129378 0.162995
O O6 0.151222 0.047568 0.246143
O O7 0.025690 0.122545 0.242798
O O8 0.084772 0.082889 0.000000
O O9 0.985181 0.843639 0.500000
O O10 0.118387 0.814360 0.702776
O O11 0.923623 0.786648 0.710127
O O12 0.846994 0.319301 0.500000
O O13 0.784097 0.288567 0.754859
O O14 0.766292 0.528225 0.232848
O O15 0.720211 0.474973 0.000000
O O16 0.205975 0.240794 0.500000
O O17 0.185434 0.290982 0.738292
O O18 0.235461 0.378850 0.221839
O O19 0.232824 0.319349 0.000000
O O20 0.672332 0.069445 0.500000
#
# Coordination Sequence:
#
# PCOD8237191 Si02
#       8
#     8   8   8   8   8   8   8   8
#     4   9  16  28  49  77 106 135 169 210 255 302
#     4   9  17  30  51  77 101 127 164 209 253 297
#     4   9  19  36  56  75  98 130 165 203 247 298
#     4   9  17  30  49  75 103 130 164 205 249 297
#     4   9  16  29  51  76 103 136 173 211 251 299
#     4  10  20  35  54  75  98 127 165 204 247 298
#     4  10  21  37  54  74 102 133 167 207 250 296
#     4   9  18  32  50  73 102 138 177 213 251 299
#
# _framework density 19.333669
#
# number of rings (size 3 to 8) (size 9 to 14) (size 15 to 20)
#    0.000    2.750    0.000    1.500    0.000    6.500 
#    0.000    5.000    0.000    6.750    0.000    0.000 
#    0.000    0.000    0.000    0.000    0.000    0.000 
#
# Total GULP energy -793590.713220 kJ/mol
# GULP energy per Si atom -12399.854894 kJ/mol
# Density = 1.928966 g / cm^3
# Si number density = 19.333669 Si / 1000 Ang^3
#
#
#
# Elastic Constant Matrix: (Units=GPa)
#
#
# Indices 1 2 3 4 5 6 
#
# 1 55.7373 39.4718 29.3616 0.0000 0.0000 0.0000
# 2 39.4718 115.3606 49.0969 0.0000 0.0000 0.0000
# 3 29.3616 49.0969 81.8821 0.0000 0.0000 0.0000
# 4 0.0000 0.0000 0.0000 28.5216 0.0000 0.0000
# 5 0.0000 0.0000 0.0000 0.0000 15.6974 0.0000
# 6 0.0000 0.0000 0.0000 0.0000 0.0000 23.6886
#
#
#
# Elastic Compliance Matrix: (Units=1/GPa)
#
#
# Indices 1 2 3 4 5 6 
#
# 1 0.025225 -0.006419 -0.005196 0.000000 0.000000 0.000000
# 2 -0.006419 0.013272 -0.005656 0.000000 0.000000 0.000000
# 3 -0.005196 -0.005656 0.017467 0.000000 0.000000 0.000000
# 4 0.000000 0.000000 0.000000 0.035061 0.000000 0.000000
# 5 0.000000 0.000000 0.000000 0.000000 0.063705 0.000000
# 6 0.000000 0.000000 0.000000 0.000000 0.000000 0.042214
#
#
# Mechanical properties :
#
#
# Convention : Reuss Voigt Hill
#
# Bulk Modulus (GPa) = 46.68339 54.31560 50.49950
# Shear Modulus (GPa) = 20.95312 22.58484 21.76898
#
# Velocity S-wave (km/s) = 3.29563 3.42154 3.35918
# Velocity P-wave (km/s) = 6.21934 6.61544 6.42044
#
# Compressibility (1/GPa) = 0.02142090
#
# Stress axis : x y z
#
# Youngs Moduli (GPa) = 39.64392 75.34558 57.24970
#
# Poissons Ratio (x) = 0.48368 0.29747
# Poissons Ratio (y) = 0.25449 0.32381
# Poissons Ratio (z) = 0.20599 0.42617
#
# Static dielectric constant tensor:
#      x y z
#    x 3.366100 0.000000 0.000000 
#    y 0.000000 3.605940 0.000000 
#    z 0.000000 0.000000 3.455970 
# 
# 
# High freq. dielectric constant tensor:
#      x y z
#    x 1.735590 0.000000 0.000000 
#    y 0.000000 1.751660 0.000000 
#    z 0.000000 0.000000 1.734840 
# 
# From -- ./inp_files/4811.got.cif
#   From: 2010.06.25/outbox.cif.g09.slc.cpg/sg58_3_cif.got.tgz:4811.got - 2010.06.26 21:38:00.
