data_PCOD8237058
_publ_section_title
;
Structure prediction by ZEFSAII (Michael W. Deem and Ramdas Pophale) SiO2 
 PCOD8237058
Probable space group: P N N M
;
_chemical_formula_sum "Si O2"
_cell_formula_units_Z 48
_cell_length_a 10.201432
_cell_length_b 26.415773
_cell_length_c 9.193320
_cell_angle_alpha 90.000000
_cell_angle_beta 90.000000
_cell_angle_gamma 90.000000
_cell_volume 2477.404032
_symmetry_space_group_name_H-M "P N N M"
_symmetry_group_IT_number 58
_symmetry_cell_setting 'orthorhombic'
loop_
_space_group_symop_operation_xyz
x,y,z
-x,-y,z
1/2+x,1/2-y,1/2-z
1/2-x,1/2+y,1/2-z
-x,-y,-z
x,y,-z
1/2-x,1/2+y,1/2+z
1/2+x,1/2-y,1/2+z
loop_
_atom_site_type_symbol
_atom_site_label
_atom_site_fract_x
_atom_site_fract_y
_atom_site_fract_z
Si Si1 0.888510 0.704157 0.330972
Si Si2 0.349265 0.364731 0.672404
Si Si3 0.643441 0.521031 0.329427
Si Si4 0.623793 0.965927 0.671010
Si Si5 0.129237 0.635834 0.332781
Si Si6 0.894807 0.808371 0.169484
O O1 0.867045 0.715389 0.500000
O O2 0.781018 0.663883 0.275029
O O3 0.867893 0.755937 0.247673
O O4 0.031909 0.682143 0.298204
O O5 0.360641 0.367427 0.500000
O O6 0.346221 0.421910 0.732586
O O7 0.475551 0.334979 0.734160
O O8 0.500000 0.500000 0.295713
O O9 0.675621 0.518357 0.500000
O O10 0.746351 0.486305 0.246963
O O11 0.647937 0.964295 0.500000
O O12 0.592446 0.910073 0.728392
O O13 0.500000 0.000000 0.713275
O O14 0.112771 0.618340 0.500000
O O15 0.275804 0.653711 0.300056
O O16 0.909870 0.796416 0.000000
#
# Coordination Sequence:
#
# PCOD8237058 Si02
#       6
#     8   8   8   8   8   8
#     4  10  20  34  53  78 107 140 179 220 267 323
#     4   9  18  33  53  77 105 137 173 216 266 321
#     4  10  20  37  62  86 109 144 189 233 280 336
#     4  11  24  39  56  83 117 150 186 232 287 340
#     4  10  21  37  57  80 107 144 189 230 270 328
#     4  10  20  35  55  79 107 138 176 222 270 322
#
# _framework density 19.375121
#
# number of rings (size 3 to 8) (size 9 to 14) (size 15 to 20)
#    0.000    2.000    0.000    3.500    0.000    7.000 
#    0.000    1.667    0.000    0.000    0.000    0.000 
#    0.000    0.000    0.000    0.000    0.000    0.000 
#
# Total GULP energy -595424.187474 kJ/mol
# GULP energy per Si atom -12404.670572 kJ/mol
# Density = 1.933102 g / cm^3
# Si number density = 19.375121 Si / 1000 Ang^3
#
#
#
# Elastic Constant Matrix: (Units=GPa)
#
#
# Indices 1 2 3 4 5 6 
#
# 1 91.9027 10.2859 33.8977 0.0000 0.0000 0.0000
# 2 10.2859 98.5108 36.6218 0.0000 0.0000 0.0000
# 3 33.8977 36.6218 53.1506 0.0000 0.0000 0.0000
# 4 0.0000 0.0000 0.0000 34.4045 0.0000 0.0000
# 5 0.0000 0.0000 0.0000 0.0000 20.0972 0.0000
# 6 0.0000 0.0000 0.0000 0.0000 0.0000 28.5990
#
#
#
# Elastic Compliance Matrix: (Units=1/GPa)
#
#
# Indices 1 2 3 4 5 6 
#
# 1 0.014716 0.002625 -0.011194 0.000000 0.000000 0.000000
# 2 0.002625 0.014115 -0.011400 0.000000 0.000000 0.000000
# 3 -0.011194 -0.011400 0.033808 0.000000 0.000000 0.000000
# 4 0.000000 0.000000 0.000000 0.029066 0.000000 0.000000
# 5 0.000000 0.000000 0.000000 0.000000 0.049758 0.000000
# 6 0.000000 0.000000 0.000000 0.000000 0.000000 0.034966
#
#
# Mechanical properties :
#
#
# Convention : Reuss Voigt Hill
#
# Bulk Modulus (GPa) = 44.04933 45.01942 44.53438
# Shear Modulus (GPa) = 22.32797 27.47073 24.89935
#
# Velocity S-wave (km/s) = 3.39839 3.76950 3.58875
# Velocity P-wave (km/s) = 6.17925 6.49859 6.34093
#
# Compressibility (1/GPa) = 0.02270182
#
# Stress axis : x y z
#
# Youngs Moduli (GPa) = 67.95244 70.84709 29.57863
#
# Poissons Ratio (x) = -0.18597 0.33111
# Poissons Ratio (y) = -0.17837 0.33718
# Poissons Ratio (z) = 0.76067 0.80762
#
# Static dielectric constant tensor:
#      x y z
#    x 3.752630 0.000000 0.000000 
#    y 0.000000 3.607440 0.000000 
#    z 0.000000 0.000000 3.290140 
# 
# 
# High freq. dielectric constant tensor:
#      x y z
#    x 1.773010 0.000000 0.000000 
#    y 0.000000 1.767440 0.000000 
#    z 0.000000 0.000000 1.725330 
# 
# From -- ./inp_files/2962.got.cif
#   From: 2010.06.25/outbox.cif.g09.slc.cpg/sg58_2_cif.got.tgz:2962.got - 2010.06.26 21:38:00.
