data_PCOD8237168
_publ_section_title
;
Structure prediction by ZEFSAII (Michael W. Deem and Ramdas Pophale) SiO2 
 PCOD8237168
Probable space group: P N N M
;
_chemical_formula_sum "Si O2"
_cell_formula_units_Z 48
_cell_length_a 9.453637
_cell_length_b 28.971869
_cell_length_c 8.681574
_cell_angle_alpha 90.000000
_cell_angle_beta 90.000000
_cell_angle_gamma 90.000000
_cell_volume 2377.792246
_symmetry_space_group_name_H-M "P N N M"
_symmetry_group_IT_number 58
_symmetry_cell_setting 'orthorhombic'
loop_
_space_group_symop_operation_xyz
x,y,z
-x,-y,z
1/2+x,1/2-y,1/2-z
1/2-x,1/2+y,1/2-z
-x,-y,-z
x,y,-z
1/2-x,1/2+y,1/2+z
1/2+x,1/2-y,1/2+z
loop_
_atom_site_type_symbol
_atom_site_label
_atom_site_fract_x
_atom_site_fract_y
_atom_site_fract_z
Si Si1 0.358285 0.018961 0.319595
Si Si2 0.478553 0.200331 0.818033
Si Si3 0.193888 0.621416 0.819052
Si Si4 0.701212 0.718354 0.681725
Si Si5 0.986005 0.138561 0.318709
Si Si6 0.903442 0.039315 0.320224
O O1 0.379316 0.026485 0.500000
O O2 0.308936 0.068676 0.254472
O O3 0.500000 0.000000 0.239968
O O4 0.254273 0.976625 0.286886
O O5 0.430098 0.149460 0.765780
O O6 0.363203 0.235378 0.751637
O O7 0.638008 0.210539 0.756874
O O8 0.476477 0.203981 0.000000
O O9 0.347333 0.643326 0.783282
O O10 0.163301 0.623043 0.000000
O O11 0.703336 0.723790 0.500000
O O12 0.600102 0.676607 0.727547
O O13 0.955529 0.144152 0.500000
O O14 0.931593 0.089679 0.250991
O O15 0.943211 0.042531 0.500000
O O16 0.000000 0.000000 0.242040
#
# Coordination Sequence:
#
# PCOD8237168 Si02
#       6
#     8   8   8   8   8   8
#     4   9  17  28  47  80 118 153 192 234 276 325
#     4  11  25  43  62  85 114 146 186 233 286 344
#     4  10  20  35  57  88 121 152 191 237 282 334
#     4  11  25  43  62  86 114 145 186 235 284 343
#     4  10  20  34  58  89 119 152 192 235 283 335
#     4   9  15  28  49  78 116 153 189 233 276 319
#
# _framework density 20.186790999999999
#
# number of rings (size 3 to 8) (size 9 to 14) (size 15 to 20)
#    0.000    2.000    1.667    2.000    2.333    7.333 
#    0.000    0.000    0.000    2.000    0.000    0.000 
#    0.000    0.000    0.000    0.000    0.000    0.000 
#
# Total GULP energy -595042.557828 kJ/mol
# GULP energy per Si atom -12396.719955 kJ/mol
# Density = 2.014085 g / cm^3
# Si number density = 20.186791 Si / 1000 Ang^3
#
#
#
# Elastic Constant Matrix: (Units=GPa)
#
#
# Indices 1 2 3 4 5 6 
#
# 1 113.9136 34.9543 27.1446 0.0000 0.0000 0.0000
# 2 34.9543 94.1229 15.1616 0.0000 0.0000 0.0000
# 3 27.1446 15.1616 36.3795 0.0000 0.0000 0.0000
# 4 0.0000 0.0000 0.0000 20.2422 0.0000 0.0000
# 5 0.0000 0.0000 0.0000 0.0000 27.5864 0.0000
# 6 0.0000 0.0000 0.0000 0.0000 0.0000 35.9355
#
#
#
# Elastic Compliance Matrix: (Units=1/GPa)
#
#
# Indices 1 2 3 4 5 6 
#
# 1 0.011456 -0.003084 -0.007262 0.000000 0.000000 0.000000
# 2 -0.003084 0.012219 -0.002791 0.000000 0.000000 0.000000
# 3 -0.007262 -0.002791 0.034070 0.000000 0.000000 0.000000
# 4 0.000000 0.000000 0.000000 0.049402 0.000000 0.000000
# 5 0.000000 0.000000 0.000000 0.000000 0.036250 0.000000
# 6 0.000000 0.000000 0.000000 0.000000 0.000000 0.027828
#
#
# Mechanical properties :
#
#
# Convention : Reuss Voigt Hill
#
# Bulk Modulus (GPa) = 31.77679 44.32635 38.05157
# Shear Modulus (GPa) = 24.03972 27.89653 25.96812
#
# Velocity S-wave (km/s) = 3.45463 3.72145 3.59052
# Velocity P-wave (km/s) = 5.62923 6.36171 6.00664
#
# Compressibility (1/GPa) = 0.03146951
#
# Stress axis : x y z
#
# Youngs Moduli (GPa) = 87.29406 81.83657 29.35147
#
# Poissons Ratio (x) = 0.25242 0.21315
# Poissons Ratio (y) = 0.26925 0.08192
# Poissons Ratio (z) = 0.63394 0.22842
#
# Static dielectric constant tensor:
#      x y z
#    x 3.972910 0.000000 0.000000 
#    y 0.000000 3.970220 0.000000 
#    z 0.000000 0.000000 3.182300 
# 
# 
# High freq. dielectric constant tensor:
#      x y z
#    x 1.803370 0.000000 0.000000 
#    y 0.000000 1.806170 0.000000 
#    z 0.000000 0.000000 1.736770 
# 
# From -- ./inp_files/2854.got.cif
#   From: 2010.06.25/outbox.cif.g09.slc.cpg/sg58_2_cif.got.tgz:2854.got - 2010.06.26 21:38:00.
