data_PCOD8237776
_publ_section_title
;
Structure prediction by ZEFSAII (Michael W. Deem and Ramdas Pophale) SiO2 
 PCOD8237776
Probable space group: P N N M
;
_chemical_formula_sum "Si O2"
_cell_formula_units_Z 32
_cell_length_a 5.083329
_cell_length_b 40.230917
_cell_length_c 7.870476
_cell_angle_alpha 90.000000
_cell_angle_beta 90.000000
_cell_angle_gamma 90.000000
_cell_volume 1609.567334
_symmetry_space_group_name_H-M "P N N M"
_symmetry_group_IT_number 58
_symmetry_cell_setting 'orthorhombic'
loop_
_space_group_symop_operation_xyz
x,y,z
-x,-y,z
1/2+x,1/2-y,1/2-z
1/2-x,1/2+y,1/2-z
-x,-y,-z
x,y,-z
1/2-x,1/2+y,1/2+z
1/2+x,1/2-y,1/2+z
loop_
_atom_site_type_symbol
_atom_site_label
_atom_site_fract_x
_atom_site_fract_y
_atom_site_fract_z
Si Si1 0.073402 0.235596 0.679432
Si Si2 0.018353 0.628648 0.000000
Si Si3 0.517551 0.536470 0.304087
Si Si4 0.969728 0.421708 0.300807
Si Si5 0.018952 0.827554 0.500000
O O1 0.293924 0.245457 0.812439
O O2 0.194648 0.247794 0.500000
O O3 0.019863 0.195667 0.668745
O O4 0.970067 0.608616 0.174785
O O5 0.314049 0.642375 0.000000
O O6 0.814133 0.658847 0.000000
O O7 0.500000 0.500000 0.216437
O O8 0.443061 0.532189 0.500000
O O9 0.299964 0.561878 0.231997
O O10 0.805988 0.550813 0.275930
O O11 0.957049 0.409978 0.500000
#
# Coordination Sequence:
#
# PCOD8237776 Si02
#       5
#     8   4   8   8   4
#     4  10  20  38  63  90 119 152 189 240 295 354
#     4  12  22  42  57  84 120 164 190 238 286 352
#     4   9  17  33  56  82 110 147 194 251 306 345
#     4  10  21  36  57  80 113 154 197 242 290 352
#     4  10  24  38  64  82 125 152 190 228 300 352
#
# _framework density 19.881118000000001
#
# number of rings (size 3 to 8) (size 9 to 14) (size 15 to 20)
#    0.750    1.250    0.000    4.500    0.000    3.000 
#    0.000   11.250    0.000    0.000    0.000    0.000 
#    0.000    0.000    0.000    0.000    0.000    0.000 
#
# Total GULP energy -396492.980181 kJ/mol
# GULP energy per Si atom -12390.405631 kJ/mol
# Density = 1.983587 g / cm^3
# Si number density = 19.881118 Si / 1000 Ang^3
#
#
#
# Elastic Constant Matrix: (Units=GPa)
#
#
# Indices 1 2 3 4 5 6 
#
# 1 86.2948 12.1532 9.8743 0.0000 0.0000 0.0000
# 2 12.1532 90.9076 35.8004 0.0000 0.0000 0.0000
# 3 9.8743 35.8004 69.7855 0.0000 0.0000 0.0000
# 4 0.0000 0.0000 0.0000 22.3673 0.0000 0.0000
# 5 0.0000 0.0000 0.0000 0.0000 26.3459 0.0000
# 6 0.0000 0.0000 0.0000 0.0000 0.0000 45.4329
#
#
#
# Elastic Compliance Matrix: (Units=1/GPa)
#
#
# Indices 1 2 3 4 5 6 
#
# 1 0.011876 -0.001160 -0.001085 0.000000 0.000000 0.000000
# 2 -0.001160 0.013899 -0.006966 0.000000 0.000000 0.000000
# 3 -0.001085 -0.006966 0.018057 0.000000 0.000000 0.000000
# 4 0.000000 0.000000 0.000000 0.044708 0.000000 0.000000
# 5 0.000000 0.000000 0.000000 0.000000 0.037957 0.000000
# 6 0.000000 0.000000 0.000000 0.000000 0.000000 0.022010
#
#
# Mechanical properties :
#
#
# Convention : Reuss Voigt Hill
#
# Bulk Modulus (GPa) = 39.35703 40.29375 39.82539
# Shear Modulus (GPa) = 28.50655 31.43988 29.97322
#
# Velocity S-wave (km/s) = 3.79073 3.98099 3.88702
# Velocity P-wave (km/s) = 6.24489 6.43758 6.34197
#
# Compressibility (1/GPa) = 0.02540842
#
# Stress axis : x y z
#
# Youngs Moduli (GPa) = 84.20510 71.95006 55.38111
#
# Poissons Ratio (x) = 0.08348 0.06009
# Poissons Ratio (y) = 0.09770 0.38578
# Poissons Ratio (z) = 0.09137 0.50119
#
# Static dielectric constant tensor:
#      x y z
#    x 3.553950 0.000000 0.000000 
#    y 0.000000 3.510660 0.000000 
#    z 0.000000 0.000000 3.393310 
# 
# 
# High freq. dielectric constant tensor:
#      x y z
#    x 1.793230 0.000000 0.000000 
#    y 0.000000 1.767460 0.000000 
#    z 0.000000 0.000000 1.751750 
# 
# From -- ./inp_files/1403.got.cif
#   From: 2010.06.25/outbox.cif.g09.slc.cpg/sg58_1_cif.got.tgz:1403.got - 2010.06.26 21:38:00.
