data_PCOD8237667
_publ_section_title
;
Structure prediction by ZEFSAII (Michael W. Deem and Ramdas Pophale) SiO2 
 PCOD8237667
Probable space group: P N N M
;
_chemical_formula_sum "Si O2"
_cell_formula_units_Z 48
_cell_length_a 13.915631
_cell_length_b 20.267316
_cell_length_c 8.478802
_cell_angle_alpha 90.000000
_cell_angle_beta 90.000000
_cell_angle_gamma 90.000000
_cell_volume 2391.297647
_symmetry_space_group_name_H-M "P N N M"
_symmetry_group_IT_number 58
_symmetry_cell_setting 'orthorhombic'
loop_
_space_group_symop_operation_xyz
x,y,z
-x,-y,z
1/2+x,1/2-y,1/2-z
1/2-x,1/2+y,1/2-z
-x,-y,-z
x,y,-z
1/2-x,1/2+y,1/2+z
1/2+x,1/2-y,1/2+z
loop_
_atom_site_type_symbol
_atom_site_label
_atom_site_fract_x
_atom_site_fract_y
_atom_site_fract_z
Si Si1 0.748614 0.738595 0.318012
Si Si2 0.452253 0.566251 0.187304
Si Si3 0.243579 0.608988 0.186596
Si Si4 0.455817 0.071061 0.818174
Si Si5 0.441221 0.807398 0.319690
Si Si6 0.437338 0.304942 0.816722
O O1 0.719812 0.732905 0.500000
O O2 0.747322 0.814568 0.261804
O O3 0.853450 0.708355 0.295063
O O4 0.676790 0.694412 0.212633
O O5 0.500000 0.500000 0.258849
O O6 0.342243 0.574209 0.244462
O O7 0.515397 0.627854 0.246840
O O8 0.455070 0.563690 0.000000
O O9 0.156153 0.571739 0.270783
O O10 0.231231 0.602705 0.000000
O O11 0.517055 0.120536 0.711979
O O12 0.500000 0.000000 0.785142
O O13 0.465361 0.091674 0.000000
O O14 0.407544 0.802623 0.500000
O O15 0.525367 0.755695 0.286546
O O16 0.461861 0.294272 0.000000
#
# Coordination Sequence:
#
# PCOD8237667 Si02
#       6
#     8   8   8   8   8   8
#     4  11  22  38  61  93 127 161 205 258 311 367
#     4   9  19  37  61  89 122 157 198 248 302 360
#     4  10  20  37  62  91 122 162 205 252 310 371
#     4  11  25  43  63  90 126 165 205 259 321 378
#     4  12  24  39  62  91 121 162 210 256 308 369
#     4  11  21  37  61  91 123 158 203 255 308 367
#
# _framework density 20.072782
#
# number of rings (size 3 to 8) (size 9 to 14) (size 15 to 20)
#    0.000    1.333    3.333    3.000    0.000    3.333 
#    0.000    1.667    0.000    3.500    0.000    0.000 
#    0.000    0.000    0.000    0.000    0.000    0.000 
#
# Total GULP energy -595432.650916 kJ/mol
# GULP energy per Si atom -12404.846894 kJ/mol
# Density = 2.002710 g / cm^3
# Si number density = 20.072782 Si / 1000 Ang^3
#
#
#
# Elastic Constant Matrix: (Units=GPa)
#
#
# Indices 1 2 3 4 5 6 
#
# 1 139.2538 62.5426 19.4456 0.0000 0.0000 0.0000
# 2 62.5426 123.8347 35.9811 0.0000 0.0000 0.0000
# 3 19.4456 35.9811 58.1534 0.0000 0.0000 0.0000
# 4 0.0000 0.0000 0.0000 9.4795 0.0000 0.0000
# 5 0.0000 0.0000 0.0000 0.0000 35.2365 0.0000
# 6 0.0000 0.0000 0.0000 0.0000 0.0000 39.5038
#
#
#
# Elastic Compliance Matrix: (Units=1/GPa)
#
#
# Indices 1 2 3 4 5 6 
#
# 1 0.009291 -0.004620 -0.000248 0.000000 0.000000 0.000000
# 2 -0.004620 0.012143 -0.005968 0.000000 0.000000 0.000000
# 3 -0.000248 -0.005968 0.020972 0.000000 0.000000 0.000000
# 4 0.000000 0.000000 0.000000 0.105491 0.000000 0.000000
# 5 0.000000 0.000000 0.000000 0.000000 0.028380 0.000000
# 6 0.000000 0.000000 0.000000 0.000000 0.000000 0.025314
#
#
# Mechanical properties :
#
#
# Convention : Reuss Voigt Hill
#
# Bulk Modulus (GPa) = 48.23398 61.90895 55.07146
# Shear Modulus (GPa) = 21.72278 30.39548 26.05913
#
# Velocity S-wave (km/s) = 3.29325 3.89558 3.60701
# Velocity P-wave (km/s) = 6.20825 7.15145 6.69648
#
# Compressibility (1/GPa) = 0.02073227
#
# Stress axis : x y z
#
# Youngs Moduli (GPa) = 107.63268 82.35304 47.68375
#
# Poissons Ratio (x) = 0.38049 0.01183
# Poissons Ratio (y) = 0.49729 0.28458
# Poissons Ratio (z) = 0.02670 0.49150
#
# Static dielectric constant tensor:
#      x y z
#    x 3.731980 0.000000 0.000000 
#    y 0.000000 3.683380 0.000000 
#    z 0.000000 0.000000 3.407630 
# 
# 
# High freq. dielectric constant tensor:
#      x y z
#    x 1.799320 0.000000 0.000000 
#    y 0.000000 1.777710 0.000000 
#    z 0.000000 0.000000 1.769260 
# 
# From -- ./inp_files/5748.got.cif
#   From: 2010.06.25/outbox.cif.g09.slc.cpg/sg58_3_cif.got.tgz:5748.got - 2010.06.26 21:38:00.
