data_PCOD8237098
_publ_section_title
;
Structure prediction by ZEFSAII (Michael W. Deem and Ramdas Pophale) SiO2 
 PCOD8237098
Probable space group: P N N M
;
_chemical_formula_sum "Si O2"
_cell_formula_units_Z 64
_cell_length_a 9.142877
_cell_length_b 23.050448
_cell_length_c 14.804361
_cell_angle_alpha 90.000000
_cell_angle_beta 90.000000
_cell_angle_gamma 90.000000
_cell_volume 3119.980750
_symmetry_space_group_name_H-M "P N N M"
_symmetry_group_IT_number 58
_symmetry_cell_setting 'orthorhombic'
loop_
_space_group_symop_operation_xyz
x,y,z
-x,-y,z
1/2+x,1/2-y,1/2-z
1/2-x,1/2+y,1/2-z
-x,-y,-z
x,y,-z
1/2-x,1/2+y,1/2+z
1/2+x,1/2-y,1/2+z
loop_
_atom_site_type_symbol
_atom_site_label
_atom_site_fract_x
_atom_site_fract_y
_atom_site_fract_z
Si Si1 0.772844 0.182536 0.264212
Si Si2 0.884077 0.086933 0.599727
Si Si3 0.528277 0.656002 0.396370
Si Si4 0.469614 0.863688 0.148260
Si Si5 0.225555 0.712207 0.400471
Si Si6 0.701634 0.455441 0.098826
Si Si7 0.218531 0.947153 0.098772
Si Si8 0.360219 0.036423 0.771167
O O1 0.829355 0.128654 0.322358
O O2 0.607453 0.167131 0.234099
O O3 0.770012 0.239781 0.323488
O O4 0.875934 0.192829 0.176125
O O5 0.834715 0.109009 0.500000
O O6 0.058347 0.083780 0.602359
O O7 0.823889 0.023096 0.617584
O O8 0.570403 0.673626 0.500000
O O9 0.355816 0.666191 0.379114
O O10 0.566697 0.587301 0.381112
O O11 0.563447 0.815849 0.094800
O O12 0.344044 0.897295 0.093078
O O13 0.595255 0.909739 0.169172
O O14 0.252564 0.739621 0.500000
O O15 0.801980 0.434234 0.179841
O O16 0.775591 0.447267 0.000000
O O17 0.245489 0.995709 0.174565
O O18 0.212928 0.977293 0.000000
O O19 0.500000 0.000000 0.742528
#
# Coordination Sequence:
#
# PCOD8237098 Si02
#       8
#     8   8   8   8   8   8   8   8
#     4  11  21  39  62  82 111 156 198 239 288 348
#     4   9  18  33  57  83 109 146 191 236 286 342
#     4   9  20  37  58  84 116 152 190 238 294 347
#     4  10  22  36  55  85 117 149 190 237 298 347
#     4  11  23  39  59  86 115 149 197 248 295 345
#     4   9  18  33  52  81 115 147 184 233 292 341
#     4   9  18  36  60  83 115 156 191 231 291 359
#     4  10  20  34  54  85 118 151 196 235 291 361
#
# _framework density 20.512947
#
# number of rings (size 3 to 8) (size 9 to 14) (size 15 to 20)
#    0.000    2.250    0.000    4.500    1.750    3.500 
#    0.000    1.250    0.000    3.000    0.000    0.000 
#    0.000    0.000    0.000    0.000    0.000    0.000 
#
# Total GULP energy -793028.794486 kJ/mol
# GULP energy per Si atom -12391.074914 kJ/mol
# Density = 2.046626 g / cm^3
# Si number density = 20.512947 Si / 1000 Ang^3
#
#
#
# Elastic Constant Matrix: (Units=GPa)
#
#
# Indices 1 2 3 4 5 6 
#
# 1 70.2511 31.6609 41.6846 0.0000 0.0000 0.0000
# 2 31.6609 49.4762 25.4696 0.0000 0.0000 0.0000
# 3 41.6846 25.4696 118.0336 0.0000 0.0000 0.0000
# 4 0.0000 0.0000 0.0000 5.6778 0.0000 0.0000
# 5 0.0000 0.0000 0.0000 0.0000 60.4494 0.0000
# 6 0.0000 0.0000 0.0000 0.0000 0.0000 25.0896
#
#
#
# Elastic Compliance Matrix: (Units=1/GPa)
#
#
# Indices 1 2 3 4 5 6 
#
# 1 0.022806 -0.011753 -0.005518 0.000000 0.000000 0.000000
# 2 -0.011753 0.028795 -0.002063 0.000000 0.000000 0.000000
# 3 -0.005518 -0.002063 0.010866 0.000000 0.000000 0.000000
# 4 0.000000 0.000000 0.000000 0.176123 0.000000 0.000000
# 5 0.000000 0.000000 0.000000 0.000000 0.016543 0.000000
# 6 0.000000 0.000000 0.000000 0.000000 0.000000 0.039857
#
#
# Mechanical properties :
#
#
# Convention : Reuss Voigt Hill
#
# Bulk Modulus (GPa) = 42.01903 48.37680 45.19791
# Shear Modulus (GPa) = 14.63741 27.50642 21.07192
#
# Velocity S-wave (km/s) = 2.67417 3.66584 3.20855
# Velocity P-wave (km/s) = 5.48302 6.44613 5.98398
#
# Compressibility (1/GPa) = 0.02379874
#
# Stress axis : x y z
#
# Youngs Moduli (GPa) = 43.84837 34.72842 92.03080
#
# Poissons Ratio (x) = 0.40818 0.50782
# Poissons Ratio (y) = 0.51537 0.18982
# Poissons Ratio (z) = 0.24195 0.07163
#
# Static dielectric constant tensor:
#      x y z
#    x 3.831540 0.000000 0.000000 
#    y 0.000000 3.446590 0.000000 
#    z 0.000000 0.000000 3.850820 
# 
# 
# High freq. dielectric constant tensor:
#      x y z
#    x 1.796150 0.000000 0.000000 
#    y 0.000000 1.772930 0.000000 
#    z 0.000000 0.000000 1.818040 
# 
# From -- ./inp_files/20316.got.cif
#   From: 2010.06.25/outbox.cif.g09.slc.cpg/sg58_11_cif.got.tgz:20316.got - 2010.06.26 21:38:00.
