data_PCOD8237815
_publ_section_title
;
Structure prediction by ZEFSAII (Michael W. Deem and Ramdas Pophale) SiO2 
 PCOD8237815
Probable space group: P N N M
;
_chemical_formula_sum "Si O2"
_cell_formula_units_Z 48
_cell_length_a 11.579798
_cell_length_b 16.466383
_cell_length_c 12.764164
_cell_angle_alpha 90.000000
_cell_angle_beta 90.000000
_cell_angle_gamma 90.000000
_cell_volume 2433.837463
_symmetry_space_group_name_H-M "P N N M"
_symmetry_group_IT_number 58
_symmetry_cell_setting 'orthorhombic'
loop_
_space_group_symop_operation_xyz
x,y,z
-x,-y,z
1/2+x,1/2-y,1/2-z
1/2-x,1/2+y,1/2-z
-x,-y,-z
x,y,-z
1/2-x,1/2+y,1/2+z
1/2+x,1/2-y,1/2+z
loop_
_atom_site_type_symbol
_atom_site_label
_atom_site_fract_x
_atom_site_fract_y
_atom_site_fract_z
Si Si1 0.883717 0.276722 0.614460
Si Si2 0.405984 0.143719 0.619717
Si Si3 0.451899 0.316153 0.697112
Si Si4 0.789090 0.049594 0.877173
Si Si5 0.296544 0.624489 0.718657
Si Si6 0.044111 0.413437 0.695787
O O1 0.892443 0.238247 0.500000
O O2 0.882927 0.202549 0.695837
O O3 0.766451 0.327920 0.624967
O O4 0.989521 0.338578 0.633024
O O5 0.398832 0.113375 0.500000
O O6 0.441414 0.238453 0.621146
O O7 0.281952 0.129240 0.676154
O O8 0.505204 0.093677 0.682138
O O9 0.399624 0.392823 0.636848
O O10 0.581520 0.332811 0.735373
O O11 0.680651 0.092653 0.820947
O O12 0.816457 0.967234 0.816849
O O13 0.765702 0.034597 0.000000
O O14 0.000000 0.500000 0.650718
#
# Coordination Sequence:
#
# PCOD8237815 Si02
#       6
#     8   8   8   8   8   8
#     4  10  22  38  62  85 116 158 197 250 301 346
#     4  10  23  41  63  87 121 165 200 244 305 359
#     4  10  24  40  58  90 125 154 205 246 291 367
#     4  12  23  38  63  91 120 157 198 249 312 353
#     4  10  22  41  59  88 124 151 202 253 293 357
#     4  10  20  39  59  91 119 147 204 254 289 351
#
# _framework density 19.721941000000001
#
# number of rings (size 3 to 8) (size 9 to 14) (size 15 to 20)
#    0.000    2.000    3.333    2.000    9.333    5.000 
#    0.000    0.833    0.000    2.000    0.000    0.000 
#    0.000    0.000    0.000    0.000    0.000    0.000 
#
# Total GULP energy -595059.072089 kJ/mol
# GULP energy per Si atom -12397.064002 kJ/mol
# Density = 1.967705 g / cm^3
# Si number density = 19.721941 Si / 1000 Ang^3
#
#
#
# Elastic Constant Matrix: (Units=GPa)
#
#
# Indices 1 2 3 4 5 6 
#
# 1 78.9136 21.4891 10.6675 0.0000 0.0000 0.0000
# 2 21.4891 82.8452 11.8278 0.0000 0.0000 0.0000
# 3 10.6675 11.8278 124.5391 0.0000 0.0000 0.0000
# 4 0.0000 0.0000 0.0000 11.5860 0.0000 0.0000
# 5 0.0000 0.0000 0.0000 0.0000 15.4251 0.0000
# 6 0.0000 0.0000 0.0000 0.0000 0.0000 28.4043
#
#
#
# Elastic Compliance Matrix: (Units=1/GPa)
#
#
# Indices 1 2 3 4 5 6 
#
# 1 0.013723 -0.003438 -0.000849 0.000000 0.000000 0.000000
# 2 -0.003438 0.013098 -0.000949 0.000000 0.000000 0.000000
# 3 -0.000849 -0.000949 0.008192 0.000000 0.000000 0.000000
# 4 0.000000 0.000000 0.000000 0.086311 0.000000 0.000000
# 5 0.000000 0.000000 0.000000 0.000000 0.064829 0.000000
# 6 0.000000 0.000000 0.000000 0.000000 0.000000 0.035206
#
#
# Mechanical properties :
#
#
# Convention : Reuss Voigt Hill
#
# Bulk Modulus (GPa) = 40.74943 41.58520 41.16732
# Shear Modulus (GPa) = 20.83210 27.23730 24.03470
#
# Velocity S-wave (km/s) = 3.25359 3.72030 3.49474
# Velocity P-wave (km/s) = 5.90096 6.29172 6.09947
#
# Compressibility (1/GPa) = 0.02454022
#
# Stress axis : x y z
#
# Youngs Moduli (GPa) = 72.86947 76.34670 122.06301
#
# Poissons Ratio (x) = 0.26251 0.10362
# Poissons Ratio (y) = 0.25056 0.11589
# Poissons Ratio (z) = 0.06186 0.07249
#
# Static dielectric constant tensor:
#      x y z
#    x 3.573940 0.000000 0.000000 
#    y 0.000000 3.559240 0.000000 
#    z 0.000000 0.000000 3.449200 
# 
# 
# High freq. dielectric constant tensor:
#      x y z
#    x 1.767860 0.000000 0.000000 
#    y 0.000000 1.767530 0.000000 
#    z 0.000000 0.000000 1.756670 
# 
# From -- ./inp_files/21147.got.cif
#   From: 2010.06.25/outbox.cif.g09.slc.cpg/sg58_11_cif.got.tgz:21147.got - 2010.06.26 21:38:00.
