data_PCOD8237386
_publ_section_title
;
Structure prediction by ZEFSAII (Michael W. Deem and Ramdas Pophale) SiO2 
 PCOD8237386
Probable space group: P N N M
;
_chemical_formula_sum "Si O2"
_cell_formula_units_Z 64
_cell_length_a 15.236332
_cell_length_b 24.645276
_cell_length_c 8.916054
_cell_angle_alpha 90.000000
_cell_angle_beta 90.000000
_cell_angle_gamma 90.000000
_cell_volume 3348.010440
_symmetry_space_group_name_H-M "P N N M"
_symmetry_group_IT_number 58
_symmetry_cell_setting 'orthorhombic'
loop_
_space_group_symop_operation_xyz
x,y,z
-x,-y,z
1/2+x,1/2-y,1/2-z
1/2-x,1/2+y,1/2-z
-x,-y,-z
x,y,-z
1/2-x,1/2+y,1/2+z
1/2+x,1/2-y,1/2+z
loop_
_atom_site_type_symbol
_atom_site_label
_atom_site_fract_x
_atom_site_fract_y
_atom_site_fract_z
Si Si1 0.504736 0.169548 0.328964
Si Si2 0.005636 0.882013 0.822783
Si Si3 0.686667 0.853342 0.327920
Si Si4 0.724456 0.259362 0.676703
Si Si5 0.542425 0.277054 0.823321
Si Si6 0.179030 0.066835 0.822581
Si Si7 0.305293 0.863349 0.673141
Si Si8 0.822690 0.055118 0.176958
O O1 0.515270 0.191340 0.500000
O O2 0.417205 0.133255 0.312089
O O3 0.496753 0.220536 0.218243
O O4 0.590705 0.134067 0.289211
O O5 0.019090 0.825991 0.732901
O O6 0.914677 0.909612 0.772638
O O7 0.084580 0.920660 0.769297
O O8 0.008850 0.871019 0.000000
O O9 0.716363 0.851928 0.500000
O O10 0.699409 0.793506 0.256873
O O11 0.741143 0.899129 0.244266
O O12 0.729038 0.268985 0.500000
O O13 0.633685 0.283909 0.736199
O O14 0.732469 0.195927 0.717877
O O15 0.557650 0.280299 0.000000
O O16 0.186436 0.005714 0.759359
O O17 0.188115 0.068525 0.000000
O O18 0.287009 0.875362 0.500000
O O19 0.258591 0.909131 0.768903
O O20 0.819936 0.053547 0.000000
#
# Coordination Sequence:
#
# PCOD8237386 Si02
#       8
#     8   8   8   8   8   8   8   8
#     4   9  21  40  58  80 116 156 192 233 290 349
#     4  10  20  36  57  81 115 156 190 229 286 346
#     4  11  22  36  59  88 114 147 195 243 285 340
#     4  10  20  36  56  80 116 156 187 226 289 350
#     4  11  21  33  54  86 118 148 190 234 280 336
#     4  10  21  39  60  82 115 155 193 235 288 347
#     4   9  20  39  59  80 112 152 190 235 291 341
#     4  10  22  38  59  85 111 150 200 240 283 343
#
# _framework density 19.115829000000002
#
# number of rings (size 3 to 8) (size 9 to 14) (size 15 to 20)
#    0.000    2.000    1.250    3.000    1.750    6.000 
#    0.000    0.625    0.000    6.000    0.000    0.000 
#    0.000    0.000    0.000    0.000    0.000    0.000 
#
# Total GULP energy -793686.686722 kJ/mol
# GULP energy per Si atom -12401.354480 kJ/mol
# Density = 1.907232 g / cm^3
# Si number density = 19.115829 Si / 1000 Ang^3
#
#
#
# Elastic Constant Matrix: (Units=GPa)
#
#
# Indices 1 2 3 4 5 6 
#
# 1 118.1548 55.5210 21.7107 0.0000 0.0000 0.0000
# 2 55.5210 90.9263 22.7263 0.0000 0.0000 0.0000
# 3 21.7107 22.7263 36.6408 0.0000 0.0000 0.0000
# 4 0.0000 0.0000 0.0000 27.6667 0.0000 0.0000
# 5 0.0000 0.0000 0.0000 0.0000 27.1260 0.0000
# 6 0.0000 0.0000 0.0000 0.0000 0.0000 25.3364
#
#
#
# Elastic Compliance Matrix: (Units=1/GPa)
#
#
# Indices 1 2 3 4 5 6 
#
# 1 0.012155 -0.006653 -0.003075 0.000000 0.000000 0.000000
# 2 -0.006653 0.016658 -0.006390 0.000000 0.000000 0.000000
# 3 -0.003075 -0.006390 0.033077 0.000000 0.000000 0.000000
# 4 0.000000 0.000000 0.000000 0.036144 0.000000 0.000000
# 5 0.000000 0.000000 0.000000 0.000000 0.036865 0.000000
# 6 0.000000 0.000000 0.000000 0.000000 0.000000 0.039469
#
#
# Mechanical properties :
#
#
# Convention : Reuss Voigt Hill
#
# Bulk Modulus (GPa) = 33.72304 49.51531 41.61918
# Shear Modulus (GPa) = 23.09583 25.74343 24.41963
#
# Velocity S-wave (km/s) = 3.47969 3.67373 3.57803
# Velocity P-wave (km/s) = 5.81585 6.62979 6.23611
#
# Compressibility (1/GPa) = 0.02965331
#
# Stress axis : x y z
#
# Youngs Moduli (GPa) = 82.27075 60.03284 30.23214
#
# Poissons Ratio (x) = 0.39942 0.09298
# Poissons Ratio (y) = 0.54737 0.19317
# Poissons Ratio (z) = 0.25302 0.38358
#
# Static dielectric constant tensor:
#      x y z
#    x 3.527990 0.000000 0.000000 
#    y 0.000000 3.502260 0.000000 
#    z 0.000000 0.000000 3.397540 
# 
# 
# High freq. dielectric constant tensor:
#      x y z
#    x 1.747220 0.000000 0.000000 
#    y 0.000000 1.732640 0.000000 
#    z 0.000000 0.000000 1.737800 
# 
# From -- ./inp_files/6817.got.cif
#   From: 2010.06.25/outbox.cif.g09.slc.cpg/sg58_4_cif.got.tgz:6817.got - 2010.06.26 21:38:00.
