data_PCOD8237354
_publ_section_title
;
Structure prediction by ZEFSAII (Michael W. Deem and Ramdas Pophale) SiO2 
 PCOD8237354
Probable space group: P N N M
;
_chemical_formula_sum "Si O2"
_cell_formula_units_Z 64
_cell_length_a 28.149005
_cell_length_b 12.751629
_cell_length_c 8.685967
_cell_angle_alpha 90.000000
_cell_angle_beta 90.000000
_cell_angle_gamma 90.000000
_cell_volume 3117.790231
_symmetry_space_group_name_H-M "P N N M"
_symmetry_group_IT_number 58
_symmetry_cell_setting 'orthorhombic'
loop_
_space_group_symop_operation_xyz
x,y,z
-x,-y,z
1/2+x,1/2-y,1/2-z
1/2-x,1/2+y,1/2-z
-x,-y,-z
x,y,-z
1/2-x,1/2+y,1/2+z
1/2+x,1/2-y,1/2+z
loop_
_atom_site_type_symbol
_atom_site_label
_atom_site_fract_x
_atom_site_fract_y
_atom_site_fract_z
Si Si1 0.706248 0.949074 0.822448
Si Si2 0.429647 0.905358 0.673980
Si Si3 0.065857 0.839147 0.322858
Si Si4 0.612809 0.461278 0.680037
Si Si5 0.178932 0.349305 0.826680
Si Si6 0.899558 0.387358 0.319523
Si Si7 0.542044 0.298027 0.823677
Si Si8 0.299056 0.632970 0.821252
O O1 0.655798 0.898590 0.774949
O O2 0.745640 0.902580 0.710483
O O3 0.704652 0.073311 0.792470
O O4 0.718853 0.927509 0.000000
O O5 0.448510 0.908851 0.500000
O O6 0.377002 0.861022 0.686044
O O7 0.461501 0.823269 0.769936
O O8 0.431888 0.023207 0.740388
O O9 0.081202 0.855376 0.500000
O O10 0.083305 0.726100 0.262067
O O11 0.009454 0.849500 0.305317
O O12 0.089279 0.928027 0.219442
O O13 0.623266 0.455493 0.500000
O O14 0.578785 0.364611 0.723400
O O15 0.662745 0.454790 0.770706
O O16 0.191964 0.232852 0.783124
O O17 0.196508 0.373211 0.000000
O O18 0.907176 0.401004 0.500000
O O19 0.559156 0.301488 0.000000
O O20 0.305260 0.659252 0.000000
#
# Coordination Sequence:
#
# PCOD8237354 Si02
#       8
#     8   8   8   8   8   8   8   8
#     4  10  21  38  61  89 120 156 200 250 305 365
#     4  10  20  35  60  89 121 156 199 252 302 353
#     4  10  23  42  62  88 123 166 207 249 306 372
#     4  12  25  41  61  88 122 158 203 259 313 369
#     4  10  20  37  59  85 118 155 196 248 303 359
#     4   9  20  40  63  86 120 162 203 248 303 365
#     4  11  22  38  63  90 120 160 208 254 305 368
#     4  12  24  39  62  89 119 158 203 252 307 367
#
# _framework density 20.527360000000002
#
# number of rings (size 3 to 8) (size 9 to 14) (size 15 to 20)
#    0.000    1.500    1.250    4.125    0.000    6.000 
#    0.000    6.250    0.000    0.000    0.000    0.000 
#    0.000    0.000    0.000    0.000    0.000    0.000 
#
# Total GULP energy -793883.381053 kJ/mol
# GULP energy per Si atom -12404.427829 kJ/mol
# Density = 2.048064 g / cm^3
# Si number density = 20.527360 Si / 1000 Ang^3
#
#
#
# Elastic Constant Matrix: (Units=GPa)
#
#
# Indices 1 2 3 4 5 6 
#
# 1 28.2711 12.0086 25.2565 0.0000 0.0000 0.0000
# 2 12.0086 102.2853 20.5974 0.0000 0.0000 0.0000
# 3 25.2565 20.5974 69.3179 0.0000 0.0000 0.0000
# 4 0.0000 0.0000 0.0000 36.5758 0.0000 0.0000
# 5 0.0000 0.0000 0.0000 0.0000 28.3885 0.0000
# 6 0.0000 0.0000 0.0000 0.0000 0.0000 23.5968
#
#
#
# Elastic Compliance Matrix: (Units=1/GPa)
#
#
# Indices 1 2 3 4 5 6 
#
# 1 0.053028 -0.002484 -0.018583 0.000000 0.000000 0.000000
# 2 -0.002484 0.010515 -0.002220 0.000000 0.000000 0.000000
# 3 -0.018583 -0.002220 0.021857 0.000000 0.000000 0.000000
# 4 0.000000 0.000000 0.000000 0.027340 0.000000 0.000000
# 5 0.000000 0.000000 0.000000 0.000000 0.035226 0.000000
# 6 0.000000 0.000000 0.000000 0.000000 0.000000 0.042379
#
#
# Mechanical properties :
#
#
# Convention : Reuss Voigt Hill
#
# Bulk Modulus (GPa) = 25.75501 35.06660 30.41080
# Shear Modulus (GPa) = 20.01119 27.17967 23.59543
#
# Velocity S-wave (km/s) = 3.12565 3.64273 3.39405
# Velocity P-wave (km/s) = 5.05966 5.90022 5.49603
#
# Compressibility (1/GPa) = 0.03882740
#
# Stress axis : x y z
#
# Youngs Moduli (GPa) = 18.85783 95.10120 45.75239
#
# Poissons Ratio (x) = 0.23619 0.85023
# Poissons Ratio (y) = 0.04683 0.10155
# Poissons Ratio (z) = 0.35044 0.21109
#
# Static dielectric constant tensor:
#      x y z
#    x 3.756050 0.000000 0.000000 
#    y 0.000000 3.869230 0.000000 
#    z 0.000000 0.000000 3.709930 
# 
# 
# High freq. dielectric constant tensor:
#      x y z
#    x 1.798300 0.000000 0.000000 
#    y 0.000000 1.808980 0.000000 
#    z 0.000000 0.000000 1.806500 
# 
# From -- ./inp_files/11061.got.cif
#   From: 2010.06.25/outbox.cif.g09.slc.cpg/sg58_6_cif.got.tgz:11061.got - 2010.06.26 21:38:00.
