data_PCOD8237615
_publ_section_title
;
Structure prediction by ZEFSAII (Michael W. Deem and Ramdas Pophale) SiO2 
 PCOD8237615
Probable space group: P N N M
;
_chemical_formula_sum "Si O2"
_cell_formula_units_Z 64
_cell_length_a 16.488652
_cell_length_b 19.976646
_cell_length_c 9.942856
_cell_angle_alpha 90.000000
_cell_angle_beta 90.000000
_cell_angle_gamma 90.000000
_cell_volume 3275.057094
_symmetry_space_group_name_H-M "P N N M"
_symmetry_group_IT_number 58
_symmetry_cell_setting 'orthorhombic'
loop_
_space_group_symop_operation_xyz
x,y,z
-x,-y,z
1/2+x,1/2-y,1/2-z
1/2-x,1/2+y,1/2-z
-x,-y,-z
x,y,-z
1/2-x,1/2+y,1/2+z
1/2+x,1/2-y,1/2+z
loop_
_atom_site_type_symbol
_atom_site_label
_atom_site_fract_x
_atom_site_fract_y
_atom_site_fract_z
Si Si1 0.432644 0.096486 0.151841
Si Si2 0.248171 0.790344 0.849897
Si Si3 0.516847 0.422309 0.852841
Si Si4 0.116059 0.386848 0.349651
Si Si5 0.376186 0.406426 0.654726
Si Si6 0.686303 0.450395 0.253960
Si Si7 0.776459 0.326525 0.353891
Si Si8 0.653195 0.001240 0.653214
O O1 0.521773 0.124458 0.181444
O O2 0.371381 0.158054 0.167072
O O3 0.413087 0.040692 0.262895
O O4 0.426918 0.065858 0.000000
O O5 0.340898 0.814985 0.845738
O O6 0.190108 0.851228 0.802285
O O7 0.247302 0.725525 0.758649
O O8 0.223186 0.768062 0.000000
O O9 0.500000 0.500000 0.861943
O O10 0.455939 0.390875 0.743604
O O11 0.611023 0.412820 0.815647
O O12 0.501171 0.389485 0.000000
O O13 0.129286 0.418502 0.500000
O O14 0.159159 0.429525 0.233326
O O15 0.401791 0.398215 0.500000
O O16 0.341948 0.481755 0.671847
O O17 0.725411 0.395716 0.353291
O O18 0.757260 0.468451 0.147724
O O19 0.762337 0.293638 0.500000
O O20 0.623003 0.010812 0.500000
#
# Coordination Sequence:
#
# PCOD8237615 Si02
#       8
#     8   8   8   8   8   8   8   8
#     4   9  20  38  59  81 112 153 194 232 278 342
#     4  10  22  40  60  83 115 154 191 234 289 349
#     4   9  19  34  54  84 118 149 188 238 291 343
#     4  10  20  38  60  82 112 153 197 230 275 346
#     4  10  20  37  61  86 112 149 194 240 288 342
#     4  10  20  37  60  85 117 153 196 233 284 345
#     4  10  22  39  60  86 116 151 194 241 287 338
#     4  11  21  32  55  90 123 149 184 237 291 334
#
# _framework density 19.541644999999999
#
# number of rings (size 3 to 8) (size 9 to 14) (size 15 to 20)
#    0.000    2.125    1.250    1.500    0.000    9.750 
#    2.250    0.000    0.000    0.000    0.000    0.000 
#    0.000    0.000    0.000    0.000    0.000    0.000 
#
# Total GULP energy -793238.555096 kJ/mol
# GULP energy per Si atom -12394.352423 kJ/mol
# Density = 1.949717 g / cm^3
# Si number density = 19.541645 Si / 1000 Ang^3
#
#
#
# Elastic Constant Matrix: (Units=GPa)
#
#
# Indices 1 2 3 4 5 6 
#
# 1 128.7712 30.0962 48.5505 0.0000 0.0000 0.0000
# 2 30.0962 75.7702 41.7361 0.0000 0.0000 0.0000
# 3 48.5505 41.7361 135.0802 0.0000 0.0000 0.0000
# 4 0.0000 0.0000 0.0000 23.7295 0.0000 0.0000
# 5 0.0000 0.0000 0.0000 0.0000 63.1366 0.0000
# 6 0.0000 0.0000 0.0000 0.0000 0.0000 14.4667
#
#
#
# Elastic Compliance Matrix: (Units=1/GPa)
#
#
# Indices 1 2 3 4 5 6 
#
# 1 0.009285 -0.002229 -0.002649 0.000000 0.000000 0.000000
# 2 -0.002229 0.016440 -0.004278 0.000000 0.000000 0.000000
# 3 -0.002649 -0.004278 0.009677 0.000000 0.000000 0.000000
# 4 0.000000 0.000000 0.000000 0.042142 0.000000 0.000000
# 5 0.000000 0.000000 0.000000 0.000000 0.015839 0.000000
# 6 0.000000 0.000000 0.000000 0.000000 0.000000 0.069124
#
#
# Mechanical properties :
#
#
# Convention : Reuss Voigt Hill
#
# Bulk Modulus (GPa) = 58.51418 64.48748 61.50083
# Shear Modulus (GPa) = 26.80747 34.88249 30.84498
#
# Velocity S-wave (km/s) = 3.70782 4.22955 3.97725
# Velocity P-wave (km/s) = 6.95262 7.54478 7.25474
#
# Compressibility (1/GPa) = 0.01708988
#
# Stress axis : x y z
#
# Youngs Moduli (GPa) = 107.69697 60.82792 103.33994
#
# Poissons Ratio (x) = 0.13560 0.27370
# Poissons Ratio (y) = 0.24009 0.44211
# Poissons Ratio (z) = 0.28524 0.26023
#
# Static dielectric constant tensor:
#      x y z
#    x 3.835390 0.000000 0.000000 
#    y 0.000000 3.183130 0.000000 
#    z 0.000000 0.000000 3.610160 
# 
# 
# High freq. dielectric constant tensor:
#      x y z
#    x 1.773180 0.000000 0.000000 
#    y 0.000000 1.726160 0.000000 
#    z 0.000000 0.000000 1.761880 
# 
# From -- ./inp_files/8326.got.cif
#   From: 2010.06.25/outbox.cif.g09.slc.cpg/sg58_5_cif.got.tgz:8326.got - 2010.06.26 21:38:00.
