data_PCOD8237209
_publ_section_title
;
Structure prediction by ZEFSAII (Michael W. Deem and Ramdas Pophale) SiO2 
 PCOD8237209
Probable space group: P N N M
;
_chemical_formula_sum "Si O2"
_cell_formula_units_Z 64
_cell_length_a 24.738164
_cell_length_b 9.199445
_cell_length_c 13.938478
_cell_angle_alpha 90.000000
_cell_angle_beta 90.000000
_cell_angle_gamma 90.000000
_cell_volume 3172.082292
_symmetry_space_group_name_H-M "P N N M"
_symmetry_group_IT_number 58
_symmetry_cell_setting 'orthorhombic'
loop_
_space_group_symop_operation_xyz
x,y,z
-x,-y,z
1/2+x,1/2-y,1/2-z
1/2-x,1/2+y,1/2-z
-x,-y,-z
x,y,-z
1/2-x,1/2+y,1/2+z
1/2+x,1/2-y,1/2+z
loop_
_atom_site_type_symbol
_atom_site_label
_atom_site_fract_x
_atom_site_fract_y
_atom_site_fract_z
Si Si1 0.814002 0.197562 0.609416
Si Si2 0.795051 0.220356 0.891632
Si Si3 0.215333 0.314515 0.773347
Si Si4 0.427995 0.423239 0.893137
Si Si5 0.153426 0.087447 0.110351
Si Si6 0.472702 0.147090 0.795574
Si Si7 0.541656 0.387993 0.713675
Si Si8 0.644475 0.919071 0.260584
O O1 0.801641 0.242641 0.500000
O O2 0.762399 0.118259 0.658040
O O3 0.863377 0.085567 0.616322
O O4 0.828072 0.343327 0.668338
O O5 0.739903 0.214872 0.831246
O O6 0.833047 0.351476 0.858576
O O7 0.833333 0.081049 0.878760
O O8 0.776400 0.244189 0.000000
O O9 0.197575 0.166490 0.824405
O O10 0.162643 0.413798 0.760792
O O11 0.454196 0.263435 0.875665
O O12 0.446933 0.546499 0.819914
O O13 0.444436 0.472881 0.000000
O O14 0.093767 0.123096 0.147895
O O15 0.157605 0.139279 0.000000
O O16 0.514835 0.228479 0.724480
O O17 0.420038 0.094061 0.737466
O O18 0.500000 0.000000 0.839262
O O19 0.500000 0.500000 0.662722
#
# Coordination Sequence:
#
# PCOD8237209 Si02
#       8
#     8   8   8   8   8   8   8   8
#     4   9  18  34  56  81 109 145 182 218 269 327
#     4  10  21  37  58  83 113 146 181 223 272 329
#     4  11  21  35  57  82 114 146 177 220 273 332
#     4   9  19  35  57  84 112 144 186 230 272 325
#     4  11  23  39  59  85 112 143 187 233 275 323
#     4  10  20  35  55  78 111 151 185 226 278 327
#     4  10  20  37  60  80 106 145 191 238 279 319
#     4  10  21  37  56  81 113 146 183 227 275 327
#
# _framework density 20.176020999999999
#
# number of rings (size 3 to 8) (size 9 to 14) (size 15 to 20)
#    0.000    2.000    0.000    5.625    0.000    5.250 
#    0.000    2.500    0.000    6.000    0.000    0.000 
#    0.000    0.000    0.000    0.000    0.000    0.000 
#
# Total GULP energy -793434.844992 kJ/mol
# GULP energy per Si atom -12397.419453 kJ/mol
# Density = 2.013010 g / cm^3
# Si number density = 20.176021 Si / 1000 Ang^3
#
#
#
# Elastic Constant Matrix: (Units=GPa)
#
#
# Indices 1 2 3 4 5 6 
#
# 1 114.1018 23.6340 45.8456 0.0000 0.0000 0.0000
# 2 23.6340 55.5320 23.0884 0.0000 0.0000 0.0000
# 3 45.8456 23.0884 123.9386 0.0000 0.0000 0.0000
# 4 0.0000 0.0000 0.0000 16.4357 0.0000 0.0000
# 5 0.0000 0.0000 0.0000 0.0000 18.9282 0.0000
# 6 0.0000 0.0000 0.0000 0.0000 0.0000 33.7933
#
#
#
# Elastic Compliance Matrix: (Units=1/GPa)
#
#
# Indices 1 2 3 4 5 6 
#
# 1 0.010788 -0.003178 -0.003398 0.000000 0.000000 0.000000
# 2 -0.003178 0.020456 -0.002635 0.000000 0.000000 0.000000
# 3 -0.003398 -0.002635 0.009816 0.000000 0.000000 0.000000
# 4 0.000000 0.000000 0.000000 0.060843 0.000000 0.000000
# 5 0.000000 0.000000 0.000000 0.000000 0.052831 0.000000
# 6 0.000000 0.000000 0.000000 0.000000 0.000000 0.029592
#
#
# Mechanical properties :
#
#
# Convention : Reuss Voigt Hill
#
# Bulk Modulus (GPa) = 44.17597 53.18981 48.68289
# Shear Modulus (GPa) = 23.77607 27.23172 25.50390
#
# Velocity S-wave (km/s) = 3.43655 3.67782 3.55923
# Velocity P-wave (km/s) = 6.13917 6.66748 6.40877
#
# Compressibility (1/GPa) = 0.02263674
#
# Stress axis : x y z
#
# Youngs Moduli (GPa) = 92.69649 48.88576 101.86948
#
# Poissons Ratio (x) = 0.15537 0.34620
# Poissons Ratio (y) = 0.29462 0.26843
# Poissons Ratio (z) = 0.31502 0.12882
#
# Static dielectric constant tensor:
#      x y z
#    x 3.963340 0.000000 0.000000 
#    y 0.000000 3.479320 0.000000 
#    z 0.000000 0.000000 3.618980 
# 
# 
# High freq. dielectric constant tensor:
#      x y z
#    x 1.805590 0.000000 0.000000 
#    y 0.000000 1.773830 0.000000 
#    z 0.000000 0.000000 1.772650 
# 
# From -- ./inp_files/23519.got.cif
#   From: 2010.06.25/outbox.cif.g09.slc.cpg/sg58_12_cif.got.tgz:23519.got - 2010.06.26 21:38:00.
