data_PCOD8237270
_publ_section_title
;
Structure prediction by ZEFSAII (Michael W. Deem and Ramdas Pophale) SiO2 
 PCOD8237270
Probable space group: P N N M
;
_chemical_formula_sum "Si O2"
_cell_formula_units_Z 56
_cell_length_a 22.167404
_cell_length_b 14.604958
_cell_length_c 8.749212
_cell_angle_alpha 90.000000
_cell_angle_beta 90.000000
_cell_angle_gamma 90.000000
_cell_volume 2832.592420
_symmetry_space_group_name_H-M "P N N M"
_symmetry_group_IT_number 58
_symmetry_cell_setting 'orthorhombic'
loop_
_space_group_symop_operation_xyz
x,y,z
-x,-y,z
1/2+x,1/2-y,1/2-z
1/2-x,1/2+y,1/2-z
-x,-y,-z
x,y,-z
1/2-x,1/2+y,1/2+z
1/2+x,1/2-y,1/2+z
loop_
_atom_site_type_symbol
_atom_site_label
_atom_site_fract_x
_atom_site_fract_y
_atom_site_fract_z
Si Si1 0.570262 0.493684 0.681241
Si Si2 0.625464 0.964851 0.172587
Si Si3 0.844789 0.843709 0.677210
Si Si4 0.869302 0.182495 0.178598
Si Si5 0.963574 0.311995 0.674366
Si Si6 0.405900 0.843051 0.822634
Si Si7 0.282378 0.181444 0.818599
O O1 0.500000 0.500000 0.736673
O O2 0.571498 0.482680 0.500000
O O3 0.601640 0.405348 0.755588
O O4 0.610491 0.581058 0.733759
O O5 0.560676 0.915741 0.178117
O O6 0.674324 0.897895 0.250046
O O7 0.620206 0.064020 0.255230
O O8 0.647730 0.981021 0.000000
O O9 0.836404 0.868323 0.500000
O O10 0.859146 0.737419 0.701738
O O11 0.782670 0.853020 0.766788
O O12 0.924941 0.247276 0.217739
O O13 0.807200 0.220297 0.255966
O O14 0.857005 0.181907 0.000000
O O15 0.961469 0.273659 0.500000
O O16 0.030048 0.313294 0.747674
O O17 0.418859 0.864586 0.000000
O O18 0.285379 0.188675 0.000000
#
# Coordination Sequence:
#
# PCOD8237270 Si02
#       7
#     8   8   8   8   8   8   8
#     4  10  22  40  60  82 111 151 195 237 288 346
#     4   8  15  29  52  78 102 133 173 214 256 312
#     4  11  23  36  54  81 112 144 181 231 281 328
#     4  10  20  35  57  81 108 144 184 228 275 326
#     4   9  16  29  53  82 108 135 169 211 261 321
#     4   9  17  30  50  78 107 134 168 211 263 321
#     4  10  21  38  58  79 106 143 186 228 274 330
#
# _framework density 19.769876
#
# number of rings (size 3 to 8) (size 9 to 14) (size 15 to 20)
#    0.000    2.429    0.000    3.429    0.000    4.286 
#    0.000    3.571    0.000   15.429    0.000    0.000 
#    0.000    0.000    0.000    0.000    0.000    0.000 
#
# Total GULP energy -694023.887104 kJ/mol
# GULP energy per Si atom -12393.283698 kJ/mol
# Density = 1.972488 g / cm^3
# Si number density = 19.769876 Si / 1000 Ang^3
#
#
#
# Elastic Constant Matrix: (Units=GPa)
#
#
# Indices 1 2 3 4 5 6 
#
# 1 104.8346 16.0719 25.0675 0.0000 0.0000 0.0000
# 2 16.0719 85.4478 25.3198 0.0000 0.0000 0.0000
# 3 25.0675 25.3198 43.8941 0.0000 0.0000 0.0000
# 4 0.0000 0.0000 0.0000 20.0797 0.0000 0.0000
# 5 0.0000 0.0000 0.0000 0.0000 27.5439 0.0000
# 6 0.0000 0.0000 0.0000 0.0000 0.0000 27.8099
#
#
#
# Elastic Compliance Matrix: (Units=1/GPa)
#
#
# Indices 1 2 3 4 5 6 
#
# 1 0.011052 -0.000251 -0.006167 0.000000 0.000000 0.000000
# 2 -0.000251 0.014122 -0.008002 0.000000 0.000000 0.000000
# 3 -0.006167 -0.008002 0.030920 0.000000 0.000000 0.000000
# 4 0.000000 0.000000 0.000000 0.049802 0.000000 0.000000
# 5 0.000000 0.000000 0.000000 0.000000 0.036306 0.000000
# 6 0.000000 0.000000 0.000000 0.000000 0.000000 0.035958
#
#
# Mechanical properties :
#
#
# Convention : Reuss Voigt Hill
#
# Bulk Modulus (GPa) = 36.69367 40.78832 38.74100
# Shear Modulus (GPa) = 23.13918 26.26786 24.70352
#
# Velocity S-wave (km/s) = 3.42486 3.64906 3.53874
# Velocity P-wave (km/s) = 5.85152 6.19924 6.02789
#
# Compressibility (1/GPa) = 0.02725266
#
# Stress axis : x y z
#
# Youngs Moduli (GPa) = 90.48213 70.81368 32.34177
#
# Poissons Ratio (x) = 0.01781 0.19944
# Poissons Ratio (y) = 0.02275 0.25881
# Poissons Ratio (z) = 0.55797 0.56667
#
# Static dielectric constant tensor:
#      x y z
#    x 3.650130 0.000000 0.000000 
#    y 0.000000 3.803610 0.000000 
#    z 0.000000 0.000000 3.272850 
# 
# 
# High freq. dielectric constant tensor:
#      x y z
#    x 1.775060 0.000000 0.000000 
#    y 0.000000 1.777410 0.000000 
#    z 0.000000 0.000000 1.736600 
# 
# From -- ./inp_files/9022.got.cif
#   From: 2010.06.25/outbox.cif.g09.slc.cpg/sg58_5_cif.got.tgz:9022.got - 2010.06.26 21:38:00.
