data_PCOD8237340
_publ_section_title
;
Structure prediction by ZEFSAII (Michael W. Deem and Ramdas Pophale) SiO2 
 PCOD8237340
Probable space group: P N N M
;
_chemical_formula_sum "Si O2"
_cell_formula_units_Z 64
_cell_length_a 18.592324
_cell_length_b 12.688499
_cell_length_c 13.574179
_cell_angle_alpha 90.000000
_cell_angle_beta 90.000000
_cell_angle_gamma 90.000000
_cell_volume 3202.266711
_symmetry_space_group_name_H-M "P N N M"
_symmetry_group_IT_number 58
_symmetry_cell_setting 'orthorhombic'
loop_
_space_group_symop_operation_xyz
x,y,z
-x,-y,z
1/2+x,1/2-y,1/2-z
1/2-x,1/2+y,1/2-z
-x,-y,-z
x,y,-z
1/2-x,1/2+y,1/2+z
1/2+x,1/2-y,1/2+z
loop_
_atom_site_type_symbol
_atom_site_label
_atom_site_fract_x
_atom_site_fract_y
_atom_site_fract_z
Si Si1 0.787969 0.658259 0.385387
Si Si2 0.912921 0.824177 0.388566
Si Si3 0.424933 0.551914 0.388322
Si Si4 0.511497 0.256983 0.295601
Si Si5 0.848192 0.234112 0.767966
Si Si6 0.656904 0.514102 0.796585
Si Si7 0.429142 0.938266 0.607470
Si Si8 0.187270 0.533155 0.757208
O O1 0.782499 0.631301 0.500000
O O2 0.844913 0.750649 0.364463
O O3 0.710976 0.700064 0.348472
O O4 0.814377 0.551238 0.331455
O O5 0.939536 0.810941 0.500000
O O6 0.893740 0.947175 0.369221
O O7 0.978719 0.792286 0.317953
O O8 0.500000 0.500000 0.359611
O O9 0.400548 0.530651 0.500000
O O10 0.439996 0.674335 0.369881
O O11 0.363174 0.506344 0.318284
O O12 0.426567 0.259061 0.320272
O O13 0.548197 0.145414 0.310476
O O14 0.827766 0.346985 0.718784
O O15 0.849521 0.140607 0.685029
O O16 0.737042 0.472869 0.813064
O O17 0.401196 0.895431 0.500000
O O18 0.500000 0.000000 0.582063
O O19 0.369623 0.011219 0.657176
#
# Coordination Sequence:
#
# PCOD8237340 Si02
#       8
#     8   8   8   8   8   8   8   8
#     4  10  22  40  65  94 121 162 213 255 303 369
#     4  10  21  40  66  89 116 165 213 247 296 369
#     4  10  20  35  58  90 124 158 200 255 316 370
#     4  11  21  39  60  91 130 161 202 258 320 370
#     4  11  22  38  63  89 125 163 204 254 316 369
#     4  10  22  38  60  89 124 162 204 255 309 360
#     4  11  23  37  59  92 126 161 203 254 313 374
#     4  11  22  40  60  91 130 163 202 258 311 368
#
# _framework density 19.985844
#
# number of rings (size 3 to 8) (size 9 to 14) (size 15 to 20)
#    0.000    1.500    5.000    0.375    0.000    4.000 
#    0.000    2.500    0.000    3.750    0.000    0.000 
#    0.000    0.000    0.000    0.000    0.000    0.000 
#
# Total GULP energy -793238.830609 kJ/mol
# GULP energy per Si atom -12394.356728 kJ/mol
# Density = 1.994036 g / cm^3
# Si number density = 19.985844 Si / 1000 Ang^3
#
#
#
# Elastic Constant Matrix: (Units=GPa)
#
#
# Indices 1 2 3 4 5 6 
#
# 1 94.4095 30.7512 36.3499 0.0000 0.0000 0.0000
# 2 30.7512 139.7790 35.5957 0.0000 0.0000 0.0000
# 3 36.3499 35.5957 95.0257 0.0000 0.0000 0.0000
# 4 0.0000 0.0000 0.0000 17.4417 0.0000 0.0000
# 5 0.0000 0.0000 0.0000 0.0000 35.7479 0.0000
# 6 0.0000 0.0000 0.0000 0.0000 0.0000 29.4621
#
#
#
# Elastic Compliance Matrix: (Units=1/GPa)
#
#
# Indices 1 2 3 4 5 6 
#
# 1 0.012791 -0.001733 -0.004243 0.000000 0.000000 0.000000
# 2 -0.001733 0.008143 -0.002387 0.000000 0.000000 0.000000
# 3 -0.004243 -0.002387 0.013041 0.000000 0.000000 0.000000
# 4 0.000000 0.000000 0.000000 0.057334 0.000000 0.000000
# 5 0.000000 0.000000 0.000000 0.000000 0.027974 0.000000
# 6 0.000000 0.000000 0.000000 0.000000 0.000000 0.033942
#
#
# Mechanical properties :
#
#
# Convention : Reuss Voigt Hill
#
# Bulk Modulus (GPa) = 57.98218 59.40085 58.69152
# Shear Modulus (GPa) = 28.45733 31.63150 30.04442
#
# Velocity S-wave (km/s) = 3.77752 3.98263 3.88143
# Velocity P-wave (km/s) = 6.93548 7.13683 7.03687
#
# Compressibility (1/GPa) = 0.01724668
#
# Stress axis : x y z
#
# Youngs Moduli (GPa) = 78.18268 122.79809 76.68114
#
# Poissons Ratio (x) = 0.21284 0.32539
# Poissons Ratio (y) = 0.13551 0.18307
# Poissons Ratio (z) = 0.33177 0.29317
#
# Static dielectric constant tensor:
#      x y z
#    x 3.580320 0.000000 0.000000 
#    y 0.000000 3.842370 0.000000 
#    z 0.000000 0.000000 3.300920 
# 
# 
# High freq. dielectric constant tensor:
#      x y z
#    x 1.783460 0.000000 0.000000 
#    y 0.000000 1.795450 0.000000 
#    z 0.000000 0.000000 1.750950 
# 
# From -- ./inp_files/22945.got.cif
#   From: 2010.06.25/outbox.cif.g09.slc.cpg/sg58_12_cif.got.tgz:22945.got - 2010.06.26 21:38:00.
