data_PCOD8237954
_publ_section_title
;
Structure prediction by ZEFSAII (Michael W. Deem and Ramdas Pophale) SiO2 
 PCOD8237954
Probable space group: P N N M
;
_chemical_formula_sum "Si O2"
_cell_formula_units_Z 48
_cell_length_a 29.419017
_cell_length_b 9.306436
_cell_length_c 9.039327
_cell_angle_alpha 90.000000
_cell_angle_beta 90.000000
_cell_angle_gamma 90.000000
_cell_volume 2474.842980
_symmetry_space_group_name_H-M "P N N M"
_symmetry_group_IT_number 58
_symmetry_cell_setting 'orthorhombic'
loop_
_space_group_symop_operation_xyz
x,y,z
-x,-y,z
1/2+x,1/2-y,1/2-z
1/2-x,1/2+y,1/2-z
-x,-y,-z
x,y,-z
1/2-x,1/2+y,1/2+z
1/2+x,1/2-y,1/2+z
loop_
_atom_site_type_symbol
_atom_site_label
_atom_site_fract_x
_atom_site_fract_y
_atom_site_fract_z
Si Si1 0.199658 0.799439 0.172698
Si Si2 0.389938 0.373106 0.828474
Si Si3 0.436828 0.877703 0.669927
Si Si4 0.537402 0.798652 0.330155
Si Si5 0.864439 0.805475 0.328584
Si Si6 0.774647 0.876827 0.172720
O O1 0.149025 0.791509 0.237276
O O2 0.228750 0.676801 0.251489
O O3 0.221722 0.954117 0.205702
O O4 0.197195 0.765707 0.000000
O O5 0.438790 0.318039 0.774146
O O6 0.388386 0.542586 0.797175
O O7 0.383016 0.338064 0.000000
O O8 0.425069 0.842462 0.500000
O O9 0.484503 0.803966 0.713558
O O10 0.397611 0.819525 0.775212
O O11 0.439666 0.047257 0.695572
O O12 0.542966 0.751321 0.500000
O O13 0.853259 0.783121 0.500000
O O14 0.817335 0.792814 0.241059
O O15 0.773011 0.842834 0.000000
#
# Coordination Sequence:
#
# PCOD8237954 Si02
#       6
#     8   8   8   8   8   8
#     4  10  21  37  57  80 106 138 176 216 260 311
#     4  10  21  36  54  78 108 140 175 216 261 310
#     4   9  19  36  56  78 105 138 177 219 262 310
#     4   9  19  36  56  78 105 138 177 219 262 310
#     4  10  21  36  54  78 108 140 175 216 261 310
#     4  10  21  37  57  80 106 138 176 216 260 311
#
# _framework density 19.395168999999999
#
# number of rings (size 3 to 8) (size 9 to 14) (size 15 to 20)
#    0.000    2.333    0.000    3.000    0.000    7.333 
#    0.000    5.000    0.000    0.000    0.000    0.000 
#    0.000    0.000    0.000    0.000    0.000    0.000 
#
# Total GULP energy -595435.249418 kJ/mol
# GULP energy per Si atom -12404.901030 kJ/mol
# Density = 1.935102 g / cm^3
# Si number density = 19.395169 Si / 1000 Ang^3
#
#
#
# Elastic Constant Matrix: (Units=GPa)
#
#
# Indices 1 2 3 4 5 6 
#
# 1 31.2867 -1.5168 11.4461 0.0000 0.0000 0.0000
# 2 -1.5168 16.9732 10.9513 0.0000 0.0000 0.0000
# 3 11.4461 10.9513 76.9692 0.0000 0.0000 0.0000
# 4 0.0000 0.0000 0.0000 32.4903 0.0000 0.0000
# 5 0.0000 0.0000 0.0000 0.0000 35.5505 0.0000
# 6 0.0000 0.0000 0.0000 0.0000 0.0000 39.5701
#
#
#
# Elastic Compliance Matrix: (Units=1/GPa)
#
#
# Indices 1 2 3 4 5 6 
#
# 1 0.034551 0.007050 -0.006141 0.000000 0.000000 0.000000
# 2 0.007050 0.066310 -0.010483 0.000000 0.000000 0.000000
# 3 -0.006141 -0.010483 0.015397 0.000000 0.000000 0.000000
# 4 0.000000 0.000000 0.000000 0.030778 0.000000 0.000000
# 5 0.000000 0.000000 0.000000 0.000000 0.028129 0.000000
# 6 0.000000 0.000000 0.000000 0.000000 0.000000 0.025272
#
#
# Mechanical properties :
#
#
# Convention : Reuss Voigt Hill
#
# Bulk Modulus (GPa) = 10.29763 18.55446 14.42605
# Shear Modulus (GPa) = 19.84475 28.47874 24.16175
#
# Velocity S-wave (km/s) = 3.20219 3.83605 3.53336
# Velocity P-wave (km/s) = 4.35809 5.40442 4.90921
#
# Compressibility (1/GPa) = 0.09710973
#
# Stress axis : x y z
#
# Youngs Moduli (GPa) = 28.94279 15.08061 64.94766
#
# Poissons Ratio (x) = -0.10632 0.39885
# Poissons Ratio (y) = -0.20405 0.68085
# Poissons Ratio (z) = 0.17774 0.15809
#
# Static dielectric constant tensor:
#      x y z
#    x 3.482650 0.000000 0.000000 
#    y 0.000000 3.381830 0.000000 
#    z 0.000000 0.000000 3.524250 
# 
# 
# High freq. dielectric constant tensor:
#      x y z
#    x 1.758390 0.000000 0.000000 
#    y 0.000000 1.745670 0.000000 
#    z 0.000000 0.000000 1.761210 
# 
# From -- ./inp_files/2858.got.cif
#   From: 2010.06.25/outbox.cif.g09.slc.cpg/sg58_2_cif.got.tgz:2858.got - 2010.06.26 21:38:00.
