data_PCOD8237353
_publ_section_title
;
Structure prediction by ZEFSAII (Michael W. Deem and Ramdas Pophale) SiO2 
 PCOD8237353
Probable space group: P N N M
;
_chemical_formula_sum "Si O2"
_cell_formula_units_Z 56
_cell_length_a 11.476534
_cell_length_b 15.228190
_cell_length_c 15.863845
_cell_angle_alpha 90.000000
_cell_angle_beta 90.000000
_cell_angle_gamma 90.000000
_cell_volume 2772.474066
_symmetry_space_group_name_H-M "P N N M"
_symmetry_group_IT_number 58
_symmetry_cell_setting 'orthorhombic'
loop_
_space_group_symop_operation_xyz
x,y,z
-x,-y,z
1/2+x,1/2-y,1/2-z
1/2-x,1/2+y,1/2-z
-x,-y,-z
x,y,-z
1/2-x,1/2+y,1/2+z
1/2+x,1/2-y,1/2+z
loop_
_atom_site_type_symbol
_atom_site_label
_atom_site_fract_x
_atom_site_fract_y
_atom_site_fract_z
Si Si1 0.373492 0.818806 0.659487
Si Si2 0.774022 0.340307 0.326511
Si Si3 0.254549 0.993363 0.596164
Si Si4 0.856836 0.323690 0.140736
Si Si5 0.863721 0.006490 0.771203
Si Si6 0.497060 0.093015 0.093729
Si Si7 0.278959 0.835631 0.158058
O O1 0.299115 0.735681 0.625383
O O2 0.334416 0.909621 0.616476
O O3 0.506932 0.805167 0.634321
O O4 0.360227 0.816222 0.760251
O O5 0.806144 0.312625 0.233448
O O6 0.701606 0.430457 0.323366
O O7 0.899098 0.344265 0.369692
O O8 0.203739 0.984823 0.500000
O O9 0.156761 0.998851 0.669465
O O10 0.330809 0.082450 0.598882
O O11 0.783557 0.241863 0.103495
O O12 0.819930 0.097064 0.810841
O O13 0.000000 0.000000 0.787439
O O14 0.627189 0.130164 0.091662
O O15 0.500000 0.000000 0.144712
O O16 0.454455 0.074221 0.000000
#
# Coordination Sequence:
#
# PCOD8237353 Si02
#       7
#     8   8   8   8   8   8   8
#     4  10  20  35  60  86 117 157 199 242 282 338
#     4  10  20  36  60  89 118 149 198 242 289 346
#     4  10  23  39  56  86 121 160 199 235 292 353
#     4  10  20  35  60  86 117 157 199 242 282 338
#     4  10  20  37  64  89 116 150 191 249 298 349
#     4  11  22  38  62  87 117 153 191 241 298 351
#     4  10  20  36  60  89 118 149 198 242 289 346
#
# _framework density 20.198564999999999
#
# number of rings (size 3 to 8) (size 9 to 14) (size 15 to 20)
#    0.000    1.857    2.857    1.286    0.000    2.571 
#    2.571    0.000    0.000    3.429    0.000    0.000 
#    0.000    0.000    0.000    0.000    0.000    0.000 
#
# Total GULP energy -693788.169056 kJ/mol
# GULP energy per Si atom -12389.074447 kJ/mol
# Density = 2.015259 g / cm^3
# Si number density = 20.198565 Si / 1000 Ang^3
#
#
#
# Elastic Constant Matrix: (Units=GPa)
#
#
# Indices 1 2 3 4 5 6 
#
# 1 131.1558 49.8215 5.8785 0.0000 0.0000 0.0000
# 2 49.8215 139.1377 17.5860 0.0000 0.0000 0.0000
# 3 5.8785 17.5860 43.5464 0.0000 0.0000 0.0000
# 4 0.0000 0.0000 0.0000 -83.1453 0.0000 0.0000
# 5 0.0000 0.0000 0.0000 0.0000 5.2181 0.0000
# 6 0.0000 0.0000 0.0000 0.0000 0.0000 34.3866
#
#
#
# Elastic Compliance Matrix: (Units=1/GPa)
#
#
# Indices 1 2 3 4 5 6 
#
# 1 0.008825 -0.003171 0.000089 0.000000 0.000000 0.000000
# 2 -0.003171 0.008713 -0.003091 0.000000 0.000000 0.000000
# 3 0.000089 -0.003091 0.024200 0.000000 0.000000 0.000000
# 4 0.000000 0.000000 0.000000 -0.012027 0.000000 0.000000
# 5 0.000000 0.000000 0.000000 0.000000 0.191641 0.000000
# 6 0.000000 0.000000 0.000000 0.000000 0.000000 0.029081
#
#
# Mechanical properties :
#
#
# Convention : Reuss Voigt Hill
#
# Bulk Modulus (GPa) = 34.02141 51.15686 42.58913
# Shear Modulus (GPa) = 18.34345 7.32882 12.83613
#
# Velocity S-wave (km/s) = 3.01683 1.90690 2.52364
# Velocity P-wave (km/s) = 5.38656 5.49821 5.44267
#
# Compressibility (1/GPa) = 0.02939326
#
# Stress axis : x y z
#
# Youngs Moduli (GPa) = 113.31183 114.76643 41.32216
#
# Poissons Ratio (x) = 0.36397 -0.00369
# Poissons Ratio (y) = 0.35935 0.12772
# Poissons Ratio (z) = -0.01013 0.35471
#
# Static dielectric constant tensor:
#      x y z
#    x 3.674980 0.000000 0.000000 
#    y 0.000000 4.263760 0.000000 
#    z 0.000000 0.000000 3.416890 
# 
# 
# High freq. dielectric constant tensor:
#      x y z
#    x 1.788360 0.000000 0.000000 
#    y 0.000000 1.804140 0.000000 
#    z 0.000000 0.000000 1.763560 
# 
# From -- ./inp_files/21240.got.cif
#   From: 2010.06.25/outbox.cif.g09.slc.cpg/sg58_11_cif.got.tgz:21240.got - 2010.06.26 21:38:00.
