data_PCOD8237364
_publ_section_title
;
Structure prediction by ZEFSAII (Michael W. Deem and Ramdas Pophale) SiO2 
 PCOD8237364
Probable space group: P N N M
;
_chemical_formula_sum "Si O2"
_cell_formula_units_Z 40
_cell_length_a 22.013334
_cell_length_b 7.420984
_cell_length_c 11.141399
_cell_angle_alpha 90.000000
_cell_angle_beta 90.000000
_cell_angle_gamma 90.000000
_cell_volume 1820.065619
_symmetry_space_group_name_H-M "P N N M"
_symmetry_group_IT_number 58
_symmetry_cell_setting 'orthorhombic'
loop_
_space_group_symop_operation_xyz
x,y,z
-x,-y,z
1/2+x,1/2-y,1/2-z
1/2-x,1/2+y,1/2-z
-x,-y,-z
x,y,-z
1/2-x,1/2+y,1/2+z
1/2+x,1/2-y,1/2+z
loop_
_atom_site_type_symbol
_atom_site_label
_atom_site_fract_x
_atom_site_fract_y
_atom_site_fract_z
Si Si1 0.200532 0.342059 0.134669
Si Si2 0.555201 0.360300 0.129555
Si Si3 0.873037 0.323250 0.862545
Si Si4 0.322753 0.496304 0.210024
Si Si5 0.507972 0.286063 0.631720
O O1 0.152999 0.488620 0.188278
O O2 0.267762 0.427171 0.128905
O O3 0.199521 0.171718 0.220065
O O4 0.182240 0.283858 0.000000
O O5 0.500000 0.500000 0.136609
O O6 0.619436 0.461959 0.126644
O O7 0.551052 0.239387 0.252750
O O8 0.550191 0.255381 0.000000
O O9 0.945406 0.318003 0.844544
O O10 0.841032 0.154983 0.803398
O O11 0.854278 0.308914 0.000000
O O12 0.500000 0.500000 0.624423
O O13 0.534878 0.223962 0.500000
#
# Coordination Sequence:
#
# PCOD8237364 Si02
#       5
#     8   8   8   8   8
#     4  11  25  40  62  95 125 163 218 268 318 382
#     4  10  20  35  61  92 125 166 209 257 316 380
#     4  10  20  38  61  88 124 161 207 267 312 369
#     4  12  21  40  64  89 124 170 209 256 327 382
#     4   9  16  31  60  88 114 161 209 248 311 372
#
# _framework density 21.977228
#
# number of rings (size 3 to 8) (size 9 to 14) (size 15 to 20)
#    0.000    1.600    6.000    1.200    0.000    0.800 
#    0.000    1.000    0.000    4.800    0.000    0.000 
#    0.000    0.000    0.000    0.000    0.000    0.000 
#
# Total GULP energy -495636.174483 kJ/mol
# GULP energy per Si atom -12390.904362 kJ/mol
# Density = 2.192721 g / cm^3
# Si number density = 21.977228 Si / 1000 Ang^3
#
#
#
# Elastic Constant Matrix: (Units=GPa)
#
#
# Indices 1 2 3 4 5 6 
#
# 1 87.6382 6.8673 23.6083 0.0000 0.0000 0.0000
# 2 6.8673 54.9925 33.5618 0.0000 0.0000 0.0000
# 3 23.6083 33.5618 146.5332 0.0000 0.0000 0.0000
# 4 0.0000 0.0000 0.0000 29.1218 0.0000 0.0000
# 5 0.0000 0.0000 0.0000 0.0000 22.0220 0.0000
# 6 0.0000 0.0000 0.0000 0.0000 0.0000 30.7887
#
#
#
# Elastic Compliance Matrix: (Units=1/GPa)
#
#
# Indices 1 2 3 4 5 6 
#
# 1 0.011935 -0.000368 -0.001838 0.000000 0.000000 0.000000
# 2 -0.000368 0.021151 -0.004785 0.000000 0.000000 0.000000
# 3 -0.001838 -0.004785 0.008217 0.000000 0.000000 0.000000
# 4 0.000000 0.000000 0.000000 0.034339 0.000000 0.000000
# 5 0.000000 0.000000 0.000000 0.000000 0.045409 0.000000
# 6 0.000000 0.000000 0.000000 0.000000 0.000000 0.032479
#
#
# Mechanical properties :
#
#
# Convention : Reuss Voigt Hill
#
# Bulk Modulus (GPa) = 36.60562 46.35986 41.48274
# Shear Modulus (GPa) = 28.30962 31.39494 29.85228
#
# Velocity S-wave (km/s) = 3.59295 3.78368 3.68955
# Velocity P-wave (km/s) = 5.82278 6.34260 6.08824
#
# Compressibility (1/GPa) = 0.02731821
#
# Stress axis : x y z
#
# Youngs Moduli (GPa) = 83.78954 47.28005 121.70587
#
# Poissons Ratio (x) = 0.01742 0.22375
# Poissons Ratio (y) = 0.03087 0.58236
# Poissons Ratio (z) = 0.15404 0.22623
#
# Static dielectric constant tensor:
#      x y z
#    x 4.205930 0.000000 0.000000 
#    y 0.000000 3.777650 0.000000 
#    z 0.000000 0.000000 4.668740 
# 
# 
# High freq. dielectric constant tensor:
#      x y z
#    x 1.875200 0.000000 0.000000 
#    y 0.000000 1.837030 0.000000 
#    z 0.000000 0.000000 1.870390 
# 
# From -- ./inp_files/12894.got.cif
#   From: 2010.06.25/outbox.cif.g09.slc.cpg/sg58_7_cif.got.tgz:12894.got - 2010.06.26 21:38:00.
