data_PCOD8237015
_publ_section_title
;
Structure prediction by ZEFSAII (Michael W. Deem and Ramdas Pophale) SiO2 
 PCOD8237015
Probable space group: P N N M
;
_chemical_formula_sum "Si O2"
_cell_formula_units_Z 64
_cell_length_a 30.156978
_cell_length_b 14.290626
_cell_length_c 8.646728
_cell_angle_alpha 90.000000
_cell_angle_beta 90.000000
_cell_angle_gamma 90.000000
_cell_volume 3726.412004
_symmetry_space_group_name_H-M "P N N M"
_symmetry_group_IT_number 58
_symmetry_cell_setting 'orthorhombic'
loop_
_space_group_symop_operation_xyz
x,y,z
-x,-y,z
1/2+x,1/2-y,1/2-z
1/2-x,1/2+y,1/2-z
-x,-y,-z
x,y,-z
1/2-x,1/2+y,1/2+z
1/2+x,1/2-y,1/2+z
loop_
_atom_site_type_symbol
_atom_site_label
_atom_site_fract_x
_atom_site_fract_y
_atom_site_fract_z
Si Si1 0.213643 0.783266 0.816803
Si Si2 0.546226 0.095899 0.320303
Si Si3 0.696785 0.323453 0.177508
Si Si4 0.823574 0.510335 0.322401
Si Si5 0.368617 0.158456 0.679417
Si Si6 0.768284 0.020953 0.321773
Si Si7 0.636882 0.185107 0.321890
Si Si8 0.044991 0.605678 0.680975
O O1 0.257089 0.724712 0.765933
O O2 0.169713 0.728029 0.761984
O O3 0.210062 0.882021 0.730346
O O4 0.213547 0.798947 0.000000
O O5 0.543558 0.069335 0.500000
O O6 0.584596 0.172267 0.287237
O O7 0.499796 0.140193 0.265317
O O8 0.556425 0.001067 0.226912
O O9 0.697484 0.435473 0.199492
O O10 0.654655 0.288029 0.277426
O O11 0.688849 0.296953 0.000000
O O12 0.833903 0.485712 0.500000
O O13 0.853258 0.447284 0.210653
O O14 0.772298 0.494533 0.288113
O O15 0.834364 0.617526 0.286515
O O16 0.378130 0.171829 0.500000
O O17 0.414857 0.174500 0.769758
O O18 0.752529 0.027477 0.500000
O O19 0.647134 0.163552 0.500000
O O20 0.037201 0.611832 0.500000
#
# Coordination Sequence:
#
# PCOD8237015 Si02
#       8
#     8   8   8   8   8   8   8   8
#     4  10  21  36  53  75 103 136 176 216 255 305
#     4  10  20  34  51  72 104 140 172 209 258 309
#     4  10  21  36  52  74 104 137 174 214 256 302
#     4  12  22  31  49  74 104 138 175 216 255 300
#     4  11  21  36  53  72 104 141 176 213 259 308
#     4  11  22  37  53  72 103 139 176 217 259 303
#     4  11  22  34  52  76 102 138 178 212 253 308
#     4  11  21  32  50  77 105 134 173 213 255 308
#
# _framework density 17.174696999999998
#
# number of rings (size 3 to 8) (size 9 to 14) (size 15 to 20)
#    0.000    1.250    3.750    4.500    0.000    3.500 
#    0.000    0.000    0.000    0.000    0.000    0.875 
#    0.000    7.000    0.000    0.000    0.000    0.000 
#
# Total GULP energy -793679.545348 kJ/mol
# GULP energy per Si atom -12401.242896 kJ/mol
# Density = 1.713561 g / cm^3
# Si number density = 17.174697 Si / 1000 Ang^3
#
#
#
# Elastic Constant Matrix: (Units=GPa)
#
#
# Indices 1 2 3 4 5 6 
#
# 1 104.6403 29.4075 29.5609 0.0000 0.0000 0.0000
# 2 29.4075 71.7025 21.7690 0.0000 0.0000 0.0000
# 3 29.5609 21.7690 63.1973 0.0000 0.0000 0.0000
# 4 0.0000 0.0000 0.0000 24.5923 0.0000 0.0000
# 5 0.0000 0.0000 0.0000 0.0000 26.5597 0.0000
# 6 0.0000 0.0000 0.0000 0.0000 0.0000 27.1406
#
#
#
# Elastic Compliance Matrix: (Units=1/GPa)
#
#
# Indices 1 2 3 4 5 6 
#
# 1 0.011757 -0.003520 -0.004287 0.000000 0.000000 0.000000
# 2 -0.003520 0.016630 -0.004082 0.000000 0.000000 0.000000
# 3 -0.004287 -0.004082 0.019235 0.000000 0.000000 0.000000
# 4 0.000000 0.000000 0.000000 0.040663 0.000000 0.000000
# 5 0.000000 0.000000 0.000000 0.000000 0.037651 0.000000
# 6 0.000000 0.000000 0.000000 0.000000 0.000000 0.036845
#
#
# Mechanical properties :
#
#
# Convention : Reuss Voigt Hill
#
# Bulk Modulus (GPa) = 41.93995 44.55722 43.24859
# Shear Modulus (GPa) = 25.70622 26.24536 25.97579
#
# Velocity S-wave (km/s) = 3.87298 3.91339 3.89324
# Velocity P-wave (km/s) = 6.66878 6.81317 6.74136
#
# Compressibility (1/GPa) = 0.02384361
#
# Stress axis : x y z
#
# Youngs Moduli (GPa) = 85.05639 60.13407 51.98989
#
# Poissons Ratio (x) = 0.21170 0.22287
# Poissons Ratio (y) = 0.29944 0.21220
# Poissons Ratio (z) = 0.36461 0.24544
#
# Static dielectric constant tensor:
#      x y z
#    x 3.343730 0.000000 0.000000 
#    y 0.000000 3.019730 0.000000 
#    z 0.000000 0.000000 3.218590 
# 
# 
# High freq. dielectric constant tensor:
#      x y z
#    x 1.657900 0.000000 0.000000 
#    y 0.000000 1.627830 0.000000 
#    z 0.000000 0.000000 1.673930 
# 
# From -- ./inp_files/11151.got.cif
#   From: 2010.06.25/outbox.cif.g09.slc.cpg/sg58_6_cif.got.tgz:11151.got - 2010.06.26 21:38:00.
