data_PCOD8237282
_publ_section_title
;
Structure prediction by ZEFSAII (Michael W. Deem and Ramdas Pophale) SiO2 
 PCOD8237282
Probable space group: P N N M
;
_chemical_formula_sum "Si O2"
_cell_formula_units_Z 40
_cell_length_a 9.340826
_cell_length_b 25.150641
_cell_length_c 9.013113
_cell_angle_alpha 90.000000
_cell_angle_beta 90.000000
_cell_angle_gamma 90.000000
_cell_volume 2117.430460
_symmetry_space_group_name_H-M "P N N M"
_symmetry_group_IT_number 58
_symmetry_cell_setting 'orthorhombic'
loop_
_space_group_symop_operation_xyz
x,y,z
-x,-y,z
1/2+x,1/2-y,1/2-z
1/2-x,1/2+y,1/2-z
-x,-y,-z
x,y,-z
1/2-x,1/2+y,1/2+z
1/2+x,1/2-y,1/2+z
loop_
_atom_site_type_symbol
_atom_site_label
_atom_site_fract_x
_atom_site_fract_y
_atom_site_fract_z
Si Si1 0.835176 0.506846 0.174112
Si Si2 0.889409 0.213000 0.170395
Si Si3 0.323331 0.693184 0.826871
Si Si4 0.327122 0.404693 0.330455
Si Si5 0.657798 0.414773 0.674032
O O1 0.782769 0.565135 0.223233
O O2 0.739420 0.464221 0.257999
O O3 0.000000 0.500000 0.219881
O O4 0.813387 0.499638 0.000000
O O5 0.791812 0.262327 0.213724
O O6 0.802915 0.158097 0.195269
O O7 0.024647 0.215729 0.276940
O O8 0.942325 0.215295 0.000000
O O9 0.279980 0.639451 0.742491
O O10 0.327633 0.680650 0.000000
O O11 0.294686 0.420887 0.500000
O O12 0.489902 0.420248 0.289112
O O13 0.685314 0.413084 0.500000
#
# Coordination Sequence:
#
# PCOD8237282 Si02
#       5
#     8   8   8   8   8
#     4  11  24  38  53  80 113 141 176 224 274 322
#     4   9  20  37  55  80 113 144 179 223 267 317
#     4  10  20  35  57  84 112 144 183 224 267 317
#     4   9  19  37  58  79 105 141 183 222 265 321
#     4  10  21  38  59  81 107 142 183 224 269 324
#
# _framework density 18.890820999999999
#
# number of rings (size 3 to 8) (size 9 to 14) (size 15 to 20)
#    0.000    2.200    0.000    3.600    0.000   11.200 
#    0.000    4.000    0.000    0.000    0.000    0.000 
#    0.000    0.000    0.000    0.000    0.000    0.000 
#
# Total GULP energy -496138.119335 kJ/mol
# GULP energy per Si atom -12403.452983 kJ/mol
# Density = 1.884783 g / cm^3
# Si number density = 18.890821 Si / 1000 Ang^3
#
#
#
# Elastic Constant Matrix: (Units=GPa)
#
#
# Indices 1 2 3 4 5 6 
#
# 1 11.5126 -16.9336 9.8029 0.0000 0.0000 0.0000
# 2 -16.9336 31.9951 9.3051 0.0000 0.0000 0.0000
# 3 9.8029 9.3051 57.1196 0.0000 0.0000 0.0000
# 4 0.0000 0.0000 0.0000 37.2663 0.0000 0.0000
# 5 0.0000 0.0000 0.0000 0.0000 25.2044 0.0000
# 6 0.0000 0.0000 0.0000 0.0000 0.0000 31.0821
#
#
#
# Elastic Compliance Matrix: (Units=1/GPa)
#
#
# Indices 1 2 3 4 5 6 
#
# 1 -0.696490 -0.423446 0.188514 0.000000 0.000000 0.000000
# 2 -0.423446 -0.224634 0.109266 0.000000 0.000000 0.000000
# 3 0.188514 0.109266 -0.032646 0.000000 0.000000 0.000000
# 4 0.000000 0.000000 0.000000 0.026834 0.000000 0.000000
# 5 0.000000 0.000000 0.000000 0.000000 0.039676 0.000000
# 6 0.000000 0.000000 0.000000 0.000000 0.000000 0.032173
#
#
# Mechanical properties :
#
#
# Convention : Reuss Voigt Hill
#
# Bulk Modulus (GPa) = -0.82980 11.66402 5.41711
# Shear Modulus (GPa) = -4.97287 25.27408 10.15060
#
# Velocity S-wave (km/s) = -1.62424 3.66170 2.32055
# Velocity P-wave (km/s) = 1.98941 4.90564 3.17077
#
# Compressibility (1/GPa) = -1.20510245
#
# Stress axis : x y z
#
# Youngs Moduli (GPa) = -1.43577 -4.45168 -30.63188
#
# Poissons Ratio (x) = -1.88505 5.77453
# Poissons Ratio (y) = -0.60797 3.34703
# Poissons Ratio (z) = 0.27066 0.48642
#
# Static dielectric constant tensor:
#      x y z
#    x 3.353300 0.000000 0.000000 
#    y 0.000000 3.617250 0.000000 
#    z 0.000000 0.000000 3.501530 
# 
# 
# High freq. dielectric constant tensor:
#      x y z
#    x 1.722110 0.000000 0.000000 
#    y 0.000000 1.748390 0.000000 
#    z 0.000000 0.000000 1.741510 
# 
# From -- ./inp_files/2395.got.cif
#   From: 2010.06.25/outbox.cif.g09.slc.cpg/sg58_2_cif.got.tgz:2395.got - 2010.06.26 21:38:00.
