data_PCOD8237185
_publ_section_title
;
Structure prediction by ZEFSAII (Michael W. Deem and Ramdas Pophale) SiO2 
 PCOD8237185
Probable space group: P N N M
;
_chemical_formula_sum "Si O2"
_cell_formula_units_Z 64
_cell_length_a 20.666237
_cell_length_b 19.447402
_cell_length_c 8.708881
_cell_angle_alpha 90.000000
_cell_angle_beta 90.000000
_cell_angle_gamma 90.000000
_cell_volume 3500.139498
_symmetry_space_group_name_H-M "P N N M"
_symmetry_group_IT_number 58
_symmetry_cell_setting 'orthorhombic'
loop_
_space_group_symop_operation_xyz
x,y,z
-x,-y,z
1/2+x,1/2-y,1/2-z
1/2-x,1/2+y,1/2-z
-x,-y,-z
x,y,-z
1/2-x,1/2+y,1/2+z
1/2+x,1/2-y,1/2+z
loop_
_atom_site_type_symbol
_atom_site_label
_atom_site_fract_x
_atom_site_fract_y
_atom_site_fract_z
Si Si1 0.687376 0.203331 0.679045
Si Si2 0.769176 0.567384 0.681234
Si Si3 0.574414 0.287102 0.177982
Si Si4 0.811279 0.293498 0.681766
Si Si5 0.429562 0.296764 0.821823
Si Si6 0.124205 0.081136 0.821204
Si Si7 0.122732 0.927023 0.822498
Si Si8 0.235812 0.573346 0.180829
O O1 0.690455 0.186399 0.500000
O O2 0.687383 0.132138 0.772219
O O3 0.620742 0.241260 0.717575
O O4 0.747518 0.250720 0.729022
O O5 0.772213 0.554365 0.500000
O O6 0.695999 0.581286 0.739156
O O7 0.795380 0.499203 0.767087
O O8 0.500372 0.265840 0.213669
O O9 0.581858 0.367179 0.220444
O O10 0.591863 0.276162 0.000000
O O11 0.814140 0.306719 0.500000
O O12 0.874155 0.253013 0.745286
O O13 0.812591 0.365616 0.771623
O O14 0.424844 0.373709 0.757243
O O15 0.417277 0.304094 0.000000
O O16 0.198696 0.086612 0.774136
O O17 0.097661 0.004332 0.790523
O O18 0.119171 0.101110 0.000000
O O19 0.121754 0.909655 0.000000
O O20 0.249097 0.573762 0.000000
#
# Coordination Sequence:
#
# PCOD8237185 Si02
#       8
#     8   8   8   8   8   8   8   8
#     4  11  21  35  59  84 110 144 184 230 277 323
#     4  10  20  35  56  83 115 145 180 226 276 328
#     4  11  23  37  54  79 110 147 187 226 274 328
#     4  10  20  36  57  81 110 144 184 227 276 326
#     4  10  22  38  55  77 109 147 185 226 272 328
#     4  10  20  35  52  76 110 149 187 225 272 323
#     4   9  19  33  52  77 107 144 184 223 266 318
#     4  11  21  33  55  85 113 142 182 228 276 327
#
# _framework density 18.284984999999999
#
# number of rings (size 3 to 8) (size 9 to 14) (size 15 to 20)
#    0.000    1.750    2.500    3.375    0.000    5.000 
#    0.000    2.500    0.000    0.750    0.000    5.250 
#    0.000    0.000    0.000    0.000    0.000    0.000 
#
# Total GULP energy -793767.788004 kJ/mol
# GULP energy per Si atom -12402.621688 kJ/mol
# Density = 1.824337 g / cm^3
# Si number density = 18.284985 Si / 1000 Ang^3
#
#
#
# Elastic Constant Matrix: (Units=GPa)
#
#
# Indices 1 2 3 4 5 6 
#
# 1 77.1653 39.9833 22.2099 0.0000 0.0000 0.0000
# 2 39.9833 109.9424 26.6812 0.0000 0.0000 0.0000
# 3 22.2099 26.6812 42.0961 0.0000 0.0000 0.0000
# 4 0.0000 0.0000 0.0000 34.9566 0.0000 0.0000
# 5 0.0000 0.0000 0.0000 0.0000 22.3652 0.0000
# 6 0.0000 0.0000 0.0000 0.0000 0.0000 23.4540
#
#
#
# Elastic Compliance Matrix: (Units=1/GPa)
#
#
# Indices 1 2 3 4 5 6 
#
# 1 0.017172 -0.004782 -0.006029 0.000000 0.000000 0.000000
# 2 -0.004782 0.012081 -0.005134 0.000000 0.000000 0.000000
# 3 -0.006029 -0.005134 0.030190 0.000000 0.000000 0.000000
# 4 0.000000 0.000000 0.000000 0.028607 0.000000 0.000000
# 5 0.000000 0.000000 0.000000 0.000000 0.044712 0.000000
# 6 0.000000 0.000000 0.000000 0.000000 0.000000 0.042637
#
#
# Mechanical properties :
#
#
# Convention : Reuss Voigt Hill
#
# Bulk Modulus (GPa) = 36.29387 45.21697 40.75542
# Shear Modulus (GPa) = 23.09749 25.51044 24.30397
#
# Velocity S-wave (km/s) = 3.55800 3.73923 3.64974
# Velocity P-wave (km/s) = 6.06393 6.58978 6.33232
#
# Compressibility (1/GPa) = 0.02755286
#
# Stress axis : x y z
#
# Youngs Moduli (GPa) = 58.23322 82.77682 33.12332
#
# Poissons Ratio (x) = 0.39583 0.19971
# Poissons Ratio (y) = 0.27847 0.17005
# Poissons Ratio (z) = 0.35110 0.42497
#
# Static dielectric constant tensor:
#      x y z
#    x 3.199630 0.000000 0.000000 
#    y 0.000000 3.549910 0.000000 
#    z 0.000000 0.000000 3.300500 
# 
# 
# High freq. dielectric constant tensor:
#      x y z
#    x 1.679400 0.000000 0.000000 
#    y 0.000000 1.712930 0.000000 
#    z 0.000000 0.000000 1.713130 
# 
# From -- ./inp_files/9321.got.cif
#   From: 2010.06.25/outbox.cif.g09.slc.cpg/sg58_5_cif.got.tgz:9321.got - 2010.06.26 21:38:00.
