data_PCOD8237416
_publ_section_title
;
Structure prediction by ZEFSAII (Michael W. Deem and Ramdas Pophale) SiO2 
 PCOD8237416
Probable space group: P N N M
;
_chemical_formula_sum "Si O2"
_cell_formula_units_Z 64
_cell_length_a 29.554766
_cell_length_b 12.080433
_cell_length_c 9.043180
_cell_angle_alpha 90.000000
_cell_angle_beta 90.000000
_cell_angle_gamma 90.000000
_cell_volume 3228.726079
_symmetry_space_group_name_H-M "P N N M"
_symmetry_group_IT_number 58
_symmetry_cell_setting 'orthorhombic'
loop_
_space_group_symop_operation_xyz
x,y,z
-x,-y,z
1/2+x,1/2-y,1/2-z
1/2-x,1/2+y,1/2-z
-x,-y,-z
x,y,-z
1/2-x,1/2+y,1/2+z
1/2+x,1/2-y,1/2+z
loop_
_atom_site_type_symbol
_atom_site_label
_atom_site_fract_x
_atom_site_fract_y
_atom_site_fract_z
Si Si1 0.612917 0.831486 0.173784
Si Si2 0.817441 0.513525 0.325250
Si Si3 0.661921 0.256790 0.175833
Si Si4 0.720774 0.444579 0.673138
Si Si5 0.436302 0.482875 0.335346
Si Si6 0.525334 0.757604 0.670980
Si Si7 0.559879 0.300190 0.173252
Si Si8 0.154899 0.867824 0.166377
O O1 0.564638 0.831050 0.254940
O O2 0.645653 0.730404 0.219563
O O3 0.638254 0.944099 0.220287
O O4 0.604338 0.823478 0.000000
O O5 0.813480 0.520751 0.500000
O O6 0.821706 0.637833 0.262635
O O7 0.772238 0.451901 0.266951
O O8 0.694656 0.350025 0.239312
O O9 0.610172 0.271389 0.229387
O O10 0.664214 0.264675 0.000000
O O11 0.717625 0.415991 0.500000
O O12 0.700883 0.567603 0.704257
O O13 0.447962 0.527708 0.500000
O O14 0.463181 0.370753 0.303986
O O15 0.451081 0.573128 0.215859
O O16 0.383159 0.461942 0.320908
O O17 0.523060 0.790462 0.500000
O O18 0.476769 0.780116 0.747325
O O19 0.554492 0.283150 0.000000
O O20 0.155164 0.817831 0.000000
#
# Coordination Sequence:
#
# PCOD8237416 Si02
#       8
#     8   8   8   8   8   8   8   8
#     4  10  20  36  58  82 112 148 192 240 280 330
#     4   9  21  40  60  82 114 154 191 234 287 340
#     4  10  22  40  59  84 118 152 190 236 288 340
#     4  10  20  37  60  84 112 150 191 229 281 343
#     4   9  17  31  49  74 110 149 181 219 277 340
#     4  10  21  36  55  79 111 152 191 230 287 349
#     4  11  21  32  52  82 112 146 189 238 285 334
#     4   9  18  32  53  81 114 150 183 224 281 339
#
# _framework density 19.82206
#
# number of rings (size 3 to 8) (size 9 to 14) (size 15 to 20)
#    0.000    2.250    1.250    2.250    1.750    5.000 
#    0.000    3.125    0.000    3.750    0.000    0.000 
#    0.000    0.000    0.000    0.000    0.000    0.000 
#
# Total GULP energy -793504.694087 kJ/mol
# GULP energy per Si atom -12398.510845 kJ/mol
# Density = 1.977694 g / cm^3
# Si number density = 19.822060 Si / 1000 Ang^3
#
#
#
# Elastic Constant Matrix: (Units=GPa)
#
#
# Indices 1 2 3 4 5 6 
#
# 1 127.1606 32.6640 37.3473 0.0000 0.0000 0.0000
# 2 32.6640 61.9099 20.4456 0.0000 0.0000 0.0000
# 3 37.3473 20.4456 61.8166 0.0000 0.0000 0.0000
# 4 0.0000 0.0000 0.0000 17.1051 0.0000 0.0000
# 5 0.0000 0.0000 0.0000 0.0000 24.5560 0.0000
# 6 0.0000 0.0000 0.0000 0.0000 0.0000 14.5140
#
#
#
# Elastic Compliance Matrix: (Units=1/GPa)
#
#
# Indices 1 2 3 4 5 6 
#
# 1 0.010297 -0.003793 -0.004967 0.000000 0.000000 0.000000
# 2 -0.003793 0.019530 -0.004168 0.000000 0.000000 0.000000
# 3 -0.004967 -0.004168 0.020556 0.000000 0.000000 0.000000
# 4 0.000000 0.000000 0.000000 0.058462 0.000000 0.000000
# 5 0.000000 0.000000 0.000000 0.000000 0.040723 0.000000
# 6 0.000000 0.000000 0.000000 0.000000 0.000000 0.068899
#
#
# Mechanical properties :
#
#
# Convention : Reuss Voigt Hill
#
# Bulk Modulus (GPa) = 40.76907 47.97788 44.37348
# Shear Modulus (GPa) = 19.80213 21.93038 20.86626
#
# Velocity S-wave (km/s) = 3.16412 3.32981 3.24802
# Velocity P-wave (km/s) = 5.82761 6.24823 6.04158
#
# Compressibility (1/GPa) = 0.02452840
#
# Stress axis : x y z
#
# Youngs Moduli (GPa) = 97.11581 51.20334 48.64716
#
# Poissons Ratio (x) = 0.19419 0.24162
# Poissons Ratio (y) = 0.36831 0.20277
# Poissons Ratio (z) = 0.48235 0.21342
#
# Static dielectric constant tensor:
#      x y z
#    x 3.935210 0.000000 0.000000 
#    y 0.000000 3.400490 0.000000 
#    z 0.000000 0.000000 3.441310 
# 
# 
# High freq. dielectric constant tensor:
#      x y z
#    x 1.790780 0.000000 0.000000 
#    y 0.000000 1.749390 0.000000 
#    z 0.000000 0.000000 1.755890 
# 
# From -- ./inp_files/10964.got.cif
#   From: 2010.06.25/outbox.cif.g09.slc.cpg/sg58_6_cif.got.tgz:10964.got - 2010.06.26 21:38:00.
