data_PCOD8237646
_publ_section_title
;
Structure prediction by ZEFSAII (Michael W. Deem and Ramdas Pophale) SiO2 
 PCOD8237646
Probable space group: P N N M
;
_chemical_formula_sum "Si O2"
_cell_formula_units_Z 64
_cell_length_a 16.322467
_cell_length_b 13.423493
_cell_length_c 14.388891
_cell_angle_alpha 90.000000
_cell_angle_beta 90.000000
_cell_angle_gamma 90.000000
_cell_volume 3152.671078
_symmetry_space_group_name_H-M "P N N M"
_symmetry_group_IT_number 58
_symmetry_cell_setting 'orthorhombic'
loop_
_space_group_symop_operation_xyz
x,y,z
-x,-y,z
1/2+x,1/2-y,1/2-z
1/2-x,1/2+y,1/2-z
-x,-y,-z
x,y,-z
1/2-x,1/2+y,1/2+z
1/2+x,1/2-y,1/2+z
loop_
_atom_site_type_symbol
_atom_site_label
_atom_site_fract_x
_atom_site_fract_y
_atom_site_fract_z
Si Si1 0.165981 0.615308 0.214049
Si Si2 0.995244 0.881619 0.392646
Si Si3 0.071809 0.807688 0.215556
Si Si4 0.085143 0.218893 0.891984
Si Si5 0.252230 0.111830 0.102876
Si Si6 0.684103 0.305677 0.893156
Si Si7 0.216283 0.882531 0.897570
Si Si8 0.412321 0.949419 0.395533
O O1 0.096145 0.694698 0.187052
O O2 0.175501 0.632200 0.324549
O O3 0.253036 0.629695 0.165746
O O4 0.140743 0.505186 0.182580
O O5 0.016178 0.856306 0.500000
O O6 0.907810 0.834279 0.363223
O O7 0.061810 0.828643 0.325743
O O8 0.000000 0.000000 0.376134
O O9 0.145032 0.876303 0.178538
O O10 0.987331 0.834939 0.164245
O O11 0.169668 0.166433 0.863129
O O12 0.087398 0.334867 0.864907
O O13 0.066702 0.203216 0.000000
O O14 0.244942 0.994285 0.101261
O O15 0.276571 0.151156 0.000000
O O16 0.705733 0.189007 0.874698
O O17 0.696160 0.335279 0.000000
O O18 0.181931 0.852449 0.000000
O O19 0.374827 0.959615 0.500000
O O20 0.500000 0.000000 0.395303
#
# Coordination Sequence:
#
# PCOD8237646 Si02
#       8
#     8   8   8   8   8   8   8   8
#     4  11  22  36  59  87 117 153 200 245 297 368
#     4  10  23  41  59  84 122 163 206 253 306 366
#     4  11  22  34  59  89 114 154 194 249 305 362
#     4  10  21  38  60  89 124 154 195 255 312 362
#     4  10  23  40  56  81 119 159 199 245 296 357
#     4   9  19  38  61  84 112 151 197 246 293 355
#     4   9  20  38  60  86 114 152 198 244 299 361
#     4  10  20  37  61  90 122 156 194 249 313 368
#
# _framework density 20.300246000000001
#
# number of rings (size 3 to 8) (size 9 to 14) (size 15 to 20)
#    0.000    2.000    1.250    1.500    3.500    4.500 
#    0.000    1.875    0.000    0.375    0.000    0.000 
#    0.000    0.000    0.000    0.000    0.000    0.000 
#
# Total GULP energy -793382.260539 kJ/mol
# GULP energy per Si atom -12396.597821 kJ/mol
# Density = 2.025404 g / cm^3
# Si number density = 20.300246 Si / 1000 Ang^3
#
#
#
# Elastic Constant Matrix: (Units=GPa)
#
#
# Indices 1 2 3 4 5 6 
#
# 1 67.7565 18.7989 43.3904 0.0000 0.0000 0.0000
# 2 18.7989 67.8530 3.2162 0.0000 0.0000 0.0000
# 3 43.3904 3.2162 80.4274 0.0000 0.0000 0.0000
# 4 0.0000 0.0000 0.0000 -707.4180 0.0000 0.0000
# 5 0.0000 0.0000 0.0000 0.0000 41.5917 0.0000
# 6 0.0000 0.0000 0.0000 0.0000 0.0000 25.6188
#
#
#
# Elastic Compliance Matrix: (Units=1/GPa)
#
#
# Indices 1 2 3 4 5 6 
#
# 1 0.024970 -0.006291 -0.013220 0.000000 0.000000 0.000000
# 2 -0.006291 0.016351 0.002740 0.000000 0.000000 0.000000
# 3 -0.013220 0.002740 0.019456 0.000000 0.000000 0.000000
# 4 0.000000 0.000000 0.000000 -0.001414 0.000000 0.000000
# 5 0.000000 0.000000 0.000000 0.000000 0.024043 0.000000
# 6 0.000000 0.000000 0.000000 0.000000 0.000000 0.039034
#
#
# Mechanical properties :
#
#
# Convention : Reuss Voigt Hill
#
# Bulk Modulus (GPa) = 36.71691 38.53867 37.62779
# Shear Modulus (GPa) = 30.29197 -117.99940 -43.85371
#
# Velocity S-wave (km/s) = 3.86709 -7.63238 -4.65290
# Velocity P-wave (km/s) = 6.16971 7.65803 3.20781
#
# Compressibility (1/GPa) = 0.02723541
#
# Stress axis : x y z
#
# Youngs Moduli (GPa) = 40.04811 61.15862 51.39812
#
# Poissons Ratio (x) = 0.38477 0.67947
# Poissons Ratio (y) = 0.25196 -0.14085
# Poissons Ratio (z) = 0.52942 -0.16760
#
# Static dielectric constant tensor:
#      x y z
#    x 3.474540 0.000000 0.000000 
#    y 0.000000 3.619090 0.000000 
#    z 0.000000 0.000000 4.064310 
# 
# 
# High freq. dielectric constant tensor:
#      x y z
#    x 1.775370 0.000000 0.000000 
#    y 0.000000 1.790790 0.000000 
#    z 0.000000 0.000000 1.804570 
# 
# From -- ./inp_files/22950.got.cif
#   From: 2010.06.25/outbox.cif.g09.slc.cpg/sg58_12_cif.got.tgz:22950.got - 2010.06.26 21:38:00.
