data_PCOD8237851
_publ_section_title
;
Structure prediction by ZEFSAII (Michael W. Deem and Ramdas Pophale) SiO2 
 PCOD8237851
Probable space group: P N N M
;
_chemical_formula_sum "Si O2"
_cell_formula_units_Z 28
_cell_length_a 5.176744
_cell_length_b 11.005655
_cell_length_c 22.708271
_cell_angle_alpha 90.000000
_cell_angle_beta 90.000000
_cell_angle_gamma 90.000000
_cell_volume 1293.768735
_symmetry_space_group_name_H-M "P N N M"
_symmetry_group_IT_number 58
_symmetry_cell_setting 'orthorhombic'
loop_
_space_group_symop_operation_xyz
x,y,z
-x,-y,z
1/2+x,1/2-y,1/2-z
1/2-x,1/2+y,1/2-z
-x,-y,-z
x,y,-z
1/2-x,1/2+y,1/2+z
1/2+x,1/2-y,1/2+z
loop_
_atom_site_type_symbol
_atom_site_label
_atom_site_fract_x
_atom_site_fract_y
_atom_site_fract_z
Si Si1 0.161524 0.862050 0.689352
Si Si2 0.668601 0.831112 0.374021
Si Si3 0.251532 0.081583 0.500000
Si Si4 0.890835 0.622569 0.310623
O O1 0.382838 0.881644 0.639406
O O2 0.125716 0.716803 0.702788
O O3 0.246649 0.920840 0.750830
O O4 0.882439 0.910730 0.664014
O O5 0.739277 0.834210 0.442486
O O6 0.691207 0.689435 0.354953
O O7 0.500000 0.000000 0.500000
O O8 0.000000 0.000000 0.500000
O O9 0.000000 0.500000 0.340537
#
# Coordination Sequence:
#
# PCOD8237851 Si02
#       4
#     8   8   4   8
#     4  10  20  40  60  94 129 153 208 259 302 392
#     4  10  22  42  57  92 126 156 214 262 295 389
#     4  12  26  44  69  89 123 175 214 266 323 365
#     4  10  21  39  64  89 128 166 196 259 324 365
#
# _framework density 21.642199999999999
#
# number of rings (size 3 to 8) (size 9 to 14) (size 15 to 20)
#    1.714    0.000    2.857    1.714    0.000    4.571 
#    0.000    0.714    0.000    1.714    0.000    0.000 
#    0.000    0.000    0.000    0.000    0.000    0.000 
#
# Total GULP energy -347077.353101 kJ/mol
# GULP energy per Si atom -12395.619754 kJ/mol
# Density = 2.159294 g / cm^3
# Si number density = 21.642200 Si / 1000 Ang^3
#
#
#
# Elastic Constant Matrix: (Units=GPa)
#
#
# Indices 1 2 3 4 5 6 
#
# 1 155.8416 29.9466 47.1971 0.0000 0.0000 0.0000
# 2 29.9466 33.0419 9.7613 0.0000 0.0000 0.0000
# 3 47.1971 9.7613 158.9098 0.0000 0.0000 0.0000
# 4 0.0000 0.0000 0.0000 23.3763 0.0000 0.0000
# 5 0.0000 0.0000 0.0000 0.0000 32.2855 0.0000
# 6 0.0000 0.0000 0.0000 0.0000 0.0000 36.0903
#
#
#
# Elastic Compliance Matrix: (Units=1/GPa)
#
#
# Indices 1 2 3 4 5 6 
#
# 1 0.008384 -0.006990 -0.002061 0.000000 0.000000 0.000000
# 2 -0.006990 0.036651 -0.000175 0.000000 0.000000 0.000000
# 3 -0.002061 -0.000175 0.006916 0.000000 0.000000 0.000000
# 4 0.000000 0.000000 0.000000 0.042778 0.000000 0.000000
# 5 0.000000 0.000000 0.000000 0.000000 0.030974 0.000000
# 6 0.000000 0.000000 0.000000 0.000000 0.000000 0.027708
#
#
# Mechanical properties :
#
#
# Convention : Reuss Voigt Hill
#
# Bulk Modulus (GPa) = 29.85140 57.95593 43.90367
# Shear Modulus (GPa) = 27.31797 35.74298 31.53047
#
# Velocity S-wave (km/s) = 3.55668 4.06832 3.82107
# Velocity P-wave (km/s) = 5.53983 6.99325 6.30854
#
# Compressibility (1/GPa) = 0.03349926
#
# Stress axis : x y z
#
# Youngs Moduli (GPa) = 119.27422 27.28410 144.59845
#
# Poissons Ratio (x) = 0.19071 0.29798
# Poissons Ratio (y) = 0.83371 0.02536
# Poissons Ratio (z) = 0.24579 0.00478
#
# Static dielectric constant tensor:
#      x y z
#    x 4.003970 0.000000 0.000000 
#    y 0.000000 3.798470 0.000000 
#    z 0.000000 0.000000 3.963520 
# 
# 
# High freq. dielectric constant tensor:
#      x y z
#    x 1.866790 0.000000 0.000000 
#    y 0.000000 1.848540 0.000000 
#    z 0.000000 0.000000 1.818240 
# 
# From -- ./inp_files/30728.got.cif
#   From: 2010.06.25/outbox.cif.g09.slc.cpg/sg58_16_cif.got.tgz:30728.got - 2010.06.26 21:38:00.
