data_PCOD8237436
_publ_section_title
;
Structure prediction by ZEFSAII (Michael W. Deem and Ramdas Pophale) SiO2 
 PCOD8237436
Probable space group: P N N M
;
_chemical_formula_sum "Si O2"
_cell_formula_units_Z 64
_cell_length_a 15.059106
_cell_length_b 24.489069
_cell_length_c 8.698961
_cell_angle_alpha 90.000000
_cell_angle_beta 90.000000
_cell_angle_gamma 90.000000
_cell_volume 3208.033161
_symmetry_space_group_name_H-M "P N N M"
_symmetry_group_IT_number 58
_symmetry_cell_setting 'orthorhombic'
loop_
_space_group_symop_operation_xyz
x,y,z
-x,-y,z
1/2+x,1/2-y,1/2-z
1/2-x,1/2+y,1/2-z
-x,-y,-z
x,y,-z
1/2-x,1/2+y,1/2+z
1/2+x,1/2-y,1/2+z
loop_
_atom_site_type_symbol
_atom_site_label
_atom_site_fract_x
_atom_site_fract_y
_atom_site_fract_z
Si Si1 0.509146 0.606197 0.322307
Si Si2 0.266597 0.256385 0.174523
Si Si3 0.982128 0.337543 0.677321
Si Si4 0.822710 0.946719 0.820749
Si Si5 0.465654 0.284620 0.826504
Si Si6 0.822112 0.645326 0.677071
Si Si7 0.198648 0.642600 0.179176
Si Si8 0.686892 0.562586 0.179255
O O1 0.533996 0.599848 0.500000
O O2 0.421762 0.572508 0.279829
O O3 0.491703 0.669759 0.283559
O O4 0.589306 0.582970 0.222602
O O5 0.359356 0.288476 0.185492
O O6 0.193005 0.298410 0.232478
O O7 0.266872 0.202880 0.279934
O O8 0.246287 0.238502 0.000000
O O9 0.949517 0.337323 0.500000
O O10 0.997869 0.274795 0.728891
O O11 0.905432 0.364622 0.779768
O O12 0.073950 0.370345 0.698978
O O13 0.752898 0.900483 0.778105
O O14 0.800824 0.999761 0.722045
O O15 0.814315 0.960713 0.000000
O O16 0.497681 0.296347 0.000000
O O17 0.799417 0.656197 0.500000
O O18 0.763661 0.595675 0.735674
O O19 0.213208 0.631558 0.000000
O O20 0.700902 0.571240 0.000000
#
# Coordination Sequence:
#
# PCOD8237436 Si02
#       8
#     8   8   8   8   8   8   8   8
#     4  11  23  38  60  90 122 160 204 250 304 365
#     4  10  20  36  58  87 124 163 199 246 303 359
#     4   9  21  40  61  88 125 164 202 250 308 363
#     4  11  25  44  64  88 120 161 207 259 309 364
#     4   9  18  34  56  85 122 160 196 241 297 358
#     4  11  22  38  63  93 123 162 207 253 305 365
#     4  11  23  40  63  91 123 161 205 254 307 366
#     4  12  25  42  63  90 124 163 204 254 307 364
#
# _framework density 19.949919000000001
#
# number of rings (size 3 to 8) (size 9 to 14) (size 15 to 20)
#    0.000    1.500    1.250    4.875    1.750    6.500 
#    0.000    0.625    0.000    3.750    0.000    0.000 
#    0.000    0.000    0.000    0.000    0.000    0.000 
#
# Total GULP energy -793896.457556 kJ/mol
# GULP energy per Si atom -12404.632149 kJ/mol
# Density = 1.990451 g / cm^3
# Si number density = 19.949919 Si / 1000 Ang^3
#
#
#
# Elastic Constant Matrix: (Units=GPa)
#
#
# Indices 1 2 3 4 5 6 
#
# 1 75.0996 33.3295 26.9316 0.0000 0.0000 0.0000
# 2 33.3295 68.6136 4.9299 0.0000 0.0000 0.0000
# 3 26.9316 4.9299 61.2188 0.0000 0.0000 0.0000
# 4 0.0000 0.0000 0.0000 34.9359 0.0000 0.0000
# 5 0.0000 0.0000 0.0000 0.0000 25.1480 0.0000
# 6 0.0000 0.0000 0.0000 0.0000 0.0000 24.4645
#
#
#
# Elastic Compliance Matrix: (Units=1/GPa)
#
#
# Indices 1 2 3 4 5 6 
#
# 1 0.020401 -0.009319 -0.008224 0.000000 0.000000 0.000000
# 2 -0.009319 0.018916 0.002576 0.000000 0.000000 0.000000
# 3 -0.008224 0.002576 0.019745 0.000000 0.000000 0.000000
# 4 0.000000 0.000000 0.000000 0.028624 0.000000 0.000000
# 5 0.000000 0.000000 0.000000 0.000000 0.039765 0.000000
# 6 0.000000 0.000000 0.000000 0.000000 0.000000 0.040876
#
#
# Mechanical properties :
#
#
# Convention : Reuss Voigt Hill
#
# Bulk Modulus (GPa) = 34.33077 37.25709 35.79393
# Shear Modulus (GPa) = 24.04201 26.22576 25.13389
#
# Velocity S-wave (km/s) = 3.47525 3.62965 3.55329
# Velocity P-wave (km/s) = 5.77486 6.02342 5.90045
#
# Compressibility (1/GPa) = 0.02912839
#
# Stress axis : x y z
#
# Youngs Moduli (GPa) = 49.01788 52.86542 50.64456
#
# Poissons Ratio (x) = 0.49265 0.41652
# Poissons Ratio (y) = 0.45679 -0.13048
# Poissons Ratio (z) = 0.40314 -0.13620
#
# Static dielectric constant tensor:
#      x y z
#    x 3.615180 0.000000 0.000000 
#    y 0.000000 3.556210 0.000000 
#    z 0.000000 0.000000 3.651190 
# 
# 
# High freq. dielectric constant tensor:
#      x y z
#    x 1.778710 0.000000 0.000000 
#    y 0.000000 1.770590 0.000000 
#    z 0.000000 0.000000 1.784150 
# 
# From -- ./inp_files/6734.got.cif
#   From: 2010.06.25/outbox.cif.g09.slc.cpg/sg58_4_cif.got.tgz:6734.got - 2010.06.26 21:38:00.
