data_PCOD8237797
_publ_section_title
;
Structure prediction by ZEFSAII (Michael W. Deem and Ramdas Pophale) SiO2 
 PCOD8237797
Probable space group: P N N M
;
_chemical_formula_sum "Si O2"
_cell_formula_units_Z 40
_cell_length_a 12.387207
_cell_length_b 18.618815
_cell_length_c 8.849677
_cell_angle_alpha 90.000000
_cell_angle_beta 90.000000
_cell_angle_gamma 90.000000
_cell_volume 2041.046277
_symmetry_space_group_name_H-M "P N N M"
_symmetry_group_IT_number 58
_symmetry_cell_setting 'orthorhombic'
loop_
_space_group_symop_operation_xyz
x,y,z
-x,-y,z
1/2+x,1/2-y,1/2-z
1/2-x,1/2+y,1/2-z
-x,-y,-z
x,y,-z
1/2-x,1/2+y,1/2+z
1/2+x,1/2-y,1/2+z
loop_
_atom_site_type_symbol
_atom_site_label
_atom_site_fract_x
_atom_site_fract_y
_atom_site_fract_z
Si Si1 0.946954 0.925807 0.321509
Si Si2 0.953146 0.333848 0.675216
Si Si3 0.774818 0.452085 0.674992
Si Si4 0.897227 0.187399 0.178360
Si Si5 0.818950 0.611143 0.321083
O O1 0.953366 0.920317 0.500000
O O2 0.823862 0.920132 0.269412
O O3 0.008273 0.858315 0.252732
O O4 0.000000 0.000000 0.262508
O O5 0.958302 0.310758 0.500000
O O6 0.878395 0.402722 0.698390
O O7 0.905453 0.269434 0.772570
O O8 0.071033 0.353767 0.740977
O O9 0.740103 0.456384 0.500000
O O10 0.804450 0.530411 0.740670
O O11 0.781384 0.158703 0.234989
O O12 0.907844 0.180361 0.000000
O O13 0.827281 0.607798 0.500000
#
# Coordination Sequence:
#
# PCOD8237797 Si02
#       5
#     8   8   8   8   8
#     4  11  23  39  60  87 119 155 197 248 301 346
#     4  10  22  39  61  90 122 156 195 246 301 354
#     4  10  20  38  65  91 116 153 202 245 294 359
#     4  11  23  39  60  87 121 160 200 242 293 356
#     4   9  19  38  62  86 117 156 196 242 294 354
#
# _framework density 19.597791999999998
#
# number of rings (size 3 to 8) (size 9 to 14) (size 15 to 20)
#    0.000    1.800    2.000    1.800    2.800    4.000 
#    0.000    2.000    0.000    2.400    0.000    0.000 
#    0.000    0.000    0.000    0.000    0.000    0.000 
#
# Total GULP energy -496199.113395 kJ/mol
# GULP energy per Si atom -12404.977835 kJ/mol
# Density = 1.955319 g / cm^3
# Si number density = 19.597792 Si / 1000 Ang^3
#
#
#
# Elastic Constant Matrix: (Units=GPa)
#
#
# Indices 1 2 3 4 5 6 
#
# 1 149.3795 67.7647 32.3623 0.0000 0.0000 0.0000
# 2 67.7647 125.3120 32.8866 0.0000 0.0000 0.0000
# 3 32.3623 32.8866 50.0054 0.0000 0.0000 0.0000
# 4 0.0000 0.0000 0.0000 30.9517 0.0000 0.0000
# 5 0.0000 0.0000 0.0000 0.0000 21.6980 0.0000
# 6 0.0000 0.0000 0.0000 0.0000 0.0000 37.2679
#
#
#
# Elastic Compliance Matrix: (Units=1/GPa)
#
#
# Indices 1 2 3 4 5 6 
#
# 1 0.009294 -0.004166 -0.003275 0.000000 0.000000 0.000000
# 2 -0.004166 0.011513 -0.004875 0.000000 0.000000 0.000000
# 3 -0.003275 -0.004875 0.025323 0.000000 0.000000 0.000000
# 4 0.000000 0.000000 0.000000 0.032308 0.000000 0.000000
# 5 0.000000 0.000000 0.000000 0.000000 0.046087 0.000000
# 6 0.000000 0.000000 0.000000 0.000000 0.000000 0.026833
#
#
# Mechanical properties :
#
#
# Convention : Reuss Voigt Hill
#
# Bulk Modulus (GPa) = 46.51699 65.63602 56.07650
# Shear Modulus (GPa) = 27.29916 30.76240 29.03078
#
# Velocity S-wave (km/s) = 3.73630 3.96623 3.85298
# Velocity P-wave (km/s) = 6.51158 7.38504 6.96202
#
# Compressibility (1/GPa) = 0.02149752
#
# Stress axis : x y z
#
# Youngs Moduli (GPa) = 107.59794 86.86207 39.48952
#
# Poissons Ratio (x) = 0.36190 0.12932
# Poissons Ratio (y) = 0.44830 0.19251
# Poissons Ratio (z) = 0.35235 0.42344
#
# Static dielectric constant tensor:
#      x y z
#    x 3.747240 0.000000 0.000000 
#    y 0.000000 3.633230 0.000000 
#    z 0.000000 0.000000 3.340860 
# 
# 
# High freq. dielectric constant tensor:
#      x y z
#    x 1.778780 0.000000 0.000000 
#    y 0.000000 1.773990 0.000000 
#    z 0.000000 0.000000 1.739310 
# 
# From -- ./inp_files/3801.got.cif
#   From: 2010.06.25/outbox.cif.g09.slc.cpg/sg58_2_cif.got.tgz:3801.got - 2010.06.26 21:38:00.
