data_PCOD8237685
_publ_section_title
;
Structure prediction by ZEFSAII (Michael W. Deem and Ramdas Pophale) SiO2 
 PCOD8237685
Probable space group: P N N M
;
_chemical_formula_sum "Si O2"
_cell_formula_units_Z 64
_cell_length_a 10.704108
_cell_length_b 32.302135
_cell_length_c 9.124433
_cell_angle_alpha 90.000000
_cell_angle_beta 90.000000
_cell_angle_gamma 90.000000
_cell_volume 3154.914519
_symmetry_space_group_name_H-M "P N N M"
_symmetry_group_IT_number 58
_symmetry_cell_setting 'orthorhombic'
loop_
_space_group_symop_operation_xyz
x,y,z
-x,-y,z
1/2+x,1/2-y,1/2-z
1/2-x,1/2+y,1/2-z
-x,-y,-z
x,y,-z
1/2-x,1/2+y,1/2+z
1/2+x,1/2-y,1/2+z
loop_
_atom_site_type_symbol
_atom_site_label
_atom_site_fract_x
_atom_site_fract_y
_atom_site_fract_z
Si Si1 0.897590 0.144438 0.330840
Si Si2 0.501301 0.192031 0.671421
Si Si3 0.515817 0.284554 0.336717
Si Si4 0.343685 0.601507 0.836914
Si Si5 0.772920 0.331986 0.337217
Si Si6 0.153979 0.379254 0.329217
Si Si7 0.382170 0.972737 0.829447
Si Si8 0.140586 0.005656 0.667484
O O1 0.860806 0.149532 0.500000
O O2 0.788422 0.121383 0.245731
O O3 0.921181 0.190879 0.269314
O O4 0.014168 0.114361 0.305506
O O5 0.518517 0.183251 0.500000
O O6 0.545830 0.237998 0.716557
O O7 0.357861 0.191135 0.719692
O O8 0.571286 0.156909 0.761389
O O9 0.456397 0.283250 0.500000
O O10 0.645297 0.307742 0.339607
O O11 0.251116 0.621449 0.718472
O O12 0.324821 0.553283 0.822561
O O13 0.307080 0.616895 0.000000
O O14 0.832978 0.334162 0.500000
O O15 0.171213 0.370550 0.500000
O O16 0.089524 0.424044 0.302254
O O17 0.500000 0.000000 0.768009
O O18 0.249272 0.982000 0.753707
O O19 0.364403 0.982716 0.000000
O O20 0.140769 0.989281 0.500000
O O21 0.000000 0.000000 0.733525
#
# Coordination Sequence:
#
# PCOD8237685 Si02
#       8
#     8   8   8   8   8   8   8   8
#     4  10  20  37  63  91 124 161 199 246 296 352
#     4  11  24  40  60  87 119 155 199 245 294 357
#     4   9  21  40  60  87 120 156 195 242 296 350
#     4   9  19  36  59  89 121 156 196 242 296 354
#     4  10  21  38  59  84 117 154 195 241 291 349
#     4  11  24  41  61  87 121 161 203 247 300 360
#     4  10  24  44  63  88 125 164 208 258 311 372
#     4  10  21  38  63  94 125 156 201 256 308 368
#
# _framework density 20.285810999999999
#
# number of rings (size 3 to 8) (size 9 to 14) (size 15 to 20)
#    0.000    2.000    0.000    2.250    3.500    5.000 
#    0.000    0.000    0.000    0.000    0.000    0.000 
#    0.000    0.000    0.000    0.000    0.000    0.000 
#
# Total GULP energy -793502.025021 kJ/mol
# GULP energy per Si atom -12398.469141 kJ/mol
# Density = 2.023964 g / cm^3
# Si number density = 20.285811 Si / 1000 Ang^3
#
#
#
# Elastic Constant Matrix: (Units=GPa)
#
#
# Indices 1 2 3 4 5 6 
#
# 1 55.0023 19.4091 32.1635 0.0000 0.0000 0.0000
# 2 19.4091 96.9054 42.3476 0.0000 0.0000 0.0000
# 3 32.1635 42.3476 89.5513 0.0000 0.0000 0.0000
# 4 0.0000 0.0000 0.0000 30.8472 0.0000 0.0000
# 5 0.0000 0.0000 0.0000 0.0000 37.3004 0.0000
# 6 0.0000 0.0000 0.0000 0.0000 0.0000 21.5663
#
#
#
# Elastic Compliance Matrix: (Units=1/GPa)
#
#
# Indices 1 2 3 4 5 6 
#
# 1 0.023137 -0.001264 -0.007712 0.000000 0.000000 0.000000
# 2 -0.001264 0.013076 -0.005730 0.000000 0.000000 0.000000
# 3 -0.007712 -0.005730 0.016646 0.000000 0.000000 0.000000
# 4 0.000000 0.000000 0.000000 0.032418 0.000000 0.000000
# 5 0.000000 0.000000 0.000000 0.000000 0.026809 0.000000
# 6 0.000000 0.000000 0.000000 0.000000 0.000000 0.046369
#
#
# Mechanical properties :
#
#
# Convention : Reuss Voigt Hill
#
# Bulk Modulus (GPa) = 42.64773 47.69992 45.17383
# Shear Modulus (GPa) = 25.55153 27.77869 26.66511
#
# Velocity S-wave (km/s) = 3.55290 3.70451 3.62950
# Velocity P-wave (km/s) = 6.15629 6.47015 6.31517
#
# Compressibility (1/GPa) = 0.02344791
#
# Stress axis : x y z
#
# Youngs Moduli (GPa) = 43.22099 76.47391 60.07368
#
# Poissons Ratio (x) = 0.09665 0.46330
# Poissons Ratio (y) = 0.05462 0.34420
# Poissons Ratio (z) = 0.33333 0.43817
#
# Static dielectric constant tensor:
#      x y z
#    x 3.700860 0.000000 0.000000 
#    y 0.000000 3.789200 0.000000 
#    z 0.000000 0.000000 3.945770 
# 
# 
# High freq. dielectric constant tensor:
#      x y z
#    x 1.788640 0.000000 0.000000 
#    y 0.000000 1.802740 0.000000 
#    z 0.000000 0.000000 1.793690 
# 
# From -- ./inp_files/4840.got.cif
#   From: 2010.06.25/outbox.cif.g09.slc.cpg/sg58_3_cif.got.tgz:4840.got - 2010.06.26 21:38:00.
