data_PCOD8237250
_publ_section_title
;
Structure prediction by ZEFSAII (Michael W. Deem and Ramdas Pophale) SiO2 
 PCOD8237250
Probable space group: P N N M
;
_chemical_formula_sum "Si O2"
_cell_formula_units_Z 64
_cell_length_a 19.773751
_cell_length_b 18.458420
_cell_length_c 8.868811
_cell_angle_alpha 90.000000
_cell_angle_beta 90.000000
_cell_angle_gamma 90.000000
_cell_volume 3237.046847
_symmetry_space_group_name_H-M "P N N M"
_symmetry_group_IT_number 58
_symmetry_cell_setting 'orthorhombic'
loop_
_space_group_symop_operation_xyz
x,y,z
-x,-y,z
1/2+x,1/2-y,1/2-z
1/2-x,1/2+y,1/2-z
-x,-y,-z
x,y,-z
1/2-x,1/2+y,1/2+z
1/2+x,1/2-y,1/2+z
loop_
_atom_site_type_symbol
_atom_site_label
_atom_site_fract_x
_atom_site_fract_y
_atom_site_fract_z
Si Si1 0.981646 0.779805 0.677838
Si Si2 0.121574 0.754527 0.824593
Si Si3 0.227907 0.855641 0.321377
Si Si4 0.170300 0.595595 0.826621
Si Si5 0.633150 0.166729 0.822344
Si Si6 0.552847 0.440690 0.179583
Si Si7 0.197634 0.015452 0.323134
Si Si8 0.573922 0.015944 0.178081
O O1 0.996047 0.776383 0.500000
O O2 0.916497 0.732177 0.721043
O O3 0.968993 0.861347 0.735511
O O4 0.045594 0.747190 0.764412
O O5 0.160356 0.815961 0.732623
O O6 0.160196 0.679686 0.794670
O O7 0.120898 0.774670 0.000000
O O8 0.232187 0.851723 0.500000
O O9 0.294505 0.818239 0.253202
O O10 0.222741 0.938051 0.260270
O O11 0.247444 0.576684 0.783720
O O12 0.121453 0.550051 0.721297
O O13 0.155040 0.575229 0.000000
O O14 0.602074 0.091863 0.757414
O O15 0.644641 0.162575 0.000000
O O16 0.500000 0.500000 0.240954
O O17 0.626201 0.460475 0.248737
O O18 0.555111 0.441109 0.000000
O O19 0.186905 0.007163 0.500000
O O20 0.500000 0.000000 0.247132
O O21 0.569198 0.021710 0.000000
#
# Coordination Sequence:
#
# PCOD8237250 Si02
#       8
#     8   8   8   8   8   8   8   8
#     4  10  21  38  62  87 115 155 198 240 294 359
#     4  11  24  39  59  85 119 154 193 247 300 352
#     4  11  22  38  62  86 116 156 198 245 292 352
#     4  10  21  37  57  83 112 151 196 239 284 338
#     4  10  21  36  56  86 121 156 193 237 293 353
#     4   9  17  31  57  88 112 142 190 244 288 331
#     4   9  18  34  57  85 113 143 192 245 283 336
#     4  10  20  35  56  82 116 153 188 232 284 342
#
# _framework density 19.771107000000001
#
# number of rings (size 3 to 8) (size 9 to 14) (size 15 to 20)
#    0.000    2.000    1.250    2.250    1.750    4.750 
#    0.000    0.000    0.000    4.125    0.000    0.000 
#    0.000    0.000    0.000    0.000    0.000    0.000 
#
# Total GULP energy -793801.795184 kJ/mol
# GULP energy per Si atom -12403.153050 kJ/mol
# Density = 1.972611 g / cm^3
# Si number density = 19.771107 Si / 1000 Ang^3
#
#
#
# Elastic Constant Matrix: (Units=GPa)
#
#
# Indices 1 2 3 4 5 6 
#
# 1 145.5183 47.0061 26.8996 0.0000 0.0000 0.0000
# 2 47.0061 102.5499 26.1348 0.0000 0.0000 0.0000
# 3 26.8996 26.1348 31.1367 0.0000 0.0000 0.0000
# 4 0.0000 0.0000 0.0000 21.8946 0.0000 0.0000
# 5 0.0000 0.0000 0.0000 0.0000 28.4627 0.0000
# 6 0.0000 0.0000 0.0000 0.0000 0.0000 39.7047
#
#
#
# Elastic Compliance Matrix: (Units=1/GPa)
#
#
# Indices 1 2 3 4 5 6 
#
# 1 0.008705 -0.002638 -0.005306 0.000000 0.000000 0.000000
# 2 -0.002638 0.013204 -0.008804 0.000000 0.000000 0.000000
# 3 -0.005306 -0.008804 0.044091 0.000000 0.000000 0.000000
# 4 0.000000 0.000000 0.000000 0.045673 0.000000 0.000000
# 5 0.000000 0.000000 0.000000 0.000000 0.035134 0.000000
# 6 0.000000 0.000000 0.000000 0.000000 0.000000 0.025186
#
#
# Mechanical properties :
#
#
# Convention : Reuss Voigt Hill
#
# Bulk Modulus (GPa) = 30.76631 53.25399 42.01015
# Shear Modulus (GPa) = 23.11353 29.95670 26.53511
#
# Velocity S-wave (km/s) = 3.42286 3.89675 3.66746
# Velocity P-wave (km/s) = 5.58715 6.87313 6.26323
#
# Compressibility (1/GPa) = 0.03250308
#
# Stress axis : x y z
#
# Youngs Moduli (GPa) = 114.87704 75.73358 22.68061
#
# Poissons Ratio (x) = 0.19977 0.12035
# Poissons Ratio (y) = 0.30302 0.19968
# Poissons Ratio (z) = 0.60957 0.66677
#
# Static dielectric constant tensor:
#      x y z
#    x 3.772930 0.000000 0.000000 
#    y 0.000000 3.722380 0.000000 
#    z 0.000000 0.000000 3.226760 
# 
# 
# High freq. dielectric constant tensor:
#      x y z
#    x 1.787790 0.000000 0.000000 
#    y 0.000000 1.780670 0.000000 
#    z 0.000000 0.000000 1.734360 
# 
# From -- ./inp_files/9223.got.cif
#   From: 2010.06.25/outbox.cif.g09.slc.cpg/sg58_5_cif.got.tgz:9223.got - 2010.06.26 21:38:00.
