data_PCOD8237709
_publ_section_title
;
Structure prediction by ZEFSAII (Michael W. Deem and Ramdas Pophale) SiO2 
 PCOD8237709
Probable space group: P N N M
;
_chemical_formula_sum "Si O2"
_cell_formula_units_Z 64
_cell_length_a 14.030521
_cell_length_b 11.611753
_cell_length_c 18.930080
_cell_angle_alpha 90.000000
_cell_angle_beta 90.000000
_cell_angle_gamma 90.000000
_cell_volume 3084.068649
_symmetry_space_group_name_H-M "P N N M"
_symmetry_group_IT_number 58
_symmetry_cell_setting 'orthorhombic'
loop_
_space_group_symop_operation_xyz
x,y,z
-x,-y,z
1/2+x,1/2-y,1/2-z
1/2-x,1/2+y,1/2-z
-x,-y,-z
x,y,-z
1/2-x,1/2+y,1/2+z
1/2+x,1/2-y,1/2+z
loop_
_atom_site_type_symbol
_atom_site_label
_atom_site_fract_x
_atom_site_fract_y
_atom_site_fract_z
Si Si1 0.734924 0.136942 0.578933
Si Si2 0.922665 0.177148 0.661429
Si Si3 0.744171 0.892953 0.626075
Si Si4 0.108985 0.259510 0.194835
Si Si5 0.410220 0.137206 0.729622
Si Si6 0.635473 0.482977 0.745038
Si Si7 0.896633 0.727121 0.580490
Si Si8 0.675374 0.078289 0.802035
O O1 0.729491 0.183832 0.500000
O O2 0.843882 0.145105 0.604344
O O3 0.661494 0.216856 0.621399
O O4 0.705685 0.002446 0.581756
O O5 0.885449 0.290364 0.700682
O O6 0.022051 0.200403 0.621594
O O7 0.937577 0.079511 0.723346
O O8 0.654995 0.829719 0.662612
O O9 0.810859 0.939100 0.687096
O O10 0.801474 0.804763 0.576654
O O11 0.085613 0.123368 0.203851
O O12 0.178898 0.301043 0.258341
O O13 0.015251 0.336790 0.201692
O O14 0.392340 0.006773 0.756391
O O15 0.715535 0.535381 0.691491
O O16 0.928109 0.698256 0.500000
O O17 0.871960 0.607539 0.621638
#
# Coordination Sequence:
#
# PCOD8237709 Si02
#       8
#     8   8   8   8   8   8   8   8
#     4  11  23  38  58  91 129 166 205 261 332 388
#     4  11  22  39  63  91 129 163 211 260 313 385
#     4  10  20  38  59  86 123 167 214 267 316 364
#     4  12  21  40  65  94 124 161 217 268 321 380
#     4  11  22  38  69  93 119 163 218 278 310 360
#     4  10  21  38  66  95 122 164 217 271 312 369
#     4  12  25  40  60  95 139 176 209 257 329 402
#     4  11  21  40  64  92 129 165 216 264 318 380
#
# _framework density 20.751809000000002
#
# number of rings (size 3 to 8) (size 9 to 14) (size 15 to 20)
#    0.000    1.000    6.250    3.375    0.000    4.500 
#    0.000    8.750    0.000    0.000    0.000    1.750 
#    0.000    0.000    0.000    0.000    0.000    0.000 
#
# Total GULP energy -793193.373769 kJ/mol
# GULP energy per Si atom -12393.646465 kJ/mol
# Density = 2.070458 g / cm^3
# Si number density = 20.751809 Si / 1000 Ang^3
#
#
#
# Elastic Constant Matrix: (Units=GPa)
#
#
# Indices 1 2 3 4 5 6 
#
# 1 89.6194 46.5011 52.5635 0.0000 0.0000 0.0000
# 2 46.5011 76.3561 57.1583 0.0000 0.0000 0.0000
# 3 52.5635 57.1583 116.9964 0.0000 0.0000 0.0000
# 4 0.0000 0.0000 0.0000 17.5453 0.0000 0.0000
# 5 0.0000 0.0000 0.0000 0.0000 26.7966 0.0000
# 6 0.0000 0.0000 0.0000 0.0000 0.0000 31.2392
#
#
#
# Elastic Compliance Matrix: (Units=1/GPa)
#
#
# Indices 1 2 3 4 5 6 
#
# 1 0.017528 -0.007535 -0.004193 0.000000 0.000000 0.000000
# 2 -0.007535 0.023887 -0.008285 0.000000 0.000000 0.000000
# 3 -0.004193 -0.008285 0.014479 0.000000 0.000000 0.000000
# 4 0.000000 0.000000 0.000000 0.056995 0.000000 0.000000
# 5 0.000000 0.000000 0.000000 0.000000 0.037318 0.000000
# 6 0.000000 0.000000 0.000000 0.000000 0.000000 0.032011
#
#
# Mechanical properties :
#
#
# Convention : Reuss Voigt Hill
#
# Bulk Modulus (GPa) = 63.02418 66.15754 64.59086
# Shear Modulus (GPa) = 21.97476 23.56616 22.77046
#
# Velocity S-wave (km/s) = 3.25765 3.37355 3.31611
# Velocity P-wave (km/s) = 6.67728 6.86470 6.77164
#
# Compressibility (1/GPa) = 0.01586693
#
# Stress axis : x y z
#
# Youngs Moduli (GPa) = 57.05262 41.86335 69.06712
#
# Poissons Ratio (x) = 0.31546 0.28962
# Poissons Ratio (y) = 0.42991 0.57219
# Poissons Ratio (z) = 0.23924 0.34682
#
# Static dielectric constant tensor:
#      x y z
#    x 3.920960 0.000000 0.000000 
#    y 0.000000 4.192530 0.000000 
#    z 0.000000 0.000000 3.536220 
# 
# 
# High freq. dielectric constant tensor:
#      x y z
#    x 1.815750 0.000000 0.000000 
#    y 0.000000 1.817880 0.000000 
#    z 0.000000 0.000000 1.775370 
# 
# From -- ./inp_files/27013.got.cif
#   From: 2010.06.25/outbox.cif.g09.slc.cpg/sg58_14_cif.got.tgz:27013.got - 2010.06.26 21:38:00.
