data_PCOD8237579
_publ_section_title
;
Structure prediction by ZEFSAII (Michael W. Deem and Ramdas Pophale) SiO2 
 PCOD8237579
Probable space group: P N N M
;
_chemical_formula_sum "Si O2"
_cell_formula_units_Z 64
_cell_length_a 15.274855
_cell_length_b 24.044212
_cell_length_c 9.033387
_cell_angle_alpha 90.000000
_cell_angle_beta 90.000000
_cell_angle_gamma 90.000000
_cell_volume 3317.708772
_symmetry_space_group_name_H-M "P N N M"
_symmetry_group_IT_number 58
_symmetry_cell_setting 'orthorhombic'
loop_
_space_group_symop_operation_xyz
x,y,z
-x,-y,z
1/2+x,1/2-y,1/2-z
1/2-x,1/2+y,1/2-z
-x,-y,-z
x,y,-z
1/2-x,1/2+y,1/2+z
1/2+x,1/2-y,1/2+z
loop_
_atom_site_type_symbol
_atom_site_label
_atom_site_fract_x
_atom_site_fract_y
_atom_site_fract_z
Si Si1 0.253048 0.569326 0.323652
Si Si2 0.902839 0.509409 0.324243
Si Si3 0.346923 0.869700 0.826151
Si Si4 0.825727 0.121108 0.666194
Si Si5 0.399674 0.497818 0.174226
Si Si6 0.592600 0.235286 0.325341
Si Si7 0.258646 0.196102 0.175450
Si Si8 0.423368 0.267643 0.167592
O O1 0.260819 0.565996 0.500000
O O2 0.167401 0.535830 0.265919
O O3 0.341877 0.544140 0.256408
O O4 0.242009 0.632622 0.267074
O O5 0.905927 0.506286 0.500000
O O6 0.872904 0.569519 0.268461
O O7 0.000000 0.500000 0.258326
O O8 0.247487 0.858763 0.780046
O O9 0.409208 0.825460 0.747534
O O10 0.358626 0.863669 0.000000
O O11 0.786326 0.116446 0.500000
O O12 0.899849 0.167590 0.668992
O O13 0.864953 0.062801 0.718846
O O14 0.500000 0.500000 0.228736
O O15 0.393536 0.509151 0.000000
O O16 0.598361 0.228982 0.500000
O O17 0.673706 0.271542 0.262727
O O18 0.503539 0.264600 0.279234
O O19 0.345578 0.228207 0.229059
O O20 0.255352 0.197167 0.000000
O O21 0.448678 0.249464 0.000000
#
# Coordination Sequence:
#
# PCOD8237579 Si02
#       8
#     8   8   8   8   8   8   8   8
#     4  10  20  37  59  83 111 147 189 237 282 330
#     4   9  19  34  56  85 113 143 186 237 284 333
#     4  11  21  36  61  88 111 147 197 242 286 341
#     4  10  20  38  61  81 114 155 191 237 293 342
#     4  10  22  38  57  83 117 156 189 227 287 350
#     4  11  23  40  58  85 119 153 190 237 291 341
#     4   9  20  38  59  80 113 153 189 230 288 345
#     4  10  21  39  61  85 110 150 197 235 281 342
#
# _framework density 19.290420999999998
#
# number of rings (size 3 to 8) (size 9 to 14) (size 15 to 20)
#    0.000    2.000    2.500    0.750    3.500    0.750 
#    0.000    1.250    0.000    1.875    0.000    0.000 
#    0.000    0.000    0.000    0.000    0.000    0.000 
#
# Total GULP energy -793678.403268 kJ/mol
# GULP energy per Si atom -12401.225051 kJ/mol
# Density = 1.924651 g / cm^3
# Si number density = 19.290421 Si / 1000 Ang^3
#
#
#
# Elastic Constant Matrix: (Units=GPa)
#
#
# Indices 1 2 3 4 5 6 
#
# 1 111.3447 30.2091 22.4749 0.0000 0.0000 0.0000
# 2 30.2091 118.3251 24.9103 0.0000 0.0000 0.0000
# 3 22.4749 24.9103 41.2672 0.0000 0.0000 0.0000
# 4 0.0000 0.0000 0.0000 24.5777 0.0000 0.0000
# 5 0.0000 0.0000 0.0000 0.0000 30.0168 0.0000
# 6 0.0000 0.0000 0.0000 0.0000 0.0000 29.1825
#
#
#
# Elastic Compliance Matrix: (Units=1/GPa)
#
#
# Indices 1 2 3 4 5 6 
#
# 1 0.010371 -0.001671 -0.004640 0.000000 0.000000 0.000000
# 2 -0.001671 0.009951 -0.005097 0.000000 0.000000 0.000000
# 3 -0.004640 -0.005097 0.029836 0.000000 0.000000 0.000000
# 4 0.000000 0.000000 0.000000 0.040687 0.000000 0.000000
# 5 0.000000 0.000000 0.000000 0.000000 0.033315 0.000000
# 6 0.000000 0.000000 0.000000 0.000000 0.000000 0.034267
#
#
# Mechanical properties :
#
#
# Convention : Reuss Voigt Hill
#
# Bulk Modulus (GPa) = 36.57232 47.34728 41.95980
# Shear Modulus (GPa) = 26.26668 29.64492 27.95580
#
# Velocity S-wave (km/s) = 3.69405 3.92442 3.81097
# Velocity P-wave (km/s) = 6.09874 6.71807 6.41588
#
# Compressibility (1/GPa) = 0.02734308
#
# Stress axis : x y z
#
# Youngs Moduli (GPa) = 96.42285 100.49365 33.51698
#
# Poissons Ratio (x) = 0.16793 0.15550
# Poissons Ratio (y) = 0.16113 0.17082
# Poissons Ratio (z) = 0.44736 0.51218
#
# Static dielectric constant tensor:
#      x y z
#    x 3.599120 0.000000 0.000000 
#    y 0.000000 3.744740 0.000000 
#    z 0.000000 0.000000 3.211570 
# 
# 
# High freq. dielectric constant tensor:
#      x y z
#    x 1.755810 0.000000 0.000000 
#    y 0.000000 1.766240 0.000000 
#    z 0.000000 0.000000 1.718860 
# 
# From -- ./inp_files/6987.got.cif
#   From: 2010.06.25/outbox.cif.g09.slc.cpg/sg58_4_cif.got.tgz:6987.got - 2010.06.26 21:38:00.
