data_PCOD8237186
_publ_section_title
;
Structure prediction by ZEFSAII (Michael W. Deem and Ramdas Pophale) SiO2 
 PCOD8237186
Probable space group: P N N M
;
_chemical_formula_sum "Si O2"
_cell_formula_units_Z 64
_cell_length_a 18.848227
_cell_length_b 23.120759
_cell_length_c 8.693703
_cell_angle_alpha 90.000000
_cell_angle_beta 90.000000
_cell_angle_gamma 90.000000
_cell_volume 3788.588092
_symmetry_space_group_name_H-M "P N N M"
_symmetry_group_IT_number 58
_symmetry_cell_setting 'orthorhombic'
loop_
_space_group_symop_operation_xyz
x,y,z
-x,-y,z
1/2+x,1/2-y,1/2-z
1/2-x,1/2+y,1/2-z
-x,-y,-z
x,y,-z
1/2-x,1/2+y,1/2+z
1/2+x,1/2-y,1/2+z
loop_
_atom_site_type_symbol
_atom_site_label
_atom_site_fract_x
_atom_site_fract_y
_atom_site_fract_z
Si Si1 0.635648 0.719837 0.679365
Si Si2 0.357476 0.934059 0.821698
Si Si3 0.493222 0.877918 0.678782
Si Si4 0.288836 0.175139 0.822871
Si Si5 0.740843 0.152881 0.322097
Si Si6 0.149167 0.234117 0.824071
Si Si7 0.995719 0.747181 0.321111
Si Si8 0.875580 0.434718 0.323910
O O1 0.642272 0.708262 0.500000
O O2 0.662656 0.784324 0.717518
O O3 0.681293 0.671330 0.766571
O O4 0.554116 0.714952 0.731556
O O5 0.420797 0.910093 0.718308
O O6 0.284659 0.902566 0.774460
O O7 0.347048 0.001698 0.786223
O O8 0.374802 0.922736 0.000000
O O9 0.493047 0.861531 0.500000
O O10 0.500718 0.819679 0.775245
O O11 0.558001 0.920574 0.715941
O O12 0.205598 0.183527 0.783728
O O13 0.310364 0.108995 0.792517
O O14 0.301633 0.194220 0.000000
O O15 0.744532 0.136234 0.500000
O O16 0.685565 0.204427 0.290806
O O17 0.081320 0.226539 0.716059
O O18 0.123707 0.230610 0.000000
O O19 0.011288 0.752580 0.500000
O O20 0.901715 0.430011 0.500000
#
# Coordination Sequence:
#
# PCOD8237186 Si02
#       8
#     8   8   8   8   8   8   8   8
#     4  11  21  33  52  76 102 130 167 212 256 307
#     4  11  22  35  52  74 101 138 180 216 251 300
#     4  12  23  34  48  71 102 139 180 216 253 298
#     4   9  18  34  53  72 100 135 168 208 255 305
#     4  10  20  35  53  73 101 135 170 211 257 303
#     4   9  18  32  51  74  99 129 167 207 252 303
#     4  12  22  33  51  74 103 137 170 207 257 308
#     4  10  21  36  53  73 101 139 178 213 255 302
#
# _framework density 16.892835999999999
#
# number of rings (size 3 to 8) (size 9 to 14) (size 15 to 20)
#    0.000    1.500    2.500    5.250    0.000    4.500 
#    0.000    0.000    0.000    0.000    0.000    0.875 
#    0.000    7.000    0.000    0.000    0.000    0.000 
#
# Total GULP energy -793864.195123 kJ/mol
# GULP energy per Si atom -12404.128049 kJ/mol
# Density = 1.685439 g / cm^3
# Si number density = 16.892836 Si / 1000 Ang^3
#
#
#
# Elastic Constant Matrix: (Units=GPa)
#
#
# Indices 1 2 3 4 5 6 
#
# 1 85.9430 30.0100 26.1095 0.0000 0.0000 0.0000
# 2 30.0100 62.2868 14.9169 0.0000 0.0000 0.0000
# 3 26.1095 14.9169 63.6037 0.0000 0.0000 0.0000
# 4 0.0000 0.0000 0.0000 19.7644 0.0000 0.0000
# 5 0.0000 0.0000 0.0000 0.0000 28.5828 0.0000
# 6 0.0000 0.0000 0.0000 0.0000 0.0000 21.4131
#
#
#
# Elastic Compliance Matrix: (Units=1/GPa)
#
#
# Indices 1 2 3 4 5 6 
#
# 1 0.015263 -0.006201 -0.004811 0.000000 0.000000 0.000000
# 2 -0.006201 0.019530 -0.002035 0.000000 0.000000 0.000000
# 3 -0.004811 -0.002035 0.018174 0.000000 0.000000 0.000000
# 4 0.000000 0.000000 0.000000 0.050596 0.000000 0.000000
# 5 0.000000 0.000000 0.000000 0.000000 0.034986 0.000000
# 6 0.000000 0.000000 0.000000 0.000000 0.000000 0.046700
#
#
# Mechanical properties :
#
#
# Convention : Reuss Voigt Hill
#
# Bulk Modulus (GPa) = 37.21207 39.32292 38.26750
# Shear Modulus (GPa) = 22.69621 23.33853 23.01737
#
# Velocity S-wave (km/s) = 3.66941 3.72097 3.69528
# Velocity P-wave (km/s) = 6.32684 6.46446 6.39602
#
# Compressibility (1/GPa) = 0.02687300
#
# Stress axis : x y z
#
# Youngs Moduli (GPa) = 65.51944 51.20356 55.02231
#
# Poissons Ratio (x) = 0.31754 0.26471
# Poissons Ratio (y) = 0.40631 0.11195
# Poissons Ratio (z) = 0.31521 0.10418
#
# Static dielectric constant tensor:
#      x y z
#    x 3.245430 0.000000 0.000000 
#    y 0.000000 3.040190 0.000000 
#    z 0.000000 0.000000 3.208370 
# 
# 
# High freq. dielectric constant tensor:
#      x y z
#    x 1.647960 0.000000 0.000000 
#    y 0.000000 1.620350 0.000000 
#    z 0.000000 0.000000 1.661050 
# 
# From -- ./inp_files/8479.got.cif
#   From: 2010.06.25/outbox.cif.g09.slc.cpg/sg58_5_cif.got.tgz:8479.got - 2010.06.26 21:38:00.
