data_PCOD8237131
_publ_section_title
;
Structure prediction by ZEFSAII (Michael W. Deem and Ramdas Pophale) SiO2 
 PCOD8237131
Probable space group: P N N M
;
_chemical_formula_sum "Si O2"
_cell_formula_units_Z 40
_cell_length_a 16.098875
_cell_length_b 9.307899
_cell_length_c 13.620960
_cell_angle_alpha 90.000000
_cell_angle_beta 90.000000
_cell_angle_gamma 90.000000
_cell_volume 2041.055941
_symmetry_space_group_name_H-M "P N N M"
_symmetry_group_IT_number 58
_symmetry_cell_setting 'orthorhombic'
loop_
_space_group_symop_operation_xyz
x,y,z
-x,-y,z
1/2+x,1/2-y,1/2-z
1/2-x,1/2+y,1/2-z
-x,-y,-z
x,y,-z
1/2-x,1/2+y,1/2+z
1/2+x,1/2-y,1/2+z
loop_
_atom_site_type_symbol
_atom_site_label
_atom_site_fract_x
_atom_site_fract_y
_atom_site_fract_z
Si Si1 0.344079 0.526778 0.886761
Si Si2 0.561646 0.219115 0.782802
Si Si3 0.602694 0.792067 0.110474
Si Si4 0.176616 0.543160 0.229856
Si Si5 0.536313 0.841017 0.392248
O O1 0.403088 0.646749 0.841372
O O2 0.395166 0.379880 0.884178
O O3 0.265019 0.509270 0.816534
O O4 0.319919 0.564437 0.000000
O O5 0.485294 0.152411 0.845787
O O6 0.521245 0.260300 0.676769
O O7 0.633714 0.104958 0.762637
O O8 0.679869 0.860646 0.171035
O O9 0.611503 0.847961 0.000000
O O10 0.128443 0.640709 0.150354
O O11 0.539800 0.770065 0.500000
O O12 0.500000 0.000000 0.396464
#
# Coordination Sequence:
#
# PCOD8237131 Si02
#       5
#     8   8   8   8   8
#     4  11  22  36  55  80 112 145 177 220 277 331
#     4  10  20  34  56  82 109 142 183 226 265 317
#     4  10  21  37  57  80 108 145 183 220 270 330
#     4  10  20  35  55  81 109 138 181 228 267 315
#     4   8  15  30  53  77 101 135 177 217 257 307
#
# _framework density 19.597698000000001
#
# number of rings (size 3 to 8) (size 9 to 14) (size 15 to 20)
#    0.000    2.200    0.000    4.800    0.000    4.800 
#    0.000    1.000    0.000   12.000    0.000    0.000 
#    0.000    0.000    0.000    0.000    0.000    0.000 
#
# Total GULP energy -495727.508379 kJ/mol
# GULP energy per Si atom -12393.187709 kJ/mol
# Density = 1.955309 g / cm^3
# Si number density = 19.597698 Si / 1000 Ang^3
#
#
#
# Elastic Constant Matrix: (Units=GPa)
#
#
# Indices 1 2 3 4 5 6 
#
# 1 75.6370 7.8655 38.7248 0.0000 0.0000 0.0000
# 2 7.8655 37.0397 25.4594 0.0000 0.0000 0.0000
# 3 38.7248 25.4594 169.4180 0.0000 0.0000 0.0000
# 4 0.0000 0.0000 0.0000 31.1099 0.0000 0.0000
# 5 0.0000 0.0000 0.0000 0.0000 17.9283 0.0000
# 6 0.0000 0.0000 0.0000 0.0000 0.0000 25.9858
#
#
#
# Elastic Compliance Matrix: (Units=1/GPa)
#
#
# Indices 1 2 3 4 5 6 
#
# 1 0.015002 -0.000924 -0.003290 0.000000 0.000000 0.000000
# 2 -0.000924 0.030165 -0.004322 0.000000 0.000000 0.000000
# 3 -0.003290 -0.004322 0.007304 0.000000 0.000000 0.000000
# 4 0.000000 0.000000 0.000000 0.032144 0.000000 0.000000
# 5 0.000000 0.000000 0.000000 0.000000 0.055778 0.000000
# 6 0.000000 0.000000 0.000000 0.000000 0.000000 0.038483
#
#
# Mechanical properties :
#
#
# Convention : Reuss Voigt Hill
#
# Bulk Modulus (GPa) = 28.24987 47.35490 37.80239
# Shear Modulus (GPa) = 24.06778 29.00780 26.53779
#
# Velocity S-wave (km/s) = 3.50822 3.85146 3.68384
# Velocity P-wave (km/s) = 5.55484 6.63282 6.11762
#
# Compressibility (1/GPa) = 0.03539839
#
# Stress axis : x y z
#
# Youngs Moduli (GPa) = 66.65941 33.15112 136.91003
#
# Poissons Ratio (x) = 0.03064 0.45045
# Poissons Ratio (y) = 0.06160 0.59170
# Poissons Ratio (z) = 0.21932 0.14327
#
# Static dielectric constant tensor:
#      x y z
#    x 3.420270 0.000000 0.000000 
#    y 0.000000 3.308840 0.000000 
#    z 0.000000 0.000000 4.081290 
# 
# 
# High freq. dielectric constant tensor:
#      x y z
#    x 1.753800 0.000000 0.000000 
#    y 0.000000 1.738220 0.000000 
#    z 0.000000 0.000000 1.781330 
# 
# From -- ./inp_files/19467.got.cif
#   From: 2010.06.25/outbox.cif.g09.slc.cpg/sg58_10_cif.got.tgz:19467.got - 2010.06.26 21:38:00.
