data_PCOD8237542
_publ_section_title
;
Structure prediction by ZEFSAII (Michael W. Deem and Ramdas Pophale) SiO2 
 PCOD8237542
Probable space group: P N N M
;
_chemical_formula_sum "Si O2"
_cell_formula_units_Z 64
_cell_length_a 9.511533
_cell_length_b 17.142859
_cell_length_c 18.030416
_cell_angle_alpha 90.000000
_cell_angle_beta 90.000000
_cell_angle_gamma 90.000000
_cell_volume 2939.947121
_symmetry_space_group_name_H-M "P N N M"
_symmetry_group_IT_number 58
_symmetry_cell_setting 'orthorhombic'
loop_
_space_group_symop_operation_xyz
x,y,z
-x,-y,z
1/2+x,1/2-y,1/2-z
1/2-x,1/2+y,1/2-z
-x,-y,-z
x,y,-z
1/2-x,1/2+y,1/2+z
1/2+x,1/2-y,1/2+z
loop_
_atom_site_type_symbol
_atom_site_label
_atom_site_fract_x
_atom_site_fract_y
_atom_site_fract_z
Si Si1 0.069866 0.868392 0.284099
Si Si2 0.724597 0.714989 0.415248
Si Si3 0.393599 0.115297 0.582940
Si Si4 0.001391 0.708457 0.321732
Si Si5 0.498299 0.410981 0.371330
Si Si6 0.589831 0.422410 0.082413
Si Si7 0.372046 0.857438 0.317918
Si Si8 0.728185 0.291791 0.412781
O O1 0.226051 0.901395 0.299451
O O2 0.068272 0.776120 0.268559
O O3 0.992986 0.915017 0.218558
O O4 0.980851 0.865557 0.359710
O O5 0.770216 0.704282 0.500000
O O6 0.628468 0.791662 0.405771
O O7 0.861953 0.729679 0.366973
O O8 0.643721 0.636314 0.390487
O O9 0.438284 0.095847 0.500000
O O10 0.253330 0.066300 0.603974
O O11 0.526698 0.088770 0.631916
O O12 0.955886 0.647132 0.259520
O O13 0.121144 0.680990 0.379617
O O14 0.500000 0.500000 0.401524
O O15 0.629739 0.367546 0.407568
O O16 0.500000 0.500000 0.086055
O O17 0.582863 0.384632 0.000000
O O18 0.335891 0.777895 0.363139
O O19 0.741155 0.267358 0.500000
#
# Coordination Sequence:
#
# PCOD8237542 Si02
#       8
#     8   8   8   8   8   8   8   8
#     4  11  22  38  63  92 124 165 209 261 317 383
#     4  11  21  39  64  92 124 160 209 260 319 387
#     4  10  20  36  62  93 125 160 204 259 315 378
#     4  11  22  38  65  93 124 157 202 264 325 376
#     4  12  25  42  64  91 125 171 217 261 318 388
#     4  10  22  39  61  91 127 165 206 255 319 388
#     4  11  22  37  63  92 127 159 206 262 324 374
#     4  11  24  40  62  96 130 162 209 271 326 385
#
# _framework density 21.769099000000001
#
# number of rings (size 3 to 8) (size 9 to 14) (size 15 to 20)
#    0.000    1.125    5.000    1.500    3.500    3.500 
#    0.000    1.250    0.000    3.750    0.000    0.000 
#    0.000    0.000    0.000    0.000    0.000    0.000 
#
# Total GULP energy -793090.688915 kJ/mol
# GULP energy per Si atom -12392.042014 kJ/mol
# Density = 2.171955 g / cm^3
# Si number density = 21.769099 Si / 1000 Ang^3
#
#
#
# Elastic Constant Matrix: (Units=GPa)
#
#
# Indices 1 2 3 4 5 6 
#
# 1 119.0377 -7.0423 41.9976 0.0000 0.0000 0.0000
# 2 -7.0423 40.2841 -6.4425 0.0000 0.0000 0.0000
# 3 41.9976 -6.4425 112.0920 0.0000 0.0000 0.0000
# 4 0.0000 0.0000 0.0000 12.2993 0.0000 0.0000
# 5 0.0000 0.0000 0.0000 0.0000 41.7160 0.0000
# 6 0.0000 0.0000 0.0000 0.0000 0.0000 28.0150
#
#
#
# Elastic Compliance Matrix: (Units=1/GPa)
#
#
# Indices 1 2 3 4 5 6 
#
# 1 0.009731 0.001128 -0.003581 0.000000 0.000000 0.000000
# 2 0.001128 0.025185 0.001025 0.000000 0.000000 0.000000
# 3 -0.003581 0.001025 0.010322 0.000000 0.000000 0.000000
# 4 0.000000 0.000000 0.000000 0.081305 0.000000 0.000000
# 5 0.000000 0.000000 0.000000 0.000000 0.023972 0.000000
# 6 0.000000 0.000000 0.000000 0.000000 0.000000 0.035695
#
#
# Mechanical properties :
#
#
# Convention : Reuss Voigt Hill
#
# Bulk Modulus (GPa) = 23.59503 36.49326 30.04415
# Shear Modulus (GPa) = 24.60719 32.59946 28.60333
#
# Velocity S-wave (km/s) = 3.36575 3.87397 3.62877
# Velocity P-wave (km/s) = 5.09575 6.06715 5.60254
#
# Compressibility (1/GPa) = 0.04238180
#
# Stress axis : x y z
#
# Youngs Moduli (GPa) = 102.76576 39.70641 96.88198
#
# Poissons Ratio (x) = -0.04480 0.34694
# Poissons Ratio (y) = -0.11596 -0.09928
# Poissons Ratio (z) = 0.36801 -0.04069
#
# Static dielectric constant tensor:
#      x y z
#    x 4.125270 0.000000 0.000000 
#    y 0.000000 3.488060 0.000000 
#    z 0.000000 0.000000 4.277660 
# 
# 
# High freq. dielectric constant tensor:
#      x y z
#    x 1.868970 0.000000 0.000000 
#    y 0.000000 1.812080 0.000000 
#    z 0.000000 0.000000 1.871220 
# 
# From -- ./inp_files/25645.got.cif
#   From: 2010.06.25/outbox.cif.g09.slc.cpg/sg58_13_cif.got.tgz:25645.got - 2010.06.26 21:38:00.
