data_PCOD8237075
_publ_section_title
;
Structure prediction by ZEFSAII (Michael W. Deem and Ramdas Pophale) SiO2 
 PCOD8237075
Probable space group: P N N M
;
_chemical_formula_sum "Si O2"
_cell_formula_units_Z 56
_cell_length_a 20.216110
_cell_length_b 16.480568
_cell_length_c 8.807455
_cell_angle_alpha 90.000000
_cell_angle_beta 90.000000
_cell_angle_gamma 90.000000
_cell_volume 2934.405989
_symmetry_space_group_name_H-M "P N N M"
_symmetry_group_IT_number 58
_symmetry_cell_setting 'orthorhombic'
loop_
_space_group_symop_operation_xyz
x,y,z
-x,-y,z
1/2+x,1/2-y,1/2-z
1/2-x,1/2+y,1/2-z
-x,-y,-z
x,y,-z
1/2-x,1/2+y,1/2+z
1/2+x,1/2-y,1/2+z
loop_
_atom_site_type_symbol
_atom_site_label
_atom_site_fract_x
_atom_site_fract_y
_atom_site_fract_z
Si Si1 0.854862 0.648048 0.680320
Si Si2 0.029208 0.249047 0.179719
Si Si3 0.388946 0.187763 0.680083
Si Si4 0.328867 0.019027 0.320923
Si Si5 0.690135 0.498283 0.322921
Si Si6 0.051258 0.065666 0.820135
Si Si7 0.789624 0.180965 0.176488
O O1 0.855271 0.642954 0.500000
O O2 0.911327 0.706475 0.738134
O O3 0.864283 0.557263 0.743007
O O4 0.784835 0.682555 0.743279
O O5 0.029056 0.155138 0.229794
O O6 0.961690 0.289430 0.239791
O O7 0.038120 0.258162 0.000000
O O8 0.388200 0.197516 0.500000
O O9 0.371166 0.097043 0.730376
O O10 0.335469 0.250170 0.753027
O O11 0.330452 0.006772 0.500000
O O12 0.253438 0.032630 0.269424
O O13 0.703739 0.481426 0.500000
O O14 0.625599 0.451479 0.260826
O O15 0.677472 0.593559 0.294357
O O16 0.051709 0.056260 0.000000
O O17 0.000000 0.000000 0.750557
O O18 0.784461 0.199897 0.000000
#
# Coordination Sequence:
#
# PCOD8237075 Si02
#       7
#     8   8   8   8   8   8   8
#     4  10  21  37  56  77 107 141 176 221 275 329
#     4  10  20  34  54  80 108 138 180 226 266 313
#     4   9  18  32  52  77 102 136 180 221 260 311
#     4  10  20  34  54  77 102 135 182 228 267 313
#     4   9  17  31  52  79 109 138 173 216 268 320
#     4   9  17  30  53  83 112 144 180 221 265 319
#     4   8  15  30  52  74 100 136 175 211 252 313
#
# _framework density 19.083932000000001
#
# number of rings (size 3 to 8) (size 9 to 14) (size 15 to 20)
#    0.000    2.714    0.000    2.571    2.000    4.000 
#    0.000    4.286    0.000   10.286    0.000    0.000 
#    0.000    0.000    0.000    0.000    0.000    0.000 
#
# Total GULP energy -694312.723455 kJ/mol
# GULP energy per Si atom -12398.441490 kJ/mol
# Density = 1.904050 g / cm^3
# Si number density = 19.083932 Si / 1000 Ang^3
#
#
#
# Elastic Constant Matrix: (Units=GPa)
#
#
# Indices 1 2 3 4 5 6 
#
# 1 114.5848 65.1286 26.7113 0.0000 0.0000 0.0000
# 2 65.1286 106.5525 33.8462 0.0000 0.0000 0.0000
# 3 26.7113 33.8462 38.2234 0.0000 0.0000 0.0000
# 4 0.0000 0.0000 0.0000 18.7202 0.0000 0.0000
# 5 0.0000 0.0000 0.0000 0.0000 24.1197 0.0000
# 6 0.0000 0.0000 0.0000 0.0000 0.0000 42.2942
#
#
#
# Elastic Compliance Matrix: (Units=1/GPa)
#
#
# Indices 1 2 3 4 5 6 
#
# 1 0.013614 -0.007373 -0.002985 0.000000 0.000000 0.000000
# 2 -0.007373 0.017051 -0.009946 0.000000 0.000000 0.000000
# 3 -0.002985 -0.009946 0.037055 0.000000 0.000000 0.000000
# 4 0.000000 0.000000 0.000000 0.053418 0.000000 0.000000
# 5 0.000000 0.000000 0.000000 0.000000 0.041460 0.000000
# 6 0.000000 0.000000 0.000000 0.000000 0.000000 0.023644
#
#
# Mechanical properties :
#
#
# Convention : Reuss Voigt Hill
#
# Bulk Modulus (GPa) = 36.88420 56.74809 46.81614
# Shear Modulus (GPa) = 21.19663 25.93847 23.56755
#
# Velocity S-wave (km/s) = 3.33634 3.69070 3.51799
# Velocity P-wave (km/s) = 5.84901 6.92548 6.40988
#
# Compressibility (1/GPa) = 0.02711188
#
# Stress axis : x y z
#
# Youngs Moduli (GPa) = 73.45534 58.64751 26.98704
#
# Poissons Ratio (x) = 0.43241 0.08055
# Poissons Ratio (y) = 0.54159 0.26841
# Poissons Ratio (z) = 0.21925 0.58331
#
# Static dielectric constant tensor:
#      x y z
#    x 3.769970 0.000000 0.000000 
#    y 0.000000 3.614780 0.000000 
#    z 0.000000 0.000000 3.047340 
# 
# 
# High freq. dielectric constant tensor:
#      x y z
#    x 1.752750 0.000000 0.000000 
#    y 0.000000 1.750780 0.000000 
#    z 0.000000 0.000000 1.695140 
# 
# From -- ./inp_files/8995.got.cif
#   From: 2010.06.25/outbox.cif.g09.slc.cpg/sg58_5_cif.got.tgz:8995.got - 2010.06.26 21:38:00.
