data_PCOD8237475
_publ_section_title
;
Structure prediction by ZEFSAII (Michael W. Deem and Ramdas Pophale) SiO2 
 PCOD8237475
Probable space group: P N N M
;
_chemical_formula_sum "Si O2"
_cell_formula_units_Z 64
_cell_length_a 23.408879
_cell_length_b 15.311980
_cell_length_c 8.922656
_cell_angle_alpha 90.000000
_cell_angle_beta 90.000000
_cell_angle_gamma 90.000000
_cell_volume 3198.203687
_symmetry_space_group_name_H-M "P N N M"
_symmetry_group_IT_number 58
_symmetry_cell_setting 'orthorhombic'
loop_
_space_group_symop_operation_xyz
x,y,z
-x,-y,z
1/2+x,1/2-y,1/2-z
1/2-x,1/2+y,1/2-z
-x,-y,-z
x,y,-z
1/2-x,1/2+y,1/2+z
1/2+x,1/2-y,1/2+z
loop_
_atom_site_type_symbol
_atom_site_label
_atom_site_fract_x
_atom_site_fract_y
_atom_site_fract_z
Si Si1 0.495831 0.401796 0.676851
Si Si2 0.372206 0.337559 0.322408
Si Si3 0.192815 0.503278 0.673209
Si Si4 0.114949 0.344921 0.671043
Si Si5 0.607269 0.349550 0.828342
Si Si6 0.501713 0.100636 0.324559
Si Si7 0.689103 0.503184 0.177242
Si Si8 0.110622 0.662284 0.324659
O O1 0.500000 0.500000 0.739465
O O2 0.501252 0.400005 0.500000
O O3 0.436055 0.361862 0.730208
O O4 0.547358 0.345505 0.742324
O O5 0.365528 0.336432 0.500000
O O6 0.328082 0.407240 0.256928
O O7 0.357469 0.242841 0.255725
O O8 0.211413 0.509297 0.500000
O O9 0.167230 0.408269 0.712539
O O10 0.246748 0.520843 0.777770
O O11 0.145307 0.574940 0.713073
O O12 0.094945 0.363203 0.500000
O O13 0.136777 0.245335 0.690402
O O14 0.062717 0.360749 0.782060
O O15 0.648887 0.424328 0.763556
O O16 0.593662 0.370231 0.000000
O O17 0.490899 0.113606 0.500000
O O18 0.453214 0.153535 0.237645
O O19 0.500000 0.000000 0.276434
O O20 0.684835 0.514167 0.000000
O O21 0.107651 0.681157 0.500000
#
# Coordination Sequence:
#
# PCOD8237475 Si02
#       8
#     8   8   8   8   8   8   8   8
#     4  10  20  36  59  87 119 155 194 237 293 357
#     4  11  23  40  63  90 122 160 200 248 305 361
#     4  10  23  42  63  86 117 159 205 249 301 357
#     4  10  21  40  63  88 119 158 201 245 302 362
#     4  10  22  38  60  89 119 153 194 243 296 353
#     4  11  22  36  59  92 127 160 198 243 300 361
#     4  11  24  41  61  88 121 157 203 252 300 356
#     4  11  23  40  63  91 123 160 203 250 304 363
#
# _framework density 20.011232
#
# number of rings (size 3 to 8) (size 9 to 14) (size 15 to 20)
#    0.000    1.500    2.500    2.250    0.000    7.250 
#    0.000    1.250    0.000    0.000    0.000    0.000 
#    0.000    0.000    0.000    0.000    0.000    0.000 
#
# Total GULP energy -793972.454960 kJ/mol
# GULP energy per Si atom -12405.819609 kJ/mol
# Density = 1.996569 g / cm^3
# Si number density = 20.011232 Si / 1000 Ang^3
#
#
#
# Elastic Constant Matrix: (Units=GPa)
#
#
# Indices 1 2 3 4 5 6 
#
# 1 78.4962 13.4439 27.4318 0.0000 0.0000 0.0000
# 2 13.4439 104.7572 28.5159 0.0000 0.0000 0.0000
# 3 27.4318 28.5159 60.4621 0.0000 0.0000 0.0000
# 4 0.0000 0.0000 0.0000 28.7330 0.0000 0.0000
# 5 0.0000 0.0000 0.0000 0.0000 33.2309 0.0000
# 6 0.0000 0.0000 0.0000 0.0000 0.0000 20.0816
#
#
#
# Elastic Compliance Matrix: (Units=1/GPa)
#
#
# Indices 1 2 3 4 5 6 
#
# 1 0.015141 -0.000084 -0.006830 0.000000 0.000000 0.000000
# 2 -0.000084 0.010952 -0.005127 0.000000 0.000000 0.000000
# 3 -0.006830 -0.005127 0.022056 0.000000 0.000000 0.000000
# 4 0.000000 0.000000 0.000000 0.034803 0.000000 0.000000
# 5 0.000000 0.000000 0.000000 0.000000 0.030092 0.000000
# 6 0.000000 0.000000 0.000000 0.000000 0.000000 0.049797
#
#
# Mechanical properties :
#
#
# Convention : Reuss Voigt Hill
#
# Bulk Modulus (GPa) = 41.55066 42.49987 42.02526
# Shear Modulus (GPa) = 25.64808 28.03068 26.83938
#
# Velocity S-wave (km/s) = 3.58395 3.74672 3.66623
# Velocity P-wave (km/s) = 6.15914 6.32466 6.24245
#
# Compressibility (1/GPa) = 0.02406701
#
# Stress axis : x y z
#
# Youngs Moduli (GPa) = 66.04748 91.30427 45.33861
#
# Poissons Ratio (x) = 0.00766 0.30965
# Poissons Ratio (y) = 0.00554 0.23247
# Poissons Ratio (z) = 0.45109 0.46816
#
# Static dielectric constant tensor:
#      x y z
#    x 3.478820 0.000000 0.000000 
#    y 0.000000 3.880510 0.000000 
#    z 0.000000 0.000000 3.541390 
# 
# 
# High freq. dielectric constant tensor:
#      x y z
#    x 1.769800 0.000000 0.000000 
#    y 0.000000 1.798570 0.000000 
#    z 0.000000 0.000000 1.778890 
# 
# From -- ./inp_files/10068.got.cif
#   From: 2010.06.25/outbox.cif.g09.slc.cpg/sg58_6_cif.got.tgz:10068.got - 2010.06.26 21:38:00.
