data_PCOD8237993
_publ_section_title
;
Structure prediction by ZEFSAII (Michael W. Deem and Ramdas Pophale) SiO2 
 PCOD8237993
Probable space group: P N N M
;
_chemical_formula_sum "Si O2"
_cell_formula_units_Z 56
_cell_length_a 16.329882
_cell_length_b 19.484188
_cell_length_c 8.895107
_cell_angle_alpha 90.000000
_cell_angle_beta 90.000000
_cell_angle_gamma 90.000000
_cell_volume 2830.196141
_symmetry_space_group_name_H-M "P N N M"
_symmetry_group_IT_number 58
_symmetry_cell_setting 'orthorhombic'
loop_
_space_group_symop_operation_xyz
x,y,z
-x,-y,z
1/2+x,1/2-y,1/2-z
1/2-x,1/2+y,1/2-z
-x,-y,-z
x,y,-z
1/2-x,1/2+y,1/2+z
1/2+x,1/2-y,1/2+z
loop_
_atom_site_type_symbol
_atom_site_label
_atom_site_fract_x
_atom_site_fract_y
_atom_site_fract_z
Si Si1 0.561271 0.940045 0.825327
Si Si2 0.800766 0.126818 0.676090
Si Si3 0.514290 0.188224 0.675400
Si Si4 0.258256 0.008256 0.174201
Si Si5 0.144969 0.134052 0.173507
Si Si6 0.179008 0.274214 0.322600
Si Si7 0.538021 0.660124 0.671980
O O1 0.544005 0.872426 0.729477
O O2 0.652919 0.962361 0.788094
O O3 0.500000 0.000000 0.774455
O O4 0.549339 0.922358 0.000000
O O5 0.791635 0.136905 0.500000
O O6 0.760912 0.191493 0.759404
O O7 0.896115 0.124128 0.721068
O O8 0.755750 0.057407 0.723406
O O9 0.533360 0.181434 0.500000
O O10 0.600684 0.184682 0.760592
O O11 0.468965 0.259456 0.711374
O O12 0.190691 0.064577 0.217571
O O13 0.251438 0.986842 0.000000
O O14 0.179772 0.195041 0.274853
O O15 0.048624 0.123139 0.202954
O O16 0.160380 0.154413 0.000000
O O17 0.178853 0.279907 0.500000
O O18 0.565379 0.649508 0.500000
#
# Coordination Sequence:
#
# PCOD8237993 Si02
#       7
#     8   8   8   8   8   8   8
#     4  10  21  36  57  87 123 162 201 242 296 363
#     4  12  25  39  59  87 120 157 203 251 299 357
#     4  10  21  38  61  89 120 154 197 247 298 356
#     4  10  22  40  61  87 121 161 201 247 307 365
#     4   9  20  40  63  89 119 155 200 250 304 362
#     4  11  22  38  62  88 120 158 198 247 302 357
#     4   9  20  39  60  85 117 154 198 246 303 360
#
# _framework density 19.786615000000001
#
# number of rings (size 3 to 8) (size 9 to 14) (size 15 to 20)
#    0.000    1.857    0.000    4.714    2.000    6.000 
#    0.000    2.857    0.000    0.000    0.000    0.000 
#    0.000    0.000    0.000    0.000    0.000    0.000 
#
# Total GULP energy -694750.373143 kJ/mol
# GULP energy per Si atom -12406.256663 kJ/mol
# Density = 1.974158 g / cm^3
# Si number density = 19.786615 Si / 1000 Ang^3
#
#
#
# Elastic Constant Matrix: (Units=GPa)
#
#
# Indices 1 2 3 4 5 6 
#
# 1 85.2650 16.6185 34.0115 0.0000 0.0000 0.0000
# 2 16.6185 37.7504 28.4334 0.0000 0.0000 0.0000
# 3 34.0115 28.4334 105.4112 0.0000 0.0000 0.0000
# 4 0.0000 0.0000 0.0000 34.9627 0.0000 0.0000
# 5 0.0000 0.0000 0.0000 0.0000 26.8432 0.0000
# 6 0.0000 0.0000 0.0000 0.0000 0.0000 32.9258
#
#
#
# Elastic Compliance Matrix: (Units=1/GPa)
#
#
# Indices 1 2 3 4 5 6 
#
# 1 0.013803 -0.003416 -0.003532 0.000000 0.000000 0.000000
# 2 -0.003416 0.034089 -0.008093 0.000000 0.000000 0.000000
# 3 -0.003532 -0.008093 0.012809 0.000000 0.000000 0.000000
# 4 0.000000 0.000000 0.000000 0.028602 0.000000 0.000000
# 5 0.000000 0.000000 0.000000 0.000000 0.037253 0.000000
# 6 0.000000 0.000000 0.000000 0.000000 0.000000 0.030371
#
#
# Mechanical properties :
#
#
# Convention : Reuss Voigt Hill
#
# Bulk Modulus (GPa) = 32.65919 42.95035 37.80477
# Shear Modulus (GPa) = 25.35287 28.90389 27.12838
#
# Velocity S-wave (km/s) = 3.58343 3.82616 3.70678
# Velocity P-wave (km/s) = 5.80197 6.42443 6.12111
#
# Compressibility (1/GPa) = 0.03061925
#
# Stress axis : x y z
#
# Youngs Moduli (GPa) = 72.44878 29.33488 78.06820
#
# Poissons Ratio (x) = 0.10020 0.27575
# Poissons Ratio (y) = 0.24748 0.63180
# Poissons Ratio (z) = 0.25590 0.23741
#
# Static dielectric constant tensor:
#      x y z
#    x 3.720560 0.000000 0.000000 
#    y 0.000000 3.529450 0.000000 
#    z 0.000000 0.000000 3.517260 
# 
# 
# High freq. dielectric constant tensor:
#      x y z
#    x 1.782230 0.000000 0.000000 
#    y 0.000000 1.771200 0.000000 
#    z 0.000000 0.000000 1.767100 
# 
# From -- ./inp_files/6434.got.cif
#   From: 2010.06.25/outbox.cif.g09.slc.cpg/sg58_4_cif.got.tgz:6434.got - 2010.06.26 21:38:00.
