data_PCOD8237959
_publ_section_title
;
Structure prediction by ZEFSAII (Michael W. Deem and Ramdas Pophale) SiO2 
 PCOD8237959
Probable space group: P N N M
;
_chemical_formula_sum "Si O2"
_cell_formula_units_Z 56
_cell_length_a 26.513526
_cell_length_b 5.148190
_cell_length_c 21.430462
_cell_angle_alpha 90.000000
_cell_angle_beta 90.000000
_cell_angle_gamma 90.000000
_cell_volume 2925.186687
_symmetry_space_group_name_H-M "P N N M"
_symmetry_group_IT_number 58
_symmetry_cell_setting 'orthorhombic'
loop_
_space_group_symop_operation_xyz
x,y,z
-x,-y,z
1/2+x,1/2-y,1/2-z
1/2-x,1/2+y,1/2-z
-x,-y,-z
x,y,-z
1/2-x,1/2+y,1/2+z
1/2+x,1/2-y,1/2+z
loop_
_atom_site_type_symbol
_atom_site_label
_atom_site_fract_x
_atom_site_fract_y
_atom_site_fract_z
Si Si1 0.771655 0.755404 0.141244
Si Si2 0.754298 0.757027 0.428758
Si Si3 0.969892 0.749323 0.763443
Si Si4 0.140331 0.202739 0.235611
Si Si5 0.468935 0.751495 0.884550
Si Si6 0.663932 0.790969 0.186674
Si Si7 0.636599 0.086357 0.928581
O O1 0.765070 0.970326 0.087832
O O2 0.820982 0.832653 0.179432
O O3 0.723824 0.749440 0.187129
O O4 0.775756 0.470558 0.111089
O O5 0.741727 0.812908 0.500000
O O6 0.814727 0.771918 0.415583
O O7 0.914764 0.756895 0.794673
O O8 0.961856 0.739899 0.689364
O O9 0.000000 0.500000 0.787838
O O10 0.000000 0.000000 0.785564
O O11 0.154719 0.449632 0.275391
O O12 0.137250 0.951231 0.280425
O O13 0.500000 0.500000 0.906425
O O14 0.500000 0.000000 0.908295
O O15 0.413949 0.749391 0.916312
O O16 0.640275 0.834932 0.117322
O O17 0.638276 0.984816 0.000000
#
# Coordination Sequence:
#
# PCOD8237959 Si02
#       7
#     8   8   8   8   8   8   8
#     4  11  22  36  58  89 112 144 188 220 275 342
#     4  10  22  40  59  82 119 150 179 223 274 336
#     4  10  21  36  55  79 106 148 185 226 286 340
#     4  12  22  37  60  82 115 143 182 236 284 337
#     4  10  22  36  54  73 102 143 194 250 291 325
#     4  11  22  36  55  81 114 147 180 237 292 334
#     4  10  22  39  58  80 107 153 202 242 286 334
#
# _framework density 19.144079000000001
#
# number of rings (size 3 to 8) (size 9 to 14) (size 15 to 20)
#    0.000    1.429    1.429    4.714    4.000    2.286 
#    0.000    5.000    0.000    0.000    0.000    0.000 
#    0.000   11.429    0.000    0.000    0.000    0.000 
#
# Total GULP energy -694577.114237 kJ/mol
# GULP energy per Si atom -12403.162754 kJ/mol
# Density = 1.910051 g / cm^3
# Si number density = 19.144079 Si / 1000 Ang^3
#
#
#
# Elastic Constant Matrix: (Units=GPa)
#
#
# Indices 1 2 3 4 5 6 
#
# 1 135.7625 37.2201 38.2416 0.0000 0.0000 0.0000
# 2 37.2201 127.7822 25.9295 0.0000 0.0000 0.0000
# 3 38.2416 25.9295 58.5050 0.0000 0.0000 0.0000
# 4 0.0000 0.0000 0.0000 10.4734 0.0000 0.0000
# 5 0.0000 0.0000 0.0000 0.0000 -6.9944 0.0000
# 6 0.0000 0.0000 0.0000 0.0000 0.0000 23.5556
#
#
#
# Elastic Compliance Matrix: (Units=1/GPa)
#
#
# Indices 1 2 3 4 5 6 
#
# 1 0.009326 -0.001626 -0.005375 0.000000 0.000000 0.000000
# 2 -0.001626 0.008883 -0.002874 0.000000 0.000000 0.000000
# 3 -0.005375 -0.002874 0.021880 0.000000 0.000000 0.000000
# 4 0.000000 0.000000 0.000000 0.095480 0.000000 0.000000
# 5 0.000000 0.000000 0.000000 0.000000 -0.142972 0.000000
# 6 0.000000 0.000000 0.000000 0.000000 0.000000 0.042453
#
#
# Mechanical properties :
#
#
# Convention : Reuss Voigt Hill
#
# Bulk Modulus (GPa) = 49.16888 58.31468 53.74178
# Shear Modulus (GPa) = 81.19845 20.11751 50.65798
#
# Velocity S-wave (km/s) = 6.51970 3.24519 5.14965
# Velocity P-wave (km/s) = 9.07825 6.67599 7.96817
#
# Compressibility (1/GPa) = 0.02033807
#
# Stress axis : x y z
#
# Youngs Moduli (GPa) = 107.23233 112.58037 45.70416
#
# Poissons Ratio (x) = 0.18301 0.24567
# Poissons Ratio (y) = 0.17432 0.13136
# Poissons Ratio (z) = 0.57639 0.32358
#
# Static dielectric constant tensor:
#      x y z
#    x 3.653750 0.000000 0.000000 
#    y 0.000000 3.571100 0.000000 
#    z 0.000000 0.000000 3.212710 
# 
# 
# High freq. dielectric constant tensor:
#      x y z
#    x 1.741690 0.000000 0.000000 
#    y 0.000000 1.759350 0.000000 
#    z 0.000000 0.000000 1.702450 
# 
# From -- ./inp_files/30516.got.cif
#   From: 2010.06.25/outbox.cif.g09.slc.cpg/sg58_16_cif.got.tgz:30516.got - 2010.06.26 21:38:00.
