data_PCOD8237492
_publ_section_title
;
Structure prediction by ZEFSAII (Michael W. Deem and Ramdas Pophale) SiO2 
 PCOD8237492
Probable space group: P N N M
;
_chemical_formula_sum "Si O2"
_cell_formula_units_Z 48
_cell_length_a 9.830903
_cell_length_b 27.738935
_cell_length_c 9.295647
_cell_angle_alpha 90.000000
_cell_angle_beta 90.000000
_cell_angle_gamma 90.000000
_cell_volume 2534.911590
_symmetry_space_group_name_H-M "P N N M"
_symmetry_group_IT_number 58
_symmetry_cell_setting 'orthorhombic'
loop_
_space_group_symop_operation_xyz
x,y,z
-x,-y,z
1/2+x,1/2-y,1/2-z
1/2-x,1/2+y,1/2-z
-x,-y,-z
x,y,-z
1/2-x,1/2+y,1/2+z
1/2+x,1/2-y,1/2+z
loop_
_atom_site_type_symbol
_atom_site_label
_atom_site_fract_x
_atom_site_fract_y
_atom_site_fract_z
Si Si1 0.522536 0.357433 0.334916
Si Si2 0.403554 0.458071 0.329316
Si Si3 0.262363 0.187782 0.332762
Si Si4 0.546785 0.140455 0.331223
Si Si5 0.238127 0.797748 0.834380
Si Si6 0.904928 0.545267 0.332268
O O1 0.564165 0.364812 0.500000
O O2 0.455903 0.406402 0.272801
O O3 0.658687 0.346403 0.249371
O O4 0.418462 0.313248 0.316944
O O5 0.500000 0.500000 0.264372
O O6 0.409412 0.459377 0.500000
O O7 0.248271 0.466252 0.278567
O O8 0.230444 0.182997 0.500000
O O9 0.413317 0.170932 0.295555
O O10 0.247522 0.242927 0.281878
O O11 0.569570 0.133601 0.500000
O O12 0.673846 0.168642 0.267035
O O13 0.532099 0.088726 0.257847
O O14 0.284368 0.804381 0.000000
O O15 0.904579 0.559606 0.500000
O O16 0.000000 0.500000 0.301295
#
# Coordination Sequence:
#
# PCOD8237492 Si02
#       6
#     8   8   8   8   8   8
#     4  10  20  36  60  85 114 148 189 239 288 338
#     4   9  18  34  57  86 113 140 181 236 286 330
#     4  10  23  38  55  83 119 154 190 235 283 339
#     4  11  23  39  59  85 121 156 189 235 293 346
#     4  10  20  39  61  82 112 151 196 241 283 334
#     4  10  21  38  62  87 113 149 194 239 285 340
#
# _framework density 18.935570999999999
#
# number of rings (size 3 to 8) (size 9 to 14) (size 15 to 20)
#    0.000    2.000    1.667    1.500    2.333    4.333 
#    0.000    0.000    0.000    1.000    0.000    0.000 
#    0.000    0.000    0.000    0.000    0.000    0.000 
#
# Total GULP energy -595363.298520 kJ/mol
# GULP energy per Si atom -12403.402053 kJ/mol
# Density = 1.889247 g / cm^3
# Si number density = 18.935571 Si / 1000 Ang^3
#
#
#
# Elastic Constant Matrix: (Units=GPa)
#
#
# Indices 1 2 3 4 5 6 
#
# 1 56.6535 31.5732 34.0225 0.0000 0.0000 0.0000
# 2 31.5732 115.0816 37.2991 0.0000 0.0000 0.0000
# 3 34.0225 37.2991 54.6603 0.0000 0.0000 0.0000
# 4 0.0000 0.0000 0.0000 26.1955 0.0000 0.0000
# 5 0.0000 0.0000 0.0000 0.0000 26.0500 0.0000
# 6 0.0000 0.0000 0.0000 0.0000 0.0000 37.0836
#
#
#
# Elastic Compliance Matrix: (Units=1/GPa)
#
#
# Indices 1 2 3 4 5 6 
#
# 1 0.028820 -0.002687 -0.016105 0.000000 0.000000 0.000000
# 2 -0.002687 0.011408 -0.006112 0.000000 0.000000 0.000000
# 3 -0.016105 -0.006112 0.032490 0.000000 0.000000 0.000000
# 4 0.000000 0.000000 0.000000 0.038175 0.000000 0.000000
# 5 0.000000 0.000000 0.000000 0.000000 0.038388 0.000000
# 6 0.000000 0.000000 0.000000 0.000000 0.000000 0.026966
#
#
# Mechanical properties :
#
#
# Convention : Reuss Voigt Hill
#
# Bulk Modulus (GPa) = 43.64974 48.02056 45.83515
# Shear Modulus (GPa) = 21.39577 26.09919 23.74748
#
# Velocity S-wave (km/s) = 3.36508 3.71659 3.54520
# Velocity P-wave (km/s) = 6.18063 6.62061 6.40440
#
# Compressibility (1/GPa) = 0.02290964
#
# Stress axis : x y z
#
# Youngs Moduli (GPa) = 34.69755 87.66093 30.77891
#
# Poissons Ratio (x) = 0.23556 0.49570
# Poissons Ratio (y) = 0.09324 0.18811
# Poissons Ratio (z) = 0.55881 0.53576
#
# Static dielectric constant tensor:
#      x y z
#    x 3.486450 0.000000 0.000000 
#    y 0.000000 3.709730 0.000000 
#    z 0.000000 0.000000 3.252160 
# 
# 
# High freq. dielectric constant tensor:
#      x y z
#    x 1.745210 0.000000 0.000000 
#    y 0.000000 1.749090 0.000000 
#    z 0.000000 0.000000 1.710290 
# 
# From -- ./inp_files/2878.got.cif
#   From: 2010.06.25/outbox.cif.g09.slc.cpg/sg58_2_cif.got.tgz:2878.got - 2010.06.26 21:38:00.
