data_PCOD8237597
_publ_section_title
;
Structure prediction by ZEFSAII (Michael W. Deem and Ramdas Pophale) SiO2 
 PCOD8237597
Probable space group: P N N M
;
_chemical_formula_sum "Si O2"
_cell_formula_units_Z 48
_cell_length_a 17.020415
_cell_length_b 14.789006
_cell_length_c 9.773239
_cell_angle_alpha 90.000000
_cell_angle_beta 90.000000
_cell_angle_gamma 90.000000
_cell_volume 2460.071046
_symmetry_space_group_name_H-M "P N N M"
_symmetry_group_IT_number 58
_symmetry_cell_setting 'orthorhombic'
loop_
_space_group_symop_operation_xyz
x,y,z
-x,-y,z
1/2+x,1/2-y,1/2-z
1/2-x,1/2+y,1/2-z
-x,-y,-z
x,y,-z
1/2-x,1/2+y,1/2+z
1/2+x,1/2-y,1/2+z
loop_
_atom_site_type_symbol
_atom_site_label
_atom_site_fract_x
_atom_site_fract_y
_atom_site_fract_z
Si Si1 0.004034 0.740817 0.157671
Si Si2 0.532324 0.403717 0.844308
Si Si3 0.205917 0.115108 0.252565
Si Si4 0.670359 0.193474 0.652108
Si Si5 0.696916 0.038133 0.156154
Si Si6 0.630289 0.904448 0.347607
O O1 0.073656 0.674746 0.204923
O O2 0.009155 0.830052 0.249205
O O3 0.922504 0.688677 0.181454
O O4 0.013473 0.770469 0.000000
O O5 0.500000 0.500000 0.795139
O O6 0.626584 0.402010 0.835651
O O7 0.507493 0.383845 0.000000
O O8 0.198334 0.202963 0.157430
O O9 0.279533 0.131501 0.354618
O O10 0.225678 0.026207 0.159967
O O11 0.689883 0.156396 0.500000
O O12 0.714214 0.132459 0.765699
O O13 0.625974 0.987889 0.239666
O O14 0.672100 0.057666 0.000000
O O15 0.604957 0.936533 0.500000
#
# Coordination Sequence:
#
# PCOD8237597 Si02
#       6
#     8   8   8   8   8   8
#     4   9  20  38  58  84 113 150 193 236 286 346
#     4  10  21  37  58  86 116 151 193 239 290 344
#     4   9  21  38  60  80 117 152 193 235 286 340
#     4  10  20  37  60  81 112 153 191 234 291 347
#     4  10  22  37  57  86 115 148 193 240 289 342
#     4   9  19  37  59  81 110 148 190 230 281 340
#
# _framework density 19.511631999999999
#
# number of rings (size 3 to 8) (size 9 to 14) (size 15 to 20)
#    1.000    1.500    0.000    1.500    0.000    7.000 
#    0.000    6.667    0.000    0.000    0.000    0.000 
#    0.000    0.000    0.000    0.000    0.000    0.000 
#
# Total GULP energy -594890.158678 kJ/mol
# GULP energy per Si atom -12393.544972 kJ/mol
# Density = 1.946722 g / cm^3
# Si number density = 19.511632 Si / 1000 Ang^3
#
#
#
# Elastic Constant Matrix: (Units=GPa)
#
#
# Indices 1 2 3 4 5 6 
#
# 1 55.3220 32.9759 8.5148 0.0000 0.0000 0.0000
# 2 32.9759 117.3499 57.6871 0.0000 0.0000 0.0000
# 3 8.5148 57.6871 120.8308 0.0000 0.0000 0.0000
# 4 0.0000 0.0000 0.0000 31.1148 0.0000 0.0000
# 5 0.0000 0.0000 0.0000 0.0000 11.7397 0.0000
# 6 0.0000 0.0000 0.0000 0.0000 0.0000 24.5436
#
#
#
# Elastic Compliance Matrix: (Units=1/GPa)
#
#
# Indices 1 2 3 4 5 6 
#
# 1 0.022019 -0.007088 0.001832 0.000000 0.000000 0.000000
# 2 -0.007088 0.013417 -0.005906 0.000000 0.000000 0.000000
# 3 0.001832 -0.005906 0.010966 0.000000 0.000000 0.000000
# 4 0.000000 0.000000 0.000000 0.032139 0.000000 0.000000
# 5 0.000000 0.000000 0.000000 0.000000 0.085181 0.000000
# 6 0.000000 0.000000 0.000000 0.000000 0.000000 0.040744
#
#
# Mechanical properties :
#
#
# Convention : Reuss Voigt Hill
#
# Bulk Modulus (GPa) = 41.53036 54.65090 48.09063
# Shear Modulus (GPa) = 21.29329 26.43461 23.86395
#
# Velocity S-wave (km/s) = 3.30709 3.68477 3.50103
# Velocity P-wave (km/s) = 5.99279 6.79511 6.40653
#
# Compressibility (1/GPa) = 0.02407877
#
# Stress axis : x y z
#
# Youngs Moduli (GPa) = 45.41520 74.53475 91.18704
#
# Poissons Ratio (x) = 0.52832 -0.16709
# Poissons Ratio (y) = 0.32191 0.53854
# Poissons Ratio (z) = -0.08322 0.44019
#
# Static dielectric constant tensor:
#      x y z
#    x 3.399960 0.000000 0.000000 
#    y 0.000000 3.453770 0.000000 
#    z 0.000000 0.000000 3.364960 
# 
# 
# High freq. dielectric constant tensor:
#      x y z
#    x 1.741120 0.000000 0.000000 
#    y 0.000000 1.759910 0.000000 
#    z 0.000000 0.000000 1.755600 
# 
# From -- ./inp_files/8853.got.cif
#   From: 2010.06.25/outbox.cif.g09.slc.cpg/sg58_5_cif.got.tgz:8853.got - 2010.06.26 21:38:00.
