data_PCOD8237116
_publ_section_title
;
Structure prediction by ZEFSAII (Michael W. Deem and Ramdas Pophale) SiO2 
 PCOD8237116
Probable space group: P N N M
;
_chemical_formula_sum "Si O2"
_cell_formula_units_Z 48
_cell_length_a 13.052386
_cell_length_b 9.275019
_cell_length_c 21.033615
_cell_angle_alpha 90.000000
_cell_angle_beta 90.000000
_cell_angle_gamma 90.000000
_cell_volume 2546.353161
_symmetry_space_group_name_H-M "P N N M"
_symmetry_group_IT_number 58
_symmetry_cell_setting 'orthorhombic'
loop_
_space_group_symop_operation_xyz
x,y,z
-x,-y,z
1/2+x,1/2-y,1/2-z
1/2-x,1/2+y,1/2-z
-x,-y,-z
x,y,-z
1/2-x,1/2+y,1/2+z
1/2+x,1/2-y,1/2+z
loop_
_atom_site_type_symbol
_atom_site_label
_atom_site_fract_x
_atom_site_fract_y
_atom_site_fract_z
Si Si1 0.714556 0.502223 0.208764
Si Si2 0.130779 0.849610 0.500000
Si Si3 0.211146 0.268381 0.371923
Si Si4 0.219310 0.722165 0.373473
Si Si5 0.888738 0.491949 0.702485
Si Si6 0.880432 0.011278 0.158295
Si Si7 0.890943 0.809410 0.500000
O O1 0.697350 0.396553 0.149804
O O2 0.730613 0.660497 0.181532
O O3 0.818154 0.442521 0.239840
O O4 0.628420 0.505176 0.264527
O O5 0.195315 0.792922 0.440538
O O6 0.014269 0.790137 0.500000
O O7 0.134580 0.021770 0.500000
O O8 0.141267 0.351129 0.321739
O O9 0.325595 0.341605 0.368978
O O10 0.161774 0.273581 0.441500
O O11 0.122461 0.621085 0.355473
O O12 0.322318 0.624855 0.373973
O O13 0.000000 0.500000 0.731365
O O14 0.000000 0.000000 0.139085
#
# Coordination Sequence:
#
# PCOD8237116 Si02
#       7
#     8   4   8   8   8   8   4
#     4  10  20  35  57  84 117 146 183 237 280 323
#     4  11  22  37  61  86 110 146 183 227 291 345
#     4  10  21  38  56  84 118 144 186 239 273 331
#     4  10  21  38  56  84 118 144 186 239 273 331
#     4  10  20  34  55  83 113 148 183 227 286 333
#     4  10  22  38  60  84 112 156 192 226 282 334
#     4  11  22  37  61  86 110 146 183 227 291 345
#
# _framework density 18.850487000000001
#
# number of rings (size 3 to 8) (size 9 to 14) (size 15 to 20)
#    0.000    2.167    1.667    5.000    0.000    9.333 
#    0.000    5.833    0.000    1.000    0.000    0.000 
#    0.000    0.000    0.000    0.000    0.000    0.000 
#
# Total GULP energy -594762.899761 kJ/mol
# GULP energy per Si atom -12390.893745 kJ/mol
# Density = 1.880758 g / cm^3
# Si number density = 18.850487 Si / 1000 Ang^3
#
#
#
# Elastic Constant Matrix: (Units=GPa)
#
#
# Indices 1 2 3 4 5 6 
#
# 1 112.6498 22.0710 29.5586 0.0000 0.0000 0.0000
# 2 22.0710 84.0216 11.9922 0.0000 0.0000 0.0000
# 3 29.5586 11.9922 90.5013 0.0000 0.0000 0.0000
# 4 0.0000 0.0000 0.0000 24.7590 0.0000 0.0000
# 5 0.0000 0.0000 0.0000 0.0000 6.4380 0.0000
# 6 0.0000 0.0000 0.0000 0.0000 0.0000 17.6693
#
#
#
# Elastic Compliance Matrix: (Units=1/GPa)
#
#
# Indices 1 2 3 4 5 6 
#
# 1 0.010101 -0.002225 -0.003004 0.000000 0.000000 0.000000
# 2 -0.002225 0.012621 -0.000946 0.000000 0.000000 0.000000
# 3 -0.003004 -0.000946 0.012156 0.000000 0.000000 0.000000
# 4 0.000000 0.000000 0.000000 0.040389 0.000000 0.000000
# 5 0.000000 0.000000 0.000000 0.000000 0.155328 0.000000
# 6 0.000000 0.000000 0.000000 0.000000 0.000000 0.056595
#
#
# Mechanical properties :
#
#
# Convention : Reuss Voigt Hill
#
# Bulk Modulus (GPa) = 44.38758 46.04628 45.21693
# Shear Modulus (GPa) = 16.28395 24.67665 20.48030
#
# Velocity S-wave (km/s) = 2.94232 3.62204 3.29972
# Velocity P-wave (km/s) = 5.92801 6.47860 6.20941
#
# Compressibility (1/GPa) = 0.02252883
#
# Stress axis : x y z
#
# Youngs Moduli (GPa) = 98.99755 79.23262 82.26286
#
# Poissons Ratio (x) = 0.17626 0.24715
# Poissons Ratio (y) = 0.22023 0.07781
# Poissons Ratio (z) = 0.29743 0.07494
#
# Static dielectric constant tensor:
#      x y z
#    x 3.441460 0.000000 0.000000 
#    y 0.000000 3.569080 0.000000 
#    z 0.000000 0.000000 3.344160 
# 
# 
# High freq. dielectric constant tensor:
#      x y z
#    x 1.714440 0.000000 0.000000 
#    y 0.000000 1.748160 0.000000 
#    z 0.000000 0.000000 1.726060 
# 
# From -- ./inp_files/19999.got.cif
#   From: 2010.06.25/outbox.cif.g09.slc.cpg/sg58_10_cif.got.tgz:19999.got - 2010.06.26 21:38:00.
