data_PCOD8237638
_publ_section_title
;
Structure prediction by ZEFSAII (Michael W. Deem and Ramdas Pophale) SiO2 
 PCOD8237638
Probable space group: P N N M
;
_chemical_formula_sum "Si O2"
_cell_formula_units_Z 64
_cell_length_a 32.860082
_cell_length_b 11.489889
_cell_length_c 8.500432
_cell_angle_alpha 90.000000
_cell_angle_beta 90.000000
_cell_angle_gamma 90.000000
_cell_volume 3209.412010
_symmetry_space_group_name_H-M "P N N M"
_symmetry_group_IT_number 58
_symmetry_cell_setting 'orthorhombic'
loop_
_space_group_symop_operation_xyz
x,y,z
-x,-y,z
1/2+x,1/2-y,1/2-z
1/2-x,1/2+y,1/2-z
-x,-y,-z
x,y,-z
1/2-x,1/2+y,1/2+z
1/2+x,1/2-y,1/2+z
loop_
_atom_site_type_symbol
_atom_site_label
_atom_site_fract_x
_atom_site_fract_y
_atom_site_fract_z
Si Si1 0.299152 0.443028 0.680709
Si Si2 0.362990 0.034617 0.683153
Si Si3 0.967691 0.849084 0.184431
Si Si4 0.172980 0.176742 0.318914
Si Si5 0.093595 0.322129 0.684440
Si Si6 0.285357 0.887485 0.318101
Si Si7 0.865566 0.215242 0.682859
Si Si8 0.948241 0.092586 0.315439
O O1 0.286388 0.436792 0.500000
O O2 0.322993 0.561822 0.714926
O O3 0.258538 0.440845 0.784446
O O4 0.327506 0.333591 0.720251
O O5 0.365669 0.065659 0.500000
O O6 0.370137 0.148676 0.785772
O O7 0.398224 0.943488 0.728011
O O8 0.319077 0.982523 0.730081
O O9 0.947994 0.729953 0.246704
O O10 0.015630 0.844467 0.220760
O O11 0.946667 0.956161 0.275374
O O12 0.960536 0.864423 0.000000
O O13 0.175906 0.140230 0.500000
O O14 0.129687 0.232369 0.276448
O O15 0.208519 0.269126 0.280449
O O16 0.089619 0.345670 0.500000
O O17 0.289844 0.854867 0.500000
O O18 0.857628 0.191696 0.500000
O O19 0.906332 0.150542 0.739321
O O20 0.956004 0.109050 0.500000
#
# Coordination Sequence:
#
# PCOD8237638 Si02
#       8
#     8   8   8   8   8   8   8   8
#     4  12  25  38  58  85 115 153 193 239 292 345
#     4  10  22  40  62  86 116 153 194 243 296 351
#     4  11  21  34  59  91 122 154 192 244 295 346
#     4  10  21  38  59  84 114 146 189 239 288 342
#     4  10  20  37  61  86 115 154 195 238 288 348
#     4  10  22  40  60  83 113 149 192 240 290 346
#     4  11  24  41  61  85 117 156 197 241 293 352
#     4  10  21  38  59  86 120 158 196 240 294 353
#
# _framework density 19.941347
#
# number of rings (size 3 to 8) (size 9 to 14) (size 15 to 20)
#    0.000    1.500    0.000    6.000    1.750    8.000 
#    0.000    0.625    0.000    3.750    0.000    0.000 
#    0.000    0.000    0.000    0.000    0.000    0.000 
#
# Total GULP energy -794087.693826 kJ/mol
# GULP energy per Si atom -12407.620216 kJ/mol
# Density = 1.989596 g / cm^3
# Si number density = 19.941347 Si / 1000 Ang^3
#
#
#
# Elastic Constant Matrix: (Units=GPa)
#
#
# Indices 1 2 3 4 5 6 
#
# 1 80.4321 31.8115 21.6342 0.0000 0.0000 0.0000
# 2 31.8115 83.2633 15.3698 0.0000 0.0000 0.0000
# 3 21.6342 15.3698 57.2088 0.0000 0.0000 0.0000
# 4 0.0000 0.0000 0.0000 34.8286 0.0000 0.0000
# 5 0.0000 0.0000 0.0000 0.0000 28.2217 0.0000
# 6 0.0000 0.0000 0.0000 0.0000 0.0000 24.8561
#
#
#
# Elastic Compliance Matrix: (Units=1/GPa)
#
#
# Indices 1 2 3 4 5 6 
#
# 1 0.015696 -0.005157 -0.004550 0.000000 0.000000 0.000000
# 2 -0.005157 0.014331 -0.001900 0.000000 0.000000 0.000000
# 3 -0.004550 -0.001900 0.019711 0.000000 0.000000 0.000000
# 4 0.000000 0.000000 0.000000 0.028712 0.000000 0.000000
# 5 0.000000 0.000000 0.000000 0.000000 0.035434 0.000000
# 6 0.000000 0.000000 0.000000 0.000000 0.000000 0.040232
#
#
# Mechanical properties :
#
#
# Convention : Reuss Voigt Hill
#
# Bulk Modulus (GPa) = 37.70187 39.83725 38.76956
# Shear Modulus (GPa) = 26.85693 27.72055 27.28874
#
# Velocity S-wave (km/s) = 3.67385 3.73245 3.70327
# Velocity P-wave (km/s) = 6.07813 6.21253 6.14570
#
# Compressibility (1/GPa) = 0.02652388
#
# Stress axis : x y z
#
# Youngs Moduli (GPa) = 63.70895 69.77831 50.73302
#
# Poissons Ratio (x) = 0.35985 0.23085
# Poissons Ratio (y) = 0.32855 0.09639
# Poissons Ratio (z) = 0.28989 0.13258
#
# Static dielectric constant tensor:
#      x y z
#    x 3.618860 0.000000 0.000000 
#    y 0.000000 3.546360 0.000000 
#    z 0.000000 0.000000 3.617430 
# 
# 
# High freq. dielectric constant tensor:
#      x y z
#    x 1.774950 0.000000 0.000000 
#    y 0.000000 1.774770 0.000000 
#    z 0.000000 0.000000 1.789660 
# 
# From -- ./inp_files/11082.got.cif
#   From: 2010.06.25/outbox.cif.g09.slc.cpg/sg58_6_cif.got.tgz:11082.got - 2010.06.26 21:38:00.
