data_PCOD8237275
_publ_section_title
;
Structure prediction by ZEFSAII (Michael W. Deem and Ramdas Pophale) SiO2 
 PCOD8237275
Probable space group: P N N M
;
_chemical_formula_sum "Si O2"
_cell_formula_units_Z 64
_cell_length_a 20.460227
_cell_length_b 18.095029
_cell_length_c 8.864239
_cell_angle_alpha 90.000000
_cell_angle_beta 90.000000
_cell_angle_gamma 90.000000
_cell_volume 3281.793030
_symmetry_space_group_name_H-M "P N N M"
_symmetry_group_IT_number 58
_symmetry_cell_setting 'orthorhombic'
loop_
_space_group_symop_operation_xyz
x,y,z
-x,-y,z
1/2+x,1/2-y,1/2-z
1/2-x,1/2+y,1/2-z
-x,-y,-z
x,y,-z
1/2-x,1/2+y,1/2+z
1/2+x,1/2-y,1/2+z
loop_
_atom_site_type_symbol
_atom_site_label
_atom_site_fract_x
_atom_site_fract_y
_atom_site_fract_z
Si Si1 0.234772 0.071179 0.321770
Si Si2 0.866832 0.648601 0.823031
Si Si3 0.487911 0.145553 0.673081
Si Si4 0.649248 0.687412 0.830230
Si Si5 0.008795 0.794530 0.329777
Si Si6 0.744967 0.580450 0.676811
Si Si7 0.358717 0.137931 0.173378
Si Si8 0.634148 0.306872 0.826931
O O1 0.230848 0.062594 0.500000
O O2 0.307036 0.094603 0.273965
O O3 0.182791 0.131473 0.261533
O O4 0.215081 0.993574 0.247875
O O5 0.939288 0.615844 0.787849
O O6 0.816875 0.593705 0.742808
O O7 0.856686 0.731662 0.764412
O O8 0.852872 0.649643 0.000000
O O9 0.470022 0.130294 0.500000
O O10 0.491109 0.232854 0.701505
O O11 0.431013 0.110268 0.776130
O O12 0.574594 0.656526 0.808321
O O13 0.697327 0.648629 0.713713
O O14 0.648879 0.774811 0.797528
O O15 0.674031 0.671276 0.000000
O O16 0.012492 0.758919 0.500000
O O17 0.940433 0.838706 0.313301
O O18 0.750611 0.571169 0.500000
O O19 0.347701 0.116849 0.000000
O O20 0.651712 0.289101 0.000000
#
# Coordination Sequence:
#
# PCOD8237275 Si02
#       8
#     8   8   8   8   8   8   8   8
#     4  11  23  38  55  76 107 143 179 222 268 316
#     4  10  20  35  57  83 110 139 173 217 266 315
#     4   9  17  30  52  82 110 136 169 212 262 312
#     4   9  18  34  57  82 109 140 173 214 262 311
#     4   8  15  30  53  81 109 135 169 215 263 311
#     4  12  25  38  53  74 105 144 184 224 263 311
#     4  10  20  35  57  83 110 140 175 216 261 313
#     4   9  18  34  58  85 108 136 176 218 263 316
#
# _framework density 19.501533999999999
#
# number of rings (size 3 to 8) (size 9 to 14) (size 15 to 20)
#    0.000    2.250    0.000    4.125    0.000    7.000 
#    0.000    1.250    0.000    7.500    0.000    0.000 
#    0.000    0.000    0.000    0.000    0.000    0.000 
#
# Total GULP energy -793362.914119 kJ/mol
# GULP energy per Si atom -12396.295533 kJ/mol
# Density = 1.945715 g / cm^3
# Si number density = 19.501534 Si / 1000 Ang^3
#
#
#
# Elastic Constant Matrix: (Units=GPa)
#
#
# Indices 1 2 3 4 5 6 
#
# 1 90.5416 7.2483 22.1961 0.0000 0.0000 0.0000
# 2 7.2483 35.8726 16.5899 0.0000 0.0000 0.0000
# 3 22.1961 16.5899 77.6591 0.0000 0.0000 0.0000
# 4 0.0000 0.0000 0.0000 27.1939 0.0000 0.0000
# 5 0.0000 0.0000 0.0000 0.0000 30.0695 0.0000
# 6 0.0000 0.0000 0.0000 0.0000 0.0000 5.8376
#
#
#
# Elastic Compliance Matrix: (Units=1/GPa)
#
#
# Indices 1 2 3 4 5 6 
#
# 1 0.011904 -0.000923 -0.003205 0.000000 0.000000 0.000000
# 2 -0.000923 0.031004 -0.006359 0.000000 0.000000 0.000000
# 3 -0.003205 -0.006359 0.015151 0.000000 0.000000 0.000000
# 4 0.000000 0.000000 0.000000 0.036773 0.000000 0.000000
# 5 0.000000 0.000000 0.000000 0.000000 0.033256 0.000000
# 6 0.000000 0.000000 0.000000 0.000000 0.000000 0.171304
#
#
# Mechanical properties :
#
#
# Convention : Reuss Voigt Hill
#
# Bulk Modulus (GPa) = 26.96555 32.90467 29.93511
# Shear Modulus (GPa) = 15.02723 23.15613 19.09168
#
# Velocity S-wave (km/s) = 2.77892 3.44961 3.13227
# Velocity P-wave (km/s) = 4.91467 5.72502 5.33525
#
# Compressibility (1/GPa) = 0.03708435
#
# Stress axis : x y z
#
# Youngs Moduli (GPa) = 84.00323 32.25394 66.00046
#
# Poissons Ratio (x) = 0.02977 0.21155
# Poissons Ratio (y) = 0.07754 0.41972
# Poissons Ratio (z) = 0.26925 0.20512
#
# Static dielectric constant tensor:
#      x y z
#    x 4.000160 0.000000 0.000000 
#    y 0.000000 3.187930 0.000000 
#    z 0.000000 0.000000 3.522710 
# 
# 
# High freq. dielectric constant tensor:
#      x y z
#    x 1.781290 0.000000 0.000000 
#    y 0.000000 1.714340 0.000000 
#    z 0.000000 0.000000 1.762960 
# 
# From -- ./inp_files/9284.got.cif
#   From: 2010.06.25/outbox.cif.g09.slc.cpg/sg58_5_cif.got.tgz:9284.got - 2010.06.26 21:38:00.
