data_PCOD8237101
_publ_section_title
;
Structure prediction by ZEFSAII (Michael W. Deem and Ramdas Pophale) SiO2 
 PCOD8237101
Probable space group: P N N M
;
_chemical_formula_sum "Si O2"
_cell_formula_units_Z 64
_cell_length_a 10.316856
_cell_length_b 32.476538
_cell_length_c 9.125959
_cell_angle_alpha 90.000000
_cell_angle_beta 90.000000
_cell_angle_gamma 90.000000
_cell_volume 3057.705183
_symmetry_space_group_name_H-M "P N N M"
_symmetry_group_IT_number 58
_symmetry_cell_setting 'orthorhombic'
loop_
_space_group_symop_operation_xyz
x,y,z
-x,-y,z
1/2+x,1/2-y,1/2-z
1/2-x,1/2+y,1/2-z
-x,-y,-z
x,y,-z
1/2-x,1/2+y,1/2+z
1/2+x,1/2-y,1/2+z
loop_
_atom_site_type_symbol
_atom_site_label
_atom_site_fract_x
_atom_site_fract_y
_atom_site_fract_z
Si Si1 0.233562 0.546384 0.831297
Si Si2 0.481738 0.725769 0.327611
Si Si3 0.228538 0.467455 0.329541
Si Si4 0.141854 0.378113 0.672576
Si Si5 0.107916 0.849097 0.668011
Si Si6 0.883239 0.367812 0.170651
Si Si7 0.471337 0.440049 0.835759
Si Si8 0.225162 0.719088 0.831498
O O1 0.167506 0.507937 0.747156
O O2 0.182607 0.590145 0.772419
O O3 0.386428 0.543331 0.802792
O O4 0.197443 0.541965 0.000000
O O5 0.470897 0.718397 0.500000
O O6 0.520474 0.683985 0.248278
O O7 0.339996 0.738599 0.266466
O O8 0.587496 0.760567 0.289288
O O9 0.226580 0.475983 0.500000
O O10 0.146869 0.426775 0.287211
O O11 0.376117 0.460721 0.279812
O O12 0.154809 0.370963 0.500000
O O13 0.255450 0.353088 0.750785
O O14 0.009415 0.359530 0.732411
O O15 0.132770 0.836157 0.500000
O O16 0.026703 0.890957 0.678048
O O17 0.785355 0.329928 0.196358
O O18 0.922621 0.370537 0.000000
O O19 0.426594 0.452764 0.000000
O O20 0.259219 0.728443 0.000000
#
# Coordination Sequence:
#
# PCOD8237101 Si02
#       8
#     8   8   8   8   8   8   8   8
#     4  10  20  34  55  80 110 149 198 249 296 356
#     4  11  24  41  65  99 131 163 205 255 309 369
#     4  10  21  35  52  80 117 152 191 243 304 363
#     4  10  22  39  58  85 120 158 202 254 307 365
#     4  10  20  37  63  88 118 159 201 247 305 364
#     4  10  22  41  62  84 114 157 206 253 304 366
#     4   9  18  34  56  82 111 148 193 242 295 356
#     4  10  24  45  66  93 129 164 205 253 305 370
#
# _framework density 20.930731000000002
#
# number of rings (size 3 to 8) (size 9 to 14) (size 15 to 20)
#    0.000    2.000    0.000    2.625    1.750    8.500 
#    0.000    3.750    0.000    0.000    0.000    0.000 
#    0.000    0.000    0.000    0.000    0.000    0.000 
#
# Total GULP energy -793767.929460 kJ/mol
# GULP energy per Si atom -12402.623898 kJ/mol
# Density = 2.088309 g / cm^3
# Si number density = 20.930731 Si / 1000 Ang^3
#
#
#
# Elastic Constant Matrix: (Units=GPa)
#
#
# Indices 1 2 3 4 5 6 
#
# 1 78.4648 30.2136 49.3751 0.0000 0.0000 0.0000
# 2 30.2136 77.4960 37.1733 0.0000 0.0000 0.0000
# 3 49.3751 37.1733 88.9268 0.0000 0.0000 0.0000
# 4 0.0000 0.0000 0.0000 31.2069 0.0000 0.0000
# 5 0.0000 0.0000 0.0000 0.0000 32.0706 0.0000
# 6 0.0000 0.0000 0.0000 0.0000 0.0000 22.9775
#
#
#
# Elastic Compliance Matrix: (Units=1/GPa)
#
#
# Indices 1 2 3 4 5 6 
#
# 1 0.020173 -0.003117 -0.009898 0.000000 0.000000 0.000000
# 2 -0.003117 0.016622 -0.005218 0.000000 0.000000 0.000000
# 3 -0.009898 -0.005218 0.018922 0.000000 0.000000 0.000000
# 4 0.000000 0.000000 0.000000 0.032044 0.000000 0.000000
# 5 0.000000 0.000000 0.000000 0.000000 0.031181 0.000000
# 6 0.000000 0.000000 0.000000 0.000000 0.000000 0.043521
#
#
# Mechanical properties :
#
#
# Convention : Reuss Voigt Hill
#
# Bulk Modulus (GPa) = 51.94291 53.15685 52.54988
# Shear Modulus (GPa) = 24.34920 25.79272 25.07096
#
# Velocity S-wave (km/s) = 3.41445 3.51421 3.46469
# Velocity P-wave (km/s) = 6.35729 6.47440 6.41611
#
# Compressibility (1/GPa) = 0.01925191
#
# Stress axis : x y z
#
# Youngs Moduli (GPa) = 49.57065 60.16143 52.84905
#
# Poissons Ratio (x) = 0.18754 0.52309
# Poissons Ratio (y) = 0.15452 0.27574
# Poissons Ratio (z) = 0.49064 0.31389
#
# Static dielectric constant tensor:
#      x y z
#    x 3.675700 0.000000 0.000000 
#    y 0.000000 3.924300 0.000000 
#    z 0.000000 0.000000 3.721890 
# 
# 
# High freq. dielectric constant tensor:
#      x y z
#    x 1.813160 0.000000 0.000000 
#    y 0.000000 1.830760 0.000000 
#    z 0.000000 0.000000 1.813890 
# 
# From -- ./inp_files/4646.got.cif
#   From: 2010.06.25/outbox.cif.g09.slc.cpg/sg58_3_cif.got.tgz:4646.got - 2010.06.26 21:38:00.
