data_PCOD8237978
_publ_section_title
;
Structure prediction by ZEFSAII (Michael W. Deem and Ramdas Pophale) SiO2 
 PCOD8237978
Probable space group: P N N M
;
_chemical_formula_sum "Si O2"
_cell_formula_units_Z 56
_cell_length_a 9.050050
_cell_length_b 15.339472
_cell_length_c 20.091820
_cell_angle_alpha 90.000000
_cell_angle_beta 90.000000
_cell_angle_gamma 90.000000
_cell_volume 2789.206498
_symmetry_space_group_name_H-M "P N N M"
_symmetry_group_IT_number 58
_symmetry_cell_setting 'orthorhombic'
loop_
_space_group_symop_operation_xyz
x,y,z
-x,-y,z
1/2+x,1/2-y,1/2-z
1/2-x,1/2+y,1/2-z
-x,-y,-z
x,y,-z
1/2-x,1/2+y,1/2+z
1/2+x,1/2-y,1/2+z
loop_
_atom_site_type_symbol
_atom_site_label
_atom_site_fract_x
_atom_site_fract_y
_atom_site_fract_z
Si Si1 0.327656 0.242399 0.077018
Si Si2 0.173431 0.673663 0.197193
Si Si3 0.681410 0.428810 0.385029
Si Si4 0.832116 0.694000 0.202714
Si Si5 0.378610 0.393162 0.572212
Si Si6 0.670342 0.256070 0.923303
Si Si7 0.334616 0.995347 0.761887
O O1 0.302643 0.140227 0.091883
O O2 0.232596 0.301287 0.127584
O O3 0.498265 0.258337 0.092717
O O4 0.288443 0.264731 0.000000
O O5 0.264744 0.727689 0.252830
O O6 0.245115 0.677530 0.124254
O O7 0.176112 0.569927 0.206432
O O8 0.006899 0.709272 0.198822
O O9 0.669686 0.506520 0.438212
O O10 0.520203 0.381893 0.378944
O O11 0.716704 0.478961 0.317253
O O12 0.793128 0.599359 0.232836
O O13 0.428096 0.357036 0.500000
O O14 0.236932 0.338566 0.597062
O O15 0.700299 0.280592 0.000000
O O16 0.500000 0.000000 0.792244
#
# Coordination Sequence:
#
# PCOD8237978 Si02
#       7
#     8   8   8   8   8   8   8
#     4  11  23  40  62  90 124 166 212 260 319 379
#     4  11  22  41  64  91 124 164 210 259 318 374
#     4  11  20  35  58  88 121 161 204 253 311 376
#     4  11  23  42  65  92 127 167 210 263 316 379
#     4  10  21  36  55  87 126 160 201 251 309 378
#     4  10  23  40  60  89 126 165 207 260 318 375
#     4  10  24  40  60  91 125 160 206 262 318 374
#
# _framework density 20.077394000000002
#
# number of rings (size 3 to 8) (size 9 to 14) (size 15 to 20)
#    0.000    1.429    1.429    4.286    4.000    2.857 
#    5.143    2.857    0.000    4.286    0.000    0.000 
#    0.000    0.000    0.000    0.000    0.000    0.000 
#
# Total GULP energy -694118.659999 kJ/mol
# GULP energy per Si atom -12394.976071 kJ/mol
# Density = 2.003170 g / cm^3
# Si number density = 20.077394 Si / 1000 Ang^3
#
#
#
# Elastic Constant Matrix: (Units=GPa)
#
#
# Indices 1 2 3 4 5 6 
#
# 1 115.5862 25.2971 59.6595 0.0000 0.0000 0.0000
# 2 25.2971 67.3222 20.1026 0.0000 0.0000 0.0000
# 3 59.6595 20.1026 105.1904 0.0000 0.0000 0.0000
# 4 0.0000 0.0000 0.0000 23.0011 0.0000 0.0000
# 5 0.0000 0.0000 0.0000 0.0000 35.2306 0.0000
# 6 0.0000 0.0000 0.0000 0.0000 0.0000 30.4497
#
#
#
# Elastic Compliance Matrix: (Units=1/GPa)
#
#
# Indices 1 2 3 4 5 6 
#
# 1 0.012705 -0.002781 -0.006674 0.000000 0.000000 0.000000
# 2 -0.002781 0.016362 -0.001549 0.000000 0.000000 0.000000
# 3 -0.006674 -0.001549 0.013588 0.000000 0.000000 0.000000
# 4 0.000000 0.000000 0.000000 0.043476 0.000000 0.000000
# 5 0.000000 0.000000 0.000000 0.000000 0.028384 0.000000
# 6 0.000000 0.000000 0.000000 0.000000 0.000000 0.032841
#
#
# Mechanical properties :
#
#
# Convention : Reuss Voigt Hill
#
# Bulk Modulus (GPa) = 48.43785 55.35747 51.89766
# Shear Modulus (GPa) = 28.36909 29.93892 29.15400
#
# Velocity S-wave (km/s) = 3.76305 3.86576 3.81475
# Velocity P-wave (km/s) = 6.56191 6.89619 6.73112
#
# Compressibility (1/GPa) = 0.02064501
#
# Stress axis : x y z
#
# Youngs Moduli (GPa) = 78.70809 61.11844 73.59382
#
# Poissons Ratio (x) = 0.16998 0.49119
# Poissons Ratio (y) = 0.21890 0.11403
# Poissons Ratio (z) = 0.52532 0.09470
#
# Static dielectric constant tensor:
#      x y z
#    x 3.805220 0.000000 0.000000 
#    y 0.000000 3.630270 0.000000 
#    z 0.000000 0.000000 3.701730 
# 
# 
# High freq. dielectric constant tensor:
#      x y z
#    x 1.795530 0.000000 0.000000 
#    y 0.000000 1.770770 0.000000 
#    z 0.000000 0.000000 1.784040 
# 
# From -- ./inp_files/28952.got.cif
#   From: 2010.06.25/outbox.cif.g09.slc.cpg/sg58_15_cif.got.tgz:28952.got - 2010.06.26 21:38:00.
