data_PCOD8237935
_publ_section_title
;
Structure prediction by ZEFSAII (Michael W. Deem and Ramdas Pophale) SiO2 
 PCOD8237935
Probable space group: P N N M
;
_chemical_formula_sum "Si O2"
_cell_formula_units_Z 48
_cell_length_a 17.597467
_cell_length_b 18.065831
_cell_length_c 7.946758
_cell_angle_alpha 90.000000
_cell_angle_beta 90.000000
_cell_angle_gamma 90.000000
_cell_volume 2526.376602
_symmetry_space_group_name_H-M "P N N M"
_symmetry_group_IT_number 58
_symmetry_cell_setting 'orthorhombic'
loop_
_space_group_symop_operation_xyz
x,y,z
-x,-y,z
1/2+x,1/2-y,1/2-z
1/2-x,1/2+y,1/2-z
-x,-y,-z
x,y,-z
1/2-x,1/2+y,1/2+z
1/2+x,1/2-y,1/2+z
loop_
_atom_site_type_symbol
_atom_site_label
_atom_site_fract_x
_atom_site_fract_y
_atom_site_fract_z
Si Si1 0.942348 0.285022 0.307888
Si Si2 0.666352 0.661418 0.810535
Si Si3 0.915056 0.810870 0.690183
Si Si4 0.401581 0.424568 0.500000
Si Si5 0.919236 0.910283 0.000000
Si Si6 0.671964 0.161977 0.186842
Si Si7 0.525945 0.078777 0.692156
O O1 0.953343 0.309288 0.500000
O O2 0.860381 0.246918 0.271850
O O3 0.002595 0.221229 0.260482
O O4 0.958057 0.360244 0.204416
O O5 0.631245 0.608288 0.671699
O O6 0.757311 0.653276 0.811849
O O7 0.637881 0.640467 0.000000
O O8 0.915621 0.844595 0.500000
O O9 0.854599 0.745739 0.702726
O O10 0.891288 0.870850 0.828780
O O11 0.379213 0.510469 0.500000
O O12 0.490869 0.414927 0.500000
O O13 0.602745 0.106126 0.219782
O O14 0.702554 0.145668 0.000000
O O15 0.547052 0.065925 0.500000
O O16 0.500000 0.000000 0.771903
#
# Coordination Sequence:
#
# PCOD8237935 Si02
#       7
#     8   8   8   4   4   8   8
#     4   9  19  34  56  83 110 147 192 240 286 336
#     4  11  22  38  59  86 117 153 196 242 291 344
#     4   9  19  35  56  87 113 142 192 244 279 333
#     4  11  24  38  56  90 117 158 196 231 293 350
#     4  11  22  36  62  84 114 156 196 235 292 344
#     4  10  21  36  60  86 113 150 199 240 289 349
#     4  10  21  35  56  88 119 155 194 237 297 352
#
# _framework density 18.999542999999999
#
# number of rings (size 3 to 8) (size 9 to 14) (size 15 to 20)
#    0.000    2.000    2.500    2.000    7.000    2.000 
#    0.000    3.333    0.000    2.000    0.000    0.000 
#    0.000    0.000    0.000    0.000    0.000    0.000 
#
# Total GULP energy -594970.596732 kJ/mol
# GULP energy per Si atom -12395.220765 kJ/mol
# Density = 1.895630 g / cm^3
# Si number density = 18.999543 Si / 1000 Ang^3
#
#
#
# Elastic Constant Matrix: (Units=GPa)
#
#
# Indices 1 2 3 4 5 6 
#
# 1 80.6373 40.5769 24.2709 0.0000 0.0000 0.0000
# 2 40.5769 128.4632 62.7621 0.0000 0.0000 0.0000
# 3 24.2709 62.7621 115.4652 0.0000 0.0000 0.0000
# 4 0.0000 0.0000 0.0000 19.6652 0.0000 0.0000
# 5 0.0000 0.0000 0.0000 0.0000 13.2265 0.0000
# 6 0.0000 0.0000 0.0000 0.0000 0.0000 17.1573
#
#
#
# Elastic Compliance Matrix: (Units=1/GPa)
#
#
# Indices 1 2 3 4 5 6 
#
# 1 0.014796 -0.004294 -0.000776 0.000000 0.000000 0.000000
# 2 -0.004294 0.011845 -0.005536 0.000000 0.000000 0.000000
# 3 -0.000776 -0.005536 0.011833 0.000000 0.000000 0.000000
# 4 0.000000 0.000000 0.000000 0.050851 0.000000 0.000000
# 5 0.000000 0.000000 0.000000 0.000000 0.075606 0.000000
# 6 0.000000 0.000000 0.000000 0.000000 0.000000 0.058284
#
#
# Mechanical properties :
#
#
# Convention : Reuss Voigt Hill
#
# Bulk Modulus (GPa) = 57.93225 64.42060 61.17643
# Shear Modulus (GPa) = 19.98551 23.14019 21.56285
#
# Velocity S-wave (km/s) = 3.24681 3.49368 3.37250
# Velocity P-wave (km/s) = 6.67932 7.08903 6.88722
#
# Compressibility (1/GPa) = 0.01726154
#
# Stress axis : x y z
#
# Youngs Moduli (GPa) = 67.58730 84.42054 84.51054
#
# Poissons Ratio (x) = 0.36254 0.06556
# Poissons Ratio (y) = 0.29025 0.46785
# Poissons Ratio (z) = 0.05243 0.46735
#
# Static dielectric constant tensor:
#      x y z
#    x 3.387570 0.000000 0.000000 
#    y 0.000000 3.488200 0.000000 
#    z 0.000000 0.000000 3.560910 
# 
# 
# High freq. dielectric constant tensor:
#      x y z
#    x 1.722170 0.000000 0.000000 
#    y 0.000000 1.720210 0.000000 
#    z 0.000000 0.000000 1.752350 
# 
# From -- ./inp_files/5963.got.cif
#   From: 2010.06.25/outbox.cif.g09.slc.cpg/sg58_3_cif.got.tgz:5963.got - 2010.06.26 21:38:00.
