data_PCOD8237550
_publ_section_title
;
Structure prediction by ZEFSAII (Michael W. Deem and Ramdas Pophale) SiO2 
 PCOD8237550
Probable space group: P N N M
;
_chemical_formula_sum "Si O2"
_cell_formula_units_Z 64
_cell_length_a 9.269399
_cell_length_b 18.090111
_cell_length_c 18.795202
_cell_angle_alpha 90.000000
_cell_angle_beta 90.000000
_cell_angle_gamma 90.000000
_cell_volume 3151.663238
_symmetry_space_group_name_H-M "P N N M"
_symmetry_group_IT_number 58
_symmetry_cell_setting 'orthorhombic'
loop_
_space_group_symop_operation_xyz
x,y,z
-x,-y,z
1/2+x,1/2-y,1/2-z
1/2-x,1/2+y,1/2-z
-x,-y,-z
x,y,-z
1/2-x,1/2+y,1/2+z
1/2+x,1/2-y,1/2+z
loop_
_atom_site_type_symbol
_atom_site_label
_atom_site_fract_x
_atom_site_fract_y
_atom_site_fract_z
Si Si1 0.967973 0.158264 0.080137
Si Si2 0.737909 0.252422 0.579474
Si Si3 0.202279 0.248245 0.421490
Si Si4 0.617593 0.446827 0.689588
Si Si5 0.279585 0.322586 0.781947
Si Si6 0.380761 0.683395 0.783673
Si Si7 0.033334 0.635077 0.421851
Si Si8 0.625332 0.046976 0.200639
O O1 0.068915 0.230254 0.082463
O O2 0.029125 0.090517 0.125268
O O3 0.815628 0.190449 0.109567
O O4 0.947161 0.128347 0.000000
O O5 0.786385 0.228960 0.500000
O O6 0.770803 0.184621 0.632328
O O7 0.810481 0.332299 0.601794
O O8 0.252470 0.218789 0.500000
O O9 0.169401 0.181548 0.366339
O O10 0.051738 0.288588 0.428894
O O11 0.500000 0.500000 0.727605
O O12 0.681760 0.389651 0.747150
O O13 0.755708 0.493868 0.663561
O O14 0.448942 0.317353 0.763953
O O15 0.188677 0.255914 0.749586
O O16 0.205087 0.398089 0.755257
O O17 0.040543 0.596000 0.500000
O O18 0.960663 0.583380 0.364364
O O19 0.500000 0.000000 0.241689
#
# Coordination Sequence:
#
# PCOD8237550 Si02
#       8
#     8   8   8   8   8   8   8   8
#     4  10  21  37  58  89 124 163 201 239 300 372
#     4  10  20  36  63  92 119 152 204 260 303 350
#     4  10  20  37  64  92 119 151 205 264 304 351
#     4  12  24  39  56  86 130 167 199 247 304 362
#     4  12  23  40  64  90 118 161 211 255 303 361
#     4  12  24  39  65  89 117 163 208 256 306 360
#     4  10  20  38  60  88 123 162 205 246 296 365
#     4  12  26  39  58  91 129 167 206 247 305 365
#
# _framework density 20.306739
#
# number of rings (size 3 to 8) (size 9 to 14) (size 15 to 20)
#    0.000    1.000    5.000    2.250    1.750    1.000 
#    0.000    0.000    0.000    1.500    0.000    0.000 
#    0.000    0.000    0.000    0.000    0.000    0.000 
#
# Total GULP energy -793108.608608 kJ/mol
# GULP energy per Si atom -12392.322010 kJ/mol
# Density = 2.026052 g / cm^3
# Si number density = 20.306739 Si / 1000 Ang^3
#
#
#
# Elastic Constant Matrix: (Units=GPa)
#
#
# Indices 1 2 3 4 5 6 
#
# 1 96.0784 34.6044 37.3275 0.0000 0.0000 0.0000
# 2 34.6044 85.4710 57.8155 0.0000 0.0000 0.0000
# 3 37.3275 57.8155 107.5243 0.0000 0.0000 0.0000
# 4 0.0000 0.0000 0.0000 9.2959 0.0000 0.0000
# 5 0.0000 0.0000 0.0000 0.0000 26.9305 0.0000
# 6 0.0000 0.0000 0.0000 0.0000 0.0000 33.0726
#
#
#
# Elastic Compliance Matrix: (Units=1/GPa)
#
#
# Indices 1 2 3 4 5 6 
#
# 1 0.012621 -0.003373 -0.002568 0.000000 0.000000 0.000000
# 2 -0.003373 0.019289 -0.009201 0.000000 0.000000 0.000000
# 3 -0.002568 -0.009201 0.015139 0.000000 0.000000 0.000000
# 4 0.000000 0.000000 0.000000 0.107574 0.000000 0.000000
# 5 0.000000 0.000000 0.000000 0.000000 0.037133 0.000000
# 6 0.000000 0.000000 0.000000 0.000000 0.000000 0.030237
#
#
# Mechanical properties :
#
#
# Convention : Reuss Voigt Hill
#
# Bulk Modulus (GPa) = 59.64489 60.95205 60.29847
# Shear Modulus (GPa) = 19.39015 24.48155 21.93585
#
# Velocity S-wave (km/s) = 3.09344 3.47592 3.29024
# Velocity P-wave (km/s) = 6.49576 6.79634 6.64775
#
# Compressibility (1/GPa) = 0.01676589
#
# Stress axis : x y z
#
# Youngs Moduli (GPa) = 79.23612 51.84255 66.05488
#
# Poissons Ratio (x) = 0.17485 0.16961
# Poissons Ratio (y) = 0.26724 0.60776
# Poissons Ratio (z) = 0.20346 0.47700
#
# Static dielectric constant tensor:
#      x y z
#    x 4.044890 0.000000 0.000000 
#    y 0.000000 3.555810 0.000000 
#    z 0.000000 0.000000 4.063530 
# 
# 
# High freq. dielectric constant tensor:
#      x y z
#    x 1.824520 0.000000 0.000000 
#    y 0.000000 1.752360 0.000000 
#    z 0.000000 0.000000 1.787290 
# 
# From -- ./inp_files/25675.got.cif
#   From: 2010.06.25/outbox.cif.g09.slc.cpg/sg58_13_cif.got.tgz:25675.got - 2010.06.26 21:38:00.
