data_PCOD8237514
_publ_section_title
;
Structure prediction by ZEFSAII (Michael W. Deem and Ramdas Pophale) SiO2 
 PCOD8237514
Probable space group: P N N M
;
_chemical_formula_sum "Si O2"
_cell_formula_units_Z 64
_cell_length_a 15.354161
_cell_length_b 22.710748
_cell_length_c 8.884330
_cell_angle_alpha 90.000000
_cell_angle_beta 90.000000
_cell_angle_gamma 90.000000
_cell_volume 3098.005684
_symmetry_space_group_name_H-M "P N N M"
_symmetry_group_IT_number 58
_symmetry_cell_setting 'orthorhombic'
loop_
_space_group_symop_operation_xyz
x,y,z
-x,-y,z
1/2+x,1/2-y,1/2-z
1/2-x,1/2+y,1/2-z
-x,-y,-z
x,y,-z
1/2-x,1/2+y,1/2+z
1/2+x,1/2-y,1/2+z
loop_
_atom_site_type_symbol
_atom_site_label
_atom_site_fract_x
_atom_site_fract_y
_atom_site_fract_z
Si Si1 0.526214 0.334714 0.671822
Si Si2 0.598393 0.000233 0.828658
Si Si3 0.201388 0.182449 0.671951
Si Si4 0.250188 0.928470 0.322311
Si Si5 0.072077 0.952681 0.175830
Si Si6 0.005262 0.297915 0.171377
Si Si7 0.640792 0.866069 0.831284
Si Si8 0.317049 0.817568 0.173233
O O1 0.559824 0.342091 0.500000
O O2 0.604654 0.338251 0.788936
O O3 0.459085 0.386384 0.711913
O O4 0.481580 0.270947 0.693480
O O5 0.634827 0.935313 0.819756
O O6 0.500000 0.000000 0.763710
O O7 0.660226 0.041237 0.729601
O O8 0.598013 0.024431 0.000000
O O9 0.221250 0.165128 0.500000
O O10 0.261105 0.148130 0.787853
O O11 0.216780 0.251663 0.698492
O O12 0.243981 0.930441 0.500000
O O13 0.164846 0.961663 0.257492
O O14 0.254240 0.860901 0.266326
O O15 0.088424 0.962778 0.000000
O O16 0.000000 0.000000 0.233923
O O17 0.083020 0.321199 0.274980
O O18 0.920416 0.334368 0.211907
O O19 0.032115 0.310665 0.000000
O O20 0.619785 0.843944 0.000000
O O21 0.312789 0.836572 0.000000
#
# Coordination Sequence:
#
# PCOD8237514 Si02
#       8
#     8   8   8   8   8   8   8   8
#     4   9  20  39  62  88 120 160 205 251 306 370
#     4  10  23  44  67  90 121 166 213 255 304 375
#     4  10  22  38  60  89 122 160 200 252 308 363
#     4  12  26  41  64  97 130 164 206 266 320 367
#     4  10  23  43  66  89 121 168 216 260 309 378
#     4  10  20  36  60  92 127 158 198 254 313 368
#     4  11  23  37  60  90 123 161 205 250 300 370
#     4  10  21  40  63  87 121 164 207 247 304 374
#
# _framework density 20.658449999999998
#
# number of rings (size 3 to 8) (size 9 to 14) (size 15 to 20)
#    0.000    1.750    0.000    3.375    3.500    5.000 
#    0.000    0.000    0.000    0.000    0.000    0.000 
#    0.000    0.000    0.000    0.000    0.000    0.000 
#
# Total GULP energy -793809.665720 kJ/mol
# GULP energy per Si atom -12403.276027 kJ/mol
# Density = 2.061143 g / cm^3
# Si number density = 20.658450 Si / 1000 Ang^3
#
#
#
# Elastic Constant Matrix: (Units=GPa)
#
#
# Indices 1 2 3 4 5 6 
#
# 1 93.7664 34.7775 44.7558 0.0000 0.0000 0.0000
# 2 34.7775 69.8043 40.9670 0.0000 0.0000 0.0000
# 3 44.7558 40.9670 95.5707 0.0000 0.0000 0.0000
# 4 0.0000 0.0000 0.0000 27.1269 0.0000 0.0000
# 5 0.0000 0.0000 0.0000 0.0000 29.6862 0.0000
# 6 0.0000 0.0000 0.0000 0.0000 0.0000 35.8153
#
#
#
# Elastic Compliance Matrix: (Units=1/GPa)
#
#
# Indices 1 2 3 4 5 6 
#
# 1 0.014673 -0.004379 -0.004994 0.000000 0.000000 0.000000
# 2 -0.004379 0.020448 -0.006714 0.000000 0.000000 0.000000
# 3 -0.004994 -0.006714 0.015680 0.000000 0.000000 0.000000
# 4 0.000000 0.000000 0.000000 0.036864 0.000000 0.000000
# 5 0.000000 0.000000 0.000000 0.000000 0.033686 0.000000
# 6 0.000000 0.000000 0.000000 0.000000 0.000000 0.027921
#
#
# Mechanical properties :
#
#
# Convention : Reuss Voigt Hill
#
# Bulk Modulus (GPa) = 53.68898 55.57133 54.63015
# Shear Modulus (GPa) = 26.64451 27.76841 27.20646
#
# Velocity S-wave (km/s) = 3.59522 3.67027 3.63294
# Velocity P-wave (km/s) = 6.57871 6.70221 6.64075
#
# Compressibility (1/GPa) = 0.01862580
#
# Stress axis : x y z
#
# Youngs Moduli (GPa) = 68.15351 48.90415 63.77408
#
# Poissons Ratio (x) = 0.21416 0.31849
# Poissons Ratio (y) = 0.29846 0.42821
# Poissons Ratio (z) = 0.34036 0.32836
#
# Static dielectric constant tensor:
#      x y z
#    x 3.641510 0.000000 0.000000 
#    y 0.000000 3.848820 0.000000 
#    z 0.000000 0.000000 3.758840 
# 
# 
# High freq. dielectric constant tensor:
#      x y z
#    x 1.808080 0.000000 0.000000 
#    y 0.000000 1.814180 0.000000 
#    z 0.000000 0.000000 1.806300 
# 
# From -- ./inp_files/6968.got.cif
#   From: 2010.06.25/outbox.cif.g09.slc.cpg/sg58_4_cif.got.tgz:6968.got - 2010.06.26 21:38:00.
