data_PCOD8237857
_publ_section_title
;
Structure prediction by ZEFSAII (Michael W. Deem and Ramdas Pophale) SiO2 
 PCOD8237857
Probable space group: P N N M
;
_chemical_formula_sum "Si O2"
_cell_formula_units_Z 48
_cell_length_a 8.475512
_cell_length_b 9.587049
_cell_length_c 27.259272
_cell_angle_alpha 90.000000
_cell_angle_beta 90.000000
_cell_angle_gamma 90.000000
_cell_volume 2214.956204
_symmetry_space_group_name_H-M "P N N M"
_symmetry_group_IT_number 58
_symmetry_cell_setting 'orthorhombic'
loop_
_space_group_symop_operation_xyz
x,y,z
-x,-y,z
1/2+x,1/2-y,1/2-z
1/2-x,1/2+y,1/2-z
-x,-y,-z
x,y,-z
1/2-x,1/2+y,1/2+z
1/2+x,1/2-y,1/2+z
loop_
_atom_site_type_symbol
_atom_site_label
_atom_site_fract_x
_atom_site_fract_y
_atom_site_fract_z
Si Si1 0.000000 0.500000 0.833815
Si Si2 0.500000 0.500000 0.856591
Si Si3 0.563272 0.153100 0.500000
Si Si4 0.230816 0.322049 0.100903
Si Si5 0.776548 0.860403 0.280175
Si Si6 0.321731 0.946593 0.201295
Si Si7 0.346474 0.407204 0.500000
Si Si8 0.311909 0.506622 0.397423
O O1 0.098468 0.395097 0.866855
O O2 0.103152 0.599431 0.799350
O O3 0.605254 0.596564 0.892015
O O4 0.598312 0.399920 0.821506
O O5 0.676686 0.180338 0.454820
O O6 0.405434 0.247749 0.500000
O O7 0.500000 0.000000 0.500000
O O8 0.252682 0.160736 0.114816
O O9 0.801158 0.697519 0.268617
O O10 0.793634 0.942371 0.228539
O O11 0.500000 0.000000 0.199994
O O12 0.259604 0.914129 0.146360
O O13 0.500000 0.500000 0.500000
O O14 0.250035 0.444656 0.449992
O O15 0.500000 0.500000 0.396850
#
# Coordination Sequence:
#
# PCOD8237857 Si02
#       8
#     4   4   4   8   8   8   4   8
#     4  10  22  41  64  92 134 173 226 274 330 404
#     4  10  26  41  64  94 144 175 228 282 354 408
#     4  12  22  37  68 100 135 169 231 287 343 417
#     4  11  21  40  64  97 130 179 220 282 343 407
#     4  11  26  44  66  95 137 180 228 286 336 420
#     4  12  28  43  68 100 138 178 231 281 351 418
#     4  10  20  40  63 101 125 168 225 284 330 411
#     4  11  22  40  71  95 129 175 232 278 341 404
#
# _framework density 21.670856000000001
#
# number of rings (size 3 to 8) (size 9 to 14) (size 15 to 20)
#    0.000    1.000    5.000    2.000    8.167    0.333 
#    0.000    0.417    0.000    1.000    0.000    0.000 
#    0.000    0.000    0.000    0.000    0.000    0.000 
#
# Total GULP energy -595214.224801 kJ/mol
# GULP energy per Si atom -12400.296350 kJ/mol
# Density = 2.162153 g / cm^3
# Si number density = 21.670856 Si / 1000 Ang^3
#
#
#
# Elastic Constant Matrix: (Units=GPa)
#
#
# Indices 1 2 3 4 5 6 
#
# 1 82.1900 33.7691 25.8730 0.0000 0.0000 0.0000
# 2 33.7691 147.1766 37.2243 0.0000 0.0000 0.0000
# 3 25.8730 37.2243 139.1810 0.0000 0.0000 0.0000
# 4 0.0000 0.0000 0.0000 31.9382 0.0000 0.0000
# 5 0.0000 0.0000 0.0000 0.0000 22.7128 0.0000
# 6 0.0000 0.0000 0.0000 0.0000 0.0000 31.6623
#
#
#
# Elastic Compliance Matrix: (Units=1/GPa)
#
#
# Indices 1 2 3 4 5 6 
#
# 1 0.013864 -0.002713 -0.001852 0.000000 0.000000 0.000000
# 2 -0.002713 0.007818 -0.001587 0.000000 0.000000 0.000000
# 3 -0.001852 -0.001587 0.007954 0.000000 0.000000 0.000000
# 4 0.000000 0.000000 0.000000 0.031310 0.000000 0.000000
# 5 0.000000 0.000000 0.000000 0.000000 0.044028 0.000000
# 6 0.000000 0.000000 0.000000 0.000000 0.000000 0.031583
#
#
# Mechanical properties :
#
#
# Convention : Reuss Voigt Hill
#
# Bulk Modulus (GPa) = 57.69121 62.47560 60.08341
# Shear Modulus (GPa) = 32.33348 35.37476 33.85412
#
# Velocity S-wave (km/s) = 3.86687 4.04464 3.95675
# Velocity P-wave (km/s) = 6.82761 7.12068 6.97568
#
# Compressibility (1/GPa) = 0.01733366
#
# Stress axis : x y z
#
# Youngs Moduli (GPa) = 72.12687 127.90474 125.73080
#
# Poissons Ratio (x) = 0.34698 0.23283
# Poissons Ratio (y) = 0.19566 0.19950
# Poissons Ratio (z) = 0.13356 0.20295
#
# Static dielectric constant tensor:
#      x y z
#    x 3.816240 0.000000 0.000000 
#    y 0.000000 3.790000 0.000000 
#    z 0.000000 0.000000 4.482960 
# 
# 
# High freq. dielectric constant tensor:
#      x y z
#    x 1.830880 0.000000 0.000000 
#    y 0.000000 1.862370 0.000000 
#    z 0.000000 0.000000 1.869360 
# 
# From -- ./inp_files/34662.got.cif
#   From: 2010.06.25/outbox.cif.g09.slc.cpg/sg58_18_cif.got.tgz:34662.got - 2010.06.26 21:38:00.
