data_PCOD8237806
_publ_section_title
;
Structure prediction by ZEFSAII (Michael W. Deem and Ramdas Pophale) SiO2 
 PCOD8237806
Probable space group: P N N M
;
_chemical_formula_sum "Si O2"
_cell_formula_units_Z 40
_cell_length_a 9.065753
_cell_length_b 11.149816
_cell_length_c 18.989241
_cell_angle_alpha 90.000000
_cell_angle_beta 90.000000
_cell_angle_gamma 90.000000
_cell_volume 1919.460544
_symmetry_space_group_name_H-M "P N N M"
_symmetry_group_IT_number 58
_symmetry_cell_setting 'orthorhombic'
loop_
_space_group_symop_operation_xyz
x,y,z
-x,-y,z
1/2+x,1/2-y,1/2-z
1/2-x,1/2+y,1/2-z
-x,-y,-z
x,y,-z
1/2-x,1/2+y,1/2+z
1/2+x,1/2-y,1/2+z
loop_
_atom_site_type_symbol
_atom_site_label
_atom_site_fract_x
_atom_site_fract_y
_atom_site_fract_z
Si Si1 0.701805 0.243058 0.418344
Si Si2 0.827426 0.986603 0.581938
Si Si3 0.788725 0.772793 0.321270
Si Si4 0.991359 0.856771 0.194973
Si Si5 0.501721 0.140022 0.922150
O O1 0.665252 0.260570 0.500000
O O2 0.563040 0.295385 0.376955
O O3 0.844180 0.317446 0.394412
O O4 0.735026 0.105037 0.400171
O O5 0.816159 0.953547 0.500000
O O6 0.749260 0.883306 0.627412
O O7 0.000000 0.000000 0.603657
O O8 0.882153 0.824355 0.257390
O O9 0.648961 0.703571 0.289235
O O10 0.875654 0.675518 0.366676
O O11 0.000000 0.000000 0.186451
O O12 0.500000 0.000000 0.929195
O O13 0.532058 0.197745 0.000000
#
# Coordination Sequence:
#
# PCOD8237806 Si02
#       5
#     8   8   8   8   8
#     4  10  22  43  69 100 134 168 217 273 332 391
#     4  10  20  40  74 104 131 169 217 277 330 387
#     4  12  25  42  67  93 133 176 222 273 327 394
#     4  12  29  46  64  95 133 179 221 273 333 390
#     4  10  20  38  67  99 130 171 218 264 323 399
#
# _framework density 20.839188
#
# number of rings (size 3 to 8) (size 9 to 14) (size 15 to 20)
#    0.000    1.200    2.000    3.600    2.800    2.800 
#    0.000    2.000    0.000    0.000    0.000    0.000 
#    0.000    0.000    0.000    0.000    0.000    0.000 
#
# Total GULP energy -496107.227578 kJ/mol
# GULP energy per Si atom -12402.680689 kJ/mol
# Density = 2.079176 g / cm^3
# Si number density = 20.839188 Si / 1000 Ang^3
#
#
#
# Elastic Constant Matrix: (Units=GPa)
#
#
# Indices 1 2 3 4 5 6 
#
# 1 82.7587 43.2413 46.6606 0.0000 0.0000 0.0000
# 2 43.2413 128.0040 55.5594 0.0000 0.0000 0.0000
# 3 46.6606 55.5594 95.4548 0.0000 0.0000 0.0000
# 4 0.0000 0.0000 0.0000 34.9087 0.0000 0.0000
# 5 0.0000 0.0000 0.0000 0.0000 37.9186 0.0000
# 6 0.0000 0.0000 0.0000 0.0000 0.0000 25.4675
#
#
#
# Elastic Compliance Matrix: (Units=1/GPa)
#
#
# Indices 1 2 3 4 5 6 
#
# 1 0.017468 -0.002937 -0.006830 0.000000 0.000000 0.000000
# 2 -0.002937 0.010947 -0.004936 0.000000 0.000000 0.000000
# 3 -0.006830 -0.004936 0.016688 0.000000 0.000000 0.000000
# 4 0.000000 0.000000 0.000000 0.028646 0.000000 0.000000
# 5 0.000000 0.000000 0.000000 0.000000 0.026372 0.000000
# 6 0.000000 0.000000 0.000000 0.000000 0.000000 0.039266
#
#
# Mechanical properties :
#
#
# Convention : Reuss Voigt Hill
#
# Bulk Modulus (GPa) = 63.70206 66.34889 65.02547
# Shear Modulus (GPa) = 28.73160 30.37605 29.55383
#
# Velocity S-wave (km/s) = 3.71715 3.82205 3.76997
# Velocity P-wave (km/s) = 7.00412 7.16834 7.08670
#
# Compressibility (1/GPa) = 0.01569808
#
# Stress axis : x y z
#
# Youngs Moduli (GPa) = 57.24622 91.35133 59.92441
#
# Poissons Ratio (x) = 0.26827 0.40927
# Poissons Ratio (y) = 0.16811 0.29579
# Poissons Ratio (z) = 0.39097 0.45091
#
# Static dielectric constant tensor:
#      x y z
#    x 3.639760 0.000000 0.000000 
#    y 0.000000 3.855870 0.000000 
#    z 0.000000 0.000000 3.914810 
# 
# 
# High freq. dielectric constant tensor:
#      x y z
#    x 1.801840 0.000000 0.000000 
#    y 0.000000 1.832270 0.000000 
#    z 0.000000 0.000000 1.826360 
# 
# From -- ./inp_files/24926.got.cif
#   From: 2010.06.25/outbox.cif.g09.slc.cpg/sg58_13_cif.got.tgz:24926.got - 2010.06.26 21:38:00.
