data_PCOD8237183
_publ_section_title
;
Structure prediction by ZEFSAII (Michael W. Deem and Ramdas Pophale) SiO2 
 PCOD8237183
Probable space group: P N N M
;
_chemical_formula_sum "Si O2"
_cell_formula_units_Z 64
_cell_length_a 23.265406
_cell_length_b 19.190108
_cell_length_c 8.875671
_cell_angle_alpha 90.000000
_cell_angle_beta 90.000000
_cell_angle_gamma 90.000000
_cell_volume 3962.682256
_symmetry_space_group_name_H-M "P N N M"
_symmetry_group_IT_number 58
_symmetry_cell_setting 'orthorhombic'
loop_
_space_group_symop_operation_xyz
x,y,z
-x,-y,z
1/2+x,1/2-y,1/2-z
1/2-x,1/2+y,1/2-z
-x,-y,-z
x,y,-z
1/2-x,1/2+y,1/2+z
1/2+x,1/2-y,1/2+z
loop_
_atom_site_type_symbol
_atom_site_label
_atom_site_fract_x
_atom_site_fract_y
_atom_site_fract_z
Si Si1 0.340874 0.777186 0.673470
Si Si2 0.242587 0.499903 0.677341
Si Si3 0.229448 0.150017 0.821896
Si Si4 0.563203 0.864767 0.825332
Si Si5 0.274812 0.363807 0.173088
Si Si6 0.431445 0.867760 0.174319
Si Si7 0.337314 0.231550 0.178035
Si Si8 0.882194 0.497369 0.177781
O O1 0.360921 0.775681 0.500000
O O2 0.322756 0.699835 0.732526
O O3 0.287683 0.829654 0.693238
O O4 0.393265 0.802085 0.776463
O O5 0.233076 0.497378 0.500000
O O6 0.277982 0.569451 0.726089
O O7 0.279511 0.433811 0.729534
O O8 0.180593 0.501151 0.752168
O O9 0.289968 0.178037 0.754942
O O10 0.232285 0.157625 0.000000
O O11 0.497212 0.846525 0.796205
O O12 0.599839 0.796424 0.775311
O O13 0.581910 0.930487 0.727733
O O14 0.575301 0.882868 0.000000
O O15 0.323632 0.310120 0.235347
O O16 0.285536 0.383878 0.000000
O O17 0.417265 0.934933 0.272692
O O18 0.420147 0.885253 0.000000
O O19 0.329809 0.234425 0.000000
O O20 0.875639 0.498106 0.000000
#
# Coordination Sequence:
#
# PCOD8237183 Si02
#       8
#     8   8   8   8   8   8   8   8
#     4   9  17  31  49  68  92 123 156 190 230 279
#     4  11  19  30  50  72  96 125 157 193 233 276
#     4   8  15  28  49  70  89 120 157 188 230 282
#     4  10  20  35  52  68  90 125 165 198 230 271
#     4   9  17  29  48  71  94 121 153 188 233 284
#     4  11  22  33  48  70  94 124 162 198 230 268
#     4   8  14  29  50  68  89 121 156 190 230 278
#     4  12  23  33  45  66  97 131 164 192 226 272
#
# _framework density 16.150676000000001
#
# number of rings (size 3 to 8) (size 9 to 14) (size 15 to 20)
#    0.000    2.250    2.500    3.750    0.000    2.500 
#    0.000    1.875    0.000    0.000    0.000    0.875 
#    0.000    7.000    0.000    0.000    0.000    0.000 
#
# Total GULP energy -793336.983669 kJ/mol
# GULP energy per Si atom -12395.890370 kJ/mol
# Density = 1.611392 g / cm^3
# Si number density = 16.150676 Si / 1000 Ang^3
#
#
#
# Elastic Constant Matrix: (Units=GPa)
#
#
# Indices 1 2 3 4 5 6 
#
# 1 76.9371 66.0059 27.9833 0.0000 0.0000 0.0000
# 2 66.0059 138.2021 43.9015 0.0000 0.0000 0.0000
# 3 27.9833 43.9015 61.8230 0.0000 0.0000 0.0000
# 4 0.0000 0.0000 0.0000 17.1102 0.0000 0.0000
# 5 0.0000 0.0000 0.0000 0.0000 5.3048 0.0000
# 6 0.0000 0.0000 0.0000 0.0000 0.0000 18.9023
#
#
#
# Elastic Compliance Matrix: (Units=1/GPa)
#
#
# Indices 1 2 3 4 5 6 
#
# 1 0.022531 -0.009712 -0.003302 0.000000 0.000000 0.000000
# 2 -0.009712 0.013530 -0.005212 0.000000 0.000000 0.000000
# 3 -0.003302 -0.005212 0.021371 0.000000 0.000000 0.000000
# 4 0.000000 0.000000 0.000000 0.058445 0.000000 0.000000
# 5 0.000000 0.000000 0.000000 0.000000 0.188507 0.000000
# 6 0.000000 0.000000 0.000000 0.000000 0.000000 0.052904
#
#
# Mechanical properties :
#
#
# Convention : Reuss Voigt Hill
#
# Bulk Modulus (GPa) = 47.66340 61.41594 54.53967
# Shear Modulus (GPa) = 12.47723 17.53490 15.00606
#
# Velocity S-wave (km/s) = 2.78250 3.29858 3.05147
# Velocity P-wave (km/s) = 6.31655 7.25375 6.80131
#
# Compressibility (1/GPa) = 0.02098046
#
# Stress axis : x y z
#
# Youngs Moduli (GPa) = 44.38428 73.91087 46.79331
#
# Poissons Ratio (x) = 0.71781 0.15449
# Poissons Ratio (y) = 0.43106 0.24388
# Poissons Ratio (z) = 0.14654 0.38521
#
# Static dielectric constant tensor:
#      x y z
#    x 2.980020 0.000000 0.000000 
#    y 0.000000 3.361870 0.000000 
#    z 0.000000 0.000000 2.917820 
# 
# 
# High freq. dielectric constant tensor:
#      x y z
#    x 1.594310 0.000000 0.000000 
#    y 0.000000 1.621940 0.000000 
#    z 0.000000 0.000000 1.605480 
# 
# From -- ./inp_files/9429.got.cif
#   From: 2010.06.25/outbox.cif.g09.slc.cpg/sg58_5_cif.got.tgz:9429.got - 2010.06.26 21:38:00.
