data_PCOD8237076
_publ_section_title
;
Structure prediction by ZEFSAII (Michael W. Deem and Ramdas Pophale) SiO2 
 PCOD8237076
Probable space group: P N N M
;
_chemical_formula_sum "Si O2"
_cell_formula_units_Z 64
_cell_length_a 19.983139
_cell_length_b 20.074432
_cell_length_c 9.278288
_cell_angle_alpha 90.000000
_cell_angle_beta 90.000000
_cell_angle_gamma 90.000000
_cell_volume 3721.986762
_symmetry_space_group_name_H-M "P N N M"
_symmetry_group_IT_number 58
_symmetry_cell_setting 'orthorhombic'
loop_
_space_group_symop_operation_xyz
x,y,z
-x,-y,z
1/2+x,1/2-y,1/2-z
1/2-x,1/2+y,1/2-z
-x,-y,-z
x,y,-z
1/2-x,1/2+y,1/2+z
1/2+x,1/2-y,1/2+z
loop_
_atom_site_type_symbol
_atom_site_label
_atom_site_fract_x
_atom_site_fract_y
_atom_site_fract_z
Si Si1 0.045939 0.435979 0.665636
Si Si2 0.808061 0.982741 0.328634
Si Si3 0.942506 0.047832 0.671346
Si Si4 0.323770 0.786510 0.658776
Si Si5 0.981077 0.689867 0.837999
Si Si6 0.340717 0.662463 0.833655
Si Si7 0.496107 0.684215 0.167022
Si Si8 0.682020 0.067092 0.328854
O O1 0.059679 0.415362 0.500000
O O2 0.006352 0.376623 0.745678
O O3 0.000000 0.500000 0.675558
O O4 0.115632 0.452740 0.743291
O O5 0.812801 0.982556 0.500000
O O6 0.811150 0.906759 0.271258
O O7 0.870803 0.024723 0.266697
O O8 0.739526 0.016667 0.276996
O O9 0.943993 0.042303 0.500000
O O10 0.956460 0.123831 0.717781
O O11 0.000000 0.000000 0.735938
O O12 0.296869 0.769179 0.500000
O O13 0.402970 0.795436 0.657913
O O14 0.303397 0.724963 0.759724
O O15 0.293832 0.857545 0.710805
O O16 0.017512 0.751939 0.761021
O O17 0.009549 0.680809 0.000000
O O18 0.419806 0.662369 0.804915
O O19 0.323803 0.669447 0.000000
O O20 0.506671 0.702184 0.000000
O O21 0.667346 0.062719 0.500000
#
# Coordination Sequence:
#
# PCOD8237076 Si02
#       8
#     8   8   8   8   8   8   8   8
#     4  10  20  34  54  77  97 116 149 201 251 296
#     4   9  16  27  45  70  98 128 166 202 235 280
#     4   9  14  23  42  71 102 131 166 205 237 271
#     4   8  15  27  42  62  88 117 154 194 233 279
#     4   9  17  29  47  71  97 126 156 191 235 287
#     4   9  15  24  43  69  91 117 158 202 234 266
#     4   9  15  24  43  70  98 128 163 203 239 268
#     4   9  18  32  50  71  96 128 162 196 238 292
#
# _framework density 17.195118000000001
#
# number of rings (size 3 to 8) (size 9 to 14) (size 15 to 20)
#    0.000    3.000    1.250    1.500    0.000    4.000 
#    0.000    0.625    2.750    1.875    0.000    0.000 
#    0.000    0.000    0.000    0.000    0.000    0.000 
#
# Total GULP energy -793300.757204 kJ/mol
# GULP energy per Si atom -12395.324331 kJ/mol
# Density = 1.715598 g / cm^3
# Si number density = 17.195118 Si / 1000 Ang^3
#
#
#
# Elastic Constant Matrix: (Units=GPa)
#
#
# Indices 1 2 3 4 5 6 
#
# 1 55.6969 46.9635 30.3488 0.0000 0.0000 0.0000
# 2 46.9635 144.6440 58.6295 0.0000 0.0000 0.0000
# 3 30.3488 58.6295 71.3100 0.0000 0.0000 0.0000
# 4 0.0000 0.0000 0.0000 25.1512 0.0000 0.0000
# 5 0.0000 0.0000 0.0000 0.0000 11.1317 0.0000
# 6 0.0000 0.0000 0.0000 0.0000 0.0000 21.4463
#
#
#
# Elastic Compliance Matrix: (Units=1/GPa)
#
#
# Indices 1 2 3 4 5 6 
#
# 1 0.026485 -0.006045 -0.006302 0.000000 0.000000 0.000000
# 2 -0.006045 0.011749 -0.007087 0.000000 0.000000 0.000000
# 3 -0.006302 -0.007087 0.022532 0.000000 0.000000 0.000000
# 4 0.000000 0.000000 0.000000 0.039760 0.000000 0.000000
# 5 0.000000 0.000000 0.000000 0.000000 0.089833 0.000000
# 6 0.000000 0.000000 0.000000 0.000000 0.000000 0.046628
#
#
# Mechanical properties :
#
#
# Convention : Reuss Voigt Hill
#
# Bulk Modulus (GPa) = 45.66501 60.39272 53.02886
# Shear Modulus (GPa) = 17.65825 20.59313 19.12569
#
# Velocity S-wave (km/s) = 3.20806 3.46441 3.33870
# Velocity P-wave (km/s) = 6.35113 7.15550 6.76528
#
# Compressibility (1/GPa) = 0.02189860
#
# Stress axis : x y z
#
# Youngs Moduli (GPa) = 37.75693 85.11492 44.38130
#
# Poissons Ratio (x) = 0.51452 0.27968
# Poissons Ratio (y) = 0.22824 0.31453
# Poissons Ratio (z) = 0.23794 0.60321
#
# Static dielectric constant tensor:
#      x y z
#    x 2.914560 0.000000 0.000000 
#    y 0.000000 3.530390 0.000000 
#    z 0.000000 0.000000 3.111540 
# 
# 
# High freq. dielectric constant tensor:
#      x y z
#    x 1.619330 0.000000 0.000000 
#    y 0.000000 1.680390 0.000000 
#    z 0.000000 0.000000 1.637940 
# 
# From -- ./inp_files/8347.got.cif
#   From: 2010.06.25/outbox.cif.g09.slc.cpg/sg58_5_cif.got.tgz:8347.got - 2010.06.26 21:38:00.
