data_PCOD8237600
_publ_section_title
;
Structure prediction by ZEFSAII (Michael W. Deem and Ramdas Pophale) SiO2 
 PCOD8237600
Probable space group: P N N M
;
_chemical_formula_sum "Si O2"
_cell_formula_units_Z 48
_cell_length_a 9.124295
_cell_length_b 30.504057
_cell_length_c 8.702295
_cell_angle_alpha 90.000000
_cell_angle_beta 90.000000
_cell_angle_gamma 90.000000
_cell_volume 2422.092491
_symmetry_space_group_name_H-M "P N N M"
_symmetry_group_IT_number 58
_symmetry_cell_setting 'orthorhombic'
loop_
_space_group_symop_operation_xyz
x,y,z
-x,-y,z
1/2+x,1/2-y,1/2-z
1/2-x,1/2+y,1/2-z
-x,-y,-z
x,y,-z
1/2-x,1/2+y,1/2+z
1/2+x,1/2-y,1/2+z
loop_
_atom_site_type_symbol
_atom_site_label
_atom_site_fract_x
_atom_site_fract_y
_atom_site_fract_z
Si Si1 0.163578 0.791253 0.319933
Si Si2 0.829970 0.376989 0.320167
Si Si3 0.156232 0.208269 0.818269
Si Si4 0.154761 0.955401 0.179206
Si Si5 0.346647 0.547321 0.819678
Si Si6 0.331492 0.869857 0.177359
O O1 0.139221 0.786782 0.500000
O O2 0.256535 0.750380 0.254167
O O3 0.247942 0.835823 0.284173
O O4 0.007133 0.791274 0.241627
O O5 0.806125 0.385979 0.500000
O O6 0.737343 0.335515 0.260981
O O7 0.781340 0.419495 0.226027
O O8 0.998265 0.367603 0.282040
O O9 0.152914 0.209619 0.000000
O O10 0.273733 0.918335 0.214927
O O11 0.995432 0.938757 0.232999
O O12 0.202690 0.998611 0.271468
O O13 0.147967 0.966925 0.000000
O O14 0.375729 0.548708 0.000000
O O15 0.301534 0.857746 0.000000
#
# Coordination Sequence:
#
# PCOD8237600 Si02
#       6
#     8   8   8   8   8   8
#     4  11  23  38  60  88 116 147 186 234 282 328
#     4  10  21  39  59  80 111 151 192 229 272 334
#     4  10  22  39  59  83 113 150 187 225 274 332
#     4  10  20  37  60  83 109 148 193 231 276 339
#     4  11  22  36  56  84 115 146 184 235 289 333
#     4  10  22  39  60  84 113 150 190 232 278 334
#
# _framework density 19.817575000000001
#
# number of rings (size 3 to 8) (size 9 to 14) (size 15 to 20)
#    0.000    1.667    0.000    5.500    0.000   10.000 
#    0.000    3.333    0.000    0.000    0.000    0.000 
#    0.000    0.000    0.000    0.000    0.000    0.000 
#
# Total GULP energy -595471.479278 kJ/mol
# GULP energy per Si atom -12405.655818 kJ/mol
# Density = 1.977247 g / cm^3
# Si number density = 19.817575 Si / 1000 Ang^3
#
#
#
# Elastic Constant Matrix: (Units=GPa)
#
#
# Indices 1 2 3 4 5 6 
#
# 1 124.4633 67.6237 15.2681 0.0000 0.0000 0.0000
# 2 67.6237 110.7623 24.5430 0.0000 0.0000 0.0000
# 3 15.2681 24.5430 34.1206 0.0000 0.0000 0.0000
# 4 0.0000 0.0000 0.0000 30.2424 0.0000 0.0000
# 5 0.0000 0.0000 0.0000 0.0000 26.1689 0.0000
# 6 0.0000 0.0000 0.0000 0.0000 0.0000 39.2508
#
#
#
# Elastic Compliance Matrix: (Units=1/GPa)
#
#
# Indices 1 2 3 4 5 6 
#
# 1 0.012023 -0.007314 -0.000119 0.000000 0.000000 0.000000
# 2 -0.007314 0.015190 -0.007653 0.000000 0.000000 0.000000
# 3 -0.000119 -0.007653 0.034866 0.000000 0.000000 0.000000
# 4 0.000000 0.000000 0.000000 0.033066 0.000000 0.000000
# 5 0.000000 0.000000 0.000000 0.000000 0.038213 0.000000
# 6 0.000000 0.000000 0.000000 0.000000 0.000000 0.025477
#
#
# Mechanical properties :
#
#
# Convention : Reuss Voigt Hill
#
# Bulk Modulus (GPa) = 31.34176 53.80176 42.57176
# Shear Modulus (GPa) = 25.04476 29.92650 27.48563
#
# Velocity S-wave (km/s) = 3.55880 3.89022 3.72819
# Velocity P-wave (km/s) = 5.72156 6.88374 6.32938
#
# Compressibility (1/GPa) = 0.03190631
#
# Stress axis : x y z
#
# Youngs Moduli (GPa) = 83.17419 65.83476 28.68134
#
# Poissons Ratio (x) = 0.48152 0.00341
# Poissons Ratio (y) = 0.60834 0.21950
# Poissons Ratio (z) = 0.00990 0.50384
#
# Static dielectric constant tensor:
#      x y z
#    x 3.622850 0.000000 0.000000 
#    y 0.000000 3.818980 0.000000 
#    z 0.000000 0.000000 3.529370 
# 
# 
# High freq. dielectric constant tensor:
#      x y z
#    x 1.778990 0.000000 0.000000 
#    y 0.000000 1.787320 0.000000 
#    z 0.000000 0.000000 1.768190 
# 
# From -- ./inp_files/2864.got.cif
#   From: 2010.06.25/outbox.cif.g09.slc.cpg/sg58_2_cif.got.tgz:2864.got - 2010.06.26 21:38:00.
