data_PCOD8237001
_publ_section_title
;
Structure prediction by ZEFSAII (Michael W. Deem and Ramdas Pophale) SiO2 
 PCOD8237001
Probable space group: P N N M
;
_chemical_formula_sum "Si O2"
_cell_formula_units_Z 56
_cell_length_a 18.749866
_cell_length_b 18.253139
_cell_length_c 9.071396
_cell_angle_alpha 90.000000
_cell_angle_beta 90.000000
_cell_angle_gamma 90.000000
_cell_volume 3104.630039
_symmetry_space_group_name_H-M "P N N M"
_symmetry_group_IT_number 58
_symmetry_cell_setting 'orthorhombic'
loop_
_space_group_symop_operation_xyz
x,y,z
-x,-y,z
1/2+x,1/2-y,1/2-z
1/2-x,1/2+y,1/2-z
-x,-y,-z
x,y,-z
1/2-x,1/2+y,1/2+z
1/2+x,1/2-y,1/2+z
loop_
_atom_site_type_symbol
_atom_site_label
_atom_site_fract_x
_atom_site_fract_y
_atom_site_fract_z
Si Si1 0.576575 0.528962 0.325755
Si Si2 0.553278 0.840785 0.670957
Si Si3 0.119203 0.811100 0.829860
Si Si4 0.747807 0.158433 0.662305
Si Si5 0.788101 0.989337 0.334261
Si Si6 0.147659 0.542190 0.324791
Si Si7 0.102067 0.396301 0.173037
O O1 0.500000 0.500000 0.274038
O O2 0.586860 0.520784 0.500000
O O3 0.583306 0.613625 0.273151
O O4 0.636112 0.478760 0.246751
O O5 0.570063 0.859358 0.500000
O O6 0.566453 0.755506 0.706631
O O7 0.602914 0.887363 0.777595
O O8 0.471356 0.856255 0.709240
O O9 0.197354 0.795872 0.761106
O O10 0.134851 0.818364 0.000000
O O11 0.752099 0.193063 0.500000
O O12 0.770258 0.074311 0.661462
O O13 0.665831 0.159657 0.719926
O O14 0.791943 0.956977 0.500000
O O15 0.726596 0.948327 0.242653
O O16 0.153222 0.537142 0.500000
O O17 0.106417 0.471094 0.264395
O O18 0.109770 0.416387 0.000000
#
# Coordination Sequence:
#
# PCOD8237001 Si02
#       7
#     8   8   8   8   8   8   8
#     4   9  17  31  52  78 106 132 164 211 259 295
#     4  10  20  34  50  69  99 136 169 201 244 301
#     4   9  18  32  50  71  97 133 169 200 243 298
#     4   8  15  29  49  70  91 120 160 203 242 283
#     4   9  17  31  51  73  97 127 165 202 240 294
#     4  11  21  32  49  74 101 128 163 208 256 300
#     4   9  18  33  52  72  96 131 171 206 243 293
#
# _framework density 18.037576999999999
#
# number of rings (size 3 to 8) (size 9 to 14) (size 15 to 20)
#    0.000    2.714    0.000    3.000    0.000    6.571 
#    0.000    1.429    0.000    3.429    0.000    0.000 
#    0.000    0.000    0.000    0.000    0.000    0.000 
#
# Total GULP energy -694245.249248 kJ/mol
# GULP energy per Si atom -12397.236594 kJ/mol
# Density = 1.799652 g / cm^3
# Si number density = 18.037577 Si / 1000 Ang^3
#
#
#
# Elastic Constant Matrix: (Units=GPa)
#
#
# Indices 1 2 3 4 5 6 
#
# 1 170.4497 55.6135 60.6046 0.0000 0.0000 0.0000
# 2 55.6135 62.0319 34.9179 0.0000 0.0000 0.0000
# 3 60.6046 34.9179 79.9540 0.0000 0.0000 0.0000
# 4 0.0000 0.0000 0.0000 17.2473 0.0000 0.0000
# 5 0.0000 0.0000 0.0000 0.0000 32.1278 0.0000
# 6 0.0000 0.0000 0.0000 0.0000 0.0000 19.0152
#
#
#
# Elastic Compliance Matrix: (Units=1/GPa)
#
#
# Indices 1 2 3 4 5 6 
#
# 1 0.009403 -0.005858 -0.004569 0.000000 0.000000 0.000000
# 2 -0.005858 0.025025 -0.006489 0.000000 0.000000 0.000000
# 3 -0.004569 -0.006489 0.018804 0.000000 0.000000 0.000000
# 4 0.000000 0.000000 0.000000 0.057980 0.000000 0.000000
# 5 0.000000 0.000000 0.000000 0.000000 0.031126 0.000000
# 6 0.000000 0.000000 0.000000 0.000000 0.000000 0.052589
#
#
# Mechanical properties :
#
#
# Convention : Reuss Voigt Hill
#
# Bulk Modulus (GPa) = 51.54441 68.30085 59.92263
# Shear Modulus (GPa) = 21.25624 24.43137 22.84381
#
# Velocity S-wave (km/s) = 3.43657 3.68431 3.56259
# Velocity P-wave (km/s) = 6.66219 7.48645 7.08632
#
# Compressibility (1/GPa) = 0.01940074
#
# Stress axis : x y z
#
# Youngs Moduli (GPa) = 106.35359 39.95987 53.17977
#
# Poissons Ratio (x) = 0.23408 0.24297
# Poissons Ratio (y) = 0.62301 0.34507
# Poissons Ratio (z) = 0.48591 0.25929
#
# Static dielectric constant tensor:
#      x y z
#    x 3.689840 0.000000 0.000000 
#    y 0.000000 3.072530 0.000000 
#    z 0.000000 0.000000 3.369960 
# 
# 
# High freq. dielectric constant tensor:
#      x y z
#    x 1.710940 0.000000 0.000000 
#    y 0.000000 1.661590 0.000000 
#    z 0.000000 0.000000 1.693640 
# 
# From -- ./inp_files/8169.got.cif
#   From: 2010.06.25/outbox.cif.g09.slc.cpg/sg58_5_cif.got.tgz:8169.got - 2010.06.26 21:38:00.
