data_PCOD8237699
_publ_section_title
;
Structure prediction by ZEFSAII (Michael W. Deem and Ramdas Pophale) SiO2 
 PCOD8237699
Probable space group: P N N M
;
_chemical_formula_sum "Si O2"
_cell_formula_units_Z 48
_cell_length_a 10.058736
_cell_length_b 13.837204
_cell_length_c 18.340085
_cell_angle_alpha 90.000000
_cell_angle_beta 90.000000
_cell_angle_gamma 90.000000
_cell_volume 2552.660733
_symmetry_space_group_name_H-M "P N N M"
_symmetry_group_IT_number 58
_symmetry_cell_setting 'orthorhombic'
loop_
_space_group_symop_operation_xyz
x,y,z
-x,-y,z
1/2+x,1/2-y,1/2-z
1/2-x,1/2+y,1/2-z
-x,-y,-z
x,y,-z
1/2-x,1/2+y,1/2+z
1/2+x,1/2-y,1/2+z
loop_
_atom_site_type_symbol
_atom_site_label
_atom_site_fract_x
_atom_site_fract_y
_atom_site_fract_z
Si Si1 0.722087 0.242989 0.085107
Si Si2 0.633508 0.449796 0.582679
Si Si3 0.874113 0.562600 0.166951
Si Si4 0.134660 0.446919 0.661492
Si Si5 0.144268 0.042680 0.584088
Si Si6 0.526827 0.240120 0.417192
O O1 0.642626 0.158430 0.125440
O O2 0.651262 0.344130 0.105109
O O3 0.876051 0.243403 0.110610
O O4 0.713808 0.220546 0.000000
O O5 0.500000 0.500000 0.610424
O O6 0.666290 0.483709 0.500000
O O7 0.748986 0.482144 0.636296
O O8 0.614643 0.335821 0.586598
O O9 0.856601 0.568413 0.252786
O O10 0.743126 0.517029 0.133653
O O11 0.895559 0.668832 0.135690
O O12 0.000000 0.500000 0.142896
O O13 0.000000 0.500000 0.637804
O O14 0.185289 0.028885 0.500000
O O15 0.000000 0.000000 0.600052
O O16 0.522440 0.199661 0.500000
#
# Coordination Sequence:
#
# PCOD8237699 Si02
#       6
#     8   8   8   8   8   8
#     4  10  20  39  65  89 119 159 202 254 306 348
#     4  10  20  38  63  90 117 154 209 253 294 358
#     4  11  23  40  59  87 123 163 204 242 296 370
#     4  11  25  40  57  89 130 163 197 245 305 371
#     4  10  22  40  63  91 120 152 200 254 306 360
#     4  10  20  37  67  94 113 153 212 261 293 346
#
# _framework density 18.803909999999998
#
# number of rings (size 3 to 8) (size 9 to 14) (size 15 to 20)
#    0.000    1.667    3.333    1.000    0.000    5.333 
#    3.000    3.333    0.000    0.000    0.000    0.000 
#    0.000    0.000    0.000    0.000    0.000    0.000 
#
# Total GULP energy -595393.602897 kJ/mol
# GULP energy per Si atom -12404.033394 kJ/mol
# Density = 1.876111 g / cm^3
# Si number density = 18.803910 Si / 1000 Ang^3
#
#
#
# Elastic Constant Matrix: (Units=GPa)
#
#
# Indices 1 2 3 4 5 6 
#
# 1 119.8526 73.5044 59.7528 0.0000 0.0000 0.0000
# 2 73.5044 135.5680 55.5960 0.0000 0.0000 0.0000
# 3 59.7528 55.5960 73.3579 0.0000 0.0000 0.0000
# 4 0.0000 0.0000 0.0000 -57.7992 0.0000 0.0000
# 5 0.0000 0.0000 0.0000 0.0000 23.5399 0.0000
# 6 0.0000 0.0000 0.0000 0.0000 0.0000 34.9928
#
#
#
# Elastic Compliance Matrix: (Units=1/GPa)
#
#
# Indices 1 2 3 4 5 6 
#
# 1 0.015959 -0.004820 -0.009347 0.000000 0.000000 0.000000
# 2 -0.004820 0.012159 -0.005288 0.000000 0.000000 0.000000
# 3 -0.009347 -0.005288 0.025253 0.000000 0.000000 0.000000
# 4 0.000000 0.000000 0.000000 -0.017301 0.000000 0.000000
# 5 0.000000 0.000000 0.000000 0.000000 0.042481 0.000000
# 6 0.000000 0.000000 0.000000 0.000000 0.000000 0.028577
#
#
# Mechanical properties :
#
#
# Convention : Reuss Voigt Hill
#
# Bulk Modulus (GPa) = 69.15323 78.49830 73.82577
# Shear Modulus (GPa) = 33.14358 9.47504 21.30931
#
# Velocity S-wave (km/s) = 4.20288 2.24718 3.37001
# Velocity P-wave (km/s) = 7.77226 6.96918 7.38165
#
# Compressibility (1/GPa) = 0.01446064
#
# Stress axis : x y z
#
# Youngs Moduli (GPa) = 62.65865 82.24602 39.59946
#
# Poissons Ratio (x) = 0.39644 0.37012
# Poissons Ratio (y) = 0.30203 0.20942
# Poissons Ratio (z) = 0.58564 0.43496
#
# Static dielectric constant tensor:
#      x y z
#    x 3.349360 0.000000 0.000000 
#    y 0.000000 3.549880 0.000000 
#    z 0.000000 0.000000 3.368240 
# 
# 
# High freq. dielectric constant tensor:
#      x y z
#    x 1.731590 0.000000 0.000000 
#    y 0.000000 1.745230 0.000000 
#    z 0.000000 0.000000 1.723620 
# 
# From -- ./inp_files/25288.got.cif
#   From: 2010.06.25/outbox.cif.g09.slc.cpg/sg58_13_cif.got.tgz:25288.got - 2010.06.26 21:38:00.
