data_PCOD8237934
_publ_section_title
;
Structure prediction by ZEFSAII (Michael W. Deem and Ramdas Pophale) SiO2 
 PCOD8237934
Probable space group: P N N M
;
_chemical_formula_sum "Si O2"
_cell_formula_units_Z 64
_cell_length_a 15.495943
_cell_length_b 23.002977
_cell_length_c 9.074372
_cell_angle_alpha 90.000000
_cell_angle_beta 90.000000
_cell_angle_gamma 90.000000
_cell_volume 3234.585493
_symmetry_space_group_name_H-M "P N N M"
_symmetry_group_IT_number 58
_symmetry_cell_setting 'orthorhombic'
loop_
_space_group_symop_operation_xyz
x,y,z
-x,-y,z
1/2+x,1/2-y,1/2-z
1/2-x,1/2+y,1/2-z
-x,-y,-z
x,y,-z
1/2-x,1/2+y,1/2+z
1/2+x,1/2-y,1/2+z
loop_
_atom_site_type_symbol
_atom_site_label
_atom_site_fract_x
_atom_site_fract_y
_atom_site_fract_z
Si Si1 0.519846 0.341717 0.672875
Si Si2 0.404289 0.008850 0.826820
Si Si3 0.185457 0.182874 0.664973
Si Si4 0.244460 0.931478 0.174489
Si Si5 0.067185 0.949194 0.324908
Si Si6 0.005994 0.288981 0.170322
Si Si7 0.637074 0.878392 0.664536
Si Si8 0.323731 0.813158 0.170702
O O1 0.508914 0.354591 0.500000
O O2 0.619855 0.344789 0.718361
O O3 0.465199 0.387933 0.763448
O O4 0.488129 0.277368 0.719127
O O5 0.373566 0.072436 0.784407
O O6 0.500000 0.000000 0.756648
O O7 0.332512 0.963015 0.770677
O O8 0.411083 0.003530 0.000000
O O9 0.144679 0.183273 0.500000
O O10 0.265270 0.140837 0.669899
O O11 0.213524 0.248970 0.706849
O O12 0.162426 0.959954 0.257264
O O13 0.256054 0.863336 0.219800
O O14 0.229506 0.939337 0.000000
O O15 0.075077 0.946528 0.500000
O O16 0.000000 0.000000 0.277267
O O17 0.920130 0.323467 0.209346
O O18 0.084274 0.320492 0.252134
O O19 0.030517 0.289792 0.000000
O O20 0.612869 0.900545 0.500000
O O21 0.342190 0.822575 0.000000
#
# Coordination Sequence:
#
# PCOD8237934 Si02
#       8
#     8   8   8   8   8   8   8   8
#     4  10  21  38  62  86 115 150 191 241 292 345
#     4  10  22  40  60  87 121 155 195 242 290 344
#     4   9  19  35  57  84 117 152 187 231 287 351
#     4  10  22  39  63  91 118 155 200 245 294 347
#     4  11  26  44  61  83 115 155 199 249 299 352
#     4   9  19  35  57  87 120 152 189 236 286 344
#     4  10  21  35  56  84 115 153 192 232 284 346
#     4   9  18  35  60  85 114 152 190 232 290 348
#
# _framework density 19.786152999999999
#
# number of rings (size 3 to 8) (size 9 to 14) (size 15 to 20)
#    0.000    2.250    0.000    1.500    3.500    4.750 
#    0.000    0.000    0.000    0.000    0.000    0.000 
#    0.000    0.000    0.000    0.000    0.000    0.000 
#
# Total GULP energy -793471.247883 kJ/mol
# GULP energy per Si atom -12397.988248 kJ/mol
# Density = 1.974112 g / cm^3
# Si number density = 19.786153 Si / 1000 Ang^3
#
#
#
# Elastic Constant Matrix: (Units=GPa)
#
#
# Indices 1 2 3 4 5 6 
#
# 1 109.4165 59.3676 37.6670 0.0000 0.0000 0.0000
# 2 59.3676 87.6204 29.1699 0.0000 0.0000 0.0000
# 3 37.6670 29.1699 37.9772 0.0000 0.0000 0.0000
# 4 0.0000 0.0000 0.0000 30.8663 0.0000 0.0000
# 5 0.0000 0.0000 0.0000 0.0000 30.3587 0.0000
# 6 0.0000 0.0000 0.0000 0.0000 0.0000 32.2187
#
#
#
# Elastic Compliance Matrix: (Units=1/GPa)
#
#
# Indices 1 2 3 4 5 6 
#
# 1 0.017285 -0.008067 -0.010948 0.000000 0.000000 0.000000
# 2 -0.008067 0.019099 -0.006668 0.000000 0.000000 0.000000
# 3 -0.010948 -0.006668 0.042312 0.000000 0.000000 0.000000
# 4 0.000000 0.000000 0.000000 0.032398 0.000000 0.000000
# 5 0.000000 0.000000 0.000000 0.000000 0.032939 0.000000
# 6 0.000000 0.000000 0.000000 0.000000 0.000000 0.031038
#
#
# Mechanical properties :
#
#
# Convention : Reuss Voigt Hill
#
# Bulk Modulus (GPa) = 36.59069 54.15812 45.37441
# Shear Modulus (GPa) = 21.22716 25.94274 23.58495
#
# Velocity S-wave (km/s) = 3.27896 3.62492 3.45627
# Velocity P-wave (km/s) = 5.73312 6.70456 6.23778
#
# Compressibility (1/GPa) = 0.02732935
#
# Stress axis : x y z
#
# Youngs Moduli (GPa) = 57.85273 52.35951 23.63400
#
# Poissons Ratio (x) = 0.42239 0.25874
# Poissons Ratio (y) = 0.46670 0.15760
# Poissons Ratio (z) = 0.63336 0.34915
#
# Static dielectric constant tensor:
#      x y z
#    x 3.696440 0.000000 0.000000 
#    y 0.000000 3.721300 0.000000 
#    z 0.000000 0.000000 3.583740 
# 
# 
# High freq. dielectric constant tensor:
#      x y z
#    x 1.773510 0.000000 0.000000 
#    y 0.000000 1.778500 0.000000 
#    z 0.000000 0.000000 1.760360 
# 
# From -- ./inp_files/6970.got.cif
#   From: 2010.06.25/outbox.cif.g09.slc.cpg/sg58_4_cif.got.tgz:6970.got - 2010.06.26 21:38:00.
