data_PCOD8237272
_publ_section_title
;
Structure prediction by ZEFSAII (Michael W. Deem and Ramdas Pophale) SiO2 
 PCOD8237272
Probable space group: P N N M
;
_chemical_formula_sum "Si O2"
_cell_formula_units_Z 64
_cell_length_a 15.912979
_cell_length_b 22.578085
_cell_length_c 9.067734
_cell_angle_alpha 90.000000
_cell_angle_beta 90.000000
_cell_angle_gamma 90.000000
_cell_volume 3257.897115
_symmetry_space_group_name_H-M "P N N M"
_symmetry_group_IT_number 58
_symmetry_cell_setting 'orthorhombic'
loop_
_space_group_symop_operation_xyz
x,y,z
-x,-y,z
1/2+x,1/2-y,1/2-z
1/2-x,1/2+y,1/2-z
-x,-y,-z
x,y,-z
1/2-x,1/2+y,1/2+z
1/2+x,1/2-y,1/2+z
loop_
_atom_site_type_symbol
_atom_site_label
_atom_site_fract_x
_atom_site_fract_y
_atom_site_fract_z
Si Si1 0.679368 0.168989 0.674254
Si Si2 0.380410 0.152521 0.162745
Si Si3 0.301279 0.248468 0.665993
Si Si4 0.085337 0.535162 0.173327
Si Si5 0.241062 0.456572 0.174007
Si Si6 0.430581 0.451675 0.174139
Si Si7 0.459601 0.771220 0.837947
Si Si8 0.034132 0.828611 0.166880
O O1 0.670187 0.167183 0.500000
O O2 0.734000 0.224335 0.723957
O O3 0.719624 0.108509 0.736951
O O4 0.588454 0.178625 0.744931
O O5 0.312945 0.181480 0.273725
O O6 0.420876 0.095212 0.236356
O O7 0.447991 0.203835 0.141463
O O8 0.343152 0.137140 0.000000
O O9 0.266150 0.243620 0.500000
O O10 0.382608 0.289551 0.667826
O O11 0.169562 0.501654 0.231468
O O12 0.000000 0.500000 0.209359
O O13 0.091271 0.548673 0.000000
O O14 0.336544 0.473967 0.221481
O O15 0.234294 0.454184 0.000000
O O16 0.500000 0.500000 0.221776
O O17 0.451136 0.390745 0.254019
O O18 0.433445 0.439811 0.000000
O O19 0.461972 0.708168 0.752741
O O20 0.418750 0.761167 0.000000
O O21 0.003903 0.840449 0.000000
#
# Coordination Sequence:
#
# PCOD8237272 Si02
#       8
#     8   8   8   8   8   8   8   8
#     4  11  20  34  58  85 114 145 186 239 290 344
#     4  10  21  37  56  80 112 151 190 234 288 343
#     4  10  20  35  57  82 110 147 186 230 287 350
#     4  10  20  36  58  83 116 157 198 241 294 358
#     4   9  19  35  57  85 114 151 198 243 291 351
#     4  10  20  37  60  82 110 153 200 245 296 353
#     4  10  21  36  56  83 115 149 188 233 288 354
#     4  10  20  36  58  83 112 145 188 239 294 347
#
# _framework density 19.644573000000001
#
# number of rings (size 3 to 8) (size 9 to 14) (size 15 to 20)
#    0.000    2.000    1.250    2.625    0.000    4.000 
#    2.250    1.875    0.000    0.000    0.000    0.000 
#    0.000    0.000    0.000    0.000    0.000    0.000 
#
# Total GULP energy -793333.243385 kJ/mol
# GULP energy per Si atom -12395.831928 kJ/mol
# Density = 1.959986 g / cm^3
# Si number density = 19.644573 Si / 1000 Ang^3
#
#
#
# Elastic Constant Matrix: (Units=GPa)
#
#
# Indices 1 2 3 4 5 6 
#
# 1 87.2022 34.2065 26.1849 0.0000 0.0000 0.0000
# 2 34.2065 105.6460 44.4437 0.0000 0.0000 0.0000
# 3 26.1849 44.4437 93.1932 0.0000 0.0000 0.0000
# 4 0.0000 0.0000 0.0000 30.6253 0.0000 0.0000
# 5 0.0000 0.0000 0.0000 0.0000 23.5422 0.0000
# 6 0.0000 0.0000 0.0000 0.0000 0.0000 29.8099
#
#
#
# Elastic Compliance Matrix: (Units=1/GPa)
#
#
# Indices 1 2 3 4 5 6 
#
# 1 0.013466 -0.003463 -0.002132 0.000000 0.000000 0.000000
# 2 -0.003463 0.012732 -0.005099 0.000000 0.000000 0.000000
# 3 -0.002132 -0.005099 0.013761 0.000000 0.000000 0.000000
# 4 0.000000 0.000000 0.000000 0.032653 0.000000 0.000000
# 5 0.000000 0.000000 0.000000 0.000000 0.042477 0.000000
# 6 0.000000 0.000000 0.000000 0.000000 0.000000 0.033546
#
#
# Mechanical properties :
#
#
# Convention : Reuss Voigt Hill
#
# Bulk Modulus (GPa) = 53.84699 55.07905 54.46302
# Shear Modulus (GPa) = 28.37469 28.87589 28.62529
#
# Velocity S-wave (km/s) = 3.80465 3.83811 3.82142
# Velocity P-wave (km/s) = 6.83891 6.90942 6.87425
#
# Compressibility (1/GPa) = 0.01857114
#
# Stress axis : x y z
#
# Youngs Moduli (GPa) = 74.25926 78.54296 72.66896
#
# Poissons Ratio (x) = 0.27201 0.15494
# Poissons Ratio (y) = 0.25718 0.37052
# Poissons Ratio (z) = 0.15833 0.40047
#
# Static dielectric constant tensor:
#      x y z
#    x 3.680260 0.000000 0.000000 
#    y 0.000000 3.517490 0.000000 
#    z 0.000000 0.000000 3.702030 
# 
# 
# High freq. dielectric constant tensor:
#      x y z
#    x 1.756510 0.000000 0.000000 
#    y 0.000000 1.760740 0.000000 
#    z 0.000000 0.000000 1.762700 
# 
# From -- ./inp_files/8331.got.cif
#   From: 2010.06.25/outbox.cif.g09.slc.cpg/sg58_5_cif.got.tgz:8331.got - 2010.06.26 21:38:00.
