data_PCOD8237846
_publ_section_title
;
Structure prediction by ZEFSAII (Michael W. Deem and Ramdas Pophale) SiO2 
 PCOD8237846
Probable space group: P N N M
;
_chemical_formula_sum "Si O2"
_cell_formula_units_Z 48
_cell_length_a 9.836489
_cell_length_b 13.954422
_cell_length_c 17.472143
_cell_angle_alpha 90.000000
_cell_angle_beta 90.000000
_cell_angle_gamma 90.000000
_cell_volume 2398.270352
_symmetry_space_group_name_H-M "P N N M"
_symmetry_group_IT_number 58
_symmetry_cell_setting 'orthorhombic'
loop_
_space_group_symop_operation_xyz
x,y,z
-x,-y,z
1/2+x,1/2-y,1/2-z
1/2-x,1/2+y,1/2-z
-x,-y,-z
x,y,-z
1/2-x,1/2+y,1/2+z
1/2+x,1/2-y,1/2+z
loop_
_atom_site_type_symbol
_atom_site_label
_atom_site_fract_x
_atom_site_fract_y
_atom_site_fract_z
Si Si1 0.645910 0.465429 0.590250
Si Si2 0.460505 0.247296 0.814510
Si Si3 0.594683 0.576953 0.913478
Si Si4 0.842300 0.774316 0.182188
Si Si5 0.100766 0.413022 0.585583
Si Si6 0.100252 0.415658 0.911961
O O1 0.500000 0.500000 0.619002
O O2 0.655453 0.454422 0.500000
O O3 0.670110 0.360329 0.622730
O O4 0.756205 0.544639 0.617212
O O5 0.431810 0.318319 0.883211
O O6 0.309060 0.229492 0.780938
O O7 0.552440 0.296170 0.749776
O O8 0.540886 0.157642 0.850430
O O9 0.500000 0.500000 0.869722
O O10 0.749088 0.541171 0.906111
O O11 0.546823 0.584537 0.000000
O O12 0.902232 0.679350 0.140306
O O13 0.118579 0.366179 0.500000
O O14 0.000000 0.500000 0.576392
O O15 0.000000 0.500000 0.881510
O O16 0.063371 0.388482 0.000000
#
# Coordination Sequence:
#
# PCOD8237846 Si02
#       6
#     8   8   8   8   8   8
#     4  10  22  41  65  92 121 157 202 258 314 360
#     4  11  24  39  58  88 122 160 200 241 306 363
#     4   9  19  38  61  84 112 148 194 244 289 339
#     4  11  24  40  58  86 124 161 196 245 301 365
#     4  10  20  39  67  91 113 152 208 257 299 359
#     4   9  19  38  62  85 110 149 197 241 288 343
#
# _framework density 20.014424999999999
#
# number of rings (size 3 to 8) (size 9 to 14) (size 15 to 20)
#    0.000    2.000    1.667    1.000    2.333    4.000 
#    3.000    0.000    0.000    0.000    0.000    0.000 
#    0.000    0.000    0.000    0.000    0.000    0.000 
#
# Total GULP energy -594881.492626 kJ/mol
# GULP energy per Si atom -12393.364430 kJ/mol
# Density = 1.996887 g / cm^3
# Si number density = 20.014425 Si / 1000 Ang^3
#
#
#
# Elastic Constant Matrix: (Units=GPa)
#
#
# Indices 1 2 3 4 5 6 
#
# 1 153.3581 52.2786 37.6062 0.0000 0.0000 0.0000
# 2 52.2786 75.8302 19.5800 0.0000 0.0000 0.0000
# 3 37.6062 19.5800 45.0700 0.0000 0.0000 0.0000
# 4 0.0000 0.0000 0.0000 11.6579 0.0000 0.0000
# 5 0.0000 0.0000 0.0000 0.0000 29.8730 0.0000
# 6 0.0000 0.0000 0.0000 0.0000 0.0000 39.7518
#
#
#
# Elastic Compliance Matrix: (Units=1/GPa)
#
#
# Indices 1 2 3 4 5 6 
#
# 1 0.009728 -0.005194 -0.005861 0.000000 0.000000 0.000000
# 2 -0.005194 0.017626 -0.003324 0.000000 0.000000 0.000000
# 3 -0.005861 -0.003324 0.028522 0.000000 0.000000 0.000000
# 4 0.000000 0.000000 0.000000 0.085779 0.000000 0.000000
# 5 0.000000 0.000000 0.000000 0.000000 0.033475 0.000000
# 6 0.000000 0.000000 0.000000 0.000000 0.000000 0.025156
#
#
# Mechanical properties :
#
#
# Convention : Reuss Voigt Hill
#
# Bulk Modulus (GPa) = 36.87370 54.79864 45.83617
# Shear Modulus (GPa) = 21.00103 27.24278 24.12191
#
# Velocity S-wave (km/s) = 3.24280 3.69339 3.47540
# Velocity P-wave (km/s) = 5.69952 6.75479 6.24947
#
# Compressibility (1/GPa) = 0.02711960
#
# Stress axis : x y z
#
# Youngs Moduli (GPa) = 102.79237 56.73397 35.06049
#
# Poissons Ratio (x) = 0.29465 0.20549
# Poissons Ratio (y) = 0.53385 0.11654
# Poissons Ratio (z) = 0.60247 0.18858
#
# Static dielectric constant tensor:
#      x y z
#    x 0.449270 0.000000 0.000000 
#    y 0.000000 3.710570 0.000000 
#    z 0.000000 0.000000 3.494820 
# 
# 
# High freq. dielectric constant tensor:
#      x y z
#    x 1.799340 0.000000 0.000000 
#    y 0.000000 1.774590 0.000000 
#    z 0.000000 0.000000 1.767860 
# 
# From -- ./inp_files/25281.got.cif
#   From: 2010.06.25/outbox.cif.g09.slc.cpg/sg58_13_cif.got.tgz:25281.got - 2010.06.26 21:38:00.
