data_PCOD8237987
_publ_section_title
;
Structure prediction by ZEFSAII (Michael W. Deem and Ramdas Pophale) SiO2 
 PCOD8237987
Probable space group: P N N M
;
_chemical_formula_sum "Si O2"
_cell_formula_units_Z 40
_cell_length_a 9.149487
_cell_length_b 7.891836
_cell_length_c 27.258902
_cell_angle_alpha 90.000000
_cell_angle_beta 90.000000
_cell_angle_gamma 90.000000
_cell_volume 1968.263117
_symmetry_space_group_name_H-M "P N N M"
_symmetry_group_IT_number 58
_symmetry_cell_setting 'orthorhombic'
loop_
_space_group_symop_operation_xyz
x,y,z
-x,-y,z
1/2+x,1/2-y,1/2-z
1/2-x,1/2+y,1/2-z
-x,-y,-z
x,y,-z
1/2-x,1/2+y,1/2+z
1/2+x,1/2-y,1/2+z
loop_
_atom_site_type_symbol
_atom_site_label
_atom_site_fract_x
_atom_site_fract_y
_atom_site_fract_z
Si Si1 0.088705 0.745124 0.782176
Si Si2 0.500000 0.000000 0.361494
Si Si3 0.242632 0.270500 0.899129
Si Si4 0.895564 0.757992 0.500000
Si Si5 0.500000 0.500000 0.078009
Si Si6 0.281039 0.598665 0.298100
Si Si7 0.709190 0.902925 0.000000
O O1 0.138270 0.654045 0.732131
O O2 0.103901 0.614903 0.827145
O O3 0.921084 0.802486 0.776421
O O4 0.196811 0.899299 0.793303
O O5 0.602844 0.108970 0.396433
O O6 0.392897 0.377358 0.891702
O O7 0.242130 0.135382 0.855374
O O8 0.221197 0.173188 0.950550
O O9 0.888811 0.882469 0.546595
O O10 0.772406 0.609470 0.500000
O O11 0.043711 0.654054 0.500000
#
# Coordination Sequence:
#
# PCOD8237987 Si02
#       7
#     8   4   8   4   4   8   4
#     4  10  21  39  59  81 114 147 185 236 282 330
#     4  10  22  39  56  80 118 149 182 232 282 334
#     4  10  21  36  57  85 115 151 189 227 277 331
#     4   8  16  34  55  78 110 143 184 244 279 303
#     4   9  18  34  58  82 106 144 192 230 274 327
#     4  10  21  37  59  85 114 148 186 230 282 334
#     4   9  18  35  55  81 116 148 186 233 277 326
#
# _framework density 20.322485
#
# number of rings (size 3 to 8) (size 9 to 14) (size 15 to 20)
#    0.000    2.400    0.000    3.000    0.000    5.200 
#    0.000   10.000    0.000   10.800    0.000    0.000 
#    0.000    0.000    0.000    0.000    0.000    0.000 
#
# Total GULP energy -495883.287587 kJ/mol
# GULP energy per Si atom -12397.082190 kJ/mol
# Density = 2.027623 g / cm^3
# Si number density = 20.322485 Si / 1000 Ang^3
#
#
#
# Elastic Constant Matrix: (Units=GPa)
#
#
# Indices 1 2 3 4 5 6 
#
# 1 52.5496 29.9116 53.2832 0.0000 0.0000 0.0000
# 2 29.9116 133.2503 60.1702 0.0000 0.0000 0.0000
# 3 53.2832 60.1702 135.8231 0.0000 0.0000 0.0000
# 4 0.0000 0.0000 0.0000 89.6458 0.0000 0.0000
# 5 0.0000 0.0000 0.0000 0.0000 29.5336 0.0000
# 6 0.0000 0.0000 0.0000 0.0000 0.0000 21.4979
#
#
#
# Elastic Compliance Matrix: (Units=1/GPa)
#
#
# Indices 1 2 3 4 5 6 
#
# 1 0.031976 -0.001892 -0.011706 0.000000 0.000000 0.000000
# 2 -0.001892 0.009493 -0.003463 0.000000 0.000000 0.000000
# 3 -0.011706 -0.003463 0.013489 0.000000 0.000000 0.000000
# 4 0.000000 0.000000 0.000000 0.011155 0.000000 0.000000
# 5 0.000000 0.000000 0.000000 0.000000 0.033860 0.000000
# 6 0.000000 0.000000 0.000000 0.000000 0.000000 0.046516
#
#
# Mechanical properties :
#
#
# Convention : Reuss Voigt Hill
#
# Bulk Modulus (GPa) = 47.99454 67.59477 57.79466
# Shear Modulus (GPa) = 26.65857 40.01933 33.33895
#
# Velocity S-wave (km/s) = 3.62578 4.44240 4.05470
# Velocity P-wave (km/s) = 6.41842 7.72311 7.10079
#
# Compressibility (1/GPa) = 0.02083570
#
# Stress axis : x y z
#
# Youngs Moduli (GPa) = 31.27354 105.33773 74.13431
#
# Poissons Ratio (x) = 0.19929 0.86781
# Poissons Ratio (y) = 0.05917 0.25675
# Poissons Ratio (z) = 0.36609 0.36482
#
# Static dielectric constant tensor:
#      x y z
#    x 3.428720 0.000000 0.000000 
#    y 0.000000 4.169520 0.000000 
#    z 0.000000 0.000000 3.532650 
# 
# 
# High freq. dielectric constant tensor:
#      x y z
#    x 1.770540 0.000000 0.000000 
#    y 0.000000 1.815590 0.000000 
#    z 0.000000 0.000000 1.783750 
# 
# From -- ./inp_files/33203.got.cif
#   From: 2010.06.25/outbox.cif.g09.slc.cpg/sg58_17_cif.got.tgz:33203.got - 2010.06.26 21:38:00.
