data_PCOD8237198
_publ_section_title
;
Structure prediction by ZEFSAII (Michael W. Deem and Ramdas Pophale) SiO2 
 PCOD8237198
Probable space group: P N N M
;
_chemical_formula_sum "Si O2"
_cell_formula_units_Z 64
_cell_length_a 20.724485
_cell_length_b 19.547044
_cell_length_c 8.845367
_cell_angle_alpha 90.000000
_cell_angle_beta 90.000000
_cell_angle_gamma 90.000000
_cell_volume 3583.279579
_symmetry_space_group_name_H-M "P N N M"
_symmetry_group_IT_number 58
_symmetry_cell_setting 'orthorhombic'
loop_
_space_group_symop_operation_xyz
x,y,z
-x,-y,z
1/2+x,1/2-y,1/2-z
1/2-x,1/2+y,1/2-z
-x,-y,-z
x,y,-z
1/2-x,1/2+y,1/2+z
1/2+x,1/2-y,1/2+z
loop_
_atom_site_type_symbol
_atom_site_label
_atom_site_fract_x
_atom_site_fract_y
_atom_site_fract_z
Si Si1 0.682440 0.701664 0.179348
Si Si2 0.230132 0.928918 0.821718
Si Si3 0.881602 0.432950 0.672979
Si Si4 0.066499 0.707919 0.323067
Si Si5 0.132025 0.429163 0.823079
Si Si6 0.701007 0.283090 0.175648
Si Si7 0.923416 0.697729 0.675334
Si Si8 0.730377 0.418185 0.671276
O O1 0.681738 0.625334 0.247350
O O2 0.617832 0.738047 0.244341
O O3 0.745205 0.743865 0.228759
O O4 0.682740 0.696318 0.000000
O O5 0.301730 0.914228 0.763334
O O6 0.207325 0.005732 0.779677
O O7 0.231874 0.918323 0.000000
O O8 0.899894 0.450321 0.500000
O O9 0.921302 0.368747 0.739871
O O10 0.898629 0.498534 0.774364
O O11 0.806926 0.413392 0.685865
O O12 0.080658 0.704022 0.500000
O O13 0.993367 0.730835 0.286647
O O14 0.082927 0.369509 0.777675
O O15 0.145605 0.428884 0.000000
O O16 0.630938 0.252983 0.215709
O O17 0.698095 0.362995 0.218653
O O18 0.717599 0.274628 0.000000
O O19 0.920071 0.675900 0.500000
O O20 0.708794 0.402497 0.500000
#
# Coordination Sequence:
#
# PCOD8237198 Si02
#       8
#     8   8   8   8   8   8   8   8
#     4  11  20  34  57  82 106 135 177 224 267 312
#     4  10  20  35  54  79 107 138 175 217 267 320
#     4   9  17  33  53  73 101 140 181 218 258 313
#     4   9  19  36  56  76 102 143 185 216 259 318
#     4  11  21  32  49  76 108 142 177 217 262 311
#     4  11  21  32  53  81 108 138 176 220 265 313
#     4  10  21  37  54  74 105 145 183 216 258 318
#     4   9  18  33  54  77 105 135 173 219 264 313
#
# _framework density 17.860733
#
# number of rings (size 3 to 8) (size 9 to 14) (size 15 to 20)
#    0.000    2.000    2.500    3.000    0.000    3.500 
#    0.000    4.375    0.000    0.750    0.000    5.250 
#    0.000    0.000    0.000    0.000    0.000    0.000 
#
# Total GULP energy -793622.751303 kJ/mol
# GULP energy per Si atom -12400.355489 kJ/mol
# Density = 1.782008 g / cm^3
# Si number density = 17.860733 Si / 1000 Ang^3
#
#
#
# Elastic Constant Matrix: (Units=GPa)
#
#
# Indices 1 2 3 4 5 6 
#
# 1 93.9918 56.5329 32.1100 0.0000 0.0000 0.0000
# 2 56.5329 122.5588 42.4910 0.0000 0.0000 0.0000
# 3 32.1100 42.4910 69.7033 0.0000 0.0000 0.0000
# 4 0.0000 0.0000 0.0000 32.6622 0.0000 0.0000
# 5 0.0000 0.0000 0.0000 0.0000 18.1846 0.0000
# 6 0.0000 0.0000 0.0000 0.0000 0.0000 24.2960
#
#
#
# Elastic Compliance Matrix: (Units=1/GPa)
#
#
# Indices 1 2 3 4 5 6 
#
# 1 0.015369 -0.005877 -0.003497 0.000000 0.000000 0.000000
# 2 -0.005877 0.012593 -0.004970 0.000000 0.000000 0.000000
# 3 -0.003497 -0.004970 0.018987 0.000000 0.000000 0.000000
# 4 0.000000 0.000000 0.000000 0.030616 0.000000 0.000000
# 5 0.000000 0.000000 0.000000 0.000000 0.054992 0.000000
# 6 0.000000 0.000000 0.000000 0.000000 0.000000 0.041159
#
#
# Mechanical properties :
#
#
# Convention : Reuss Voigt Hill
#
# Bulk Modulus (GPa) = 54.75972 60.94686 57.85329
# Shear Modulus (GPa) = 23.98197 25.36989 24.67593
#
# Velocity S-wave (km/s) = 3.66829 3.77295 3.72099
# Velocity P-wave (km/s) = 6.97622 7.29230 7.13601
#
# Compressibility (1/GPa) = 0.01826160
#
# Stress axis : x y z
#
# Youngs Moduli (GPa) = 65.06783 79.40949 52.66730
#
# Poissons Ratio (x) = 0.46665 0.18420
# Poissons Ratio (y) = 0.38237 0.26173
# Poissons Ratio (z) = 0.22757 0.39463
#
# Static dielectric constant tensor:
#      x y z
#    x 3.145510 0.000000 0.000000 
#    y 0.000000 3.560500 0.000000 
#    z 0.000000 0.000000 3.191250 
# 
# 
# High freq. dielectric constant tensor:
#      x y z
#    x 1.663660 0.000000 0.000000 
#    y 0.000000 1.697680 0.000000 
#    z 0.000000 0.000000 1.681980 
# 
# From -- ./inp_files/9217.got.cif
#   From: 2010.06.25/outbox.cif.g09.slc.cpg/sg58_5_cif.got.tgz:9217.got - 2010.06.26 21:38:00.
