data_PCOD8237459
_publ_section_title
;
Structure prediction by ZEFSAII (Michael W. Deem and Ramdas Pophale) SiO2 
 PCOD8237459
Probable space group: P N N M
;
_chemical_formula_sum "Si O2"
_cell_formula_units_Z 64
_cell_length_a 19.620561
_cell_length_b 19.345841
_cell_length_c 9.000347
_cell_angle_alpha 90.000000
_cell_angle_beta 90.000000
_cell_angle_gamma 90.000000
_cell_volume 3416.317994
_symmetry_space_group_name_H-M "P N N M"
_symmetry_group_IT_number 58
_symmetry_cell_setting 'orthorhombic'
loop_
_space_group_symop_operation_xyz
x,y,z
-x,-y,z
1/2+x,1/2-y,1/2-z
1/2-x,1/2+y,1/2-z
-x,-y,-z
x,y,-z
1/2-x,1/2+y,1/2+z
1/2+x,1/2-y,1/2+z
loop_
_atom_site_type_symbol
_atom_site_label
_atom_site_fract_x
_atom_site_fract_y
_atom_site_fract_z
Si Si1 0.001645 0.715126 0.671017
Si Si2 0.952938 0.563094 0.672245
Si Si3 0.179465 0.395562 0.172808
Si Si4 0.646126 0.721255 0.172961
Si Si5 0.398807 0.685432 0.325749
Si Si6 0.930900 0.968322 0.825658
Si Si7 0.282608 0.755078 0.175946
Si Si8 0.330310 0.433914 0.169934
O O1 0.984775 0.733697 0.500000
O O2 0.077999 0.737623 0.711985
O O3 0.994311 0.633728 0.700949
O O4 0.950964 0.755315 0.777979
O O5 0.933304 0.554845 0.500000
O O6 0.883552 0.559726 0.767078
O O7 0.000000 0.500000 0.726161
O O8 0.182671 0.324722 0.263825
O O9 0.249171 0.437892 0.197426
O O10 0.169248 0.377538 0.000000
O O11 0.706056 0.756188 0.267332
O O12 0.640047 0.640810 0.218986
O O13 0.665928 0.726283 0.000000
O O14 0.384604 0.691625 0.500000
O O15 0.429965 0.611754 0.281453
O O16 0.327803 0.692148 0.237632
O O17 0.864415 0.006518 0.765452
O O18 0.930128 0.979264 0.000000
O O19 0.000000 0.000000 0.756016
O O20 0.283774 0.756376 0.000000
O O21 0.348602 0.448061 0.000000
#
# Coordination Sequence:
#
# PCOD8237459 Si02
#       8
#     8   8   8   8   8   8   8   8
#     4  10  20  36  59  85 113 148 188 231 282 340
#     4  10  21  37  57  84 116 149 189 235 283 341
#     4  10  20  37  60  84 112 148 189 234 282 336
#     4   9  19  36  57  83 116 148 184 232 283 334
#     4  11  22  36  57  83 114 150 188 235 283 334
#     4  10  22  38  55  81 115 149 187 231 280 333
#     4  11  21  35  57  83 110 144 189 234 278 335
#     4   9  19  35  56  82 112 149 189 229 277 331
#
# _framework density 18.733619999999998
#
# number of rings (size 3 to 8) (size 9 to 14) (size 15 to 20)
#    0.000    2.000    1.250    3.375    0.000    4.500 
#    2.250    0.000    0.000    0.000    0.000    0.000 
#    0.000    0.000    0.000    0.000    0.000    0.000 
#
# Total GULP energy -793828.028730 kJ/mol
# GULP energy per Si atom -12403.562949 kJ/mol
# Density = 1.869098 g / cm^3
# Si number density = 18.733620 Si / 1000 Ang^3
#
#
#
# Elastic Constant Matrix: (Units=GPa)
#
#
# Indices 1 2 3 4 5 6 
#
# 1 118.5584 55.7628 47.0473 0.0000 0.0000 0.0000
# 2 55.7628 95.1084 39.7679 0.0000 0.0000 0.0000
# 3 47.0473 39.7679 77.0849 0.0000 0.0000 0.0000
# 4 0.0000 0.0000 0.0000 18.2185 0.0000 0.0000
# 5 0.0000 0.0000 0.0000 0.0000 36.4775 0.0000
# 6 0.0000 0.0000 0.0000 0.0000 0.0000 31.5953
#
#
#
# Elastic Compliance Matrix: (Units=1/GPa)
#
#
# Indices 1 2 3 4 5 6 
#
# 1 0.013064 -0.005515 -0.005128 0.000000 0.000000 0.000000
# 2 -0.005515 0.015735 -0.004751 0.000000 0.000000 0.000000
# 3 -0.005128 -0.004751 0.018554 0.000000 0.000000 0.000000
# 4 0.000000 0.000000 0.000000 0.054889 0.000000 0.000000
# 5 0.000000 0.000000 0.000000 0.000000 0.027414 0.000000
# 6 0.000000 0.000000 0.000000 0.000000 0.000000 0.031650
#
#
# Mechanical properties :
#
#
# Convention : Reuss Voigt Hill
#
# Bulk Modulus (GPa) = 60.37540 63.98973 62.18256
# Shear Modulus (GPa) = 25.30169 27.13650 26.21909
#
# Velocity S-wave (km/s) = 3.67904 3.81010 3.74515
# Velocity P-wave (km/s) = 7.09545 7.32036 7.20879
#
# Compressibility (1/GPa) = 0.01656304
#
# Stress axis : x y z
#
# Youngs Moduli (GPa) = 76.54911 63.55421 53.89790
#
# Poissons Ratio (x) = 0.35051 0.27638
# Poissons Ratio (y) = 0.42218 0.25609
# Poissons Ratio (z) = 0.39253 0.30197
#
# Static dielectric constant tensor:
#      x y z
#    x 3.646510 0.000000 0.000000 
#    y 0.000000 3.360590 0.000000 
#    z 0.000000 0.000000 3.368400 
# 
# 
# High freq. dielectric constant tensor:
#      x y z
#    x 1.737900 0.000000 0.000000 
#    y 0.000000 1.714840 0.000000 
#    z 0.000000 0.000000 1.726140 
# 
# From -- ./inp_files/9275.got.cif
#   From: 2010.06.25/outbox.cif.g09.slc.cpg/sg58_5_cif.got.tgz:9275.got - 2010.06.26 21:38:00.
