data_PCOD8237350
_publ_section_title
;
Structure prediction by ZEFSAII (Michael W. Deem and Ramdas Pophale) SiO2 
 PCOD8237350
Probable space group: P N N M
;
_chemical_formula_sum "Si O2"
_cell_formula_units_Z 64
_cell_length_a 15.244643
_cell_length_b 23.563653
_cell_length_c 8.982285
_cell_angle_alpha 90.000000
_cell_angle_beta 90.000000
_cell_angle_gamma 90.000000
_cell_volume 3226.611727
_symmetry_space_group_name_H-M "P N N M"
_symmetry_group_IT_number 58
_symmetry_cell_setting 'orthorhombic'
loop_
_space_group_symop_operation_xyz
x,y,z
-x,-y,z
1/2+x,1/2-y,1/2-z
1/2-x,1/2+y,1/2-z
-x,-y,-z
x,y,-z
1/2-x,1/2+y,1/2+z
1/2+x,1/2-y,1/2+z
loop_
_atom_site_type_symbol
_atom_site_label
_atom_site_fract_x
_atom_site_fract_y
_atom_site_fract_z
Si Si1 0.604006 0.122802 0.670870
Si Si2 0.250556 0.444508 0.675583
Si Si3 0.647722 0.752387 0.827832
Si Si4 0.148225 0.251223 0.172279
Si Si5 0.758568 0.936830 0.673771
Si Si6 0.905514 0.137907 0.176007
Si Si7 0.080951 0.143092 0.674987
Si Si8 0.593890 0.863133 0.329248
O O1 0.634047 0.117892 0.500000
O O2 0.657315 0.076645 0.763756
O O3 0.624813 0.185981 0.729898
O O4 0.501418 0.108623 0.689922
O O5 0.245145 0.446487 0.500000
O O6 0.272813 0.506452 0.734467
O O7 0.327028 0.402457 0.730888
O O8 0.750267 0.761217 0.799988
O O9 0.612937 0.701231 0.729373
O O10 0.598371 0.808820 0.776510
O O11 0.626868 0.739909 0.000000
O O12 0.091859 0.207290 0.267860
O O13 0.121662 0.244223 0.000000
O O14 0.762369 0.951439 0.500000
O O15 0.834923 0.893622 0.720971
O O16 0.665542 0.909507 0.718512
O O17 0.995558 0.115353 0.248848
O O18 0.915492 0.137001 0.000000
O O19 0.066726 0.144470 0.500000
O O20 0.609895 0.843772 0.500000
#
# Coordination Sequence:
#
# PCOD8237350 Si02
#       8
#     8   8   8   8   8   8   8   8
#     4  10  21  39  63  88 120 158 197 241 293 357
#     4  11  25  42  62  86 115 156 203 252 304 352
#     4  11  21  35  61  94 124 158 198 243 296 354
#     4  10  20  35  59  92 126 160 194 238 299 358
#     4  10  23  42  62  86 119 158 202 247 298 359
#     4  11  24  41  61  87 121 159 199 249 306 361
#     4  11  23  39  63  92 121 158 201 247 298 358
#     4  10  21  39  63  91 122 161 200 240 298 357
#
# _framework density 19.835049000000001
#
# number of rings (size 3 to 8) (size 9 to 14) (size 15 to 20)
#    0.000    1.500    2.500    2.250    0.000    6.500 
#    0.000    5.000    0.000    0.000    0.000    0.000 
#    0.000    0.000    0.000    0.000    0.000    0.000 
#
# Total GULP energy -794023.864238 kJ/mol
# GULP energy per Si atom -12406.622879 kJ/mol
# Density = 1.978990 g / cm^3
# Si number density = 19.835049 Si / 1000 Ang^3
#
#
#
# Elastic Constant Matrix: (Units=GPa)
#
#
# Indices 1 2 3 4 5 6 
#
# 1 97.5548 38.8974 42.0657 0.0000 0.0000 0.0000
# 2 38.8974 82.3820 33.4673 0.0000 0.0000 0.0000
# 3 42.0657 33.4673 65.8465 0.0000 0.0000 0.0000
# 4 0.0000 0.0000 0.0000 36.4123 0.0000 0.0000
# 5 0.0000 0.0000 0.0000 0.0000 31.6329 0.0000
# 6 0.0000 0.0000 0.0000 0.0000 0.0000 12.9810
#
#
#
# Elastic Compliance Matrix: (Units=1/GPa)
#
#
# Indices 1 2 3 4 5 6 
#
# 1 0.015154 -0.004061 -0.007617 0.000000 0.000000 0.000000
# 2 -0.004061 0.016385 -0.005734 0.000000 0.000000 0.000000
# 3 -0.007617 -0.005734 0.022967 0.000000 0.000000 0.000000
# 4 0.000000 0.000000 0.000000 0.027463 0.000000 0.000000
# 5 0.000000 0.000000 0.000000 0.000000 0.031613 0.000000
# 6 0.000000 0.000000 0.000000 0.000000 0.000000 0.077036
#
#
# Mechanical properties :
#
#
# Convention : Reuss Voigt Hill
#
# Bulk Modulus (GPa) = 50.80478 52.73823 51.77150
# Shear Modulus (GPa) = 21.55141 24.96212 23.25676
#
# Velocity S-wave (km/s) = 3.29983 3.55136 3.42791
# Velocity P-wave (km/s) = 6.33938 6.59260 6.46723
#
# Compressibility (1/GPa) = 0.01968319
#
# Stress axis : x y z
#
# Youngs Moduli (GPa) = 65.98753 61.03057 43.53987
#
# Poissons Ratio (x) = 0.24783 0.33166
# Poissons Ratio (y) = 0.26796 0.24965
# Poissons Ratio (z) = 0.50265 0.34994
#
# Static dielectric constant tensor:
#      x y z
#    x 3.850050 0.000000 0.000000 
#    y 0.000000 3.466770 0.000000 
#    z 0.000000 0.000000 3.533970 
# 
# 
# High freq. dielectric constant tensor:
#      x y z
#    x 1.790830 0.000000 0.000000 
#    y 0.000000 1.765740 0.000000 
#    z 0.000000 0.000000 1.771180 
# 
# From -- ./inp_files/6866.got.cif
#   From: 2010.06.25/outbox.cif.g09.slc.cpg/sg58_4_cif.got.tgz:6866.got - 2010.06.26 21:38:00.
