data_PCOD8237561
_publ_section_title
;
Structure prediction by ZEFSAII (Michael W. Deem and Ramdas Pophale) SiO2 
 PCOD8237561
Probable space group: P N N M
;
_chemical_formula_sum "Si O2"
_cell_formula_units_Z 56
_cell_length_a 13.744056
_cell_length_b 22.982256
_cell_length_c 9.279480
_cell_angle_alpha 90.000000
_cell_angle_beta 90.000000
_cell_angle_gamma 90.000000
_cell_volume 2931.103905
_symmetry_space_group_name_H-M "P N N M"
_symmetry_group_IT_number 58
_symmetry_cell_setting 'orthorhombic'
loop_
_space_group_symop_operation_xyz
x,y,z
-x,-y,z
1/2+x,1/2-y,1/2-z
1/2-x,1/2+y,1/2-z
-x,-y,-z
x,y,-z
1/2-x,1/2+y,1/2+z
1/2+x,1/2-y,1/2+z
loop_
_atom_site_type_symbol
_atom_site_label
_atom_site_fract_x
_atom_site_fract_y
_atom_site_fract_z
Si Si1 0.289250 0.733545 0.829437
Si Si2 0.101167 0.066294 0.157927
Si Si3 0.801284 0.364727 0.339467
Si Si4 0.898920 0.477317 0.328893
Si Si5 0.194120 0.834708 0.667444
Si Si6 0.790052 0.045351 0.170485
Si Si7 0.976836 0.835057 0.335832
O O1 0.208507 0.687760 0.773499
O O2 0.270857 0.794816 0.752037
O O3 0.396745 0.711625 0.780790
O O4 0.279072 0.741489 0.000000
O O5 0.204618 0.097419 0.152176
O O6 0.029262 0.102015 0.259991
O O7 0.120686 0.999371 0.205115
O O8 0.052630 0.067093 0.000000
O O9 0.824547 0.339563 0.500000
O O10 0.884880 0.409303 0.284926
O O11 0.901053 0.480679 0.500000
O O12 0.811195 0.517706 0.273913
O O13 0.000000 0.500000 0.260938
O O14 0.223730 0.837815 0.500000
O O15 0.193987 0.898001 0.735734
O O16 0.084624 0.808918 0.685497
O O17 0.786582 0.059485 0.000000
O O18 0.952828 0.848743 0.500000
#
# Coordination Sequence:
#
# PCOD8237561 Si02
#       7
#     8   8   8   8   8   8   8
#     4  10  20  37  57  75  99 135 179 224 266 313
#     4   8  15  29  52  78 104 134 168 209 256 306
#     4   8  14  28  51  76 101 132 171 213 256 303
#     4   8  14  28  52  80 107 139 178 214 253 310
#     4  11  23  38  54  76 108 142 177 220 270 319
#     4   9  18  33  52  78 111 142 175 216 262 311
#     4   9  20  37  56  77 101 135 179 219 261 319
#
# _framework density 19.105430999999999
#
# number of rings (size 3 to 8) (size 9 to 14) (size 15 to 20)
#    0.000    3.000    0.000    2.571    0.000    2.857 
#    2.571    5.000    0.000    0.857    0.000    0.000 
#    0.000    0.000    0.000    0.000    0.000    0.000 
#
# Total GULP energy -694079.705973 kJ/mol
# GULP energy per Si atom -12394.280464 kJ/mol
# Density = 1.906195 g / cm^3
# Si number density = 19.105431 Si / 1000 Ang^3
#
#
#
# Elastic Constant Matrix: (Units=GPa)
#
#
# Indices 1 2 3 4 5 6 
#
# 1 53.1203 20.1601 24.3624 0.0000 0.0000 0.0000
# 2 20.1601 100.4802 50.3416 0.0000 0.0000 0.0000
# 3 24.3624 50.3416 80.3698 0.0000 0.0000 0.0000
# 4 0.0000 0.0000 0.0000 34.9417 0.0000 0.0000
# 5 0.0000 0.0000 0.0000 0.0000 16.6097 0.0000
# 6 0.0000 0.0000 0.0000 0.0000 0.0000 25.9813
#
#
#
# Elastic Compliance Matrix: (Units=1/GPa)
#
#
# Indices 1 2 3 4 5 6 
#
# 1 0.022033 -0.001566 -0.005698 0.000000 0.000000 0.000000
# 2 -0.001566 0.014615 -0.008680 0.000000 0.000000 0.000000
# 3 -0.005698 -0.008680 0.019607 0.000000 0.000000 0.000000
# 4 0.000000 0.000000 0.000000 0.028619 0.000000 0.000000
# 5 0.000000 0.000000 0.000000 0.000000 0.060206 0.000000
# 6 0.000000 0.000000 0.000000 0.000000 0.000000 0.038489
#
#
# Mechanical properties :
#
#
# Convention : Reuss Voigt Hill
#
# Bulk Modulus (GPa) = 41.03912 47.07763 44.05838
# Shear Modulus (GPa) = 22.36357 24.78030 23.57193
#
# Velocity S-wave (km/s) = 3.42502 3.60534 3.51633
# Velocity P-wave (km/s) = 6.09656 6.48272 6.29260
#
# Compressibility (1/GPa) = 0.02436699
#
# Stress axis : x y z
#
# Youngs Moduli (GPa) = 45.38714 68.42240 51.00335
#
# Poissons Ratio (x) = 0.10714 0.29061
# Poissons Ratio (y) = 0.07107 0.44270
# Poissons Ratio (z) = 0.25861 0.59390
#
# Static dielectric constant tensor:
#      x y z
#    x 3.679010 0.000000 0.000000 
#    y 0.000000 3.535940 0.000000 
#    z 0.000000 0.000000 3.345130 
# 
# 
# High freq. dielectric constant tensor:
#      x y z
#    x 1.733700 0.000000 0.000000 
#    y 0.000000 1.740940 0.000000 
#    z 0.000000 0.000000 1.720740 
# 
# From -- ./inp_files/6385.got.cif
#   From: 2010.06.25/outbox.cif.g09.slc.cpg/sg58_4_cif.got.tgz:6385.got - 2010.06.26 21:38:00.
