data_PCOD8237856
_publ_section_title
;
Structure prediction by ZEFSAII (Michael W. Deem and Ramdas Pophale) SiO2 
 PCOD8237856
Probable space group: P N N M
;
_chemical_formula_sum "Si O2"
_cell_formula_units_Z 64
_cell_length_a 10.877026
_cell_length_b 8.418083
_cell_length_c 29.533797
_cell_angle_alpha 90.000000
_cell_angle_beta 90.000000
_cell_angle_gamma 90.000000
_cell_volume 2704.223955
_symmetry_space_group_name_H-M "P N N M"
_symmetry_group_IT_number 58
_symmetry_cell_setting 'orthorhombic'
loop_
_space_group_symop_operation_xyz
x,y,z
-x,-y,z
1/2+x,1/2-y,1/2-z
1/2-x,1/2+y,1/2-z
-x,-y,-z
x,y,-z
1/2-x,1/2+y,1/2+z
1/2+x,1/2-y,1/2+z
loop_
_atom_site_type_symbol
_atom_site_label
_atom_site_fract_x
_atom_site_fract_y
_atom_site_fract_z
Si Si1 0.815177 0.429744 0.177476
Si Si2 0.940457 0.205022 0.050728
Si Si3 0.918490 0.646635 0.624177
Si Si4 0.281568 0.593973 0.919669
Si Si5 0.065074 0.158342 0.291565
Si Si6 0.322524 0.523871 0.619581
Si Si7 0.282095 0.769262 0.449569
Si Si8 0.446856 0.751068 0.308533
O O1 0.752918 0.463202 0.130046
O O2 0.712828 0.361357 0.211552
O O3 0.858161 0.598672 0.196638
O O4 0.924974 0.304201 0.168876
O O5 0.830549 0.329035 0.053526
O O6 0.070643 0.293913 0.060491
O O7 0.920343 0.063043 0.086714
O O8 0.940033 0.132843 0.000000
O O9 0.899779 0.785545 0.585411
O O10 0.976132 0.710543 0.671128
O O11 0.778528 0.598835 0.638135
O O12 0.000000 0.500000 0.605678
O O13 0.302121 0.427916 0.945798
O O14 0.017337 0.198383 0.241811
O O15 0.000000 0.000000 0.308841
O O16 0.240662 0.644385 0.588680
O O17 0.390768 0.608503 0.661657
O O18 0.262086 0.700239 0.500000
#
# Coordination Sequence:
#
# PCOD8237856 Si02
#       8
#     8   8   8   8   8   8   8   8
#     4  10  24  44  63  99 133 175 221 270 327 398
#     4  10  21  35  59  97 138 174 210 258 324 404
#     4  10  26  45  68  92 125 171 224 281 332 385
#     4  10  20  40  62  94 130 173 216 264 321 396
#     4  11  28  43  68  96 132 176 230 274 324 391
#     4  11  23  41  66  96 136 174 217 267 337 395
#     4  11  21  35  63  98 133 172 210 261 328 402
#     4  11  25  41  69  95 137 176 215 276 333 390
#
# _framework density 23.666678000000001
#
# number of rings (size 3 to 8) (size 9 to 14) (size 15 to 20)
#    0.000    1.500    1.250    2.250    8.750    7.000 
#    0.000    0.000    0.000   14.250    0.000    0.000 
#    0.000    0.000    0.000    0.000    0.000    0.000 
#
# Total GULP energy -793279.830857 kJ/mol
# GULP energy per Si atom -12394.997357 kJ/mol
# Density = 2.361281 g / cm^3
# Si number density = 23.666678 Si / 1000 Ang^3
#
#
#
# Elastic Constant Matrix: (Units=GPa)
#
#
# Indices 1 2 3 4 5 6 
#
# 1 54.5930 19.3696 7.4751 0.0000 0.0000 0.0000
# 2 19.3696 101.7858 25.9354 0.0000 0.0000 0.0000
# 3 7.4751 25.9354 94.0167 0.0000 0.0000 0.0000
# 4 0.0000 0.0000 0.0000 16.8167 0.0000 0.0000
# 5 0.0000 0.0000 0.0000 0.0000 19.6713 0.0000
# 6 0.0000 0.0000 0.0000 0.0000 0.0000 47.9202
#
#
#
# Elastic Compliance Matrix: (Units=1/GPa)
#
#
# Indices 1 2 3 4 5 6 
#
# 1 0.019672 -0.003598 -0.000572 0.000000 0.000000 0.000000
# 2 -0.003598 0.011225 -0.002811 0.000000 0.000000 0.000000
# 3 -0.000572 -0.002811 0.011457 0.000000 0.000000 0.000000
# 4 0.000000 0.000000 0.000000 0.059465 0.000000 0.000000
# 5 0.000000 0.000000 0.000000 0.000000 0.050835 0.000000
# 6 0.000000 0.000000 0.000000 0.000000 0.000000 0.020868
#
#
# Mechanical properties :
#
#
# Convention : Reuss Voigt Hill
#
# Bulk Modulus (GPa) = 35.21797 39.55062 37.38429
# Shear Modulus (GPa) = 25.38745 30.05602 27.72174
#
# Velocity S-wave (km/s) = 3.27878 3.56753 3.42620
# Velocity P-wave (km/s) = 5.40805 5.80668 5.61090
#
# Compressibility (1/GPa) = 0.02839460
#
# Stress axis : x y z
#
# Youngs Moduli (GPa) = 50.83322 89.08393 87.28156
#
# Poissons Ratio (x) = 0.32052 0.04989
# Poissons Ratio (y) = 0.18289 0.24531
# Poissons Ratio (z) = 0.02906 0.25038
#
# Static dielectric constant tensor:
#      x y z
#    x 4.165440 0.000000 0.000000 
#    y 0.000000 4.526870 0.000000 
#    z 0.000000 0.000000 4.175380 
# 
# 
# High freq. dielectric constant tensor:
#      x y z
#    x 1.915800 0.000000 0.000000 
#    y 0.000000 1.952210 0.000000 
#    z 0.000000 0.000000 1.928130 
# 
# From -- ./inp_files/34946.got.cif
#   From: 2010.06.25/outbox.cif.g09.slc.cpg/sg58_18_cif.got.tgz:34946.got - 2010.06.26 21:38:00.
