data_PCOD8237326
_publ_section_title
;
Structure prediction by ZEFSAII (Michael W. Deem and Ramdas Pophale) SiO2 
 PCOD8237326
Probable space group: P N N M
;
_chemical_formula_sum "Si O2"
_cell_formula_units_Z 56
_cell_length_a 16.334510
_cell_length_b 19.533520
_cell_length_c 9.025773
_cell_angle_alpha 90.000000
_cell_angle_beta 90.000000
_cell_angle_gamma 90.000000
_cell_volume 2879.857703
_symmetry_space_group_name_H-M "P N N M"
_symmetry_group_IT_number 58
_symmetry_cell_setting 'orthorhombic'
loop_
_space_group_symop_operation_xyz
x,y,z
-x,-y,z
1/2+x,1/2-y,1/2-z
1/2-x,1/2+y,1/2-z
-x,-y,-z
x,y,-z
1/2-x,1/2+y,1/2+z
1/2+x,1/2-y,1/2+z
loop_
_atom_site_type_symbol
_atom_site_label
_atom_site_fract_x
_atom_site_fract_y
_atom_site_fract_z
Si Si1 0.073919 0.449528 0.674232
Si Si2 0.759165 0.525907 0.825400
Si Si3 0.318225 0.599193 0.673155
Si Si4 0.514844 0.330601 0.326155
Si Si5 0.851964 0.150647 0.328352
Si Si6 0.667136 0.805889 0.170967
Si Si7 0.995948 0.324841 0.825252
O O1 0.084243 0.439901 0.500000
O O2 0.155693 0.482844 0.739943
O O3 0.000000 0.500000 0.714063
O O4 0.059378 0.376106 0.748842
O O5 0.697899 0.467021 0.771922
O O6 0.718781 0.598233 0.780749
O O7 0.774543 0.520050 0.000000
O O8 0.318298 0.579460 0.500000
O O9 0.404847 0.629242 0.725560
O O10 0.251348 0.656949 0.707665
O O11 0.503351 0.334401 0.500000
O O12 0.436092 0.366716 0.255116
O O13 0.521947 0.251471 0.276272
O O14 0.871887 0.143123 0.500000
O O15 0.820292 0.226399 0.287746
O O16 0.595989 0.839851 0.269338
O O17 0.641606 0.815094 0.000000
O O18 0.000347 0.335891 0.000000
#
# Coordination Sequence:
#
# PCOD8237326 Si02
#       7
#     8   8   8   8   8   8   8
#     4  11  24  40  58  82 116 155 193 231 283 351
#     4  11  24  39  58  85 116 151 191 239 292 339
#     4  10  21  37  58  82 112 152 192 232 284 345
#     4   9  20  37  59  85 113 149 191 237 285 338
#     4   9  20  38  59  82 112 150 189 235 289 341
#     4   9  18  35  59  81 110 150 190 229 280 342
#     4  10  20  35  58  86 115 144 186 238 287 335
#
# _framework density 19.445405000000001
#
# number of rings (size 3 to 8) (size 9 to 14) (size 15 to 20)
#    0.000    2.143    0.000    2.143    2.000    8.000 
#    0.000    2.857    0.000    0.000    0.000    0.000 
#    0.000    0.000    0.000    0.000    0.000    0.000 
#
# Total GULP energy -694678.325603 kJ/mol
# GULP energy per Si atom -12404.970100 kJ/mol
# Density = 1.940115 g / cm^3
# Si number density = 19.445405 Si / 1000 Ang^3
#
#
#
# Elastic Constant Matrix: (Units=GPa)
#
#
# Indices 1 2 3 4 5 6 
#
# 1 82.4425 30.5011 34.7911 0.0000 0.0000 0.0000
# 2 30.5011 77.1236 34.4664 0.0000 0.0000 0.0000
# 3 34.7911 34.4664 59.0251 0.0000 0.0000 0.0000
# 4 0.0000 0.0000 0.0000 33.1457 0.0000 0.0000
# 5 0.0000 0.0000 0.0000 0.0000 32.9164 0.0000
# 6 0.0000 0.0000 0.0000 0.0000 0.0000 33.4718
#
#
#
# Elastic Compliance Matrix: (Units=1/GPa)
#
#
# Indices 1 2 3 4 5 6 
#
# 1 0.016635 -0.002973 -0.008069 0.000000 0.000000 0.000000
# 2 -0.002973 0.018076 -0.008803 0.000000 0.000000 0.000000
# 3 -0.008069 -0.008803 0.026838 0.000000 0.000000 0.000000
# 4 0.000000 0.000000 0.000000 0.030170 0.000000 0.000000
# 5 0.000000 0.000000 0.000000 0.000000 0.030380 0.000000
# 6 0.000000 0.000000 0.000000 0.000000 0.000000 0.029876
#
#
# Mechanical properties :
#
#
# Convention : Reuss Voigt Hill
#
# Bulk Modulus (GPa) = 45.74646 46.45649 46.10148
# Shear Modulus (GPa) = 25.13190 27.82894 26.48042
#
# Velocity S-wave (km/s) = 3.59894 3.78713 3.69424
# Velocity P-wave (km/s) = 6.39113 6.56245 6.47736
#
# Compressibility (1/GPa) = 0.02185962
#
# Stress axis : x y z
#
# Youngs Moduli (GPa) = 60.11543 55.32256 37.26014
#
# Poissons Ratio (x) = 0.16446 0.30066
# Poissons Ratio (y) = 0.17870 0.32799
# Poissons Ratio (z) = 0.48508 0.48699
#
# Static dielectric constant tensor:
#      x y z
#    x 3.570090 0.000000 0.000000 
#    y 0.000000 3.697000 0.000000 
#    z 0.000000 0.000000 3.502660 
# 
# 
# High freq. dielectric constant tensor:
#      x y z
#    x 1.760260 0.000000 0.000000 
#    y 0.000000 1.762690 0.000000 
#    z 0.000000 0.000000 1.754650 
# 
# From -- ./inp_files/6267.got.cif
#   From: 2010.06.25/outbox.cif.g09.slc.cpg/sg58_4_cif.got.tgz:6267.got - 2010.06.26 21:38:00.
