data_PCOD8237965
_publ_section_title
;
Structure prediction by ZEFSAII (Michael W. Deem and Ramdas Pophale) SiO2 
 PCOD8237965
Probable space group: P N N M
;
_chemical_formula_sum "Si O2"
_cell_formula_units_Z 64
_cell_length_a 14.323181
_cell_length_b 25.115234
_cell_length_c 9.311160
_cell_angle_alpha 90.000000
_cell_angle_beta 90.000000
_cell_angle_gamma 90.000000
_cell_volume 3349.503982
_symmetry_space_group_name_H-M "P N N M"
_symmetry_group_IT_number 58
_symmetry_cell_setting 'orthorhombic'
loop_
_space_group_symop_operation_xyz
x,y,z
-x,-y,z
1/2+x,1/2-y,1/2-z
1/2-x,1/2+y,1/2-z
-x,-y,-z
x,y,-z
1/2-x,1/2+y,1/2+z
1/2+x,1/2-y,1/2+z
loop_
_atom_site_type_symbol
_atom_site_label
_atom_site_fract_x
_atom_site_fract_y
_atom_site_fract_z
Si Si1 0.947143 0.837939 0.667333
Si Si2 0.201246 0.342699 0.839955
Si Si3 0.905577 0.574020 0.333805
Si Si4 0.268592 0.491436 0.668823
Si Si5 0.378037 0.401800 0.836175
Si Si6 0.558019 0.875008 0.332631
Si Si7 0.765872 0.900796 0.667884
Si Si8 0.048108 0.267551 0.162250
O O1 0.959559 0.827699 0.500000
O O2 0.843006 0.856525 0.706584
O O3 0.973114 0.782820 0.741353
O O4 0.019816 0.883808 0.717000
O O5 0.156948 0.376375 0.712382
O O6 0.312800 0.348373 0.826232
O O7 0.158754 0.283275 0.823667
O O8 0.170132 0.363840 0.000000
O O9 0.931470 0.577868 0.500000
O O10 0.840949 0.522391 0.301851
O O11 0.002904 0.576495 0.246537
O O12 0.289362 0.493658 0.500000
O O13 0.338928 0.448426 0.736580
O O14 0.289874 0.547551 0.740204
O O15 0.380984 0.423067 0.000000
O O16 0.545707 0.885345 0.500000
O O17 0.666139 0.876540 0.287277
O O18 0.515418 0.817757 0.288014
O O19 0.769526 0.915963 0.500000
O O20 0.022631 0.251860 0.000000
#
# Coordination Sequence:
#
# PCOD8237965 Si02
#       8
#     8   8   8   8   8   8   8   8
#     4  10  22  37  53  77 105 136 181 226 259 302
#     4   8  15  30  52  76 102 133 169 207 251 310
#     4   9  17  30  51  80 109 133 164 212 262 306
#     4  10  21  36  55  81 109 136 171 218 270 316
#     4   9  18  35  57  77 101 137 179 219 259 309
#     4   9  19  36  56  78 107 144 180 211 254 319
#     4  10  22  39  55  74 106 145 180 214 256 311
#     4   9  18  33  53  77 105 136 171 214 264 314
#
# _framework density 19.107306000000001
#
# number of rings (size 3 to 8) (size 9 to 14) (size 15 to 20)
#    0.000    2.750    0.000    1.500    0.000    7.000 
#    0.000    5.000    0.000    0.000    0.000    0.000 
#    0.000    0.000    0.000    0.000    0.000    0.000 
#
# Total GULP energy -793115.053821 kJ/mol
# GULP energy per Si atom -12392.422716 kJ/mol
# Density = 1.906382 g / cm^3
# Si number density = 19.107306 Si / 1000 Ang^3
#
#
#
# Elastic Constant Matrix: (Units=GPa)
#
#
# Indices 1 2 3 4 5 6 
#
# 1 85.5435 12.6887 19.7166 0.0000 0.0000 0.0000
# 2 12.6887 72.7836 33.8673 0.0000 0.0000 0.0000
# 3 19.7166 33.8673 54.4137 0.0000 0.0000 0.0000
# 4 0.0000 0.0000 0.0000 31.8714 0.0000 0.0000
# 5 0.0000 0.0000 0.0000 0.0000 18.4321 0.0000
# 6 0.0000 0.0000 0.0000 0.0000 0.0000 21.3890
#
#
#
# Elastic Compliance Matrix: (Units=1/GPa)
#
#
# Indices 1 2 3 4 5 6 
#
# 1 0.012756 -0.000103 -0.004558 0.000000 0.000000 0.000000
# 2 -0.000103 0.019342 -0.012001 0.000000 0.000000 0.000000
# 3 -0.004558 -0.012001 0.027499 0.000000 0.000000 0.000000
# 4 0.000000 0.000000 0.000000 0.031376 0.000000 0.000000
# 5 0.000000 0.000000 0.000000 0.000000 0.054253 0.000000
# 6 0.000000 0.000000 0.000000 0.000000 0.000000 0.046753
#
#
# Mechanical properties :
#
#
# Convention : Reuss Voigt Hill
#
# Bulk Modulus (GPa) = 38.06274 38.36509 38.21391
# Shear Modulus (GPa) = 21.36210 24.10306 22.73258
#
# Velocity S-wave (km/s) = 3.34729 3.55555 3.45299
# Velocity P-wave (km/s) = 5.90787 6.08098 5.99505
#
# Compressibility (1/GPa) = 0.02627241
#
# Stress axis : x y z
#
# Youngs Moduli (GPa) = 78.39588 51.70222 36.36527
#
# Poissons Ratio (x) = 0.00532 0.16575
# Poissons Ratio (y) = 0.00806 0.43642
# Poissons Ratio (z) = 0.35733 0.62048
#
# Static dielectric constant tensor:
#      x y z
#    x 3.737420 0.000000 0.000000 
#    y 0.000000 3.221990 0.000000 
#    z 0.000000 0.000000 3.417100 
# 
# 
# High freq. dielectric constant tensor:
#      x y z
#    x 1.747920 0.000000 0.000000 
#    y 0.000000 1.718260 0.000000 
#    z 0.000000 0.000000 1.738320 
# 
# From -- ./inp_files/6897.got.cif
#   From: 2010.06.25/outbox.cif.g09.slc.cpg/sg58_4_cif.got.tgz:6897.got - 2010.06.26 21:38:00.
