data_PCOD8237069
_publ_section_title
;
Structure prediction by ZEFSAII (Michael W. Deem and Ramdas Pophale) SiO2 
 PCOD8237069
Probable space group: P N N M
;
_chemical_formula_sum "Si O2"
_cell_formula_units_Z 64
_cell_length_a 28.015267
_cell_length_b 12.424634
_cell_length_c 9.647636
_cell_angle_alpha 90.000000
_cell_angle_beta 90.000000
_cell_angle_gamma 90.000000
_cell_volume 3358.143725
_symmetry_space_group_name_H-M "P N N M"
_symmetry_group_IT_number 58
_symmetry_cell_setting 'orthorhombic'
loop_
_space_group_symop_operation_xyz
x,y,z
-x,-y,z
1/2+x,1/2-y,1/2-z
1/2-x,1/2+y,1/2-z
-x,-y,-z
x,y,-z
1/2-x,1/2+y,1/2+z
1/2+x,1/2-y,1/2+z
loop_
_atom_site_type_symbol
_atom_site_label
_atom_site_fract_x
_atom_site_fract_y
_atom_site_fract_z
Si Si1 0.053854 0.506106 0.340730
Si Si2 0.700929 0.494112 0.340955
Si Si3 0.979846 0.884010 0.661563
Si Si4 0.571483 0.747673 0.158295
Si Si5 0.290891 0.060069 0.662538
Si Si6 0.659043 0.719602 0.659156
Si Si7 0.870888 0.606013 0.158231
Si Si8 0.113203 0.151768 0.158345
O O1 0.056580 0.468525 0.500000
O O2 0.073936 0.625126 0.320308
O O3 0.084088 0.423647 0.251222
O O4 0.000000 0.500000 0.286472
O O5 0.713639 0.466592 0.500000
O O6 0.741922 0.448564 0.244169
O O7 0.695922 0.622039 0.319136
O O8 0.651465 0.437755 0.297771
O O9 0.966647 0.879043 0.500000
O O10 0.932614 0.857950 0.745763
O O11 0.019535 0.795578 0.701650
O O12 0.000000 0.000000 0.703627
O O13 0.611891 0.694354 0.252573
O O14 0.581992 0.714672 0.000000
O O15 0.279266 0.060103 0.500000
O O16 0.315966 0.170816 0.708883
O O17 0.324200 0.959753 0.705812
O O18 0.642808 0.728816 0.500000
O O19 0.861319 0.732460 0.176713
O O20 0.883212 0.575398 0.000000
O O21 0.096586 0.135107 0.000000
#
# Coordination Sequence:
#
# PCOD8237069 Si02
#       8
#     8   8   8   8   8   8   8   8
#     4  10  20  34  53  80 113 148 187 230 278 331
#     4  10  23  40  60  85 113 146 189 236 284 341
#     4  10  21  37  58  85 118 154 194 237 281 335
#     4  10  20  34  55  84 114 148 190 234 282 336
#     4  10  22  39  59  84 112 146 187 234 288 339
#     4  10  21  39  60  84 114 146 187 236 282 336
#     4  10  21  38  57  80 113 148 186 231 281 338
#     4  10  22  39  58  85 118 153 191 233 284 342
#
# _framework density 19.058147000000002
#
# number of rings (size 3 to 8) (size 9 to 14) (size 15 to 20)
#    0.000    2.000    1.250    1.500    1.750    4.500 
#    0.000    0.000    0.000    0.000    0.000    0.000 
#    0.000    0.000    0.000    0.000    0.000    0.000 
#
# Total GULP energy -793903.963591 kJ/mol
# GULP energy per Si atom -12404.749431 kJ/mol
# Density = 1.901477 g / cm^3
# Si number density = 19.058147 Si / 1000 Ang^3
#
#
#
# Elastic Constant Matrix: (Units=GPa)
#
#
# Indices 1 2 3 4 5 6 
#
# 1 119.1030 38.4344 63.9354 0.0000 0.0000 0.0000
# 2 38.4344 95.2188 31.3962 0.0000 0.0000 0.0000
# 3 63.9354 31.3962 68.1922 0.0000 0.0000 0.0000
# 4 0.0000 0.0000 0.0000 21.1243 0.0000 0.0000
# 5 0.0000 0.0000 0.0000 0.0000 42.9245 0.0000
# 6 0.0000 0.0000 0.0000 0.0000 0.0000 27.7165
#
#
#
# Elastic Compliance Matrix: (Units=1/GPa)
#
#
# Indices 1 2 3 4 5 6 
#
# 1 0.017195 -0.001916 -0.015240 0.000000 0.000000 0.000000
# 2 -0.001916 0.012595 -0.004003 0.000000 0.000000 0.000000
# 3 -0.015240 -0.004003 0.030796 0.000000 0.000000 0.000000
# 4 0.000000 0.000000 0.000000 0.047339 0.000000 0.000000
# 5 0.000000 0.000000 0.000000 0.000000 0.023297 0.000000
# 6 0.000000 0.000000 0.000000 0.000000 0.000000 0.036080
#
#
# Mechanical properties :
#
#
# Convention : Reuss Voigt Hill
#
# Bulk Modulus (GPa) = 54.73573 61.11624 57.92598
# Shear Modulus (GPa) = 23.17953 28.26960 25.72457
#
# Velocity S-wave (km/s) = 3.49127 3.85559 3.67794
# Velocity P-wave (km/s) = 6.71079 7.20823 6.96395
#
# Compressibility (1/GPa) = 0.01826960
#
# Stress axis : x y z
#
# Youngs Moduli (GPa) = 58.15608 79.39515 32.47197
#
# Poissons Ratio (x) = 0.15210 0.49486
# Poissons Ratio (y) = 0.11141 0.12998
# Poissons Ratio (z) = 0.88628 0.31780
#
# Static dielectric constant tensor:
#      x y z
#    x 3.318090 0.000000 0.000000 
#    y 0.000000 3.690560 0.000000 
#    z 0.000000 0.000000 3.423010 
# 
# 
# High freq. dielectric constant tensor:
#      x y z
#    x 1.736570 0.000000 0.000000 
#    y 0.000000 1.756340 0.000000 
#    z 0.000000 0.000000 1.735490 
# 
# From -- ./inp_files/10953.got.cif
#   From: 2010.06.25/outbox.cif.g09.slc.cpg/sg58_6_cif.got.tgz:10953.got - 2010.06.26 21:38:00.
