data_PCOD8237510
_publ_section_title
;
Structure prediction by ZEFSAII (Michael W. Deem and Ramdas Pophale) SiO2 
 PCOD8237510
Probable space group: P N N M
;
_chemical_formula_sum "Si O2"
_cell_formula_units_Z 40
_cell_length_a 15.041762
_cell_length_b 14.980564
_cell_length_c 8.882613
_cell_angle_alpha 90.000000
_cell_angle_beta 90.000000
_cell_angle_gamma 90.000000
_cell_volume 2001.555413
_symmetry_space_group_name_H-M "P N N M"
_symmetry_group_IT_number 58
_symmetry_cell_setting 'orthorhombic'
loop_
_space_group_symop_operation_xyz
x,y,z
-x,-y,z
1/2+x,1/2-y,1/2-z
1/2-x,1/2+y,1/2-z
-x,-y,-z
x,y,-z
1/2-x,1/2+y,1/2+z
1/2+x,1/2-y,1/2+z
loop_
_atom_site_type_symbol
_atom_site_label
_atom_site_fract_x
_atom_site_fract_y
_atom_site_fract_z
Si Si1 0.464752 0.267395 0.177435
Si Si2 0.249758 0.020251 0.674461
Si Si3 0.637635 0.333706 0.321748
Si Si4 0.445593 0.085809 0.673603
Si Si5 0.230098 0.818986 0.321711
O O1 0.539315 0.328011 0.254209
O O2 0.480361 0.165155 0.222710
O O3 0.368593 0.298079 0.239476
O O4 0.472192 0.278782 0.000000
O O5 0.221583 0.022427 0.500000
O O6 0.176181 0.071064 0.771504
O O7 0.342266 0.069512 0.701698
O O8 0.257575 0.918104 0.730960
O O9 0.631869 0.329997 0.500000
O O10 0.699374 0.253019 0.257211
O O11 0.466296 0.109087 0.500000
O O12 0.500000 0.000000 0.725202
O O13 0.230707 0.810947 0.500000
#
# Coordination Sequence:
#
# PCOD8237510 Si02
#       5
#     8   8   8   8   8
#     4  11  22  38  60  87 118 157 203 249 297 353
#     4  10  20  37  61  86 114 156 203 244 292 357
#     4  11  22  40  61  86 121 159 198 247 305 357
#     4  10  20  36  60  89 120 155 199 248 303 359
#     4   9  20  39  61  83 118 160 197 240 300 362
#
# _framework density 19.984459000000001
#
# number of rings (size 3 to 8) (size 9 to 14) (size 15 to 20)
#    0.000    1.800    2.000    2.400    0.000    4.400 
#    0.000   10.000    0.000    0.000    0.000    0.000 
#    0.000    0.000    0.000    0.000    0.000    0.000 
#
# Total GULP energy -496164.133761 kJ/mol
# GULP energy per Si atom -12404.103344 kJ/mol
# Density = 1.993897 g / cm^3
# Si number density = 19.984459 Si / 1000 Ang^3
#
#
#
# Elastic Constant Matrix: (Units=GPa)
#
#
# Indices 1 2 3 4 5 6 
#
# 1 65.5634 -10.1916 18.2341 0.0000 0.0000 0.0000
# 2 -10.1916 61.4180 10.5761 0.0000 0.0000 0.0000
# 3 18.2341 10.5761 51.0190 0.0000 0.0000 0.0000
# 4 0.0000 0.0000 0.0000 31.2889 0.0000 0.0000
# 5 0.0000 0.0000 0.0000 0.0000 26.2834 0.0000
# 6 0.0000 0.0000 0.0000 0.0000 0.0000 40.1011
#
#
#
# Elastic Compliance Matrix: (Units=1/GPa)
#
#
# Indices 1 2 3 4 5 6 
#
# 1 0.017937 0.004231 -0.007288 0.000000 0.000000 0.000000
# 2 0.004231 0.017883 -0.005219 0.000000 0.000000 0.000000
# 3 -0.007288 -0.005219 0.023287 0.000000 0.000000 0.000000
# 4 0.000000 0.000000 0.000000 0.031960 0.000000 0.000000
# 5 0.000000 0.000000 0.000000 0.000000 0.038047 0.000000
# 6 0.000000 0.000000 0.000000 0.000000 0.000000 0.024937
#
#
# Mechanical properties :
#
#
# Convention : Reuss Voigt Hill
#
# Bulk Modulus (GPa) = 23.49876 23.91527 23.70701
# Shear Modulus (GPa) = 27.05809 30.16013 28.60911
#
# Velocity S-wave (km/s) = 3.68361 3.88903 3.78771
# Velocity P-wave (km/s) = 5.46589 5.67089 5.56933
#
# Compressibility (1/GPa) = 0.04255544
#
# Stress axis : x y z
#
# Youngs Moduli (GPa) = 55.75070 55.91969 42.94214
#
# Poissons Ratio (x) = -0.23662 0.31295
# Poissons Ratio (y) = -0.23590 0.22413
# Poissons Ratio (z) = 0.40630 0.29186
#
# Static dielectric constant tensor:
#      x y z
#    x 3.797520 0.000000 0.000000 
#    y 0.000000 3.686240 0.000000 
#    z 0.000000 0.000000 3.357900 
# 
# 
# High freq. dielectric constant tensor:
#      x y z
#    x 1.790980 0.000000 0.000000 
#    y 0.000000 1.785800 0.000000 
#    z 0.000000 0.000000 1.754150 
# 
# From -- ./inp_files/3789.got.cif
#   From: 2010.06.25/outbox.cif.g09.slc.cpg/sg58_2_cif.got.tgz:3789.got - 2010.06.26 21:38:00.
