data_PCOD8237024
_publ_section_title
;
Structure prediction by ZEFSAII (Michael W. Deem and Ramdas Pophale) SiO2 
 PCOD8237024
Probable space group: P N N M
;
_chemical_formula_sum "Si O2"
_cell_formula_units_Z 64
_cell_length_a 8.719001
_cell_length_b 29.010642
_cell_length_c 13.182507
_cell_angle_alpha 90.000000
_cell_angle_beta 90.000000
_cell_angle_gamma 90.000000
_cell_volume 3334.433633
_symmetry_space_group_name_H-M "P N N M"
_symmetry_group_IT_number 58
_symmetry_cell_setting 'orthorhombic'
loop_
_space_group_symop_operation_xyz
x,y,z
-x,-y,z
1/2+x,1/2-y,1/2-z
1/2-x,1/2+y,1/2-z
-x,-y,-z
x,y,-z
1/2-x,1/2+y,1/2+z
1/2+x,1/2-y,1/2+z
loop_
_atom_site_type_symbol
_atom_site_label
_atom_site_fract_x
_atom_site_fract_y
_atom_site_fract_z
Si Si1 0.999958 0.356647 0.616725
Si Si2 0.715332 0.685413 0.885447
Si Si3 0.319463 0.003475 0.886946
Si Si4 0.746540 0.287620 0.381469
Si Si5 0.313562 0.082432 0.255391
Si Si6 0.544194 0.355253 0.253897
Si Si7 0.892128 0.595739 0.115308
Si Si8 0.273524 0.409711 0.306420
O O1 0.033935 0.364223 0.500000
O O2 0.919322 0.307277 0.639132
O O3 0.880918 0.395279 0.652945
O O4 0.160058 0.365524 0.674384
O O5 0.761875 0.735266 0.840909
O O6 0.566073 0.665837 0.830236
O O7 0.862341 0.651193 0.881048
O O8 0.660247 0.692911 0.000000
O O9 0.249119 0.952187 0.881386
O O10 0.500000 0.000000 0.872898
O O11 0.257110 0.033357 0.790783
O O12 0.277212 0.022389 0.000000
O O13 0.706176 0.291872 0.500000
O O14 0.616643 0.315298 0.321551
O O15 0.174294 0.113058 0.298703
O O16 0.439176 0.081190 0.345171
O O17 0.443976 0.390390 0.322512
O O18 0.764126 0.573420 0.190264
O O19 0.872584 0.577267 0.000000
#
# Coordination Sequence:
#
# PCOD8237024 Si02
#       8
#     8   8   8   8   8   8   8   8
#     4   9  16  30  50  72 104 141 176 216 264 320
#     4   9  19  37  57  77 104 144 188 227 267 318
#     4  11  20  34  58  83 107 141 182 219 256 323
#     4   9  19  34  53  78 108 141 179 223 272 322
#     4  10  20  34  51  78 106 136 179 222 269 321
#     4  10  22  35  53  79 113 145 173 226 281 320
#     4   9  18  34  55  75 101 137 180 225 268 315
#     4  10  20  34  52  79 108 142 183 217 266 324
#
# _framework density 19.193663999999998
#
# number of rings (size 3 to 8) (size 9 to 14) (size 15 to 20)
#    0.000    2.375    2.500    0.750    0.000    6.500 
#    0.000    1.875    0.000    5.250    0.000    4.375 
#    0.000    0.000    0.000    0.000    0.000    0.000 
#
# Total GULP energy -792947.248201 kJ/mol
# GULP energy per Si atom -12389.800753 kJ/mol
# Density = 1.914998 g / cm^3
# Si number density = 19.193664 Si / 1000 Ang^3
#
#
#
# Elastic Constant Matrix: (Units=GPa)
#
#
# Indices 1 2 3 4 5 6 
#
# 1 78.6109 19.4841 22.1757 0.0000 0.0000 0.0000
# 2 19.4841 73.0214 21.2230 0.0000 0.0000 0.0000
# 3 22.1757 21.2230 88.1913 0.0000 0.0000 0.0000
# 4 0.0000 0.0000 0.0000 21.5460 0.0000 0.0000
# 5 0.0000 0.0000 0.0000 0.0000 19.3347 0.0000
# 6 0.0000 0.0000 0.0000 0.0000 0.0000 27.5427
#
#
#
# Elastic Compliance Matrix: (Units=1/GPa)
#
#
# Indices 1 2 3 4 5 6 
#
# 1 0.014268 -0.002972 -0.002872 0.000000 0.000000 0.000000
# 2 -0.002972 0.015344 -0.002945 0.000000 0.000000 0.000000
# 3 -0.002872 -0.002945 0.012770 0.000000 0.000000 0.000000
# 4 0.000000 0.000000 0.000000 0.046412 0.000000 0.000000
# 5 0.000000 0.000000 0.000000 0.000000 0.051721 0.000000
# 6 0.000000 0.000000 0.000000 0.000000 0.000000 0.036307
#
#
# Mechanical properties :
#
#
# Convention : Reuss Voigt Hill
#
# Bulk Modulus (GPa) = 40.31909 40.62102 40.47006
# Shear Modulus (GPa) = 24.67088 25.48075 25.07581
#
# Velocity S-wave (km/s) = 3.58909 3.64752 3.61842
# Velocity P-wave (km/s) = 6.18284 6.24091 6.21194
#
# Compressibility (1/GPa) = 0.02480215
#
# Stress axis : x y z
#
# Youngs Moduli (GPa) = 70.08771 65.17362 78.30879
#
# Poissons Ratio (x) = 0.19371 0.22493
# Poissons Ratio (y) = 0.20832 0.23062
# Poissons Ratio (z) = 0.20132 0.19194
#
# Static dielectric constant tensor:
#      x y z
#    x 3.428720 0.000000 0.000000 
#    y 0.000000 3.703070 0.000000 
#    z 0.000000 0.000000 3.485070 
# 
# 
# High freq. dielectric constant tensor:
#      x y z
#    x 1.727520 0.000000 0.000000 
#    y 0.000000 1.741730 0.000000 
#    z 0.000000 0.000000 1.740040 
# 
# From -- ./inp_files/20425.got.cif
#   From: 2010.06.25/outbox.cif.g09.slc.cpg/sg58_11_cif.got.tgz:20425.got - 2010.06.26 21:38:00.
