data_PCOD8237548
_publ_section_title
;
Structure prediction by ZEFSAII (Michael W. Deem and Ramdas Pophale) SiO2 
 PCOD8237548
Probable space group: P N N M
;
_chemical_formula_sum "Si O2"
_cell_formula_units_Z 56
_cell_length_a 13.237894
_cell_length_b 14.816325
_cell_length_c 14.175969
_cell_angle_alpha 90.000000
_cell_angle_beta 90.000000
_cell_angle_gamma 90.000000
_cell_volume 2780.431179
_symmetry_space_group_name_H-M "P N N M"
_symmetry_group_IT_number 58
_symmetry_cell_setting 'orthorhombic'
loop_
_space_group_symop_operation_xyz
x,y,z
-x,-y,z
1/2+x,1/2-y,1/2-z
1/2-x,1/2+y,1/2-z
-x,-y,-z
x,y,-z
1/2-x,1/2+y,1/2+z
1/2+x,1/2-y,1/2+z
loop_
_atom_site_type_symbol
_atom_site_label
_atom_site_fract_x
_atom_site_fract_y
_atom_site_fract_z
Si Si1 0.269286 0.001377 0.806599
Si Si2 0.438318 0.921164 0.289879
Si Si3 0.440392 0.716995 0.893068
Si Si4 0.982111 0.244034 0.111520
Si Si5 0.064004 0.088044 0.771717
Si Si6 0.052987 0.610066 0.393265
Si Si7 0.237039 0.812988 0.109783
O O1 0.321746 0.952846 0.714963
O O2 0.229722 0.920111 0.871968
O O3 0.180426 0.062224 0.767158
O O4 0.337835 0.074715 0.861835
O O5 0.461233 0.826707 0.337903
O O6 0.466856 0.925400 0.177867
O O7 0.500000 0.000000 0.344411
O O8 0.465935 0.631987 0.828164
O O9 0.539785 0.781102 0.889186
O O10 0.340044 0.767859 0.849706
O O11 0.420698 0.684158 0.000000
O O12 0.042805 0.155100 0.141319
O O13 0.865386 0.236509 0.146962
O O14 0.990127 0.256609 0.000000
O O15 0.000000 0.000000 0.789702
O O16 0.028132 0.577661 0.500000
O O17 0.241170 0.798568 0.000000
#
# Coordination Sequence:
#
# PCOD8237548 Si02
#       7
#     8   8   8   8   8   8   8
#     4  11  22  37  62  95 126 159 211 264 319 376
#     4  10  22  40  63  95 124 163 211 262 314 370
#     4  10  22  40  63  93 124 164 213 260 320 380
#     4  11  24  43  63  90 131 172 212 255 311 380
#     4  12  25  42  64  88 126 173 209 263 321 383
#     4  10  20  36  64  94 125 156 200 264 317 366
#     4  10  20  36  63  91 123 165 207 255 311 377
#
# _framework density 20.14076
#
# number of rings (size 3 to 8) (size 9 to 14) (size 15 to 20)
#    0.000    1.429    4.286    0.429    4.000    4.571 
#    2.571    0.714    0.000    0.000    0.000    0.000 
#    0.000    0.000    0.000    0.000    0.000    0.000 
#
# Total GULP energy -693925.711706 kJ/mol
# GULP energy per Si atom -12391.530566 kJ/mol
# Density = 2.009492 g / cm^3
# Si number density = 20.140760 Si / 1000 Ang^3
#
#
#
# Elastic Constant Matrix: (Units=GPa)
#
#
# Indices 1 2 3 4 5 6 
#
# 1 110.4983 58.8386 36.8440 0.0000 0.0000 0.0000
# 2 58.8386 134.4489 45.7299 0.0000 0.0000 0.0000
# 3 36.8440 45.7299 85.0942 0.0000 0.0000 0.0000
# 4 0.0000 0.0000 0.0000 -10.4638 0.0000 0.0000
# 5 0.0000 0.0000 0.0000 0.0000 18.9017 0.0000
# 6 0.0000 0.0000 0.0000 0.0000 0.0000 30.6252
#
#
#
# Elastic Compliance Matrix: (Units=1/GPa)
#
#
# Indices 1 2 3 4 5 6 
#
# 1 0.012395 -0.004404 -0.003000 0.000000 0.000000 0.000000
# 2 -0.004404 0.010666 -0.003825 0.000000 0.000000 0.000000
# 3 -0.003000 -0.003825 0.015106 0.000000 0.000000 0.000000
# 4 0.000000 0.000000 0.000000 -0.095568 0.000000 0.000000
# 5 0.000000 0.000000 0.000000 0.000000 0.052905 0.000000
# 6 0.000000 0.000000 0.000000 0.000000 0.000000 0.032653
#
#
# Mechanical properties :
#
#
# Convention : Reuss Voigt Hill
#
# Bulk Modulus (GPa) = 63.65755 68.09626 65.87690
# Shear Modulus (GPa) = 89.51967 20.38789 54.95378
#
# Velocity S-wave (km/s) = 6.67409 3.18507 5.22916
# Velocity P-wave (km/s) = 9.54287 6.88548 8.32094
#
# Compressibility (1/GPa) = 0.01570906
#
# Stress axis : x y z
#
# Youngs Moduli (GPa) = 80.67508 93.75425 66.19742
#
# Poissons Ratio (x) = 0.41291 0.19860
# Poissons Ratio (y) = 0.35530 0.25321
# Poissons Ratio (z) = 0.24204 0.35862
#
# Static dielectric constant tensor:
#      x y z
#    x 3.999610 0.000000 0.000000 
#    y 0.000000 3.748190 0.000000 
#    z 0.000000 0.000000 3.444250 
# 
# 
# High freq. dielectric constant tensor:
#      x y z
#    x 1.781530 0.000000 0.000000 
#    y 0.000000 1.795740 0.000000 
#    z 0.000000 0.000000 1.763560 
# 
# From -- ./inp_files/21277.got.cif
#   From: 2010.06.25/outbox.cif.g09.slc.cpg/sg58_11_cif.got.tgz:21277.got - 2010.06.26 21:38:00.
