data_PCOD8237030
_publ_section_title
;
Structure prediction by ZEFSAII (Michael W. Deem and Ramdas Pophale) SiO2 
 PCOD8237030
Probable space group: P N N M
;
_chemical_formula_sum "Si O2"
_cell_formula_units_Z 64
_cell_length_a 28.260036
_cell_length_b 14.121967
_cell_length_c 8.946743
_cell_angle_alpha 90.000000
_cell_angle_beta 90.000000
_cell_angle_gamma 90.000000
_cell_volume 3570.531470
_symmetry_space_group_name_H-M "P N N M"
_symmetry_group_IT_number 58
_symmetry_cell_setting 'orthorhombic'
loop_
_space_group_symop_operation_xyz
x,y,z
-x,-y,z
1/2+x,1/2-y,1/2-z
1/2-x,1/2+y,1/2-z
-x,-y,-z
x,y,-z
1/2-x,1/2+y,1/2+z
1/2+x,1/2-y,1/2+z
loop_
_atom_site_type_symbol
_atom_site_label
_atom_site_fract_x
_atom_site_fract_y
_atom_site_fract_z
Si Si1 0.448087 0.493820 0.674657
Si Si2 0.803929 0.494462 0.173422
Si Si3 0.373199 0.343932 0.322109
Si Si4 0.195160 0.984742 0.675835
Si Si5 0.128430 0.642655 0.674939
Si Si6 0.868294 0.863955 0.175338
Si Si7 0.621128 0.151197 0.325773
Si Si8 0.052803 0.484961 0.325039
O O1 0.500000 0.500000 0.751764
O O2 0.454923 0.478969 0.500000
O O3 0.418623 0.403794 0.735451
O O4 0.419346 0.589686 0.709284
O O5 0.750166 0.513091 0.217674
O O6 0.823429 0.407406 0.271006
O O7 0.832733 0.589518 0.212672
O O8 0.809690 0.467387 0.000000
O O9 0.368920 0.345021 0.500000
O O10 0.326281 0.392435 0.255642
O O11 0.379122 0.238707 0.263778
O O12 0.186745 0.975959 0.500000
O O13 0.172294 0.081576 0.734957
O O14 0.132264 0.663881 0.500000
O O15 0.083816 0.576795 0.715419
O O16 0.869604 0.756735 0.234614
O O17 0.856073 0.870681 0.000000
O O18 0.610236 0.154387 0.500000
O O19 0.574670 0.108450 0.248937
O O20 0.051855 0.466175 0.500000
O O21 0.000000 0.500000 0.261796
#
# Coordination Sequence:
#
# PCOD8237030 Si02
#       8
#     8   8   8   8   8   8   8   8
#     4   8  15  29  48  70  97 129 165 204 246 294
#     4   9  19  35  52  73 101 131 166 210 254 295
#     4  10  20  34  53  76 104 135 167 210 257 300
#     4  10  20  34  52  74 101 133 169 208 251 303
#     4  10  20  34  53  75 101 135 172 209 250 300
#     4   9  18  32  50  73 100 131 167 208 254 299
#     4   9  18  33  52  73  98 128 167 211 249 293
#     4   9  19  35  52  73 104 137 167 203 249 299
#
# _framework density 17.924502
#
# number of rings (size 3 to 8) (size 9 to 14) (size 15 to 20)
#    0.000    2.750    0.000    1.875    0.000    4.250 
#    0.000    2.500    0.000    9.375    0.000    0.000 
#    0.000    0.000    0.000    0.000    0.000    0.000 
#
# Total GULP energy -793640.562840 kJ/mol
# GULP energy per Si atom -12400.633794 kJ/mol
# Density = 1.788371 g / cm^3
# Si number density = 17.924502 Si / 1000 Ang^3
#
#
#
# Elastic Constant Matrix: (Units=GPa)
#
#
# Indices 1 2 3 4 5 6 
#
# 1 137.5266 50.3949 39.3842 0.0000 0.0000 0.0000
# 2 50.3949 131.3429 39.3043 0.0000 0.0000 0.0000
# 3 39.3842 39.3043 54.0778 0.0000 0.0000 0.0000
# 4 0.0000 0.0000 0.0000 28.4119 0.0000 0.0000
# 5 0.0000 0.0000 0.0000 0.0000 25.1464 0.0000
# 6 0.0000 0.0000 0.0000 0.0000 0.0000 13.8532
#
#
#
# Elastic Compliance Matrix: (Units=1/GPa)
#
#
# Indices 1 2 3 4 5 6 
#
# 1 0.009594 -0.002032 -0.005510 0.000000 0.000000 0.000000
# 2 -0.002032 0.010160 -0.005905 0.000000 0.000000 0.000000
# 3 -0.005510 -0.005905 0.026796 0.000000 0.000000 0.000000
# 4 0.000000 0.000000 0.000000 0.035197 0.000000 0.000000
# 5 0.000000 0.000000 0.000000 0.000000 0.039767 0.000000
# 6 0.000000 0.000000 0.000000 0.000000 0.000000 0.072186
#
#
# Mechanical properties :
#
#
# Convention : Reuss Voigt Hill
#
# Bulk Modulus (GPa) = 50.87304 64.56821 57.72063
# Shear Modulus (GPa) = 22.01226 26.40655 24.20941
#
# Velocity S-wave (km/s) = 3.50816 3.84241 3.67908
# Velocity P-wave (km/s) = 6.69724 7.46900 7.09362
#
# Compressibility (1/GPa) = 0.01965678
#
# Stress axis : x y z
#
# Youngs Moduli (GPa) = 104.23222 98.42190 37.31850
#
# Poissons Ratio (x) = 0.20001 0.20563
# Poissons Ratio (y) = 0.21182 0.22035
# Poissons Ratio (z) = 0.57433 0.58114
#
# Static dielectric constant tensor:
#      x y z
#    x 3.493710 0.000000 0.000000 
#    y 0.000000 3.375540 0.000000 
#    z 0.000000 0.000000 3.190330 
# 
# 
# High freq. dielectric constant tensor:
#      x y z
#    x 1.696450 0.000000 0.000000 
#    y 0.000000 1.697110 0.000000 
#    z 0.000000 0.000000 1.683120 
# 
# From -- ./inp_files/11135.got.cif
#   From: 2010.06.25/outbox.cif.g09.slc.cpg/sg58_6_cif.got.tgz:11135.got - 2010.06.26 21:38:00.
