data_PCOD8237315
_publ_section_title
;
Structure prediction by ZEFSAII (Michael W. Deem and Ramdas Pophale) SiO2 
 PCOD8237315
Probable space group: P N N M
;
_chemical_formula_sum "Si O2"
_cell_formula_units_Z 40
_cell_length_a 22.248317
_cell_length_b 8.884466
_cell_length_c 10.303860
_cell_angle_alpha 90.000000
_cell_angle_beta 90.000000
_cell_angle_gamma 90.000000
_cell_volume 2036.706469
_symmetry_space_group_name_H-M "P N N M"
_symmetry_group_IT_number 58
_symmetry_cell_setting 'orthorhombic'
loop_
_space_group_symop_operation_xyz
x,y,z
-x,-y,z
1/2+x,1/2-y,1/2-z
1/2-x,1/2+y,1/2-z
-x,-y,-z
x,y,-z
1/2-x,1/2+y,1/2+z
1/2+x,1/2-y,1/2+z
loop_
_atom_site_type_symbol
_atom_site_label
_atom_site_fract_x
_atom_site_fract_y
_atom_site_fract_z
Si Si1 0.632101 0.673243 0.763241
Si Si2 0.836674 0.789783 0.000000
Si Si3 0.483615 0.172101 0.848600
Si Si4 0.214027 0.871835 0.500000
Si Si5 0.818275 0.785034 0.500000
Si Si6 0.305190 0.367162 0.500000
Si Si7 0.600237 0.328836 0.237056
O O1 0.580567 0.796849 0.783098
O O2 0.682609 0.695809 0.872629
O O3 0.662640 0.703581 0.625081
O O4 0.602611 0.508719 0.771716
O O5 0.877806 0.765993 0.125489
O O6 0.783879 0.668262 0.000000
O O7 0.807712 0.953899 0.000000
O O8 0.531809 0.280241 0.781259
O O9 0.500000 0.000000 0.823412
O O10 0.480206 0.211796 0.000000
O O11 0.210765 0.050963 0.500000
O O12 0.765246 0.665184 0.500000
O O13 0.858792 0.754972 0.374131
#
# Coordination Sequence:
#
# PCOD8237315 Si02
#       7
#     8   4   8   4   4   4   8
#     4  10  21  38  59  83 113 150 187 225 275 333
#     4  10  22  37  56  85 117 148 184 228 277 326
#     4  11  23  38  59  86 110 140 187 238 282 325
#     4  10  20  35  58  83 111 152 192 224 269 328
#     4  10  20  35  58  83 111 152 192 224 269 328
#     4  10  22  37  56  85 117 148 184 228 277 326
#     4  10  21  38  59  83 113 150 187 225 275 333
#
# _framework density 19.639551999999998
#
# number of rings (size 3 to 8) (size 9 to 14) (size 15 to 20)
#    0.000    1.800    2.000    1.800    0.000    4.800 
#    0.000    4.000    0.000    0.000    0.000    0.000 
#    0.000    0.000    0.000    0.000    0.000    0.000 
#
# Total GULP energy -496272.210827 kJ/mol
# GULP energy per Si atom -12406.805271 kJ/mol
# Density = 1.959485 g / cm^3
# Si number density = 19.639552 Si / 1000 Ang^3
#
#
#
# Elastic Constant Matrix: (Units=GPa)
#
#
# Indices 1 2 3 4 5 6 
#
# 1 55.4604 4.9523 22.6619 0.0000 0.0000 0.0000
# 2 4.9523 18.8268 11.9299 0.0000 0.0000 0.0000
# 3 22.6619 11.9299 146.4771 0.0000 0.0000 0.0000
# 4 0.0000 0.0000 0.0000 11.8837 0.0000 0.0000
# 5 0.0000 0.0000 0.0000 0.0000 17.4767 0.0000
# 6 0.0000 0.0000 0.0000 0.0000 0.0000 40.2057
#
#
#
# Elastic Compliance Matrix: (Units=1/GPa)
#
#
# Indices 1 2 3 4 5 6 
#
# 1 0.019450 -0.003384 -0.002734 0.000000 0.000000 0.000000
# 2 -0.003384 0.056595 -0.004086 0.000000 0.000000 0.000000
# 3 -0.002734 -0.004086 0.007583 0.000000 0.000000 0.000000
# 4 0.000000 0.000000 0.000000 0.084149 0.000000 0.000000
# 5 0.000000 0.000000 0.000000 0.000000 0.057219 0.000000
# 6 0.000000 0.000000 0.000000 0.000000 0.000000 0.024872
#
#
# Mechanical properties :
#
#
# Convention : Reuss Voigt Hill
#
# Bulk Modulus (GPa) = 15.81755 33.31693 24.56724
# Shear Modulus (GPa) = 17.16157 25.99454 21.57806
#
# Velocity S-wave (km/s) = 2.95926 3.64205 3.31827
# Velocity P-wave (km/s) = 4.44384 5.88957 5.21703
#
# Compressibility (1/GPa) = 0.06322091
#
# Stress axis : x y z
#
# Youngs Moduli (GPa) = 51.41376 17.66936 131.87915
#
# Poissons Ratio (x) = 0.05979 0.36050
# Poissons Ratio (y) = 0.17399 0.53884
# Poissons Ratio (z) = 0.14054 0.07219
#
# Static dielectric constant tensor:
#      x y z
#    x 3.473210 0.000000 0.000000 
#    y 0.000000 3.395320 0.000000 
#    z 0.000000 0.000000 3.793510 
# 
# 
# High freq. dielectric constant tensor:
#      x y z
#    x 1.771780 0.000000 0.000000 
#    y 0.000000 1.752460 0.000000 
#    z 0.000000 0.000000 1.776470 
# 
# From -- ./inp_files/9644.got.cif
#   From: 2010.06.25/outbox.cif.g09.slc.cpg/sg58_5_cif.got.tgz:9644.got - 2010.06.26 21:38:00.
