data_PCOD8237050
_publ_section_title
;
Structure prediction by ZEFSAII (Michael W. Deem and Ramdas Pophale) SiO2 
 PCOD8237050
Probable space group: P N N M
;
_chemical_formula_sum "Si O2"
_cell_formula_units_Z 48
_cell_length_a 27.307477
_cell_length_b 10.292413
_cell_length_c 9.667767
_cell_angle_alpha 90.000000
_cell_angle_beta 90.000000
_cell_angle_gamma 90.000000
_cell_volume 2717.220962
_symmetry_space_group_name_H-M "P N N M"
_symmetry_group_IT_number 58
_symmetry_cell_setting 'orthorhombic'
loop_
_space_group_symop_operation_xyz
x,y,z
-x,-y,z
1/2+x,1/2-y,1/2-z
1/2-x,1/2+y,1/2-z
-x,-y,-z
x,y,-z
1/2-x,1/2+y,1/2+z
1/2+x,1/2-y,1/2+z
loop_
_atom_site_type_symbol
_atom_site_label
_atom_site_fract_x
_atom_site_fract_y
_atom_site_fract_z
Si Si1 0.639653 0.239105 0.660143
Si Si2 0.556194 0.851234 0.840618
Si Si3 0.859811 0.250989 0.159589
Si Si4 0.301292 0.507615 0.659987
Si Si5 0.294427 0.008057 0.660396
Si Si6 0.444698 0.849186 0.159349
O O1 0.625229 0.249702 0.500000
O O2 0.672379 0.360505 0.706738
O O3 0.668921 0.108610 0.693540
O O4 0.589702 0.240889 0.747206
O O5 0.590889 0.762394 0.747689
O O6 0.500544 0.805573 0.815643
O O7 0.562048 0.001080 0.797129
O O8 0.570869 0.832558 0.000000
O O9 0.838211 0.109756 0.188116
O O10 0.820108 0.358148 0.205814
O O11 0.873787 0.272232 0.000000
O O12 0.285371 0.513226 0.500000
O O13 0.253508 0.486489 0.750192
O O14 0.279214 0.010089 0.500000
O O15 0.430083 0.829972 0.000000
#
# Coordination Sequence:
#
# PCOD8237050 Si02
#       6
#     8   8   8   8   8   8
#     4  10  20  35  53  77 106 135 171 212 253 301
#     4   9  18  33  54  80 105 130 167 213 257 303
#     4  10  20  35  53  77 106 135 171 212 253 301
#     4  10  22  36  51  74 107 141 170 207 257 306
#     4  10  20  34  53  76 101 133 178 219 247 294
#     4   9  18  33  54  80 105 130 167 213 257 303
#
# _framework density 17.665109000000001
#
# number of rings (size 3 to 8) (size 9 to 14) (size 15 to 20)
#    0.000    2.333    1.667    2.000    0.000    3.333 
#    0.000    2.500    0.000    5.000    0.000    0.000 
#    0.000    0.000    0.000    0.000    0.000    0.000 
#
# Total GULP energy -595378.322006 kJ/mol
# GULP energy per Si atom -12403.715042 kJ/mol
# Density = 1.762490 g / cm^3
# Si number density = 17.665109 Si / 1000 Ang^3
#
#
#
# Elastic Constant Matrix: (Units=GPa)
#
#
# Indices 1 2 3 4 5 6 
#
# 1 89.5374 7.4808 57.4654 0.0000 0.0000 0.0000
# 2 7.4808 51.8276 18.2450 0.0000 0.0000 0.0000
# 3 57.4654 18.2450 65.5226 0.0000 0.0000 0.0000
# 4 0.0000 0.0000 0.0000 18.7077 0.0000 0.0000
# 5 0.0000 0.0000 0.0000 0.0000 43.4734 0.0000
# 6 0.0000 0.0000 0.0000 0.0000 0.0000 10.1967
#
#
#
# Elastic Compliance Matrix: (Units=1/GPa)
#
#
# Indices 1 2 3 4 5 6 
#
# 1 0.026606 0.004850 -0.024685 0.000000 0.000000 0.000000
# 2 0.004850 0.022276 -0.010456 0.000000 0.000000 0.000000
# 3 -0.024685 -0.010456 0.039823 0.000000 0.000000 0.000000
# 4 0.000000 0.000000 0.000000 0.053454 0.000000 0.000000
# 5 0.000000 0.000000 0.000000 0.000000 0.023003 0.000000
# 6 0.000000 0.000000 0.000000 0.000000 0.000000 0.098071
#
#
# Mechanical properties :
#
#
# Convention : Reuss Voigt Hill
#
# Bulk Modulus (GPa) = 35.55921 41.47444 38.51683
# Shear Modulus (GPa) = 15.00652 22.72199 18.86426
#
# Velocity S-wave (km/s) = 2.91778 3.59034 3.27139
# Velocity P-wave (km/s) = 5.61468 6.38095 6.01004
#
# Compressibility (1/GPa) = 0.02812211
#
# Stress axis : x y z
#
# Youngs Moduli (GPa) = 37.58530 44.89220 25.11125
#
# Poissons Ratio (x) = -0.21771 0.61987
# Poissons Ratio (y) = -0.18227 0.26256
# Poissons Ratio (z) = 0.92779 0.46939
#
# Static dielectric constant tensor:
#      x y z
#    x 3.164990 0.000000 0.000000 
#    y 0.000000 3.256020 0.000000 
#    z 0.000000 0.000000 3.225470 
# 
# 
# High freq. dielectric constant tensor:
#      x y z
#    x 1.685000 0.000000 0.000000 
#    y 0.000000 1.675590 0.000000 
#    z 0.000000 0.000000 1.681770 
# 
# From -- ./inp_files/2988.got.cif
#   From: 2010.06.25/outbox.cif.g09.slc.cpg/sg58_2_cif.got.tgz:2988.got - 2010.06.26 21:38:00.
