data_PCOD8237103
_publ_section_title
;
Structure prediction by ZEFSAII (Michael W. Deem and Ramdas Pophale) SiO2 
 PCOD8237103
Probable space group: P N N M
;
_chemical_formula_sum "Si O2"
_cell_formula_units_Z 48
_cell_length_a 29.893628
_cell_length_b 9.979339
_cell_length_c 8.803220
_cell_angle_alpha 90.000000
_cell_angle_beta 90.000000
_cell_angle_gamma 90.000000
_cell_volume 2626.164686
_symmetry_space_group_name_H-M "P N N M"
_symmetry_group_IT_number 58
_symmetry_cell_setting 'orthorhombic'
loop_
_space_group_symop_operation_xyz
x,y,z
-x,-y,z
1/2+x,1/2-y,1/2-z
1/2-x,1/2+y,1/2-z
-x,-y,-z
x,y,-z
1/2-x,1/2+y,1/2+z
1/2+x,1/2-y,1/2+z
loop_
_atom_site_type_symbol
_atom_site_label
_atom_site_fract_x
_atom_site_fract_y
_atom_site_fract_z
Si Si1 0.712696 0.636150 0.320931
Si Si2 0.782642 0.854519 0.676916
Si Si3 0.950841 0.634034 0.821080
Si Si4 0.380799 0.359353 0.176638
Si Si5 0.884766 0.834657 0.674444
Si Si6 0.954932 0.352996 0.680203
O O1 0.712837 0.632107 0.500000
O O2 0.748643 0.743496 0.260177
O O3 0.727628 0.492041 0.261727
O O4 0.663842 0.680248 0.265592
O O5 0.775902 0.883228 0.500000
O O6 0.832933 0.804395 0.708527
O O7 0.913461 0.743677 0.786279
O O8 0.937067 0.494575 0.742239
O O9 0.997981 0.685223 0.755630
O O10 0.954951 0.611736 0.000000
O O11 0.395766 0.510876 0.212669
O O12 0.420167 0.261256 0.228976
O O13 0.369570 0.343786 0.000000
O O14 0.896925 0.801568 0.500000
O O15 0.960978 0.361318 0.500000
#
# Coordination Sequence:
#
# PCOD8237103 Si02
#       6
#     8   8   8   8   8   8
#     4  10  20  34  55  81 107 137 174 217 263 307
#     4   9  20  37  54  76 107 141 177 215 256 309
#     4  11  22  35  52  79 110 136 169 217 265 304
#     4   9  20  37  57  79 104 136 175 217 259 309
#     4   9  18  36  56  74 102 139 177 213 253 310
#     4  10  20  37  58  77 101 139 179 211 254 313
#
# _framework density 18.277604
#
# number of rings (size 3 to 8) (size 9 to 14) (size 15 to 20)
#    0.000    2.333    0.000    4.500    0.000    7.333 
#    0.000    8.333    0.000    0.000    0.000    0.000 
#    0.000    0.000    0.000    0.000    0.000    0.000 
#
# Total GULP energy -595329.788939 kJ/mol
# GULP energy per Si atom -12402.703936 kJ/mol
# Density = 1.823600 g / cm^3
# Si number density = 18.277604 Si / 1000 Ang^3
#
#
#
# Elastic Constant Matrix: (Units=GPa)
#
#
# Indices 1 2 3 4 5 6 
#
# 1 97.6598 72.7564 40.4620 0.0000 0.0000 0.0000
# 2 72.7564 92.9366 35.9438 0.0000 0.0000 0.0000
# 3 40.4620 35.9438 66.1972 0.0000 0.0000 0.0000
# 4 0.0000 0.0000 0.0000 24.4573 0.0000 0.0000
# 5 0.0000 0.0000 0.0000 0.0000 27.1055 0.0000
# 6 0.0000 0.0000 0.0000 0.0000 0.0000 43.4124
#
#
#
# Elastic Compliance Matrix: (Units=1/GPa)
#
#
# Indices 1 2 3 4 5 6 
#
# 1 0.026457 -0.018301 -0.006234 0.000000 0.000000 0.000000
# 2 -0.018301 0.026279 -0.003083 0.000000 0.000000 0.000000
# 3 -0.006234 -0.003083 0.020591 0.000000 0.000000 0.000000
# 4 0.000000 0.000000 0.000000 0.040888 0.000000 0.000000
# 5 0.000000 0.000000 0.000000 0.000000 0.036893 0.000000
# 6 0.000000 0.000000 0.000000 0.000000 0.000000 0.023035
#
#
# Mechanical properties :
#
#
# Convention : Reuss Voigt Hill
#
# Bulk Modulus (GPa) = 55.27679 61.67980 58.47829
# Shear Modulus (GPa) = 21.23967 26.17048 23.70507
#
# Velocity S-wave (km/s) = 3.41260 3.78806 3.60522
# Velocity P-wave (km/s) = 6.77025 7.27681 7.02810
#
# Compressibility (1/GPa) = 0.01809078
#
# Stress axis : x y z
#
# Youngs Moduli (GPa) = 37.79783 38.05277 48.56478
#
# Poissons Ratio (x) = 0.69639 0.30277
# Poissons Ratio (y) = 0.69172 0.14973
# Poissons Ratio (z) = 0.23564 0.11732
#
# Static dielectric constant tensor:
#      x y z
#    x 3.438470 0.000000 0.000000 
#    y 0.000000 3.463460 0.000000 
#    z 0.000000 0.000000 3.318910 
# 
# 
# High freq. dielectric constant tensor:
#      x y z
#    x 1.711010 0.000000 0.000000 
#    y 0.000000 1.711550 0.000000 
#    z 0.000000 0.000000 1.710360 
# 
# From -- ./inp_files/10826.got.cif
#   From: 2010.06.25/outbox.cif.g09.slc.cpg/sg58_6_cif.got.tgz:10826.got - 2010.06.26 21:38:00.
