data_PCOD8237809
_publ_section_title
;
Structure prediction by ZEFSAII (Michael W. Deem and Ramdas Pophale) SiO2 
 PCOD8237809
Probable space group: P N N M
;
_chemical_formula_sum "Si O2"
_cell_formula_units_Z 40
_cell_length_a 7.965414
_cell_length_b 12.045420
_cell_length_c 18.392891
_cell_angle_alpha 90.000000
_cell_angle_beta 90.000000
_cell_angle_gamma 90.000000
_cell_volume 1764.738245
_symmetry_space_group_name_H-M "P N N M"
_symmetry_group_IT_number 58
_symmetry_cell_setting 'orthorhombic'
loop_
_space_group_symop_operation_xyz
x,y,z
-x,-y,z
1/2+x,1/2-y,1/2-z
1/2-x,1/2+y,1/2-z
-x,-y,-z
x,y,-z
1/2-x,1/2+y,1/2+z
1/2+x,1/2-y,1/2+z
loop_
_atom_site_type_symbol
_atom_site_label
_atom_site_fract_x
_atom_site_fract_y
_atom_site_fract_z
Si Si1 0.329183 0.133202 0.290594
Si Si2 0.378804 0.837115 0.814744
Si Si3 0.343632 0.244818 0.917525
Si Si4 0.681079 0.457003 0.652478
Si Si5 0.196888 0.990538 0.583242
O O1 0.517818 0.125675 0.257707
O O2 0.284392 0.263997 0.295916
O O3 0.191430 0.080634 0.236230
O O4 0.313727 0.069078 0.366997
O O5 0.494662 0.763153 0.866433
O O6 0.319224 0.946284 0.858016
O O7 0.216542 0.144876 0.901347
O O8 0.250673 0.362106 0.903438
O O9 0.407520 0.238878 0.000000
O O10 0.500000 0.500000 0.631790
O O11 0.230802 0.026631 0.500000
O O12 0.000000 0.000000 0.601926
#
# Coordination Sequence:
#
# PCOD8237809 Si02
#       5
#     8   8   8   8   8
#     4  11  22  39  65  95 136 165 224 271 322 399
#     4  11  24  41  65  98 127 178 213 269 335 386
#     4  10  22  42  67  98 133 173 219 265 329 402
#     4  11  25  42  64  98 129 176 221 271 334 384
#     4  10  20  38  68  99 131 174 218 269 331 392
#
# _framework density 22.666250000000002
#
# number of rings (size 3 to 8) (size 9 to 14) (size 15 to 20)
#    0.000    1.400    2.000    4.200    5.600    2.000 
#    3.600    0.000    0.000   12.000    0.000    0.000 
#    0.000    0.000    0.000    0.000    0.000    0.000 
#
# Total GULP energy -496076.468484 kJ/mol
# GULP energy per Si atom -12401.911712 kJ/mol
# Density = 2.261466 g / cm^3
# Si number density = 22.666250 Si / 1000 Ang^3
#
#
#
# Elastic Constant Matrix: (Units=GPa)
#
#
# Indices 1 2 3 4 5 6 
#
# 1 82.9839 41.9035 16.3098 0.0000 0.0000 0.0000
# 2 41.9035 145.4922 45.4599 0.0000 0.0000 0.0000
# 3 16.3098 45.4599 111.9477 0.0000 0.0000 0.0000
# 4 0.0000 0.0000 0.0000 40.5934 0.0000 0.0000
# 5 0.0000 0.0000 0.0000 0.0000 14.5388 0.0000
# 6 0.0000 0.0000 0.0000 0.0000 0.0000 24.0941
#
#
#
# Elastic Compliance Matrix: (Units=1/GPa)
#
#
# Indices 1 2 3 4 5 6 
#
# 1 0.014122 -0.003922 -0.000465 0.000000 0.000000 0.000000
# 2 -0.003922 0.008961 -0.003068 0.000000 0.000000 0.000000
# 3 -0.000465 -0.003068 0.010246 0.000000 0.000000 0.000000
# 4 0.000000 0.000000 0.000000 0.024635 0.000000 0.000000
# 5 0.000000 0.000000 0.000000 0.000000 0.068782 0.000000
# 6 0.000000 0.000000 0.000000 0.000000 0.000000 0.041504
#
#
# Mechanical properties :
#
#
# Convention : Reuss Voigt Hill
#
# Bulk Modulus (GPa) = 54.28659 60.86335 57.57497
# Shear Modulus (GPa) = 26.41319 31.62863 29.02091
#
# Velocity S-wave (km/s) = 3.41737 3.73957 3.58209
# Velocity P-wave (km/s) = 6.29075 6.74952 6.52417
#
# Compressibility (1/GPa) = 0.01842076
#
# Stress axis : x y z
#
# Youngs Moduli (GPa) = 70.80936 111.59025 97.59755
#
# Poissons Ratio (x) = 0.43768 0.04536
# Poissons Ratio (y) = 0.27773 0.29939
# Poissons Ratio (z) = 0.03291 0.34232
#
# Static dielectric constant tensor:
#      x y z
#    x 3.694830 0.000000 0.000000 
#    y 0.000000 4.428760 0.000000 
#    z 0.000000 0.000000 3.925360 
# 
# 
# High freq. dielectric constant tensor:
#      x y z
#    x 1.872600 0.000000 0.000000 
#    y 0.000000 1.920060 0.000000 
#    z 0.000000 0.000000 1.880930 
# 
# From -- ./inp_files/24969.got.cif
#   From: 2010.06.25/outbox.cif.g09.slc.cpg/sg58_13_cif.got.tgz:24969.got - 2010.06.26 21:38:00.
