data_PCOD8237194
_publ_section_title
;
Structure prediction by ZEFSAII (Michael W. Deem and Ramdas Pophale) SiO2 
 PCOD8237194
Probable space group: P N N M
;
_chemical_formula_sum "Si O2"
_cell_formula_units_Z 56
_cell_length_a 16.530544
_cell_length_b 20.139242
_cell_length_c 8.777085
_cell_angle_alpha 90.000000
_cell_angle_beta 90.000000
_cell_angle_gamma 90.000000
_cell_volume 2922.002416
_symmetry_space_group_name_H-M "P N N M"
_symmetry_group_IT_number 58
_symmetry_cell_setting 'orthorhombic'
loop_
_space_group_symop_operation_xyz
x,y,z
-x,-y,z
1/2+x,1/2-y,1/2-z
1/2-x,1/2+y,1/2-z
-x,-y,-z
x,y,-z
1/2-x,1/2+y,1/2+z
1/2+x,1/2-y,1/2+z
loop_
_atom_site_type_symbol
_atom_site_label
_atom_site_fract_x
_atom_site_fract_y
_atom_site_fract_z
Si Si1 0.564154 0.946154 0.817796
Si Si2 0.814117 0.116169 0.819746
Si Si3 0.506725 0.189384 0.821095
Si Si4 0.258066 0.021782 0.180827
Si Si5 0.144296 0.140765 0.179944
Si Si6 0.184677 0.275783 0.321351
Si Si7 0.524866 0.665105 0.819212
O O1 0.538836 0.874094 0.749671
O O2 0.652395 0.964715 0.753150
O O3 0.500000 0.000000 0.757659
O O4 0.563968 0.944726 0.000000
O O5 0.758393 0.177806 0.770038
O O6 0.901284 0.122805 0.744085
O O7 0.773904 0.048672 0.757534
O O8 0.824749 0.113487 0.000000
O O9 0.601717 0.186028 0.780217
O O10 0.469173 0.258583 0.759373
O O11 0.494675 0.186913 0.000000
O O12 0.198184 0.079343 0.236720
O O13 0.262817 0.020283 0.000000
O O14 0.190840 0.207591 0.228523
O O15 0.057757 0.132914 0.259468
O O16 0.131998 0.140450 0.000000
O O17 0.187018 0.258954 0.500000
O O18 0.523800 0.662458 0.000000
#
# Coordination Sequence:
#
# PCOD8237194 Si02
#       7
#     8   8   8   8   8   8   8
#     4   9  15  25  46  75 105 134 167 211 264 313
#     4  10  20  35  54  77 108 142 181 223 272 323
#     4   8  15  28  47  72 102 132 166 211 258 311
#     4   9  19  32  49  77 108 141 179 224 269 318
#     4  10  20  35  55  78 108 142 182 228 273 321
#     4   9  18  33  53  78 110 144 176 217 268 323
#     4  10  21  36  54  77 105 138 183 230 276 324
#
# _framework density 19.164940000000001
#
# number of rings (size 3 to 8) (size 9 to 14) (size 15 to 20)
#    0.000    2.714    0.000    2.571    2.000    4.571 
#    0.000    4.286    0.000    0.000    0.000    0.000 
#    0.000   10.000    0.000    0.000    0.000    0.000 
#
# Total GULP energy -694352.472956 kJ/mol
# GULP energy per Si atom -12399.151303 kJ/mol
# Density = 1.912132 g / cm^3
# Si number density = 19.164940 Si / 1000 Ang^3
#
#
#
# Elastic Constant Matrix: (Units=GPa)
#
#
# Indices 1 2 3 4 5 6 
#
# 1 158.7428 87.7231 26.2597 0.0000 0.0000 0.0000
# 2 87.7231 112.0814 24.4683 0.0000 0.0000 0.0000
# 3 26.2597 24.4683 26.9063 0.0000 0.0000 0.0000
# 4 0.0000 0.0000 0.0000 22.9667 0.0000 0.0000
# 5 0.0000 0.0000 0.0000 0.0000 21.3992 0.0000
# 6 0.0000 0.0000 0.0000 0.0000 0.0000 39.1197
#
#
#
# Elastic Compliance Matrix: (Units=1/GPa)
#
#
# Indices 1 2 3 4 5 6 
#
# 1 0.011397 -0.008100 -0.003757 0.000000 0.000000 0.000000
# 2 -0.008100 0.016889 -0.007453 0.000000 0.000000 0.000000
# 3 -0.003757 -0.007453 0.047611 0.000000 0.000000 0.000000
# 4 0.000000 0.000000 0.000000 0.043541 0.000000 0.000000
# 5 0.000000 0.000000 0.000000 0.000000 0.046731 0.000000
# 6 0.000000 0.000000 0.000000 0.000000 0.000000 0.025563
#
#
# Mechanical properties :
#
#
# Convention : Reuss Voigt Hill
#
# Bulk Modulus (GPa) = 26.82693 63.84810 45.33751
# Shear Modulus (GPa) = 20.59497 27.31573 23.95535
#
# Velocity S-wave (km/s) = 3.28169 3.77941 3.53931
# Velocity P-wave (km/s) = 5.32801 7.24104 6.35690
#
# Compressibility (1/GPa) = 0.03727598
#
# Stress axis : x y z
#
# Youngs Moduli (GPa) = 87.74068 59.21052 21.00365
#
# Poissons Ratio (x) = 0.47961 0.07891
# Poissons Ratio (y) = 0.71071 0.15654
# Poissons Ratio (z) = 0.32966 0.44131
#
# Static dielectric constant tensor:
#      x y z
#    x 3.613140 0.000000 0.000000 
#    y 0.000000 3.815000 0.000000 
#    z 0.000000 0.000000 3.014590 
# 
# 
# High freq. dielectric constant tensor:
#      x y z
#    x 1.755060 0.000000 0.000000 
#    y 0.000000 1.754690 0.000000 
#    z 0.000000 0.000000 1.697510 
# 
# From -- ./inp_files/6430.got.cif
#   From: 2010.06.25/outbox.cif.g09.slc.cpg/sg58_4_cif.got.tgz:6430.got - 2010.06.26 21:38:00.
