data_PCOD8237619
_publ_section_title
;
Structure prediction by ZEFSAII (Michael W. Deem and Ramdas Pophale) SiO2 
 PCOD8237619
Probable space group: P N N M
;
_chemical_formula_sum "Si O2"
_cell_formula_units_Z 64
_cell_length_a 28.431651
_cell_length_b 12.742081
_cell_length_c 8.801892
_cell_angle_alpha 90.000000
_cell_angle_beta 90.000000
_cell_angle_gamma 90.000000
_cell_volume 3188.735351
_symmetry_space_group_name_H-M "P N N M"
_symmetry_group_IT_number 58
_symmetry_cell_setting 'orthorhombic'
loop_
_space_group_symop_operation_xyz
x,y,z
-x,-y,z
1/2+x,1/2-y,1/2-z
1/2-x,1/2+y,1/2-z
-x,-y,-z
x,y,-z
1/2-x,1/2+y,1/2+z
1/2+x,1/2-y,1/2+z
loop_
_atom_site_type_symbol
_atom_site_label
_atom_site_fract_x
_atom_site_fract_y
_atom_site_fract_z
Si Si1 0.291786 0.125803 0.175241
Si Si2 0.107304 0.111905 0.820251
Si Si3 0.610515 0.975504 0.822938
Si Si4 0.573096 0.608706 0.331055
Si Si5 0.035200 0.695068 0.321983
Si Si6 0.180674 0.831678 0.170467
Si Si7 0.562330 0.168881 0.678542
Si Si8 0.201458 0.042218 0.677996
O O1 0.308406 0.242989 0.207877
O O2 0.248775 0.105240 0.287623
O O3 0.335021 0.048096 0.211331
O O4 0.276212 0.116745 0.000000
O O5 0.081145 0.217412 0.770000
O O6 0.156657 0.109254 0.732321
O O7 0.074360 0.012312 0.773296
O O8 0.117855 0.106694 0.000000
O O9 0.598500 0.080452 0.732216
O O10 0.578556 0.877559 0.766792
O O11 0.601495 0.995335 0.000000
O O12 0.551150 0.613880 0.500000
O O13 0.541796 0.683458 0.225655
O O14 0.625480 0.651408 0.331203
O O15 0.029549 0.691393 0.500000
O O16 0.988289 0.647063 0.250402
O O17 0.206528 0.935444 0.228046
O O18 0.198570 0.804609 0.000000
O O19 0.557225 0.163113 0.500000
O O20 0.196765 0.019255 0.500000
#
# Coordination Sequence:
#
# PCOD8237619 Si02
#       8
#     8   8   8   8   8   8   8   8
#     4  11  22  39  62  88 119 157 202 250 302 360
#     4   9  21  42  61  84 120 160 200 251 307 359
#     4  10  23  41  60  85 120 158 198 249 302 356
#     4   9  18  35  61  86 113 150 195 246 295 351
#     4  11  22  38  60  88 121 156 199 248 303 360
#     4  10  20  37  60  86 117 153 194 246 301 355
#     4  11  24  40  61  87 120 161 203 247 302 363
#     4  11  23  38  60  90 121 157 200 245 302 365
#
# _framework density 20.070651999999999
#
# number of rings (size 3 to 8) (size 9 to 14) (size 15 to 20)
#    0.000    1.750    1.250    3.750    0.000    8.000 
#    0.000    5.000    0.000    0.000    0.000    0.000 
#    0.000    0.000    0.000    0.000    0.000    0.000 
#
# Total GULP energy -793790.093505 kJ/mol
# GULP energy per Si atom -12402.970211 kJ/mol
# Density = 2.002497 g / cm^3
# Si number density = 20.070652 Si / 1000 Ang^3
#
#
#
# Elastic Constant Matrix: (Units=GPa)
#
#
# Indices 1 2 3 4 5 6 
#
# 1 42.6683 17.9105 29.5876 0.0000 0.0000 0.0000
# 2 17.9105 98.4974 27.4404 0.0000 0.0000 0.0000
# 3 29.5876 27.4404 68.6163 0.0000 0.0000 0.0000
# 4 0.0000 0.0000 0.0000 28.1589 0.0000 0.0000
# 5 0.0000 0.0000 0.0000 0.0000 25.2637 0.0000
# 6 0.0000 0.0000 0.0000 0.0000 0.0000 18.0709
#
#
#
# Elastic Compliance Matrix: (Units=1/GPa)
#
#
# Indices 1 2 3 4 5 6 
#
# 1 0.033912 -0.002355 -0.013681 0.000000 0.000000 0.000000
# 2 -0.002355 0.011589 -0.003619 0.000000 0.000000 0.000000
# 3 -0.013681 -0.003619 0.021921 0.000000 0.000000 0.000000
# 4 0.000000 0.000000 0.000000 0.035513 0.000000 0.000000
# 5 0.000000 0.000000 0.000000 0.000000 0.039582 0.000000
# 6 0.000000 0.000000 0.000000 0.000000 0.000000 0.055338
#
#
# Mechanical properties :
#
#
# Convention : Reuss Voigt Hill
#
# Bulk Modulus (GPa) = 35.57329 39.96210 37.76770
# Shear Modulus (GPa) = 20.28106 23.28828 21.78467
#
# Velocity S-wave (km/s) = 3.18226 3.41004 3.29811
# Velocity P-wave (km/s) = 5.59150 5.95470 5.77595
#
# Compressibility (1/GPa) = 0.02811098
#
# Stress axis : x y z
#
# Youngs Moduli (GPa) = 29.48797 86.28860 45.61940
#
# Poissons Ratio (x) = 0.20321 0.62413
# Poissons Ratio (y) = 0.06944 0.16510
# Poissons Ratio (z) = 0.40343 0.31228
#
# Static dielectric constant tensor:
#      x y z
#    x 3.564620 0.000000 0.000000 
#    y 0.000000 3.874060 0.000000 
#    z 0.000000 0.000000 3.598420 
# 
# 
# High freq. dielectric constant tensor:
#      x y z
#    x 1.778600 0.000000 0.000000 
#    y 0.000000 1.789770 0.000000 
#    z 0.000000 0.000000 1.783290 
# 
# From -- ./inp_files/4788.got.cif
#   From: 2010.06.25/outbox.cif.g09.slc.cpg/sg58_3_cif.got.tgz:4788.got - 2010.06.26 21:38:00.
