data_PCOD8237476
_publ_section_title
;
Structure prediction by ZEFSAII (Michael W. Deem and Ramdas Pophale) SiO2 
 PCOD8237476
Probable space group: P N N M
;
_chemical_formula_sum "Si O2"
_cell_formula_units_Z 64
_cell_length_a 29.352720
_cell_length_b 11.896356
_cell_length_c 8.954818
_cell_angle_alpha 90.000000
_cell_angle_beta 90.000000
_cell_angle_gamma 90.000000
_cell_volume 3126.936539
_symmetry_space_group_name_H-M "P N N M"
_symmetry_group_IT_number 58
_symmetry_cell_setting 'orthorhombic'
loop_
_space_group_symop_operation_xyz
x,y,z
-x,-y,z
1/2+x,1/2-y,1/2-z
1/2-x,1/2+y,1/2-z
-x,-y,-z
x,y,-z
1/2-x,1/2+y,1/2+z
1/2+x,1/2-y,1/2+z
loop_
_atom_site_type_symbol
_atom_site_label
_atom_site_fract_x
_atom_site_fract_y
_atom_site_fract_z
Si Si1 0.930176 0.467972 0.323764
Si Si2 0.970051 0.258572 0.170802
Si Si3 0.313426 0.509178 0.827495
Si Si4 0.222699 0.466561 0.323377
Si Si5 0.118558 0.861883 0.170716
Si Si6 0.656773 0.881950 0.673492
Si Si7 0.839605 0.741611 0.327345
Si Si8 0.432366 0.805412 0.328459
O O1 0.930632 0.480533 0.500000
O O2 0.961057 0.364027 0.276733
O O3 0.878747 0.455726 0.266948
O O4 0.949168 0.581311 0.251495
O O5 0.934774 0.158699 0.212891
O O6 0.023217 0.222405 0.186847
O O7 0.958841 0.295345 0.000000
O O8 0.274535 0.449325 0.729123
O O9 0.362081 0.458493 0.777380
O O10 0.313322 0.642369 0.798349
O O11 0.305080 0.481341 0.000000
O O12 0.221345 0.482623 0.500000
O O13 0.205305 0.579691 0.240029
O O14 0.192970 0.358910 0.271266
O O15 0.148052 0.749341 0.199004
O O16 0.123110 0.901741 0.000000
O O17 0.653624 0.913422 0.500000
O O18 0.851468 0.724612 0.500000
O O19 0.887662 0.748014 0.242930
O O20 0.421517 0.830672 0.500000
#
# Coordination Sequence:
#
# PCOD8237476 Si02
#       8
#     8   8   8   8   8   8   8   8
#     4  11  20  31  51  84 124 161 196 241 298 357
#     4   9  20  37  57  85 120 160 205 252 302 356
#     4  11  25  43  63  88 120 158 203 250 300 361
#     4  11  23  40  63  90 119 154 196 243 303 365
#     4   9  20  40  62  85 120 159 199 249 301 350
#     4  10  20  36  59  87 120 156 194 243 297 350
#     4  10  24  44  62  86 124 160 196 251 307 356
#     4  11  21  35  59  87 118 159 206 252 301 361
#
# _framework density 20.467314999999999
#
# number of rings (size 3 to 8) (size 9 to 14) (size 15 to 20)
#    0.000    1.750    1.250    3.750    1.750    6.500 
#    0.000    0.625    0.000    3.750    0.000    0.000 
#    0.000    0.000    0.000    0.000    0.000    0.000 
#
# Total GULP energy -793586.097219 kJ/mol
# GULP energy per Si atom -12399.782769 kJ/mol
# Density = 2.042073 g / cm^3
# Si number density = 20.467315 Si / 1000 Ang^3
#
#
#
# Elastic Constant Matrix: (Units=GPa)
#
#
# Indices 1 2 3 4 5 6 
#
# 1 117.1850 25.3936 47.4383 0.0000 0.0000 0.0000
# 2 25.3936 51.4479 38.2496 0.0000 0.0000 0.0000
# 3 47.4383 38.2496 103.9848 0.0000 0.0000 0.0000
# 4 0.0000 0.0000 0.0000 29.0980 0.0000 0.0000
# 5 0.0000 0.0000 0.0000 0.0000 25.8766 0.0000
# 6 0.0000 0.0000 0.0000 0.0000 0.0000 20.3347
#
#
#
# Elastic Compliance Matrix: (Units=1/GPa)
#
#
# Indices 1 2 3 4 5 6 
#
# 1 0.010655 -0.002264 -0.004028 0.000000 0.000000 0.000000
# 2 -0.002264 0.027235 -0.008985 0.000000 0.000000 0.000000
# 3 -0.004028 -0.008985 0.014759 0.000000 0.000000 0.000000
# 4 0.000000 0.000000 0.000000 0.034367 0.000000 0.000000
# 5 0.000000 0.000000 0.000000 0.000000 0.038645 0.000000
# 6 0.000000 0.000000 0.000000 0.000000 0.000000 0.049177
#
#
# Mechanical properties :
#
#
# Convention : Reuss Voigt Hill
#
# Bulk Modulus (GPa) = 45.26023 54.97562 50.11792
# Shear Modulus (GPa) = 23.50104 25.83094 24.66599
#
# Velocity S-wave (km/s) = 3.39222 3.55640 3.47528
# Velocity P-wave (km/s) = 6.12408 6.61683 6.37522
#
# Compressibility (1/GPa) = 0.02209445
#
# Stress axis : x y z
#
# Youngs Moduli (GPa) = 93.85513 36.71778 67.75395
#
# Poissons Ratio (x) = 0.08315 0.27290
# Poissons Ratio (y) = 0.21253 0.60877
# Poissons Ratio (z) = 0.37803 0.32991
#
# Static dielectric constant tensor:
#      x y z
#    x 3.825580 0.000000 0.000000 
#    y 0.000000 3.448580 0.000000 
#    z 0.000000 0.000000 3.640800 
# 
# 
# High freq. dielectric constant tensor:
#      x y z
#    x 1.811930 0.000000 0.000000 
#    y 0.000000 1.773160 0.000000 
#    z 0.000000 0.000000 1.802170 
# 
# From -- ./inp_files/10998.got.cif
#   From: 2010.06.25/outbox.cif.g09.slc.cpg/sg58_6_cif.got.tgz:10998.got - 2010.06.26 21:38:00.
