data_PCOD8237919
_publ_section_title
;
Structure prediction by ZEFSAII (Michael W. Deem and Ramdas Pophale) SiO2 
 PCOD8237919
Probable space group: P N N M
;
_chemical_formula_sum "Si O2"
_cell_formula_units_Z 64
_cell_length_a 8.684334
_cell_length_b 14.129553
_cell_length_c 26.221300
_cell_angle_alpha 90.000000
_cell_angle_beta 90.000000
_cell_angle_gamma 90.000000
_cell_volume 3217.504480
_symmetry_space_group_name_H-M "P N N M"
_symmetry_group_IT_number 58
_symmetry_cell_setting 'orthorhombic'
loop_
_space_group_symop_operation_xyz
x,y,z
-x,-y,z
1/2+x,1/2-y,1/2-z
1/2-x,1/2+y,1/2-z
-x,-y,-z
x,y,-z
1/2-x,1/2+y,1/2+z
1/2+x,1/2-y,1/2+z
loop_
_atom_site_type_symbol
_atom_site_label
_atom_site_fract_x
_atom_site_fract_y
_atom_site_fract_z
Si Si1 0.658613 0.845553 0.671430
Si Si2 0.153492 0.326153 0.349175
Si Si3 0.374244 0.632974 0.441732
Si Si4 0.778668 0.075358 0.058436
Si Si5 0.331024 0.784479 0.640272
Si Si6 0.337075 0.464924 0.284008
Si Si7 0.164141 0.965488 0.666495
Si Si8 0.160616 0.653706 0.289040
O O1 0.799142 0.783780 0.648829
O O2 0.503435 0.823971 0.641162
O O3 0.626938 0.821915 0.730584
O O4 0.705724 0.954064 0.662506
O O5 0.153633 0.373267 0.405442
O O6 0.286819 0.374092 0.315493
O O7 0.987687 0.334325 0.324253
O O8 0.337337 0.657180 0.500000
O O9 0.291234 0.534928 0.426238
O O10 0.556722 0.624665 0.433427
O O11 0.305170 0.717581 0.408361
O O12 0.723895 0.086040 0.000000
O O13 0.216508 0.873700 0.634907
O O14 0.294305 0.723617 0.691048
O O15 0.500000 0.500000 0.306086
O O16 0.355430 0.434677 0.225332
O O17 0.210345 0.545147 0.292485
O O18 0.000000 0.000000 0.644689
#
# Coordination Sequence:
#
# PCOD8237919 Si02
#       8
#     8   8   8   8   8   8   8   8
#     4  11  22  36  55  82 115 160 197 235 280 340
#     4  12  21  34  57  84 116 153 193 236 293 349
#     4   9  19  37  62  89 113 143 188 241 290 347
#     4   9  19  37  60  88 118 145 183 236 296 352
#     4  12  21  37  59  82 112 154 200 236 282 351
#     4  10  21  35  54  79 114 156 196 235 281 346
#     4  10  22  39  55  78 115 156 194 242 290 332
#     4  11  23  34  51  85 123 153 192 235 285 344
#
# _framework density 19.891193000000001
#
# number of rings (size 3 to 8) (size 9 to 14) (size 15 to 20)
#    0.000    1.500    1.250    6.000    1.750    4.000 
#    0.000    0.625    0.000    5.625    0.000    0.000 
#    0.000    0.000    0.000    0.000    0.000    0.000 
#
# Total GULP energy -793854.270071 kJ/mol
# GULP energy per Si atom -12403.972970 kJ/mol
# Density = 1.984592 g / cm^3
# Si number density = 19.891193 Si / 1000 Ang^3
#
#
#
# Elastic Constant Matrix: (Units=GPa)
#
#
# Indices 1 2 3 4 5 6 
#
# 1 73.8676 17.5195 27.3030 0.0000 0.0000 0.0000
# 2 17.5195 101.5715 52.4979 0.0000 0.0000 0.0000
# 3 27.3030 52.4979 86.9804 0.0000 0.0000 0.0000
# 4 0.0000 0.0000 0.0000 33.1262 0.0000 0.0000
# 5 0.0000 0.0000 0.0000 0.0000 18.4042 0.0000
# 6 0.0000 0.0000 0.0000 0.0000 0.0000 30.5011
#
#
#
# Elastic Compliance Matrix: (Units=1/GPa)
#
#
# Indices 1 2 3 4 5 6 
#
# 1 0.015318 -0.000228 -0.004671 0.000000 0.000000 0.000000
# 2 -0.000228 0.014312 -0.008567 0.000000 0.000000 0.000000
# 3 -0.004671 -0.008567 0.018134 0.000000 0.000000 0.000000
# 4 0.000000 0.000000 0.000000 0.030188 0.000000 0.000000
# 5 0.000000 0.000000 0.000000 0.000000 0.054335 0.000000
# 6 0.000000 0.000000 0.000000 0.000000 0.000000 0.032786
#
#
# Mechanical properties :
#
#
# Convention : Reuss Voigt Hill
#
# Bulk Modulus (GPa) = 48.00073 50.78448 49.39260
# Shear Modulus (GPa) = 25.13212 27.41290 26.27251
#
# Velocity S-wave (km/s) = 3.55840 3.71636 3.63824
# Velocity P-wave (km/s) = 6.40835 6.63338 6.52184
#
# Compressibility (1/GPa) = 0.02083302
#
# Stress axis : x y z
#
# Youngs Moduli (GPa) = 65.28169 69.86925 55.14630
#
# Poissons Ratio (x) = 0.01593 0.25757
# Poissons Ratio (y) = 0.01489 0.47243
# Poissons Ratio (z) = 0.30491 0.59856
#
# Static dielectric constant tensor:
#      x y z
#    x 3.503400 0.000000 0.000000 
#    y 0.000000 3.711850 0.000000 
#    z 0.000000 0.000000 3.423260 
# 
# 
# High freq. dielectric constant tensor:
#      x y z
#    x 1.774320 0.000000 0.000000 
#    y 0.000000 1.782480 0.000000 
#    z 0.000000 0.000000 1.745590 
# 
# From -- ./inp_files/34819.got.cif
#   From: 2010.06.25/outbox.cif.g09.slc.cpg/sg58_18_cif.got.tgz:34819.got - 2010.06.26 21:38:00.
