data_PCOD8237100
_publ_section_title
;
Structure prediction by ZEFSAII (Michael W. Deem and Ramdas Pophale) SiO2 
 PCOD8237100
Probable space group: P N N M
;
_chemical_formula_sum "Si O2"
_cell_formula_units_Z 64
_cell_length_a 32.681643
_cell_length_b 10.328816
_cell_length_c 9.353569
_cell_angle_alpha 90.000000
_cell_angle_beta 90.000000
_cell_angle_gamma 90.000000
_cell_volume 3157.415792
_symmetry_space_group_name_H-M "P N N M"
_symmetry_group_IT_number 58
_symmetry_cell_setting 'orthorhombic'
loop_
_space_group_symop_operation_xyz
x,y,z
-x,-y,z
1/2+x,1/2-y,1/2-z
1/2-x,1/2+y,1/2-z
-x,-y,-z
x,y,-z
1/2-x,1/2+y,1/2+z
1/2+x,1/2-y,1/2+z
loop_
_atom_site_type_symbol
_atom_site_label
_atom_site_fract_x
_atom_site_fract_y
_atom_site_fract_z
Si Si1 0.619524 0.861679 0.167095
Si Si2 0.232050 0.008216 0.168076
Si Si3 0.468848 0.234140 0.166547
Si Si4 0.147849 0.878997 0.837428
Si Si5 0.218226 0.297352 0.164459
Si Si6 0.954724 0.734254 0.163955
Si Si7 0.059950 0.970457 0.839581
Si Si8 0.630016 0.113067 0.335724
O O1 0.570914 0.853268 0.199136
O O2 0.644032 0.742090 0.232684
O O3 0.637558 0.989056 0.238043
O O4 0.628833 0.863824 0.000000
O O5 0.236113 0.158692 0.217317
O O6 0.186843 0.961410 0.209512
O O7 0.264622 0.917733 0.246407
O O8 0.239934 0.997194 0.000000
O O9 0.508518 0.171323 0.243392
O O10 0.461008 0.377568 0.225518
O O11 0.478137 0.243727 0.000000
O O12 0.108891 0.972806 0.821329
O O13 0.151978 0.827917 0.000000
O O14 0.169002 0.293010 0.181910
O O15 0.230214 0.320242 0.000000
O O16 0.910749 0.685432 0.218555
O O17 0.957167 0.887562 0.186874
O O18 0.961498 0.695280 0.000000
O O19 0.048545 0.922488 0.000000
O O20 0.625032 0.069122 0.500000
#
# Coordination Sequence:
#
# PCOD8237100 Si02
#       8
#     8   8   8   8   8   8   8   8
#     4  10  22  38  56  81 115 153 193 239 291 346
#     4  10  22  40  63  92 123 157 195 240 294 353
#     4  10  21  35  51  78 114 149 185 232 291 348
#     4   9  18  35  60  84 111 148 192 236 285 344
#     4  10  23  42  63  90 124 157 194 243 297 354
#     4  10  20  34  55  80 107 144 191 240 286 339
#     4   9  17  32  55  81 108 142 186 235 284 339
#     4  10  22  40  60  81 110 150 195 241 292 347
#
# _framework density 20.269741
#
# number of rings (size 3 to 8) (size 9 to 14) (size 15 to 20)
#    0.000    2.250    0.000    1.875    1.750    9.000 
#    0.000    2.500    0.000    4.500    0.000    0.000 
#    0.000    0.000    0.000    0.000    0.000    0.000 
#
# Total GULP energy -793666.826901 kJ/mol
# GULP energy per Si atom -12401.044170 kJ/mol
# Density = 2.022361 g / cm^3
# Si number density = 20.269741 Si / 1000 Ang^3
#
#
#
# Elastic Constant Matrix: (Units=GPa)
#
#
# Indices 1 2 3 4 5 6 
#
# 1 87.9392 30.5878 35.0899 0.0000 0.0000 0.0000
# 2 30.5878 86.7462 42.0037 0.0000 0.0000 0.0000
# 3 35.0899 42.0037 74.7227 0.0000 0.0000 0.0000
# 4 0.0000 0.0000 0.0000 22.3444 0.0000 0.0000
# 5 0.0000 0.0000 0.0000 0.0000 31.7696 0.0000
# 6 0.0000 0.0000 0.0000 0.0000 0.0000 25.3261
#
#
#
# Elastic Compliance Matrix: (Units=1/GPa)
#
#
# Indices 1 2 3 4 5 6 
#
# 1 0.014369 -0.002472 -0.005358 0.000000 0.000000 0.000000
# 2 -0.002472 0.016265 -0.007982 0.000000 0.000000 0.000000
# 3 -0.005358 -0.007982 0.020386 0.000000 0.000000 0.000000
# 4 0.000000 0.000000 0.000000 0.044754 0.000000 0.000000
# 5 0.000000 0.000000 0.000000 0.000000 0.031477 0.000000
# 6 0.000000 0.000000 0.000000 0.000000 0.000000 0.039485
#
#
# Mechanical properties :
#
#
# Convention : Reuss Voigt Hill
#
# Bulk Modulus (GPa) = 51.55888 51.64122 51.60005
# Shear Modulus (GPa) = 24.41112 25.33649 24.87380
#
# Velocity S-wave (km/s) = 3.47409 3.53932 3.50686
# Velocity P-wave (km/s) = 6.44856 6.49882 6.47374
#
# Compressibility (1/GPa) = 0.01939530
#
# Stress axis : x y z
#
# Youngs Moduli (GPa) = 69.59190 61.48352 49.05388
#
# Poissons Ratio (x) = 0.15201 0.26284
# Poissons Ratio (y) = 0.17206 0.39153
# Poissons Ratio (z) = 0.37288 0.49074
#
# Static dielectric constant tensor:
#      x y z
#    x 3.821560 0.000000 0.000000 
#    y 0.000000 3.544320 0.000000 
#    z 0.000000 0.000000 3.575970 
# 
# 
# High freq. dielectric constant tensor:
#      x y z
#    x 1.805500 0.000000 0.000000 
#    y 0.000000 1.781510 0.000000 
#    z 0.000000 0.000000 1.779890 
# 
# From -- ./inp_files/11013.got.cif
#   From: 2010.06.25/outbox.cif.g09.slc.cpg/sg58_6_cif.got.tgz:11013.got - 2010.06.26 21:38:00.
