data_PCOD8237971
_publ_section_title
;
Structure prediction by ZEFSAII (Michael W. Deem and Ramdas Pophale) SiO2 
 PCOD8237971
Probable space group: P N N M
;
_chemical_formula_sum "Si O2"
_cell_formula_units_Z 56
_cell_length_a 19.596481
_cell_length_b 16.364304
_cell_length_c 9.115848
_cell_angle_alpha 90.000000
_cell_angle_beta 90.000000
_cell_angle_gamma 90.000000
_cell_volume 2923.295410
_symmetry_space_group_name_H-M "P N N M"
_symmetry_group_IT_number 58
_symmetry_cell_setting 'orthorhombic'
loop_
_space_group_symop_operation_xyz
x,y,z
-x,-y,z
1/2+x,1/2-y,1/2-z
1/2-x,1/2+y,1/2-z
-x,-y,-z
x,y,-z
1/2-x,1/2+y,1/2+z
1/2+x,1/2-y,1/2+z
loop_
_atom_site_type_symbol
_atom_site_label
_atom_site_fract_x
_atom_site_fract_y
_atom_site_fract_z
Si Si1 0.963244 0.243348 0.672914
Si Si2 0.954360 0.077884 0.830313
Si Si3 0.394625 0.819784 0.172686
Si Si4 0.335456 0.988218 0.172283
Si Si5 0.805251 0.827240 0.671484
Si Si6 0.851115 0.346598 0.172275
Si Si7 0.680714 0.489077 0.668457
O O1 0.949740 0.242251 0.500000
O O2 0.977964 0.151927 0.727820
O O3 0.898185 0.278181 0.756468
O O4 0.027682 0.299905 0.713732
O O5 0.874999 0.058369 0.796579
O O6 0.964574 0.102494 0.000000
O O7 0.000000 0.000000 0.789595
O O8 0.374535 0.908736 0.234739
O O9 0.344239 0.750953 0.239052
O O10 0.383009 0.821591 0.000000
O O11 0.366494 0.065436 0.257082
O O12 0.255353 0.976085 0.207851
O O13 0.348231 0.002013 0.000000
O O14 0.818675 0.834249 0.500000
O O15 0.725612 0.818992 0.708657
O O16 0.836993 0.908456 0.740613
O O17 0.865123 0.351497 0.000000
O O18 0.676707 0.462595 0.500000
#
# Coordination Sequence:
#
# PCOD8237971 Si02
#       7
#     8   8   8   8   8   8   8
#     4  11  23  37  55  81 111 145 188 229 273 327
#     4  10  21  36  55  82 116 150 182 220 278 340
#     4   9  19  35  56  80 104 141 186 227 271 321
#     4   9  18  35  58  79 103 138 186 230 268 320
#     4   9  18  34  58  81 107 142 182 226 272 323
#     4  10  21  37  57  81 112 144 179 226 282 332
#     4   9  18  32  54  80 107 141 178 220 271 327
#
# _framework density 19.156462000000001
#
# number of rings (size 3 to 8) (size 9 to 14) (size 15 to 20)
#    0.000    2.429    0.000    1.714    2.000    2.000 
#    0.000    5.714    0.000    0.000    0.000    0.000 
#    0.000    0.000    0.000    0.000    0.000    0.000 
#
# Total GULP energy -694529.650911 kJ/mol
# GULP energy per Si atom -12402.315195 kJ/mol
# Density = 1.911286 g / cm^3
# Si number density = 19.156462 Si / 1000 Ang^3
#
#
#
# Elastic Constant Matrix: (Units=GPa)
#
#
# Indices 1 2 3 4 5 6 
#
# 1 61.3227 27.2678 29.2121 0.0000 0.0000 0.0000
# 2 27.2678 87.1119 34.6162 0.0000 0.0000 0.0000
# 3 29.2121 34.6162 52.9749 0.0000 0.0000 0.0000
# 4 0.0000 0.0000 0.0000 32.4611 0.0000 0.0000
# 5 0.0000 0.0000 0.0000 0.0000 22.6119 0.0000
# 6 0.0000 0.0000 0.0000 0.0000 0.0000 33.9557
#
#
#
# Elastic Compliance Matrix: (Units=1/GPa)
#
#
# Indices 1 2 3 4 5 6 
#
# 1 0.022636 -0.002871 -0.010606 0.000000 0.000000 0.000000
# 2 -0.002871 0.015870 -0.008787 0.000000 0.000000 0.000000
# 3 -0.010606 -0.008787 0.030467 0.000000 0.000000 0.000000
# 4 0.000000 0.000000 0.000000 0.030806 0.000000 0.000000
# 5 0.000000 0.000000 0.000000 0.000000 0.044224 0.000000
# 6 0.000000 0.000000 0.000000 0.000000 0.000000 0.029450
#
#
# Mechanical properties :
#
#
# Convention : Reuss Voigt Hill
#
# Bulk Modulus (GPa) = 40.90820 42.62241 41.76530
# Shear Modulus (GPa) = 22.11106 25.15997 23.63552
#
# Velocity S-wave (km/s) = 3.40109 3.62801 3.51638
# Velocity P-wave (km/s) = 6.06831 6.31252 6.19162
#
# Compressibility (1/GPa) = 0.02444497
#
# Stress axis : x y z
#
# Youngs Moduli (GPa) = 44.17690 63.01240 32.82194
#
# Poissons Ratio (x) = 0.18090 0.34812
# Poissons Ratio (y) = 0.12683 0.28841
# Poissons Ratio (z) = 0.46856 0.55369
#
# Static dielectric constant tensor:
#      x y z
#    x 3.595260 0.000000 0.000000 
#    y 0.000000 3.620110 0.000000 
#    z 0.000000 0.000000 3.334450 
# 
# 
# High freq. dielectric constant tensor:
#      x y z
#    x 1.751750 0.000000 0.000000 
#    y 0.000000 1.749150 0.000000 
#    z 0.000000 0.000000 1.726350 
# 
# From -- ./inp_files/9060.got.cif
#   From: 2010.06.25/outbox.cif.g09.slc.cpg/sg58_5_cif.got.tgz:9060.got - 2010.06.26 21:38:00.
