data_PCOD8237197
_publ_section_title
;
Structure prediction by ZEFSAII (Michael W. Deem and Ramdas Pophale) SiO2 
 PCOD8237197
Probable space group: P N N M
;
_chemical_formula_sum "Si O2"
_cell_formula_units_Z 48
_cell_length_a 10.265218
_cell_length_b 29.113517
_cell_length_c 8.826803
_cell_angle_alpha 90.000000
_cell_angle_beta 90.000000
_cell_angle_gamma 90.000000
_cell_volume 2637.948322
_symmetry_space_group_name_H-M "P N N M"
_symmetry_group_IT_number 58
_symmetry_cell_setting 'orthorhombic'
loop_
_space_group_symop_operation_xyz
x,y,z
-x,-y,z
1/2+x,1/2-y,1/2-z
1/2-x,1/2+y,1/2-z
-x,-y,-z
x,y,-z
1/2-x,1/2+y,1/2+z
1/2+x,1/2-y,1/2+z
loop_
_atom_site_type_symbol
_atom_site_label
_atom_site_fract_x
_atom_site_fract_y
_atom_site_fract_z
Si Si1 0.505508 0.882134 0.174619
Si Si2 0.721683 0.384522 0.178251
Si Si3 0.003945 0.278151 0.674599
Si Si4 0.207154 0.211615 0.177741
Si Si5 0.622530 0.027230 0.178064
Si Si6 0.129175 0.025535 0.179747
O O1 0.629491 0.893794 0.276399
O O2 0.453893 0.830889 0.203294
O O3 0.391464 0.918404 0.215715
O O4 0.550300 0.887792 0.000000
O O5 0.672245 0.335733 0.240161
O O6 0.631049 0.424180 0.246819
O O7 0.707215 0.384387 0.000000
O O8 0.024485 0.264149 0.500000
O O9 0.852709 0.271228 0.723429
O O10 0.098302 0.248466 0.778877
O O11 0.203816 0.202347 0.000000
O O12 0.500000 0.000000 0.248281
O O13 0.754119 0.006067 0.246186
O O14 0.626520 0.019151 0.000000
O O15 0.135337 0.031368 0.000000
O O16 0.000000 0.000000 0.233074
#
# Coordination Sequence:
#
# PCOD8237197 Si02
#       6
#     8   8   8   8   8   8
#     4   9  17  33  56  80 107 140 182 224 269 318
#     4  11  21  34  55  79 109 143 181 222 273 324
#     4   9  19  35  55  81 112 141 179 230 278 324
#     4  10  21  38  60  82 109 144 184 225 272 331
#     4   9  15  28  55  80 103 136 176 221 258 303
#     4  10  20  35  54  78 109 143 184 222 263 326
#
# _framework density 18.195958999999998
#
# number of rings (size 3 to 8) (size 9 to 14) (size 15 to 20)
#    0.000    2.333    1.667    3.000    0.000    3.667 
#    3.000    1.667    0.000    0.000    0.000    0.000 
#    0.000    0.000    0.000    0.000    0.000    0.000 
#
# Total GULP energy -595132.043249 kJ/mol
# GULP energy per Si atom -12398.584234 kJ/mol
# Density = 1.815454 g / cm^3
# Si number density = 18.195959 Si / 1000 Ang^3
#
#
#
# Elastic Constant Matrix: (Units=GPa)
#
#
# Indices 1 2 3 4 5 6 
#
# 1 116.4836 75.7991 32.9814 0.0000 0.0000 0.0000
# 2 75.7991 135.2148 37.3788 0.0000 0.0000 0.0000
# 3 32.9814 37.3788 55.0080 0.0000 0.0000 0.0000
# 4 0.0000 0.0000 0.0000 27.5648 0.0000 0.0000
# 5 0.0000 0.0000 0.0000 0.0000 21.3010 0.0000
# 6 0.0000 0.0000 0.0000 0.0000 0.0000 32.5134
#
#
#
# Elastic Compliance Matrix: (Units=1/GPa)
#
#
# Indices 1 2 3 4 5 6 
#
# 1 0.014134 -0.006871 -0.003805 0.000000 0.000000 0.000000
# 2 -0.006871 0.012447 -0.004338 0.000000 0.000000 0.000000
# 3 -0.003805 -0.004338 0.023408 0.000000 0.000000 0.000000
# 4 0.000000 0.000000 0.000000 0.036278 0.000000 0.000000
# 5 0.000000 0.000000 0.000000 0.000000 0.046946 0.000000
# 6 0.000000 0.000000 0.000000 0.000000 0.000000 0.030757
#
#
# Mechanical properties :
#
#
# Convention : Reuss Voigt Hill
#
# Bulk Modulus (GPa) = 50.09971 66.55834 58.32903
# Shear Modulus (GPa) = 24.91890 26.97899 25.94894
#
# Velocity S-wave (km/s) = 3.70466 3.85475 3.78045
# Velocity P-wave (km/s) = 6.77440 7.51466 7.15411
#
# Compressibility (1/GPa) = 0.01996019
#
# Stress axis : x y z
#
# Youngs Moduli (GPa) = 70.75380 80.34276 42.71994
#
# Poissons Ratio (x) = 0.55205 0.16255
# Poissons Ratio (y) = 0.48616 0.18532
# Poissons Ratio (z) = 0.26922 0.34852
#
# Static dielectric constant tensor:
#      x y z
#    x 3.331400 0.000000 0.000000 
#    y 0.000000 3.527830 0.000000 
#    z 0.000000 0.000000 3.096300 
# 
# 
# High freq. dielectric constant tensor:
#      x y z
#    x 1.689060 0.000000 0.000000 
#    y 0.000000 1.717810 0.000000 
#    z 0.000000 0.000000 1.683050 
# 
# From -- ./inp_files/4311.got.cif
#   From: 2010.06.25/outbox.cif.g09.slc.cpg/sg58_3_cif.got.tgz:4311.got - 2010.06.26 21:38:00.
