data_PCOD8237394
_publ_section_title
;
Structure prediction by ZEFSAII (Michael W. Deem and Ramdas Pophale) SiO2 
 PCOD8237394
Probable space group: P N N M
;
_chemical_formula_sum "Si O2"
_cell_formula_units_Z 64
_cell_length_a 13.569283
_cell_length_b 16.902589
_cell_length_c 14.869778
_cell_angle_alpha 90.000000
_cell_angle_beta 90.000000
_cell_angle_gamma 90.000000
_cell_volume 3410.473005
_symmetry_space_group_name_H-M "P N N M"
_symmetry_group_IT_number 58
_symmetry_cell_setting 'orthorhombic'
loop_
_space_group_symop_operation_xyz
x,y,z
-x,-y,z
1/2+x,1/2-y,1/2-z
1/2-x,1/2+y,1/2-z
-x,-y,-z
x,y,-z
1/2-x,1/2+y,1/2+z
1/2+x,1/2-y,1/2+z
loop_
_atom_site_type_symbol
_atom_site_label
_atom_site_fract_x
_atom_site_fract_y
_atom_site_fract_z
Si Si1 0.435195 0.216095 0.605321
Si Si2 0.608992 0.969607 0.104066
Si Si3 0.395718 0.035785 0.604539
Si Si4 0.754159 0.024038 0.252045
Si Si5 0.135272 0.218144 0.898481
Si Si6 0.850897 0.289066 0.605908
Si Si7 0.392458 0.332016 0.754799
Si Si8 0.935943 0.930265 0.812557
O O1 0.425456 0.238784 0.500000
O O2 0.395371 0.129075 0.624875
O O3 0.550879 0.221624 0.636219
O O4 0.375655 0.279837 0.664258
O O5 0.613443 0.877173 0.129891
O O6 0.500000 0.000000 0.125536
O O7 0.686312 0.019012 0.163240
O O8 0.637500 0.982856 0.000000
O O9 0.377027 0.017598 0.500000
O O10 0.500000 0.000000 0.635560
O O11 0.308050 0.995645 0.659266
O O12 0.796217 0.112577 0.263132
O O13 0.844013 0.962427 0.244424
O O14 0.241337 0.225344 0.851475
O O15 0.099463 0.127397 0.891358
O O16 0.158369 0.237983 0.000000
O O17 0.860912 0.273363 0.500000
O O18 0.913460 0.224533 0.659811
O O19 0.492096 0.383265 0.754596
O O20 0.000000 0.000000 0.858592
#
# Coordination Sequence:
#
# PCOD8237394 Si02
#       8
#     8   8   8   8   8   8   8   8
#     4   9  19  36  55  81 115 143 180 235 287 332
#     4  10  21  38  58  83 115 146 183 229 276 336
#     4  10  22  38  57  82 112 145 188 240 282 327
#     4  11  21  36  58  82 110 150 188 226 283 334
#     4   9  17  31  55  81 106 143 179 224 280 327
#     4  10  20  36  57  81 111 148 189 229 273 328
#     4  10  22  36  55  83 112 147 185 232 277 334
#     4   9  19  35  52  76 110 141 181 227 270 327
#
# _framework density 18.765725
#
# number of rings (size 3 to 8) (size 9 to 14) (size 15 to 20)
#    0.000    2.250    1.250    1.125    1.750    1.250 
#    2.250    3.125    0.000    5.250    0.000    0.000 
#    0.000    0.000    0.000    0.000    0.000    0.000 
#
# Total GULP energy -793290.951403 kJ/mol
# GULP energy per Si atom -12395.171116 kJ/mol
# Density = 1.872301 g / cm^3
# Si number density = 18.765725 Si / 1000 Ang^3
#
#
#
# Elastic Constant Matrix: (Units=GPa)
#
#
# Indices 1 2 3 4 5 6 
#
# 1 99.3251 45.2455 39.6445 0.0000 0.0000 0.0000
# 2 45.2455 93.0487 41.2080 0.0000 0.0000 0.0000
# 3 39.6445 41.2080 70.7338 0.0000 0.0000 0.0000
# 4 0.0000 0.0000 0.0000 27.8989 0.0000 0.0000
# 5 0.0000 0.0000 0.0000 0.0000 21.2837 0.0000
# 6 0.0000 0.0000 0.0000 0.0000 0.0000 29.1311
#
#
#
# Elastic Compliance Matrix: (Units=1/GPa)
#
#
# Indices 1 2 3 4 5 6 
#
# 1 0.014286 -0.004583 -0.005337 0.000000 0.000000 0.000000
# 2 -0.004583 0.015954 -0.006726 0.000000 0.000000 0.000000
# 3 -0.005337 -0.006726 0.021047 0.000000 0.000000 0.000000
# 4 0.000000 0.000000 0.000000 0.035844 0.000000 0.000000
# 5 0.000000 0.000000 0.000000 0.000000 0.046984 0.000000
# 6 0.000000 0.000000 0.000000 0.000000 0.000000 0.034328
#
#
# Mechanical properties :
#
#
# Convention : Reuss Voigt Hill
#
# Bulk Modulus (GPa) = 55.56950 57.25594 56.41272
# Shear Modulus (GPa) = 24.06938 24.79672 24.43305
#
# Velocity S-wave (km/s) = 3.58526 3.63903 3.61224
# Velocity P-wave (km/s) = 6.84217 6.94506 6.89381
#
# Compressibility (1/GPa) = 0.01799548
#
# Stress axis : x y z
#
# Youngs Moduli (GPa) = 69.99958 62.67910 47.51262
#
# Poissons Ratio (x) = 0.28726 0.25357
# Poissons Ratio (y) = 0.32081 0.31957
# Poissons Ratio (z) = 0.37358 0.42158
#
# Static dielectric constant tensor:
#      x y z
#    x 3.624930 0.000000 0.000000 
#    y 0.000000 3.559710 0.000000 
#    z 0.000000 0.000000 3.248870 
# 
# 
# High freq. dielectric constant tensor:
#      x y z
#    x 1.729890 0.000000 0.000000 
#    y 0.000000 1.736530 0.000000 
#    z 0.000000 0.000000 1.713010 
# 
# From -- ./inp_files/21533.got.cif
#   From: 2010.06.25/outbox.cif.g09.slc.cpg/sg58_11_cif.got.tgz:21533.got - 2010.06.26 21:38:00.
