data_PCOD8237977
_publ_section_title
;
Structure prediction by ZEFSAII (Michael W. Deem and Ramdas Pophale) SiO2 
 PCOD8237977
Probable space group: P N N M
;
_chemical_formula_sum "Si O2"
_cell_formula_units_Z 48
_cell_length_a 31.668735
_cell_length_b 9.421823
_cell_length_c 7.960012
_cell_angle_alpha 90.000000
_cell_angle_beta 90.000000
_cell_angle_gamma 90.000000
_cell_volume 2375.086218
_symmetry_space_group_name_H-M "P N N M"
_symmetry_group_IT_number 58
_symmetry_cell_setting 'orthorhombic'
loop_
_space_group_symop_operation_xyz
x,y,z
-x,-y,z
1/2+x,1/2-y,1/2-z
1/2-x,1/2+y,1/2-z
-x,-y,-z
x,y,-z
1/2-x,1/2+y,1/2+z
1/2+x,1/2-y,1/2+z
loop_
_atom_site_type_symbol
_atom_site_label
_atom_site_fract_x
_atom_site_fract_y
_atom_site_fract_z
Si Si1 0.629909 0.022406 0.190751
Si Si2 0.791695 0.356611 0.696319
Si Si3 0.563788 0.404754 0.500000
Si Si4 0.524424 0.710954 0.500000
Si Si5 0.041533 0.592297 0.304067
Si Si6 0.358902 0.672921 0.685536
Si Si7 0.212331 0.966832 0.800812
O O1 0.665238 0.921245 0.278809
O O2 0.582601 0.996237 0.258641
O O3 0.642703 0.186762 0.202816
O O4 0.629017 0.976171 0.000000
O O5 0.792107 0.386377 0.500000
O O6 0.752063 0.444344 0.770763
O O7 0.787209 0.190436 0.727706
O O8 0.544516 0.558172 0.500000
O O9 0.526409 0.290139 0.500000
O O10 0.592825 0.383127 0.666744
O O11 0.539650 0.778550 0.325387
O O12 0.044543 0.642810 0.500000
O O13 0.000000 0.500000 0.277560
O O14 0.341088 0.713925 0.500000
O O15 0.329616 0.549500 0.763885
O O16 0.212213 0.953557 0.000000
#
# Coordination Sequence:
#
# PCOD8237977 Si02
#       7
#     8   8   4   4   8   8   8
#     4  10  21  36  55  84 116 149 196 245 293 359
#     4  10  22  37  56  83 116 149 190 243 295 354
#     4   9  22  38  56  90 116 153 202 253 289 375
#     4  11  21  38  64  84 127 164 201 258 315 348
#     4  10  22  37  59  90 121 158 209 253 303 370
#     4   9  20  36  56  79 114 147 193 240 289 350
#     4  10  21  37  57  82 113 148 192 239 289 358
#
# _framework density 20.209793000000001
#
# number of rings (size 3 to 8) (size 9 to 14) (size 15 to 20)
#    0.500    1.667    0.000    2.250    3.500    2.000 
#    0.000    2.500    0.000    0.000    0.000    0.000 
#    0.000    0.000    0.000    0.000    0.000    0.000 
#
# Total GULP energy -594819.208580 kJ/mol
# GULP energy per Si atom -12392.066845 kJ/mol
# Density = 2.016379 g / cm^3
# Si number density = 20.209793 Si / 1000 Ang^3
#
#
#
# Elastic Constant Matrix: (Units=GPa)
#
#
# Indices 1 2 3 4 5 6 
#
# 1 167.9593 79.0083 10.5515 0.0000 0.0000 0.0000
# 2 79.0083 136.3469 12.6875 0.0000 0.0000 0.0000
# 3 10.5515 12.6875 38.8913 0.0000 0.0000 0.0000
# 4 0.0000 0.0000 0.0000 30.8657 0.0000 0.0000
# 5 0.0000 0.0000 0.0000 0.0000 9.1441 0.0000
# 6 0.0000 0.0000 0.0000 0.0000 0.0000 41.0381
#
#
#
# Elastic Compliance Matrix: (Units=1/GPa)
#
#
# Indices 1 2 3 4 5 6 
#
# 1 0.008203 -0.004689 -0.000696 0.000000 0.000000 0.000000
# 2 -0.004689 0.010244 -0.002070 0.000000 0.000000 0.000000
# 3 -0.000696 -0.002070 0.026577 0.000000 0.000000 0.000000
# 4 0.000000 0.000000 0.000000 0.032398 0.000000 0.000000
# 5 0.000000 0.000000 0.000000 0.000000 0.109360 0.000000
# 6 0.000000 0.000000 0.000000 0.000000 0.000000 0.024368
#
#
# Mechanical properties :
#
#
# Convention : Reuss Voigt Hill
#
# Bulk Modulus (GPa) = 33.20622 60.85467 47.03045
# Shear Modulus (GPa) = 21.17778 32.27293 26.72535
#
# Velocity S-wave (km/s) = 3.24064 4.00045 3.64042
# Velocity P-wave (km/s) = 5.51985 7.17740 6.40249
#
# Compressibility (1/GPa) = 0.03011484
#
# Stress axis : x y z
#
# Youngs Moduli (GPa) = 121.90531 97.62067 37.62686
#
# Poissons Ratio (x) = 0.45771 0.02619
# Poissons Ratio (y) = 0.57157 0.07788
# Poissons Ratio (z) = 0.08484 0.20205
#
# Static dielectric constant tensor:
#      x y z
#    x 4.278110 0.000000 0.000000 
#    y 0.000000 3.480480 0.000000 
#    z 0.000000 0.000000 3.365120 
# 
# 
# High freq. dielectric constant tensor:
#      x y z
#    x 1.811300 0.000000 0.000000 
#    y 0.000000 1.786720 0.000000 
#    z 0.000000 0.000000 1.761480 
# 
# From -- ./inp_files/10763.got.cif
#   From: 2010.06.25/outbox.cif.g09.slc.cpg/sg58_6_cif.got.tgz:10763.got - 2010.06.26 21:38:00.
