data_PCOD8237169
_publ_section_title
;
Structure prediction by ZEFSAII (Michael W. Deem and Ramdas Pophale) SiO2 
 PCOD8237169
Probable space group: P N N M
;
_chemical_formula_sum "Si O2"
_cell_formula_units_Z 40
_cell_length_a 25.771541
_cell_length_b 10.019305
_cell_length_c 7.705068
_cell_angle_alpha 90.000000
_cell_angle_beta 90.000000
_cell_angle_gamma 90.000000
_cell_volume 1989.548181
_symmetry_space_group_name_H-M "P N N M"
_symmetry_group_IT_number 58
_symmetry_cell_setting 'orthorhombic'
loop_
_space_group_symop_operation_xyz
x,y,z
-x,-y,z
1/2+x,1/2-y,1/2-z
1/2-x,1/2+y,1/2-z
-x,-y,-z
x,y,-z
1/2-x,1/2+y,1/2+z
1/2+x,1/2-y,1/2+z
loop_
_atom_site_type_symbol
_atom_site_label
_atom_site_fract_x
_atom_site_fract_y
_atom_site_fract_z
Si Si1 0.548696 0.595933 0.500000
Si Si2 0.627984 0.542727 0.199471
Si Si3 0.290740 0.248548 0.806165
Si Si4 0.824180 0.772503 0.205815
Si Si5 0.549008 0.904278 0.500000
Si Si6 0.355984 0.013963 0.690674
O O1 0.500000 0.500000 0.500000
O O2 0.579277 0.564820 0.323606
O O3 0.531070 0.750703 0.500000
O O4 0.674181 0.635318 0.279359
O O5 0.645359 0.389850 0.199649
O O6 0.614061 0.583180 0.000000
O O7 0.234544 0.232851 0.717095
O O8 0.322664 0.110685 0.811180
O O9 0.279128 0.295539 0.000000
O O10 0.853591 0.636738 0.261542
O O11 0.825713 0.798801 0.000000
O O12 0.584116 0.936512 0.671615
O O13 0.500000 0.000000 0.500000
O O14 0.329036 0.017513 0.500000
#
# Coordination Sequence:
#
# PCOD8237169 Si02
#       6
#     4   8   8   8   4   8
#     4  12  26  44  74  92 124 170 212 278 333 370
#     4  11  23  42  63  94 132 165 211 268 316 381
#     4  10  20  35  56  88 128 168 209 248 312 373
#     4  10  20  34  58  91 128 173 206 248 302 384
#     4  10  22  40  68  92 110 166 216 262 329 378
#     4   9  19  36  58  82 121 154 205 261 304 368
#
# _framework density 20.105066999999998
#
# number of rings (size 3 to 8) (size 9 to 14) (size 15 to 20)
#    0.600    1.200    3.000    1.200    2.800    3.600 
#    0.000    0.000    0.000    1.200    0.000    0.000 
#    0.000    0.000    0.000    0.000    0.000    0.000 
#
# Total GULP energy -495800.846105 kJ/mol
# GULP energy per Si atom -12395.021153 kJ/mol
# Density = 2.005931 g / cm^3
# Si number density = 20.105067 Si / 1000 Ang^3
#
#
#
# Elastic Constant Matrix: (Units=GPa)
#
#
# Indices 1 2 3 4 5 6 
#
# 1 123.1460 64.2360 29.0566 0.0000 0.0000 0.0000
# 2 64.2360 175.1268 16.2032 0.0000 0.0000 0.0000
# 3 29.0566 16.2032 61.7807 0.0000 0.0000 0.0000
# 4 0.0000 0.0000 0.0000 20.8455 0.0000 0.0000
# 5 0.0000 0.0000 0.0000 0.0000 24.0475 0.0000
# 6 0.0000 0.0000 0.0000 0.0000 0.0000 45.9247
#
#
#
# Elastic Compliance Matrix: (Units=1/GPa)
#
#
# Indices 1 2 3 4 5 6 
#
# 1 0.011023 -0.003652 -0.004226 0.000000 0.000000 0.000000
# 2 -0.003652 0.007062 -0.000135 0.000000 0.000000 0.000000
# 3 -0.004226 -0.000135 0.018209 0.000000 0.000000 0.000000
# 4 0.000000 0.000000 0.000000 0.047972 0.000000 0.000000
# 5 0.000000 0.000000 0.000000 0.000000 0.041584 0.000000
# 6 0.000000 0.000000 0.000000 0.000000 0.000000 0.021775
#
#
# Mechanical properties :
#
#
# Convention : Reuss Voigt Hill
#
# Bulk Modulus (GPa) = 49.33832 64.33834 56.83833
# Shear Modulus (GPa) = 29.34145 34.86735 32.10440
#
# Velocity S-wave (km/s) = 3.82436 4.16896 4.00037
# Velocity P-wave (km/s) = 6.64037 7.43264 7.04765
#
# Compressibility (1/GPa) = 0.02026822
#
# Stress axis : x y z
#
# Youngs Moduli (GPa) = 90.72223 141.59980 54.91693
#
# Poissons Ratio (x) = 0.51713 0.23210
# Poissons Ratio (y) = 0.33132 0.00739
# Poissons Ratio (z) = 0.38342 0.01906
#
# Static dielectric constant tensor:
#      x y z
#    x 3.537290 0.000000 0.000000 
#    y 0.000000 3.752190 0.000000 
#    z 0.000000 0.000000 3.377540 
# 
# 
# High freq. dielectric constant tensor:
#      x y z
#    x 1.765370 0.000000 0.000000 
#    y 0.000000 1.803280 0.000000 
#    z 0.000000 0.000000 1.759370 
# 
# From -- ./inp_files/10289.got.cif
#   From: 2010.06.25/outbox.cif.g09.slc.cpg/sg58_6_cif.got.tgz:10289.got - 2010.06.26 21:38:00.
