data_PCOD8237167
_publ_section_title
;
Structure prediction by ZEFSAII (Michael W. Deem and Ramdas Pophale) SiO2 
 PCOD8237167
Probable space group: P N N M
;
_chemical_formula_sum "Si O2"
_cell_formula_units_Z 64
_cell_length_a 11.143207
_cell_length_b 32.438418
_cell_length_c 8.970639
_cell_angle_alpha 90.000000
_cell_angle_beta 90.000000
_cell_angle_gamma 90.000000
_cell_volume 3242.598997
_symmetry_space_group_name_H-M "P N N M"
_symmetry_group_IT_number 58
_symmetry_cell_setting 'orthorhombic'
loop_
_space_group_symop_operation_xyz
x,y,z
-x,-y,z
1/2+x,1/2-y,1/2-z
1/2-x,1/2+y,1/2-z
-x,-y,-z
x,y,-z
1/2-x,1/2+y,1/2+z
1/2+x,1/2-y,1/2+z
loop_
_atom_site_type_symbol
_atom_site_label
_atom_site_fract_x
_atom_site_fract_y
_atom_site_fract_z
Si Si1 0.389345 0.638301 0.324749
Si Si2 0.404751 0.405986 0.833189
Si Si3 0.474571 0.281915 0.324592
Si Si4 0.862505 0.014339 0.172751
Si Si5 0.648034 0.884976 0.676847
Si Si6 0.611289 0.970026 0.174717
Si Si7 0.494155 0.809179 0.676566
Si Si8 0.768333 0.175237 0.665910
O O1 0.360240 0.635774 0.500000
O O2 0.496654 0.607146 0.287806
O O3 0.423652 0.685043 0.272483
O O4 0.283523 0.620667 0.226637
O O5 0.339294 0.446730 0.776970
O O6 0.301536 0.372277 0.838104
O O7 0.459475 0.411864 0.000000
O O8 0.480771 0.279285 0.500000
O O9 0.488350 0.236516 0.253318
O O10 0.345684 0.297961 0.277917
O O11 0.748768 0.984785 0.213260
O O12 0.854002 0.026322 0.000000
O O13 0.000000 0.000000 0.209334
O O14 0.638178 0.888111 0.500000
O O15 0.590694 0.926423 0.744005
O O16 0.583341 0.843808 0.740319
O O17 0.500000 0.000000 0.224888
O O18 0.601163 0.962288 0.000000
O O19 0.508795 0.806816 0.500000
O O20 0.364535 0.823480 0.728239
O O21 0.778864 0.194691 0.500000
#
# Coordination Sequence:
#
# PCOD8237167 Si02
#       8
#     8   8   8   8   8   8   8   8
#     4  10  20  36  59  85 119 156 193 236 284 341
#     4  10  20  34  58  88 115 146 188 235 285 339
#     4   9  19  36  57  82 111 150 192 234 282 333
#     4  10  21  37  59  84 112 150 192 239 293 345
#     4  11  23  38  60  86 116 153 194 238 289 346
#     4  10  23  42  61  85 120 158 197 243 296 355
#     4   9  20  37  56  80 115 152 186 231 287 340
#     4   9  19  36  56  79 112 148 184 229 281 335
#
# _framework density 19.737254
#
# number of rings (size 3 to 8) (size 9 to 14) (size 15 to 20)
#    0.000    2.250    0.000    1.875    3.500    3.000 
#    0.000    2.500    0.000    0.000    0.000    0.000 
#    0.000    0.000    0.000    0.000    0.000    0.000 
#
# Total GULP energy -793135.903586 kJ/mol
# GULP energy per Si atom -12392.748494 kJ/mol
# Density = 1.969233 g / cm^3
# Si number density = 19.737254 Si / 1000 Ang^3
#
#
#
# Elastic Constant Matrix: (Units=GPa)
#
#
# Indices 1 2 3 4 5 6 
#
# 1 77.4214 37.7010 12.3385 0.0000 0.0000 0.0000
# 2 37.7010 134.8141 41.7217 0.0000 0.0000 0.0000
# 3 12.3385 41.7217 33.2084 0.0000 0.0000 0.0000
# 4 0.0000 0.0000 0.0000 26.4891 0.0000 0.0000
# 5 0.0000 0.0000 0.0000 0.0000 21.2432 0.0000
# 6 0.0000 0.0000 0.0000 0.0000 0.0000 19.8726
#
#
#
# Elastic Compliance Matrix: (Units=1/GPa)
#
#
# Indices 1 2 3 4 5 6 
#
# 1 0.014957 -0.004030 -0.000494 0.000000 0.000000 0.000000
# 2 -0.004030 0.013222 -0.015115 0.000000 0.000000 0.000000
# 3 -0.000494 -0.015115 0.049286 0.000000 0.000000 0.000000
# 4 0.000000 0.000000 0.000000 0.037751 0.000000 0.000000
# 5 0.000000 0.000000 0.000000 0.000000 0.047074 0.000000
# 6 0.000000 0.000000 0.000000 0.000000 0.000000 0.050321
#
#
# Mechanical properties :
#
#
# Convention : Reuss Voigt Hill
#
# Bulk Modulus (GPa) = 26.18634 47.66293 36.92463
# Shear Modulus (GPa) = 18.89513 23.76649 21.33081
#
# Velocity S-wave (km/s) = 3.09744 3.47384 3.29102
# Velocity P-wave (km/s) = 5.10768 6.34754 5.76106
#
# Compressibility (1/GPa) = 0.03818785
#
# Stress axis : x y z
#
# Youngs Moduli (GPa) = 66.85614 75.63054 20.28975
#
# Poissons Ratio (x) = 0.30478 0.01003
# Poissons Ratio (y) = 0.26942 0.30667
# Poissons Ratio (z) = 0.03306 1.14312
#
# Static dielectric constant tensor:
#      x y z
#    x 3.637620 0.000000 0.000000 
#    y 0.000000 3.896380 0.000000 
#    z 0.000000 0.000000 3.432850 
# 
# 
# High freq. dielectric constant tensor:
#      x y z
#    x 1.769490 0.000000 0.000000 
#    y 0.000000 1.780760 0.000000 
#    z 0.000000 0.000000 1.752930 
# 
# From -- ./inp_files/4772.got.cif
#   From: 2010.06.25/outbox.cif.g09.slc.cpg/sg58_3_cif.got.tgz:4772.got - 2010.06.26 21:38:00.
