data_PCOD8237444
_publ_section_title
;
Structure prediction by ZEFSAII (Michael W. Deem and Ramdas Pophale) SiO2 
 PCOD8237444
Probable space group: P N N M
;
_chemical_formula_sum "Si O2"
_cell_formula_units_Z 56
_cell_length_a 18.669476
_cell_length_b 17.153915
_cell_length_c 9.160652
_cell_angle_alpha 90.000000
_cell_angle_beta 90.000000
_cell_angle_gamma 90.000000
_cell_volume 2933.740982
_symmetry_space_group_name_H-M "P N N M"
_symmetry_group_IT_number 58
_symmetry_cell_setting 'orthorhombic'
loop_
_space_group_symop_operation_xyz
x,y,z
-x,-y,z
1/2+x,1/2-y,1/2-z
1/2-x,1/2+y,1/2-z
-x,-y,-z
x,y,-z
1/2-x,1/2+y,1/2+z
1/2+x,1/2-y,1/2+z
loop_
_atom_site_type_symbol
_atom_site_label
_atom_site_fract_x
_atom_site_fract_y
_atom_site_fract_z
Si Si1 0.130050 0.682153 0.326588
Si Si2 0.595409 0.381768 0.327112
Si Si3 0.954542 0.169120 0.332698
Si Si4 0.151300 0.971004 0.665949
Si Si5 0.305029 0.910387 0.328309
Si Si6 0.918287 0.486079 0.672221
Si Si7 0.282857 0.735417 0.326372
O O1 0.134256 0.681933 0.500000
O O2 0.071909 0.746407 0.277517
O O3 0.105577 0.598266 0.266927
O O4 0.208140 0.702879 0.261578
O O5 0.592548 0.383860 0.500000
O O6 0.518337 0.358047 0.269126
O O7 0.615266 0.467377 0.272508
O O8 0.653768 0.320075 0.269372
O O9 0.981280 0.171704 0.500000
O O10 0.887614 0.111477 0.316520
O O11 0.144123 0.001242 0.500000
O O12 0.233930 0.959358 0.709656
O O13 0.319930 0.910422 0.500000
O O14 0.296625 0.822504 0.268651
O O15 0.372032 0.947241 0.247040
O O16 0.906645 0.491844 0.500000
O O17 0.000000 0.500000 0.716442
O O18 0.279018 0.735783 0.500000
#
# Coordination Sequence:
#
# PCOD8237444 Si02
#       7
#     8   8   8   8   8   8   8
#     4   9  17  35  59  78 105 148 191 225 268 331
#     4  11  23  35  54  84 117 146 176 223 284 337
#     4  10  20  36  59  82 107 146 189 227 266 324
#     4  10  20  37  59  82 107 142 190 231 269 327
#     4  10  20  37  60  82 106 141 191 238 274 322
#     4  10  22  37  56  86 119 150 186 229 284 345
#     4   9  18  35  57  80 106 146 191 226 270 333
#
# _framework density 19.088256000000001
#
# number of rings (size 3 to 8) (size 9 to 14) (size 15 to 20)
#    0.000    2.143    1.429    1.714    2.000    4.286 
#    0.000    1.429    0.000    2.571    0.000    0.000 
#    0.000    0.000    0.000    0.000    0.000    0.000 
#
# Total GULP energy -694558.719270 kJ/mol
# GULP energy per Si atom -12402.834273 kJ/mol
# Density = 1.904481 g / cm^3
# Si number density = 19.088256 Si / 1000 Ang^3
#
#
#
# Elastic Constant Matrix: (Units=GPa)
#
#
# Indices 1 2 3 4 5 6 
#
# 1 129.9663 55.8808 36.7575 0.0000 0.0000 0.0000
# 2 55.8808 126.1775 27.2037 0.0000 0.0000 0.0000
# 3 36.7575 27.2037 40.3288 0.0000 0.0000 0.0000
# 4 0.0000 0.0000 0.0000 22.5370 0.0000 0.0000
# 5 0.0000 0.0000 0.0000 0.0000 19.6806 0.0000
# 6 0.0000 0.0000 0.0000 0.0000 0.0000 31.2510
#
#
#
# Elastic Compliance Matrix: (Units=1/GPa)
#
#
# Indices 1 2 3 4 5 6 
#
# 1 0.011428 -0.003295 -0.008194 0.000000 0.000000 0.000000
# 2 -0.003295 0.010224 -0.003894 0.000000 0.000000 0.000000
# 3 -0.008194 -0.003894 0.034891 0.000000 0.000000 0.000000
# 4 0.000000 0.000000 0.000000 0.044372 0.000000 0.000000
# 5 0.000000 0.000000 0.000000 0.000000 0.050812 0.000000
# 6 0.000000 0.000000 0.000000 0.000000 0.000000 0.031999
#
#
# Mechanical properties :
#
#
# Convention : Reuss Voigt Hill
#
# Bulk Modulus (GPa) = 38.79157 59.57296 49.18226
# Shear Modulus (GPa) = 22.41324 26.46907 24.44116
#
# Velocity S-wave (km/s) = 3.43036 3.72784 3.58219
# Velocity P-wave (km/s) = 6.00468 7.05734 6.55218
#
# Compressibility (1/GPa) = 0.02577880
#
# Stress axis : x y z
#
# Youngs Moduli (GPa) = 87.50190 97.80961 28.66084
#
# Poissons Ratio (x) = 0.32226 0.23484
# Poissons Ratio (y) = 0.28830 0.11159
# Poissons Ratio (z) = 0.71698 0.38083
#
# Static dielectric constant tensor:
#      x y z
#    x 3.588920 0.000000 0.000000 
#    y 0.000000 3.689320 0.000000 
#    z 0.000000 0.000000 3.125950 
# 
# 
# High freq. dielectric constant tensor:
#      x y z
#    x 1.755670 0.000000 0.000000 
#    y 0.000000 1.757210 0.000000 
#    z 0.000000 0.000000 1.704390 
# 
# From -- ./inp_files/8993.got.cif
#   From: 2010.06.25/outbox.cif.g09.slc.cpg/sg58_5_cif.got.tgz:8993.got - 2010.06.26 21:38:00.
