data_PCOD8237000
_publ_section_title
;
Structure prediction by ZEFSAII (Michael W. Deem and Ramdas Pophale) SiO2 
 PCOD8237000
Probable space group: P N N M
;
_chemical_formula_sum "Si O2"
_cell_formula_units_Z 64
_cell_length_a 19.732848
_cell_length_b 19.309862
_cell_length_c 9.307276
_cell_angle_alpha 90.000000
_cell_angle_beta 90.000000
_cell_angle_gamma 90.000000
_cell_volume 3546.431154
_symmetry_space_group_name_H-M "P N N M"
_symmetry_group_IT_number 58
_symmetry_cell_setting 'orthorhombic'
loop_
_space_group_symop_operation_xyz
x,y,z
-x,-y,z
1/2+x,1/2-y,1/2-z
1/2-x,1/2+y,1/2-z
-x,-y,-z
x,y,-z
1/2-x,1/2+y,1/2+z
1/2+x,1/2-y,1/2+z
loop_
_atom_site_type_symbol
_atom_site_label
_atom_site_fract_x
_atom_site_fract_y
_atom_site_fract_z
Si Si1 0.152819 0.038921 0.667009
Si Si2 0.858838 0.245592 0.167006
Si Si3 0.964486 0.595746 0.331904
Si Si4 0.624488 0.590919 0.669620
Si Si5 0.606158 0.964657 0.830244
Si Si6 0.987049 0.891811 0.666496
Si Si7 0.494042 0.238283 0.165459
Si Si8 0.216281 0.619844 0.166451
O O1 0.155488 0.019055 0.500000
O O2 0.078694 0.065506 0.712134
O O3 0.206084 0.100148 0.702148
O O4 0.169423 0.969802 0.758846
O O5 0.841588 0.165632 0.208252
O O6 0.925379 0.270724 0.247465
O O7 0.798211 0.299254 0.207599
O O8 0.876073 0.248824 0.000000
O O9 0.965454 0.582634 0.500000
O O10 0.904848 0.544871 0.276137
O O11 0.039250 0.575497 0.276652
O O12 0.953273 0.676693 0.291078
O O13 0.620598 0.579114 0.500000
O O14 0.549181 0.585373 0.734903
O O15 0.670826 0.933637 0.753119
O O16 0.618721 0.958553 0.000000
O O17 0.006406 0.905200 0.500000
O O18 0.969609 0.811151 0.693734
O O19 0.472866 0.229893 0.000000
O O20 0.200065 0.608465 0.000000
#
# Coordination Sequence:
#
# PCOD8237000 Si02
#       8
#     8   8   8   8   8   8   8   8
#     4  10  21  36  51  70  99 133 164 200 244 292
#     4   9  18  32  49  72  99 125 155 196 244 287
#     4   8  14  25  44  71 101 126 156 203 246 279
#     4  10  20  34  54  78 100 123 159 206 250 292
#     4   9  16  28  46  69  98 130 163 201 243 285
#     4   9  18  32  52  75  97 125 164 206 249 293
#     4   9  15  27  49  74  96 123 162 201 239 287
#     4  10  20  34  50  69  99 134 167 200 238 290
#
# _framework density 18.046310999999999
#
# number of rings (size 3 to 8) (size 9 to 14) (size 15 to 20)
#    0.000    2.750    1.250    1.500    0.000    3.000 
#    0.000    3.125    0.000    4.500    0.000    0.000 
#    0.000    0.000    0.000    0.000    0.000    0.000 
#
# Total GULP energy -793032.676706 kJ/mol
# GULP energy per Si atom -12391.135574 kJ/mol
# Density = 1.800524 g / cm^3
# Si number density = 18.046311 Si / 1000 Ang^3
#
#
#
# Elastic Constant Matrix: (Units=GPa)
#
#
# Indices 1 2 3 4 5 6 
#
# 1 60.1655 47.4668 29.6185 0.0000 0.0000 0.0000
# 2 47.4668 151.7492 43.4749 0.0000 0.0000 0.0000
# 3 29.6185 43.4749 45.2903 0.0000 0.0000 0.0000
# 4 0.0000 0.0000 0.0000 61.5710 0.0000 0.0000
# 5 0.0000 0.0000 0.0000 0.0000 19.2504 0.0000
# 6 0.0000 0.0000 0.0000 0.0000 0.0000 28.1187
#
#
#
# Elastic Compliance Matrix: (Units=1/GPa)
#
#
# Indices 1 2 3 4 5 6 
#
# 1 0.026665 -0.004614 -0.013009 0.000000 0.000000 0.000000
# 2 -0.004614 0.009888 -0.006474 0.000000 0.000000 0.000000
# 3 -0.013009 -0.006474 0.036802 0.000000 0.000000 0.000000
# 4 0.000000 0.000000 0.000000 0.016241 0.000000 0.000000
# 5 0.000000 0.000000 0.000000 0.000000 0.051947 0.000000
# 6 0.000000 0.000000 0.000000 0.000000 0.000000 0.035563
#
#
# Mechanical properties :
#
#
# Convention : Reuss Voigt Hill
#
# Bulk Modulus (GPa) = 39.74485 55.36948 47.55717
# Shear Modulus (GPa) = 21.39599 30.89767 26.14683
#
# Velocity S-wave (km/s) = 3.44701 4.14228 3.81054
# Velocity P-wave (km/s) = 6.15745 7.32301 6.76538
#
# Compressibility (1/GPa) = 0.02516049
#
# Stress axis : x y z
#
# Youngs Moduli (GPa) = 37.50226 101.13483 27.17223
#
# Poissons Ratio (x) = 0.46661 0.35349
# Poissons Ratio (y) = 0.17302 0.17592
# Poissons Ratio (z) = 0.48788 0.65477
#
# Static dielectric constant tensor:
#      x y z
#    x 3.068500 0.000000 0.000000 
#    y 0.000000 3.851460 0.000000 
#    z 0.000000 0.000000 3.183260 
# 
# 
# High freq. dielectric constant tensor:
#      x y z
#    x 1.659650 0.000000 0.000000 
#    y 0.000000 1.722890 0.000000 
#    z 0.000000 0.000000 1.680220 
# 
# From -- ./inp_files/9419.got.cif
#   From: 2010.06.25/outbox.cif.g09.slc.cpg/sg58_5_cif.got.tgz:9419.got - 2010.06.26 21:38:00.
