data_PCOD8237898
_publ_section_title
;
Structure prediction by ZEFSAII (Michael W. Deem and Ramdas Pophale) SiO2 
 PCOD8237898
Probable space group: P N N M
;
_chemical_formula_sum "Si O2"
_cell_formula_units_Z 40
_cell_length_a 17.476383
_cell_length_b 9.279681
_cell_length_c 14.240697
_cell_angle_alpha 90.000000
_cell_angle_beta 90.000000
_cell_angle_gamma 90.000000
_cell_volume 2309.488728
_symmetry_space_group_name_H-M "P N N M"
_symmetry_group_IT_number 58
_symmetry_cell_setting 'orthorhombic'
loop_
_space_group_symop_operation_xyz
x,y,z
-x,-y,z
1/2+x,1/2-y,1/2-z
1/2-x,1/2+y,1/2-z
-x,-y,-z
x,y,-z
1/2-x,1/2+y,1/2+z
1/2+x,1/2-y,1/2+z
loop_
_atom_site_type_symbol
_atom_site_label
_atom_site_fract_x
_atom_site_fract_y
_atom_site_fract_z
Si Si1 0.603567 0.627113 0.105981
Si Si2 0.313471 0.176561 0.749063
Si Si3 0.169462 0.361935 0.264691
Si Si4 0.569150 0.306919 0.894621
Si Si5 0.408979 0.012842 0.390089
O O1 0.659474 0.710570 0.174030
O O2 0.521789 0.702587 0.109034
O O3 0.598093 0.462580 0.141204
O O4 0.636233 0.632162 0.000000
O O5 0.232367 0.239646 0.716554
O O6 0.298955 0.019420 0.795604
O O7 0.374156 0.156476 0.662120
O O8 0.098727 0.321884 0.330608
O O9 0.134866 0.375646 0.157971
O O10 0.598626 0.282034 0.000000
O O11 0.388766 0.018702 0.500000
O O12 0.500000 0.000000 0.374116
#
# Coordination Sequence:
#
# PCOD8237898 Si02
#       5
#     8   8   8   8   8
#     4   9  18  33  54  80 111 145 178 220 279 338
#     4  10  21  34  54  81 111 143 187 232 281 333
#     4  10  21  34  54  81 111 143 187 232 281 333
#     4   9  18  33  54  80 111 145 178 220 279 338
#     4   9  20  38  59  79 106 151 195 229 271 330
#
# _framework density 17.319851
#
# number of rings (size 3 to 8) (size 9 to 14) (size 15 to 20)
#    1.200    1.400    0.000    3.600    0.000    2.400 
#    0.000    2.000    0.000    3.600    0.000   14.000 
#    0.000    0.000    0.000    0.000    0.000    0.000 
#
# Total GULP energy -495567.170344 kJ/mol
# GULP energy per Si atom -12389.179259 kJ/mol
# Density = 1.728043 g / cm^3
# Si number density = 17.319851 Si / 1000 Ang^3
#
#
#
# Elastic Constant Matrix: (Units=GPa)
#
#
# Indices 1 2 3 4 5 6 
#
# 1 57.2088 6.5530 21.9647 0.0000 0.0000 0.0000
# 2 6.5530 38.2950 5.9455 0.0000 0.0000 0.0000
# 3 21.9647 5.9455 68.5896 0.0000 0.0000 0.0000
# 4 0.0000 0.0000 0.0000 27.8968 0.0000 0.0000
# 5 0.0000 0.0000 0.0000 0.0000 18.2983 0.0000
# 6 0.0000 0.0000 0.0000 0.0000 0.0000 38.9741
#
#
#
# Elastic Compliance Matrix: (Units=1/GPa)
#
#
# Indices 1 2 3 4 5 6 
#
# 1 0.020160 -0.002481 -0.006241 0.000000 0.000000 0.000000
# 2 -0.002481 0.026775 -0.001526 0.000000 0.000000 0.000000
# 3 -0.006241 -0.001526 0.016710 0.000000 0.000000 0.000000
# 4 0.000000 0.000000 0.000000 0.035846 0.000000 0.000000
# 5 0.000000 0.000000 0.000000 0.000000 0.054650 0.000000
# 6 0.000000 0.000000 0.000000 0.000000 0.000000 0.025658
#
#
# Mechanical properties :
#
#
# Convention : Reuss Voigt Hill
#
# Bulk Modulus (GPa) = 23.17568 25.89109 24.53338
# Shear Modulus (GPa) = 23.29061 25.67584 24.48323
#
# Velocity S-wave (km/s) = 3.67104 3.85444 3.76386
# Velocity P-wave (km/s) = 5.60168 5.89832 5.75191
#
# Compressibility (1/GPa) = 0.04314868
#
# Stress axis : x y z
#
# Youngs Moduli (GPa) = 49.60289 37.34881 59.84323
#
# Poissons Ratio (x) = 0.09266 0.37348
# Poissons Ratio (y) = 0.12306 0.09135
# Poissons Ratio (z) = 0.30957 0.05701
#
# Static dielectric constant tensor:
#      x y z
#    x 3.158430 0.000000 0.000000 
#    y 0.000000 3.074810 0.000000 
#    z 0.000000 0.000000 3.104520 
# 
# 
# High freq. dielectric constant tensor:
#      x y z
#    x 1.672640 0.000000 0.000000 
#    y 0.000000 1.657440 0.000000 
#    z 0.000000 0.000000 1.657230 
# 
# From -- ./inp_files/22622.got.cif
#   From: 2010.06.25/outbox.cif.g09.slc.cpg/sg58_12_cif.got.tgz:22622.got - 2010.06.26 21:38:00.
