data_PCOD8237403
_publ_section_title
;
Structure prediction by ZEFSAII (Michael W. Deem and Ramdas Pophale) SiO2 
 PCOD8237403
Probable space group: P N N M
;
_chemical_formula_sum "Si O2"
_cell_formula_units_Z 48
_cell_length_a 18.353304
_cell_length_b 8.536338
_cell_length_c 17.087695
_cell_angle_alpha 90.000000
_cell_angle_beta 90.000000
_cell_angle_gamma 90.000000
_cell_volume 2677.129284
_symmetry_space_group_name_H-M "P N N M"
_symmetry_group_IT_number 58
_symmetry_cell_setting 'orthorhombic'
loop_
_space_group_symop_operation_xyz
x,y,z
-x,-y,z
1/2+x,1/2-y,1/2-z
1/2-x,1/2+y,1/2-z
-x,-y,-z
x,y,-z
1/2-x,1/2+y,1/2+z
1/2+x,1/2-y,1/2+z
loop_
_atom_site_type_symbol
_atom_site_label
_atom_site_fract_x
_atom_site_fract_y
_atom_site_fract_z
Si Si1 0.075729 0.579698 0.910954
Si Si2 0.674017 0.974724 0.267730
Si Si3 0.044101 0.855203 0.180576
Si Si4 0.954338 0.651875 0.693215
Si Si5 0.080578 0.064200 0.411305
Si Si6 0.830321 0.123817 0.287582
O O1 0.144195 0.539724 0.856318
O O2 0.061937 0.763628 0.898913
O O3 0.000000 0.500000 0.884071
O O4 0.095818 0.538306 0.000000
O O5 0.674720 0.813571 0.217270
O O6 0.621937 0.099556 0.228360
O O7 0.753768 0.044651 0.271414
O O8 0.116242 0.929561 0.218424
O O9 0.003913 0.745638 0.244582
O O10 0.000000 0.000000 0.149787
O O11 0.926376 0.761657 0.623376
O O12 0.000000 0.500000 0.663264
O O13 0.109010 0.076820 0.500000
O O14 0.135893 0.944181 0.368073
O O15 0.000000 0.000000 0.406000
#
# Coordination Sequence:
#
# PCOD8237403 Si02
#       6
#     8   8   8   8   8   8
#     4  10  20  36  57  84 114 149 187 228 288 344
#     4  11  22  35  61  85 114 152 195 242 285 350
#     4  11  19  35  61  85 112 149 190 247 278 341
#     4  12  18  37  60  87 113 150 197 242 283 344
#     4  11  22  37  58  84 116 152 191 239 295 343
#     4  11  21  37  56  87 112 152 195 238 288 345
#
# _framework density 17.929653999999999
#
# number of rings (size 3 to 8) (size 9 to 14) (size 15 to 20)
#    0.000    1.000    8.333    1.000    0.000    1.333 
#    0.000    0.833    0.000    4.000    0.000    0.000 
#    0.000    0.000    0.000    0.000    0.000    0.000 
#
# Total GULP energy -594762.055071 kJ/mol
# GULP energy per Si atom -12390.876147 kJ/mol
# Density = 1.788885 g / cm^3
# Si number density = 17.929654 Si / 1000 Ang^3
#
#
#
# Elastic Constant Matrix: (Units=GPa)
#
#
# Indices 1 2 3 4 5 6 
#
# 1 124.7035 43.9033 42.6331 0.0000 0.0000 0.0000
# 2 43.9033 90.0760 47.8263 0.0000 0.0000 0.0000
# 3 42.6331 47.8263 88.8458 0.0000 0.0000 0.0000
# 4 0.0000 0.0000 0.0000 26.8752 0.0000 0.0000
# 5 0.0000 0.0000 0.0000 0.0000 20.7644 0.0000
# 6 0.0000 0.0000 0.0000 0.0000 0.0000 40.9570
#
#
#
# Elastic Compliance Matrix: (Units=1/GPa)
#
#
# Indices 1 2 3 4 5 6 
#
# 1 0.010265 -0.003343 -0.003126 0.000000 0.000000 0.000000
# 2 -0.003343 0.016634 -0.007350 0.000000 0.000000 0.000000
# 3 -0.003126 -0.007350 0.016712 0.000000 0.000000 0.000000
# 4 0.000000 0.000000 0.000000 0.037209 0.000000 0.000000
# 5 0.000000 0.000000 0.000000 0.000000 0.048159 0.000000
# 6 0.000000 0.000000 0.000000 0.000000 0.000000 0.024416
#
#
# Mechanical properties :
#
#
# Convention : Reuss Voigt Hill
#
# Bulk Modulus (GPa) = 62.60794 63.59453 63.10124
# Shear Modulus (GPa) = 26.83033 29.00349 27.91691
#
# Velocity S-wave (km/s) = 3.87256 4.02634 3.95020
# Velocity P-wave (km/s) = 7.41553 7.56050 7.48836
#
# Compressibility (1/GPa) = 0.01597241
#
# Stress axis : x y z
#
# Youngs Moduli (GPa) = 97.42076 60.11905 59.83807
#
# Poissons Ratio (x) = 0.20100 0.18704
# Poissons Ratio (y) = 0.32572 0.43979
# Poissons Ratio (z) = 0.30452 0.44185
#
# Static dielectric constant tensor:
#      x y z
#    x 3.415210 0.000000 0.000000 
#    y 0.000000 3.588750 0.000000 
#    z 0.000000 0.000000 3.213490 
# 
# 
# High freq. dielectric constant tensor:
#      x y z
#    x 1.701060 0.000000 0.000000 
#    y 0.000000 1.707690 0.000000 
#    z 0.000000 0.000000 1.671200 
# 
# From -- ./inp_files/27224.got.cif
#   From: 2010.06.25/outbox.cif.g09.slc.cpg/sg58_14_cif.got.tgz:27224.got - 2010.06.26 21:38:00.
