data_PCOD8237961
_publ_section_title
;
Structure prediction by ZEFSAII (Michael W. Deem and Ramdas Pophale) SiO2 
 PCOD8237961
Probable space group: P N N M
;
_chemical_formula_sum "Si O2"
_cell_formula_units_Z 48
_cell_length_a 12.961990
_cell_length_b 12.107102
_cell_length_c 16.118087
_cell_angle_alpha 90.000000
_cell_angle_beta 90.000000
_cell_angle_gamma 90.000000
_cell_volume 2529.445806
_symmetry_space_group_name_H-M "P N N M"
_symmetry_group_IT_number 58
_symmetry_cell_setting 'orthorhombic'
loop_
_space_group_symop_operation_xyz
x,y,z
-x,-y,z
1/2+x,1/2-y,1/2-z
1/2-x,1/2+y,1/2-z
-x,-y,-z
x,y,-z
1/2-x,1/2+y,1/2+z
1/2+x,1/2-y,1/2+z
loop_
_atom_site_type_symbol
_atom_site_label
_atom_site_fract_x
_atom_site_fract_y
_atom_site_fract_z
Si Si1 0.883508 0.486552 0.829090
Si Si2 0.361986 0.776947 0.400477
Si Si3 0.907987 0.262034 0.905668
Si Si4 0.204353 0.608249 0.332476
Si Si5 0.775188 0.621134 0.596628
Si Si6 0.997695 0.630557 0.591462
O O1 0.842993 0.596587 0.873549
O O2 0.884110 0.391628 0.898574
O O3 0.803907 0.446703 0.758316
O O4 0.000000 0.500000 0.792085
O O5 0.343025 0.765036 0.500000
O O6 0.476700 0.737990 0.373314
O O7 0.288271 0.703219 0.343383
O O8 0.819810 0.187585 0.859953
O O9 0.904959 0.225931 0.000000
O O10 0.238148 0.510151 0.393959
O O11 0.094430 0.667041 0.352777
O O12 0.780333 0.648725 0.500000
O O13 0.886719 0.661152 0.634041
O O14 0.008767 0.685049 0.500000
O O15 0.000000 0.500000 0.581330
#
# Coordination Sequence:
#
# PCOD8237961 Si02
#       6
#     8   8   8   8   8   8
#     4  10  21  36  55  79 109 146 186 227 268 321
#     4  10  21  37  57  81 110 147 185 224 271 329
#     4   9  19  36  57  79 106 144 186 222 267 326
#     4  11  20  31  53  81 111 140 178 225 277 322
#     4   9  17  30  53  79 106 138 176 222 267 317
#     4   8  14  27  47  75 103 134 174 215 260 314
#
# _framework density 18.976488
#
# number of rings (size 3 to 8) (size 9 to 14) (size 15 to 20)
#    0.000    2.500    0.000    4.500    2.333    2.667 
#    0.000    2.500    0.000    1.000    0.000    4.667 
#    0.000    0.000    0.000    0.000    0.000    0.000 
#
# Total GULP energy -594684.841281 kJ/mol
# GULP energy per Si atom -12389.267527 kJ/mol
# Density = 1.893330 g / cm^3
# Si number density = 18.976488 Si / 1000 Ang^3
#
#
#
# Elastic Constant Matrix: (Units=GPa)
#
#
# Indices 1 2 3 4 5 6 
#
# 1 141.2350 67.8175 31.7642 0.0000 0.0000 0.0000
# 2 67.8175 84.0700 12.2206 0.0000 0.0000 0.0000
# 3 31.7642 12.2206 40.6007 0.0000 0.0000 0.0000
# 4 0.0000 0.0000 0.0000 24.3969 0.0000 0.0000
# 5 0.0000 0.0000 0.0000 0.0000 21.7301 0.0000
# 6 0.0000 0.0000 0.0000 0.0000 0.0000 32.5657
#
#
#
# Elastic Compliance Matrix: (Units=1/GPa)
#
#
# Indices 1 2 3 4 5 6 
#
# 1 0.013483 -0.009771 -0.007608 0.000000 0.000000 0.000000
# 2 -0.009771 0.019519 0.001769 0.000000 0.000000 0.000000
# 3 -0.007608 0.001769 0.030050 0.000000 0.000000 0.000000
# 4 0.000000 0.000000 0.000000 0.040989 0.000000 0.000000
# 5 0.000000 0.000000 0.000000 0.000000 0.046019 0.000000
# 6 0.000000 0.000000 0.000000 0.000000 0.000000 0.030707
#
#
# Mechanical properties :
#
#
# Convention : Reuss Voigt Hill
#
# Bulk Modulus (GPa) = 31.41367 54.39003 42.90185
# Shear Modulus (GPa) = 22.46216 26.01211 24.23713
#
# Velocity S-wave (km/s) = 3.44420 3.70639 3.57770
# Velocity P-wave (km/s) = 5.69268 6.85860 6.30266
#
# Compressibility (1/GPa) = 0.03183327
#
# Stress axis : x y z
#
# Youngs Moduli (GPa) = 74.16786 51.23102 33.27834
#
# Poissons Ratio (x) = 0.50055 0.25317
# Poissons Ratio (y) = 0.72466 -0.05886
# Poissons Ratio (z) = 0.56424 -0.09062
#
# Static dielectric constant tensor:
#      x y z
#    x 4.038810 0.000000 0.000000 
#    y 0.000000 3.307120 0.000000 
#    z 0.000000 0.000000 3.256840 
# 
# 
# High freq. dielectric constant tensor:
#      x y z
#    x 1.742730 0.000000 0.000000 
#    y 0.000000 1.706050 0.000000 
#    z 0.000000 0.000000 1.722610 
# 
# From -- ./inp_files/26126.got.cif
#   From: 2010.06.25/outbox.cif.g09.slc.cpg/sg58_14_cif.got.tgz:26126.got - 2010.06.26 21:38:00.
