data_PCOD8237945
_publ_section_title
;
Structure prediction by ZEFSAII (Michael W. Deem and Ramdas Pophale) SiO2 
 PCOD8237945
Probable space group: P N N M
;
_chemical_formula_sum "Si O2"
_cell_formula_units_Z 64
_cell_length_a 30.007292
_cell_length_b 14.292108
_cell_length_c 8.888306
_cell_angle_alpha 90.000000
_cell_angle_beta 90.000000
_cell_angle_gamma 90.000000
_cell_volume 3811.905201
_symmetry_space_group_name_H-M "P N N M"
_symmetry_group_IT_number 58
_symmetry_cell_setting 'orthorhombic'
loop_
_space_group_symop_operation_xyz
x,y,z
-x,-y,z
1/2+x,1/2-y,1/2-z
1/2-x,1/2+y,1/2-z
-x,-y,-z
x,y,-z
1/2-x,1/2+y,1/2+z
1/2+x,1/2-y,1/2+z
loop_
_atom_site_type_symbol
_atom_site_label
_atom_site_fract_x
_atom_site_fract_y
_atom_site_fract_z
Si Si1 0.229935 0.510576 0.175615
Si Si2 0.677993 0.490581 0.323404
Si Si3 0.799099 0.663024 0.673152
Si Si4 0.550413 0.608856 0.675120
Si Si5 0.365668 0.338026 0.177117
Si Si6 0.211314 0.722589 0.175800
Si Si7 0.634378 0.321692 0.173351
Si Si8 0.949746 0.892193 0.824630
O O1 0.272376 0.484225 0.275502
O O2 0.195237 0.429635 0.223600
O O3 0.212678 0.613157 0.217908
O O4 0.241873 0.504657 0.000000
O O5 0.672188 0.503780 0.500000
O O6 0.644918 0.559683 0.239283
O O7 0.665924 0.386613 0.274058
O O8 0.792459 0.633974 0.500000
O O9 0.757015 0.726746 0.726920
O O10 0.845511 0.718263 0.693875
O O11 0.560487 0.621843 0.500000
O O12 0.583322 0.677488 0.768159
O O13 0.499950 0.639878 0.712590
O O14 0.557002 0.500300 0.720762
O O15 0.331702 0.261646 0.239953
O O16 0.362917 0.334859 0.000000
O O17 0.203884 0.737697 0.000000
O O18 0.583460 0.326483 0.229324
O O19 0.637615 0.353372 0.000000
O O20 0.939033 0.879052 0.000000
#
# Coordination Sequence:
#
# PCOD8237945 Si02
#       8
#     8   8   8   8   8   8   8   8
#     4  11  22  37  54  74 100 132 178 221 250 293
#     4  12  22  32  49  71 103 141 173 209 256 301
#     4  10  21  36  52  73 105 139 169 207 258 305
#     4   9  18  33  51  73 104 138 169 206 255 305
#     4  12  23  33  50  77 103 134 178 214 249 303
#     4  10  21  37  53  72 103 138 170 210 257 300
#     4  11  21  34  51  75 105 137 175 214 251 298
#     4   9  18  32  51  75 103 137 172 205 251 309
#
# _framework density 16.789504999999998
#
# number of rings (size 3 to 8) (size 9 to 14) (size 15 to 20)
#    0.000    1.500    3.750    3.750    0.000    2.500 
#    0.000    1.250    0.000    0.000    0.000    0.875 
#    0.000    7.000    0.000    0.000    0.000    0.000 
#
# Total GULP energy -793600.909450 kJ/mol
# GULP energy per Si atom -12400.014210 kJ/mol
# Density = 1.675129 g / cm^3
# Si number density = 16.789505 Si / 1000 Ang^3
#
#
#
# Elastic Constant Matrix: (Units=GPa)
#
#
# Indices 1 2 3 4 5 6 
#
# 1 96.1344 28.7871 49.4878 0.0000 0.0000 0.0000
# 2 28.7871 74.4177 41.2488 0.0000 0.0000 0.0000
# 3 49.4878 41.2488 67.4365 0.0000 0.0000 0.0000
# 4 0.0000 0.0000 0.0000 23.5204 0.0000 0.0000
# 5 0.0000 0.0000 0.0000 0.0000 26.7822 0.0000
# 6 0.0000 0.0000 0.0000 0.0000 0.0000 23.6548
#
#
#
# Elastic Compliance Matrix: (Units=1/GPa)
#
#
# Indices 1 2 3 4 5 6 
#
# 1 0.016730 0.000504 -0.012586 0.000000 0.000000 0.000000
# 2 0.000504 0.020346 -0.012815 0.000000 0.000000 0.000000
# 3 -0.012586 -0.012815 0.031903 0.000000 0.000000 0.000000
# 4 0.000000 0.000000 0.000000 0.042516 0.000000 0.000000
# 5 0.000000 0.000000 0.000000 0.000000 0.037338 0.000000
# 6 0.000000 0.000000 0.000000 0.000000 0.000000 0.042275
#
#
# Mechanical properties :
#
#
# Convention : Reuss Voigt Hill
#
# Bulk Modulus (GPa) = 52.12044 53.00400 52.56222
# Shear Modulus (GPa) = 20.21869 22.68913 21.45391
#
# Velocity S-wave (km/s) = 3.47399 3.68011 3.57853
# Velocity P-wave (km/s) = 6.87039 7.04953 6.96054
#
# Compressibility (1/GPa) = 0.01918633
#
# Stress axis : x y z
#
# Youngs Moduli (GPa) = 59.77347 49.15027 31.34482
#
# Poissons Ratio (x) = -0.02479 0.39449
# Poissons Ratio (y) = -0.03015 0.40169
# Poissons Ratio (z) = 0.75229 0.62986
#
# Static dielectric constant tensor:
#      x y z
#    x 3.333610 0.000000 0.000000 
#    y 0.000000 2.965920 0.000000 
#    z 0.000000 0.000000 3.130870 
# 
# 
# High freq. dielectric constant tensor:
#      x y z
#    x 1.642740 0.000000 0.000000 
#    y 0.000000 1.617060 0.000000 
#    z 0.000000 0.000000 1.652560 
# 
# From -- ./inp_files/7165.got.cif
#   From: 2010.06.25/outbox.cif.g09.slc.cpg/sg58_4_cif.got.tgz:7165.got - 2010.06.26 21:38:00.
