data_PCOD8237939
_publ_section_title
;
Structure prediction by ZEFSAII (Michael W. Deem and Ramdas Pophale) SiO2 
 PCOD8237939
Probable space group: P N N M
;
_chemical_formula_sum "Si O2"
_cell_formula_units_Z 40
_cell_length_a 12.769458
_cell_length_b 8.310809
_cell_length_c 19.060652
_cell_angle_alpha 90.000000
_cell_angle_beta 90.000000
_cell_angle_gamma 90.000000
_cell_volume 2022.802668
_symmetry_space_group_name_H-M "P N N M"
_symmetry_group_IT_number 58
_symmetry_cell_setting 'orthorhombic'
loop_
_space_group_symop_operation_xyz
x,y,z
-x,-y,z
1/2+x,1/2-y,1/2-z
1/2-x,1/2+y,1/2-z
-x,-y,-z
x,y,-z
1/2-x,1/2+y,1/2+z
1/2+x,1/2-y,1/2+z
loop_
_atom_site_type_symbol
_atom_site_label
_atom_site_fract_x
_atom_site_fract_y
_atom_site_fract_z
Si Si1 0.085949 0.184856 0.149041
Si Si2 0.711358 0.290725 0.836121
Si Si3 0.789902 0.163279 0.309147
Si Si4 0.613908 0.652547 0.580308
Si Si5 0.505395 0.186015 0.793737
O O1 0.194422 0.281885 0.140484
O O2 0.996050 0.246728 0.094800
O O3 0.038774 0.205438 0.227152
O O4 0.113036 0.999549 0.132676
O O5 0.764712 0.200643 0.771116
O O6 0.694465 0.475911 0.819258
O O7 0.786948 0.265799 0.902773
O O8 0.597684 0.210996 0.851255
O O9 0.896879 0.256505 0.328355
O O10 0.620078 0.596767 0.500000
O O11 0.500000 0.000000 0.770511
#
# Coordination Sequence:
#
# PCOD8237939 Si02
#       5
#     8   8   8   8   8
#     4  10  21  35  59  84 118 153 199 238 296 351
#     4  11  22  35  58  87 119 157 194 244 302 355
#     4  11  21  35  59  90 121 148 190 258 305 351
#     4  11  23  41  60  83 123 168 204 237 282 358
#     4  11  21  35  61  93 122 148 188 256 311 356
#
# _framework density 19.774543999999999
#
# number of rings (size 3 to 8) (size 9 to 14) (size 15 to 20)
#    0.000    1.200    2.000    7.800    5.600    0.000 
#    0.000    3.000    0.000    9.000    0.000    0.000 
#    0.000    0.000    0.000    0.000    0.000    0.000 
#
# Total GULP energy -495829.733271 kJ/mol
# GULP energy per Si atom -12395.743332 kJ/mol
# Density = 1.972954 g / cm^3
# Si number density = 19.774544 Si / 1000 Ang^3
#
#
#
# Elastic Constant Matrix: (Units=GPa)
#
#
# Indices 1 2 3 4 5 6 
#
# 1 190.3969 51.3432 41.5345 0.0000 0.0000 0.0000
# 2 51.3432 108.9063 38.9137 0.0000 0.0000 0.0000
# 3 41.5345 38.9137 59.0990 0.0000 0.0000 0.0000
# 4 0.0000 0.0000 0.0000 13.9809 0.0000 0.0000
# 5 0.0000 0.0000 0.0000 0.0000 18.1706 0.0000
# 6 0.0000 0.0000 0.0000 0.0000 0.0000 38.8640
#
#
#
# Elastic Compliance Matrix: (Units=1/GPa)
#
#
# Indices 1 2 3 4 5 6 
#
# 1 0.006481 -0.001867 -0.003325 0.000000 0.000000 0.000000
# 2 -0.001867 0.012545 -0.006948 0.000000 0.000000 0.000000
# 3 -0.003325 -0.006948 0.023833 0.000000 0.000000 0.000000
# 4 0.000000 0.000000 0.000000 0.071526 0.000000 0.000000
# 5 0.000000 0.000000 0.000000 0.000000 0.055034 0.000000
# 6 0.000000 0.000000 0.000000 0.000000 0.000000 0.025731
#
#
# Mechanical properties :
#
#
# Convention : Reuss Voigt Hill
#
# Bulk Modulus (GPa) = 53.82823 69.10947 61.46885
# Shear Modulus (GPa) = 22.16080 29.31049 25.73565
#
# Velocity S-wave (km/s) = 3.35128 3.85416 3.61148
# Velocity P-wave (km/s) = 6.50037 7.40477 6.96726
#
# Compressibility (1/GPa) = 0.01857761
#
# Stress axis : x y z
#
# Youngs Moduli (GPa) = 154.29345 79.71202 41.95904
#
# Poissons Ratio (x) = 0.14885 0.13953
# Poissons Ratio (y) = 0.28811 0.29153
# Poissons Ratio (z) = 0.51309 0.55384
#
# Static dielectric constant tensor:
#      x y z
#    x 4.356880 0.000000 0.000000 
#    y 0.000000 3.516840 0.000000 
#    z 0.000000 0.000000 1.799360 
# 
# 
# High freq. dielectric constant tensor:
#      x y z
#    x 1.804190 0.000000 0.000000 
#    y 0.000000 1.771490 0.000000 
#    z 0.000000 0.000000 1.705760 
# 
# From -- ./inp_files/25926.got.cif
#   From: 2010.06.25/outbox.cif.g09.slc.cpg/sg58_13_cif.got.tgz:25926.got - 2010.06.26 21:38:00.
