data_PCOD8237413
_publ_section_title
;
Structure prediction by ZEFSAII (Michael W. Deem and Ramdas Pophale) SiO2 
 PCOD8237413
Probable space group: P N N M
;
_chemical_formula_sum "Si O2"
_cell_formula_units_Z 40
_cell_length_a 15.174756
_cell_length_b 15.263802
_cell_length_c 9.141723
_cell_angle_alpha 90.000000
_cell_angle_beta 90.000000
_cell_angle_gamma 90.000000
_cell_volume 2117.446754
_symmetry_space_group_name_H-M "P N N M"
_symmetry_group_IT_number 58
_symmetry_cell_setting 'orthorhombic'
loop_
_space_group_symop_operation_xyz
x,y,z
-x,-y,z
1/2+x,1/2-y,1/2-z
1/2-x,1/2+y,1/2-z
-x,-y,-z
x,y,-z
1/2-x,1/2+y,1/2+z
1/2+x,1/2-y,1/2+z
loop_
_atom_site_type_symbol
_atom_site_label
_atom_site_fract_x
_atom_site_fract_y
_atom_site_fract_z
Si Si1 0.010291 0.746786 0.670202
Si Si2 0.822148 0.142500 0.328981
Si Si3 0.672150 0.278448 0.326557
Si Si4 0.231140 0.029706 0.826627
Si Si5 0.075412 0.560520 0.326507
O O1 0.984547 0.742686 0.500000
O O2 0.079019 0.824088 0.702934
O O3 0.060306 0.659670 0.722389
O O4 0.921561 0.753675 0.761241
O O5 0.807396 0.127337 0.500000
O O6 0.748170 0.211298 0.270772
O O7 0.819611 0.050079 0.247322
O O8 0.667494 0.274092 0.500000
O O9 0.692504 0.377201 0.274855
O O10 0.331348 0.025788 0.769204
O O11 0.224091 0.019503 0.000000
O O12 0.074465 0.554392 0.500000
O O13 0.000000 0.500000 0.256260
#
# Coordination Sequence:
#
# PCOD8237413 Si02
#       5
#     8   8   8   8   8
#     4  10  20  36  58  82 110 148 190 231 277 334
#     4  10  21  38  57  81 116 150 183 232 289 333
#     4  10  21  38  57  81 116 150 183 232 289 333
#     4  10  20  36  58  82 110 148 190 231 277 334
#     4   9  16  30  55  83 105 134 185 236 272 319
#
# _framework density 18.890675999999999
#
# number of rings (size 3 to 8) (size 9 to 14) (size 15 to 20)
#    0.000    2.200    2.000    1.200    0.000    4.800 
#    0.000    5.000    0.000    3.600    0.000    0.000 
#    0.000    0.000    0.000    0.000    0.000    0.000 
#
# Total GULP energy -495943.102587 kJ/mol
# GULP energy per Si atom -12398.577565 kJ/mol
# Density = 1.884768 g / cm^3
# Si number density = 18.890676 Si / 1000 Ang^3
#
#
#
# Elastic Constant Matrix: (Units=GPa)
#
#
# Indices 1 2 3 4 5 6 
#
# 1 48.3876 -22.2670 1.9613 0.0000 0.0000 0.0000
# 2 -22.2670 66.4300 10.0908 0.0000 0.0000 0.0000
# 3 1.9613 10.0908 13.2537 0.0000 0.0000 0.0000
# 4 0.0000 0.0000 0.0000 24.3435 0.0000 0.0000
# 5 0.0000 0.0000 0.0000 0.0000 26.9644 0.0000
# 6 0.0000 0.0000 0.0000 0.0000 0.0000 35.2161
#
#
#
# Elastic Compliance Matrix: (Units=1/GPa)
#
#
# Indices 1 2 3 4 5 6 
#
# 1 0.025982 0.010509 -0.011846 0.000000 0.000000 0.000000
# 2 0.010509 0.021272 -0.017751 0.000000 0.000000 0.000000
# 3 -0.011846 -0.017751 0.090718 0.000000 0.000000 0.000000
# 4 0.000000 0.000000 0.000000 0.041079 0.000000 0.000000
# 5 0.000000 0.000000 0.000000 0.000000 0.037086 0.000000
# 6 0.000000 0.000000 0.000000 0.000000 0.000000 0.028396
#
#
# Mechanical properties :
#
#
# Convention : Reuss Voigt Hill
#
# Bulk Modulus (GPa) = 10.02037 11.96018 10.99028
# Shear Modulus (GPa) = 15.82401 26.52387 21.17394
#
# Velocity S-wave (km/s) = 2.89738 3.75116 3.35157
# Velocity P-wave (km/s) = 4.06313 5.01065 4.56156
#
# Compressibility (1/GPa) = 0.09979673
#
# Stress axis : x y z
#
# Youngs Moduli (GPa) = 38.48755 47.00954 11.02314
#
# Poissons Ratio (x) = -0.49400 0.13058
# Poissons Ratio (y) = -0.40445 0.19567
# Poissons Ratio (z) = 0.45591 0.83446
#
# Static dielectric constant tensor:
#      x y z
#    x 3.589360 0.000000 0.000000 
#    y 0.000000 3.633720 0.000000 
#    z 0.000000 0.000000 3.072100 
# 
# 
# High freq. dielectric constant tensor:
#      x y z
#    x 1.745590 0.000000 0.000000 
#    y 0.000000 1.747930 0.000000 
#    z 0.000000 0.000000 1.697350 
# 
# From -- ./inp_files/5360.got.cif
#   From: 2010.06.25/outbox.cif.g09.slc.cpg/sg58_3_cif.got.tgz:5360.got - 2010.06.26 21:38:00.
