data_PCOD8237871
_publ_section_title
;
Structure prediction by ZEFSAII (Michael W. Deem and Ramdas Pophale) SiO2 
 PCOD8237871
Probable space group: P N N M
;
_chemical_formula_sum "Si O2"
_cell_formula_units_Z 48
_cell_length_a 18.879821
_cell_length_b 14.856534
_cell_length_c 8.855372
_cell_angle_alpha 90.000000
_cell_angle_beta 90.000000
_cell_angle_gamma 90.000000
_cell_volume 2483.831803
_symmetry_space_group_name_H-M "P N N M"
_symmetry_group_IT_number 58
_symmetry_cell_setting 'orthorhombic'
loop_
_space_group_symop_operation_xyz
x,y,z
-x,-y,z
1/2+x,1/2-y,1/2-z
1/2-x,1/2+y,1/2-z
-x,-y,-z
x,y,-z
1/2-x,1/2+y,1/2+z
1/2+x,1/2-y,1/2+z
loop_
_atom_site_type_symbol
_atom_site_label
_atom_site_fract_x
_atom_site_fract_y
_atom_site_fract_z
Si Si1 0.421456 0.522132 0.173804
Si Si2 0.920672 0.768632 0.673732
Si Si3 0.678578 0.129254 0.674894
Si Si4 0.421157 0.221882 0.822281
Si Si5 0.171009 0.875385 0.822508
Si Si6 0.575748 0.964661 0.324837
O O1 0.500000 0.500000 0.233948
O O2 0.404235 0.626554 0.193571
O O3 0.364767 0.467899 0.270367
O O4 0.415348 0.491091 0.000000
O O5 0.911307 0.738498 0.500000
O O6 0.866272 0.716294 0.778986
O O7 0.999844 0.747555 0.730492
O O8 0.699439 0.137750 0.500000
O O9 0.747709 0.123303 0.775652
O O10 0.633641 0.040155 0.706531
O O11 0.366172 0.289443 0.748875
O O12 0.401552 0.121872 0.770324
O O13 0.413422 0.230403 0.000000
O O14 0.165233 0.867176 0.000000
O O15 0.571056 0.937703 0.500000
O O16 0.500000 0.000000 0.266581
#
# Coordination Sequence:
#
# PCOD8237871 Si02
#       6
#     8   8   8   8   8   8
#     4  10  20  40  66  92 124 162 204 250 308 372
#     4  10  21  38  64  94 125 161 204 253 304 366
#     4  11  24  42  64  89 127 167 204 254 313 370
#     4  11  22  39  65  94 124 164 209 252 306 369
#     4  12  26  42  62  91 128 163 207 260 310 365
#     4  10  21  39  63  94 126 162 206 255 309 364
#
# _framework density 19.32498
#
# number of rings (size 3 to 8) (size 9 to 14) (size 15 to 20)
#    0.000    1.333    3.333    2.500    0.000    4.667 
#    0.000    1.667    0.000    0.000    0.000    0.000 
#    0.000    0.000    0.000    0.000    0.000    0.000 
#
# Total GULP energy -595535.960041 kJ/mol
# GULP energy per Si atom -12406.999168 kJ/mol
# Density = 1.928100 g / cm^3
# Si number density = 19.324980 Si / 1000 Ang^3
#
#
#
# Elastic Constant Matrix: (Units=GPa)
#
#
# Indices 1 2 3 4 5 6 
#
# 1 118.0006 51.1032 47.3556 0.0000 0.0000 0.0000
# 2 51.1032 121.2805 51.3322 0.0000 0.0000 0.0000
# 3 47.3556 51.3322 83.0735 0.0000 0.0000 0.0000
# 4 0.0000 0.0000 0.0000 34.5049 0.0000 0.0000
# 5 0.0000 0.0000 0.0000 0.0000 33.9075 0.0000
# 6 0.0000 0.0000 0.0000 0.0000 0.0000 29.0861
#
#
#
# Elastic Compliance Matrix: (Units=1/GPa)
#
#
# Indices 1 2 3 4 5 6 
#
# 1 0.011671 -0.002846 -0.004894 0.000000 0.000000 0.000000
# 2 -0.002846 0.011860 -0.005706 0.000000 0.000000 0.000000
# 3 -0.004894 -0.005706 0.018353 0.000000 0.000000 0.000000
# 4 0.000000 0.000000 0.000000 0.028981 0.000000 0.000000
# 5 0.000000 0.000000 0.000000 0.000000 0.029492 0.000000
# 6 0.000000 0.000000 0.000000 0.000000 0.000000 0.034381
#
#
# Mechanical properties :
#
#
# Convention : Reuss Voigt Hill
#
# Bulk Modulus (GPa) = 66.70519 69.10405 67.90462
# Shear Modulus (GPa) = 30.00689 31.00394 30.50542
#
# Velocity S-wave (km/s) = 3.94477 4.00977 3.97741
# Velocity P-wave (km/s) = 7.43914 7.56798 7.50384
#
# Compressibility (1/GPa) = 0.01499134
#
# Stress axis : x y z
#
# Youngs Moduli (GPa) = 85.67925 84.31966 54.48641
#
# Poissons Ratio (x) = 0.24000 0.26668
# Poissons Ratio (y) = 0.24387 0.31088
# Poissons Ratio (z) = 0.41935 0.48110
#
# Static dielectric constant tensor:
#      x y z
#    x 3.304380 0.000000 0.000000 
#    y 0.000000 3.559030 0.000000 
#    z 0.000000 0.000000 3.523390 
# 
# 
# High freq. dielectric constant tensor:
#      x y z
#    x 1.754420 0.000000 0.000000 
#    y 0.000000 1.766340 0.000000 
#    z 0.000000 0.000000 1.752290 
# 
# From -- ./inp_files/5839.got.cif
#   From: 2010.06.25/outbox.cif.g09.slc.cpg/sg58_3_cif.got.tgz:5839.got - 2010.06.26 21:38:00.
