data_PCOD8237204
_publ_section_title
;
Structure prediction by ZEFSAII (Michael W. Deem and Ramdas Pophale) SiO2 
 PCOD8237204
Probable space group: P N N M
;
_chemical_formula_sum "Si O2"
_cell_formula_units_Z 56
_cell_length_a 16.472283
_cell_length_b 19.963772
_cell_length_c 9.087630
_cell_angle_alpha 90.000000
_cell_angle_beta 90.000000
_cell_angle_gamma 90.000000
_cell_volume 2988.457148
_symmetry_space_group_name_H-M "P N N M"
_symmetry_group_IT_number 58
_symmetry_cell_setting 'orthorhombic'
loop_
_space_group_symop_operation_xyz
x,y,z
-x,-y,z
1/2+x,1/2-y,1/2-z
1/2-x,1/2+y,1/2-z
-x,-y,-z
x,y,-z
1/2-x,1/2+y,1/2+z
1/2+x,1/2-y,1/2+z
loop_
_atom_site_type_symbol
_atom_site_label
_atom_site_fract_x
_atom_site_fract_y
_atom_site_fract_z
Si Si1 0.758163 0.259501 0.673279
Si Si2 0.060505 0.557762 0.173651
Si Si3 0.742619 0.977513 0.325093
Si Si4 0.071196 0.691143 0.328258
Si Si5 0.303298 0.381141 0.173913
Si Si6 0.640503 0.372783 0.326679
Si Si7 0.981274 0.161717 0.328988
O O1 0.771911 0.253853 0.500000
O O2 0.837334 0.298474 0.733843
O O3 0.754204 0.183666 0.736976
O O4 0.677491 0.299942 0.714610
O O5 0.151480 0.539521 0.224842
O O6 0.032377 0.628301 0.243201
O O7 0.000000 0.500000 0.230534
O O8 0.054221 0.565135 0.000000
O O9 0.752543 0.972627 0.500000
O O10 0.806217 0.928553 0.250763
O O11 0.763878 0.051409 0.262691
O O12 0.071009 0.674068 0.500000
O O13 0.020669 0.758763 0.295808
O O14 0.397479 0.373611 0.218591
O O15 0.295677 0.382960 0.000000
O O16 0.641367 0.385751 0.500000
O O17 0.549486 0.374512 0.267275
O O18 0.999718 0.149043 0.500000
#
# Coordination Sequence:
#
# PCOD8237204 Si02
#       7
#     8   8   8   8   8   8   8
#     4   8  15  30  53  76  97 132 179 220 259 313
#     4  10  21  34  51  80 113 142 175 224 276 321
#     4  10  20  35  55  77 105 143 182 220 265 320
#     4   9  17  34  56  75 100 136 177 220 266 320
#     4   8  16  33  55  75  99 139 186 222 254 309
#     4  11  21  33  54  81 110 141 176 220 273 327
#     4   9  19  35  55  78 103 135 182 229 263 309
#
# _framework density 18.738766999999999
#
# number of rings (size 3 to 8) (size 9 to 14) (size 15 to 20)
#    0.000    2.714    1.429    2.143    0.000    2.571 
#    0.000    6.429    0.000    2.571    0.000    0.000 
#    0.000    0.000    0.000    0.000    0.000    0.000 
#
# Total GULP energy -694204.648287 kJ/mol
# GULP energy per Si atom -12396.511577 kJ/mol
# Density = 1.869612 g / cm^3
# Si number density = 18.738767 Si / 1000 Ang^3
#
#
#
# Elastic Constant Matrix: (Units=GPa)
#
#
# Indices 1 2 3 4 5 6 
#
# 1 54.9540 40.3044 11.0004 0.0000 0.0000 0.0000
# 2 40.3044 124.6105 27.4790 0.0000 0.0000 0.0000
# 3 11.0004 27.4790 22.7566 0.0000 0.0000 0.0000
# 4 0.0000 0.0000 0.0000 26.3912 0.0000 0.0000
# 5 0.0000 0.0000 0.0000 0.0000 14.5027 0.0000
# 6 0.0000 0.0000 0.0000 0.0000 0.0000 28.8893
#
#
#
# Elastic Compliance Matrix: (Units=1/GPa)
#
#
# Indices 1 2 3 4 5 6 
#
# 1 0.024009 -0.007096 -0.003038 0.000000 0.000000 0.000000
# 2 -0.007096 0.013035 -0.012309 0.000000 0.000000 0.000000
# 3 -0.003038 -0.012309 0.060275 0.000000 0.000000 0.000000
# 4 0.000000 0.000000 0.000000 0.037891 0.000000 0.000000
# 5 0.000000 0.000000 0.000000 0.000000 0.068953 0.000000
# 6 0.000000 0.000000 0.000000 0.000000 0.000000 0.034615
#
#
# Mechanical properties :
#
#
# Convention : Reuss Voigt Hill
#
# Bulk Modulus (GPa) = 19.07174 39.98763 29.52969
# Shear Modulus (GPa) = 16.60348 22.19246 19.39797
#
# Velocity S-wave (km/s) = 2.97989 3.44511 3.22091
# Velocity P-wave (km/s) = 4.69462 6.10007 5.44290
#
# Compressibility (1/GPa) = 0.05243360
#
# Stress axis : x y z
#
# Youngs Moduli (GPa) = 41.65052 76.71933 16.59050
#
# Poissons Ratio (x) = 0.54438 0.05040
# Poissons Ratio (y) = 0.29554 0.20422
# Poissons Ratio (z) = 0.12652 0.94437
#
# Static dielectric constant tensor:
#      x y z
#    x 3.406920 0.000000 0.000000 
#    y 0.000000 3.995270 0.000000 
#    z 0.000000 0.000000 3.041440 
# 
# 
# High freq. dielectric constant tensor:
#      x y z
#    x 1.722270 0.000000 0.000000 
#    y 0.000000 1.739930 0.000000 
#    z 0.000000 0.000000 1.691260 
# 
# From -- ./inp_files/6272.got.cif
#   From: 2010.06.25/outbox.cif.g09.slc.cpg/sg58_4_cif.got.tgz:6272.got - 2010.06.26 21:38:00.
