data_PCOD8237368
_publ_section_title
;
Structure prediction by ZEFSAII (Michael W. Deem and Ramdas Pophale) SiO2 
 PCOD8237368
Probable space group: P N N M
;
_chemical_formula_sum "Si O2"
_cell_formula_units_Z 64
_cell_length_a 16.032686
_cell_length_b 9.139815
_cell_length_c 20.882973
_cell_angle_alpha 90.000000
_cell_angle_beta 90.000000
_cell_angle_gamma 90.000000
_cell_volume 3060.102821
_symmetry_space_group_name_H-M "P N N M"
_symmetry_group_IT_number 58
_symmetry_cell_setting 'orthorhombic'
loop_
_space_group_symop_operation_xyz
x,y,z
-x,-y,z
1/2+x,1/2-y,1/2-z
1/2-x,1/2+y,1/2-z
-x,-y,-z
x,y,-z
1/2-x,1/2+y,1/2+z
1/2+x,1/2-y,1/2+z
loop_
_atom_site_type_symbol
_atom_site_label
_atom_site_fract_x
_atom_site_fract_y
_atom_site_fract_z
Si Si1 0.702398 0.782820 0.392341
Si Si2 0.018719 0.668081 0.928567
Si Si3 0.082008 0.224559 0.812708
Si Si4 0.701693 0.536145 0.293899
Si Si5 0.491654 0.829901 0.184098
Si Si6 0.736339 0.091842 0.659830
Si Si7 0.165236 0.645045 0.364982
Si Si8 0.367479 0.864099 0.930213
O O1 0.616289 0.791510 0.430822
O O2 0.690106 0.694416 0.326337
O O3 0.775368 0.705751 0.432118
O O4 0.730464 0.948097 0.381534
O O5 0.000000 0.500000 0.909863
O O6 0.975073 0.770073 0.875887
O O7 0.982897 0.699619 0.000000
O O8 0.030318 0.238608 0.747230
O O9 0.146929 0.358613 0.813256
O O10 0.125139 0.066634 0.813868
O O11 0.701220 0.564062 0.218554
O O12 0.789456 0.460243 0.312855
O O13 0.582520 0.777210 0.162238
O O14 0.424442 0.800928 0.127253
O O15 0.500000 0.000000 0.201153
O O16 0.773373 0.222344 0.615320
O O17 0.141839 0.540513 0.424343
O O18 0.408557 0.833512 0.000000
#
# Coordination Sequence:
#
# PCOD8237368 Si02
#       8
#     8   8   8   8   8   8   8   8
#     4  11  22  40  62  88 122 171 211 258 312 376
#     4  11  24  42  64  91 123 165 215 259 313 376
#     4  11  22  39  62  92 124 163 207 262 308 367
#     4  10  22  37  60  91 126 163 208 251 319 368
#     4  10  20  35  62  95 123 156 209 257 316 376
#     4  11  20  37  61  89 123 165 205 262 307 376
#     4   9  21  37  57  91 121 155 205 254 307 370
#     4  10  21  41  64  88 123 165 207 256 316 377
#
# _framework density 20.91433
#
# number of rings (size 3 to 8) (size 9 to 14) (size 15 to 20)
#    0.000    1.625    1.250    5.250    3.500    2.750 
#    0.000   10.000    0.000    0.750    0.000    0.000 
#    0.000    0.000    0.000    0.000    0.000    0.000 
#
# Total GULP energy -793509.589726 kJ/mol
# GULP energy per Si atom -12398.587339 kJ/mol
# Density = 2.086673 g / cm^3
# Si number density = 20.914330 Si / 1000 Ang^3
#
#
#
# Elastic Constant Matrix: (Units=GPa)
#
#
# Indices 1 2 3 4 5 6 
#
# 1 107.6724 28.3070 25.5692 0.0000 0.0000 0.0000
# 2 28.3070 80.7815 18.4941 0.0000 0.0000 0.0000
# 3 25.5692 18.4941 102.0894 0.0000 0.0000 0.0000
# 4 0.0000 0.0000 0.0000 11.1998 0.0000 0.0000
# 5 0.0000 0.0000 0.0000 0.0000 20.7904 0.0000
# 6 0.0000 0.0000 0.0000 0.0000 0.0000 29.3914
#
#
#
# Elastic Compliance Matrix: (Units=1/GPa)
#
#
# Indices 1 2 3 4 5 6 
#
# 1 0.010635 -0.003252 -0.002075 0.000000 0.000000 0.000000
# 2 -0.003252 0.013909 -0.001705 0.000000 0.000000 0.000000
# 3 -0.002075 -0.001705 0.010624 0.000000 0.000000 0.000000
# 4 0.000000 0.000000 0.000000 0.089287 0.000000 0.000000
# 5 0.000000 0.000000 0.000000 0.000000 0.048099 0.000000
# 6 0.000000 0.000000 0.000000 0.000000 0.000000 0.034024
#
#
# Mechanical properties :
#
#
# Convention : Reuss Voigt Hill
#
# Bulk Modulus (GPa) = 47.38285 48.36488 47.87387
# Shear Modulus (GPa) = 21.96107 26.82117 24.39112
#
# Velocity S-wave (km/s) = 3.24396 3.58499 3.41873
# Velocity P-wave (km/s) = 6.06102 6.34914 6.20675
#
# Compressibility (1/GPa) = 0.02110468
#
# Stress axis : x y z
#
# Youngs Moduli (GPa) = 94.02954 71.89628 94.12783
#
# Poissons Ratio (x) = 0.23379 0.19527
# Poissons Ratio (y) = 0.30576 0.16051
# Poissons Ratio (z) = 0.19507 0.12260
#
# Static dielectric constant tensor:
#      x y z
#    x 3.997320 0.000000 0.000000 
#    y 0.000000 3.690990 0.000000 
#    z 0.000000 0.000000 3.510930 
# 
# 
# High freq. dielectric constant tensor:
#      x y z
#    x 1.828300 0.000000 0.000000 
#    y 0.000000 1.810170 0.000000 
#    z 0.000000 0.000000 1.798660 
# 
# From -- ./inp_files/30301.got.cif
#   From: 2010.06.25/outbox.cif.g09.slc.cpg/sg58_16_cif.got.tgz:30301.got - 2010.06.26 21:38:00.
