data_PCOD8237438
_publ_section_title
;
Structure prediction by ZEFSAII (Michael W. Deem and Ramdas Pophale) SiO2 
 PCOD8237438
Probable space group: P N N M
;
_chemical_formula_sum "Si O2"
_cell_formula_units_Z 48
_cell_length_a 12.363407
_cell_length_b 21.509131
_cell_length_c 8.655274
_cell_angle_alpha 90.000000
_cell_angle_beta 90.000000
_cell_angle_gamma 90.000000
_cell_volume 2301.663612
_symmetry_space_group_name_H-M "P N N M"
_symmetry_group_IT_number 58
_symmetry_cell_setting 'orthorhombic'
loop_
_space_group_symop_operation_xyz
x,y,z
-x,-y,z
1/2+x,1/2-y,1/2-z
1/2-x,1/2+y,1/2-z
-x,-y,-z
x,y,-z
1/2-x,1/2+y,1/2+z
1/2+x,1/2-y,1/2+z
loop_
_atom_site_type_symbol
_atom_site_label
_atom_site_fract_x
_atom_site_fract_y
_atom_site_fract_z
Si Si1 0.353713 0.176084 0.318192
Si Si2 0.378797 0.506056 0.324074
Si Si3 0.866648 0.851424 0.175906
Si Si4 0.248925 0.399346 0.181264
Si Si5 0.014659 0.429939 0.183974
Si Si6 0.420841 0.300635 0.817942
O O1 0.334543 0.173188 0.500000
O O2 0.239549 0.184308 0.232848
O O3 0.416942 0.114322 0.260536
O O4 0.424084 0.235992 0.273507
O O5 0.500000 0.500000 0.259404
O O6 0.374608 0.481342 0.500000
O O7 0.338926 0.576228 0.310452
O O8 0.300822 0.465573 0.219210
O O9 0.967615 0.835726 0.283713
O O10 0.892915 0.832013 0.000000
O O11 0.321319 0.342707 0.247478
O O12 0.126689 0.399842 0.247893
O O13 0.245812 0.391729 0.000000
O O14 0.000000 0.500000 0.250401
O O15 0.019144 0.432595 0.000000
O O16 0.410725 0.288750 0.000000
#
# Coordination Sequence:
#
# PCOD8237438 Si02
#       6
#     8   8   8   8   8   8
#     4  11  24  41  65  92 123 163 208 256 314 376
#     4  10  20  36  58  88 123 160 200 251 312 364
#     4  11  23  41  64  88 124 163 205 258 311 369
#     4  10  21  37  61  90 122 161 204 255 309 372
#     4   9  19  38  63  91 122 157 200 252 310 372
#     4  11  24  40  60  91 126 163 211 256 310 376
#
# _framework density 20.854481
#
# number of rings (size 3 to 8) (size 9 to 14) (size 15 to 20)
#    0.000    1.667    1.667    2.500    2.333    3.667 
#    0.000    1.667    0.000    4.500    0.000    0.000 
#    0.000    0.000    0.000    0.000    0.000    0.000 
#
# Total GULP energy -595328.732293 kJ/mol
# GULP energy per Si atom -12402.681923 kJ/mol
# Density = 2.080701 g / cm^3
# Si number density = 20.854481 Si / 1000 Ang^3
#
#
#
# Elastic Constant Matrix: (Units=GPa)
#
#
# Indices 1 2 3 4 5 6 
#
# 1 129.7904 38.2529 18.1493 0.0000 0.0000 0.0000
# 2 38.2529 113.1003 22.6391 0.0000 0.0000 0.0000
# 3 18.1493 22.6391 29.4941 0.0000 0.0000 0.0000
# 4 0.0000 0.0000 0.0000 31.1402 0.0000 0.0000
# 5 0.0000 0.0000 0.0000 0.0000 22.5151 0.0000
# 6 0.0000 0.0000 0.0000 0.0000 0.0000 27.7705
#
#
#
# Elastic Compliance Matrix: (Units=1/GPa)
#
#
# Indices 1 2 3 4 5 6 
#
# 1 0.008893 -0.002260 -0.003738 0.000000 0.000000 0.000000
# 2 -0.002260 0.011021 -0.007069 0.000000 0.000000 0.000000
# 3 -0.003738 -0.007069 0.041631 0.000000 0.000000 0.000000
# 4 0.000000 0.000000 0.000000 0.032113 0.000000 0.000000
# 5 0.000000 0.000000 0.000000 0.000000 0.044415 0.000000
# 6 0.000000 0.000000 0.000000 0.000000 0.000000 0.036009
#
#
# Mechanical properties :
#
#
# Convention : Reuss Voigt Hill
#
# Bulk Modulus (GPa) = 28.23885 47.82971 38.03428
# Shear Modulus (GPa) = 23.58264 29.17473 26.37869
#
# Velocity S-wave (km/s) = 3.36641 3.74433 3.56039
# Velocity P-wave (km/s) = 5.35543 6.45586 5.93122
#
# Compressibility (1/GPa) = 0.03541221
#
# Stress axis : x y z
#
# Youngs Moduli (GPa) = 112.44235 90.73599 24.02034
#
# Poissons Ratio (x) = 0.20504 0.08979
# Poissons Ratio (y) = 0.25409 0.16980
# Poissons Ratio (z) = 0.42032 0.64141
#
# Static dielectric constant tensor:
#      x y z
#    x 3.954530 0.000000 0.000000 
#    y 0.000000 3.830110 0.000000 
#    z 0.000000 0.000000 3.471090 
# 
# 
# High freq. dielectric constant tensor:
#      x y z
#    x 1.827550 0.000000 0.000000 
#    y 0.000000 1.822390 0.000000 
#    z 0.000000 0.000000 1.791920 
# 
# From -- ./inp_files/4197.got.cif
#   From: 2010.06.25/outbox.cif.g09.slc.cpg/sg58_3_cif.got.tgz:4197.got - 2010.06.26 21:38:00.
