data_PCOD8237428
_publ_section_title
;
Structure prediction by ZEFSAII (Michael W. Deem and Ramdas Pophale) SiO2 
 PCOD8237428
Probable space group: P N N M
;
_chemical_formula_sum "Si O2"
_cell_formula_units_Z 64
_cell_length_a 23.559505
_cell_length_b 15.235428
_cell_length_c 8.950416
_cell_angle_alpha 90.000000
_cell_angle_beta 90.000000
_cell_angle_gamma 90.000000
_cell_volume 3212.654641
_symmetry_space_group_name_H-M "P N N M"
_symmetry_group_IT_number 58
_symmetry_cell_setting 'orthorhombic'
loop_
_space_group_symop_operation_xyz
x,y,z
-x,-y,z
1/2+x,1/2-y,1/2-z
1/2-x,1/2+y,1/2-z
-x,-y,-z
x,y,-z
1/2-x,1/2+y,1/2+z
1/2+x,1/2-y,1/2+z
loop_
_atom_site_type_symbol
_atom_site_label
_atom_site_fract_x
_atom_site_fract_y
_atom_site_fract_z
Si Si1 0.053576 0.440678 0.324852
Si Si2 0.624738 0.636176 0.328586
Si Si3 0.190862 0.194048 0.825428
Si Si4 0.198106 0.701854 0.829996
Si Si5 0.667792 0.992173 0.324382
Si Si6 0.717415 0.505467 0.676320
Si Si7 0.923230 0.756809 0.324697
Si Si8 0.497378 0.397985 0.676180
O O1 0.062285 0.455483 0.500000
O O2 0.110264 0.471103 0.243354
O O3 0.045680 0.336530 0.288341
O O4 0.000000 0.500000 0.268752
O O5 0.617935 0.607011 0.500000
O O6 0.645435 0.734466 0.309289
O O7 0.669137 0.568705 0.255849
O O8 0.562756 0.632996 0.256069
O O9 0.250352 0.235924 0.772836
O O10 0.140187 0.243229 0.741224
O O11 0.195893 0.091576 0.782181
O O12 0.181809 0.208740 0.000000
O O13 0.172414 0.609537 0.780295
O O14 0.220450 0.699540 0.000000
O O15 0.667021 0.009701 0.500000
O O16 0.724009 0.035780 0.254024
O O17 0.726335 0.517336 0.500000
O O18 0.919184 0.771198 0.500000
O O19 0.955121 0.839842 0.254913
O O20 0.500000 0.500000 0.717825
O O21 0.504807 0.382593 0.500000
#
# Coordination Sequence:
#
# PCOD8237428 Si02
#       8
#     8   8   8   8   8   8   8   8
#     4  10  24  44  62  80 110 156 205 249 297 357
#     4   9  18  33  57  83 111 148 190 231 278 341
#     4  10  20  36  58  85 116 151 193 237 287 350
#     4   9  19  35  55  83 117 151 184 230 292 352
#     4  10  21  36  57  86 118 148 187 240 297 346
#     4   9  18  35  59  85 115 155 192 225 276 348
#     4  11  24  40  61  88 118 156 200 249 301 351
#     4  10  21  39  63  90 120 157 199 241 289 352
#
# _framework density 19.921220999999999
#
# number of rings (size 3 to 8) (size 9 to 14) (size 15 to 20)
#    0.000    2.250    0.000    1.875    3.500    4.500 
#    0.000    1.250    0.000    0.000    0.000    0.000 
#    0.000    0.000    0.000    0.000    0.000    0.000 
#
# Total GULP energy -793460.671327 kJ/mol
# GULP energy per Si atom -12397.822989 kJ/mol
# Density = 1.987588 g / cm^3
# Si number density = 19.921221 Si / 1000 Ang^3
#
#
#
# Elastic Constant Matrix: (Units=GPa)
#
#
# Indices 1 2 3 4 5 6 
#
# 1 123.4378 43.9844 42.2359 0.0000 0.0000 0.0000
# 2 43.9844 81.4342 38.7551 0.0000 0.0000 0.0000
# 3 42.2359 38.7551 62.1554 0.0000 0.0000 0.0000
# 4 0.0000 0.0000 0.0000 23.2382 0.0000 0.0000
# 5 0.0000 0.0000 0.0000 0.0000 28.4493 0.0000
# 6 0.0000 0.0000 0.0000 0.0000 0.0000 32.3823
#
#
#
# Elastic Compliance Matrix: (Units=1/GPa)
#
#
# Indices 1 2 3 4 5 6 
#
# 1 0.011198 -0.003451 -0.005458 0.000000 0.000000 0.000000
# 2 -0.003451 0.018525 -0.009205 0.000000 0.000000 0.000000
# 3 -0.005458 -0.009205 0.025537 0.000000 0.000000 0.000000
# 4 0.000000 0.000000 0.000000 0.043033 0.000000 0.000000
# 5 0.000000 0.000000 0.000000 0.000000 0.035150 0.000000
# 6 0.000000 0.000000 0.000000 0.000000 0.000000 0.030881
#
#
# Mechanical properties :
#
#
# Convention : Reuss Voigt Hill
#
# Bulk Modulus (GPa) = 52.54380 57.44201 54.99291
# Shear Modulus (GPa) = 24.16664 26.28410 25.22537
#
# Velocity S-wave (km/s) = 3.48675 3.63630 3.56231
# Velocity P-wave (km/s) = 6.53016 6.82110 6.67721
#
# Compressibility (1/GPa) = 0.01903174
#
# Stress axis : x y z
#
# Youngs Moduli (GPa) = 89.29835 53.98162 39.15872
#
# Poissons Ratio (x) = 0.18630 0.21372
# Poissons Ratio (y) = 0.30818 0.36047
# Poissons Ratio (z) = 0.48736 0.49692
#
# Static dielectric constant tensor:
#      x y z
#    x 3.786870 0.000000 0.000000 
#    y 0.000000 3.739720 0.000000 
#    z 0.000000 0.000000 3.470220 
# 
# 
# High freq. dielectric constant tensor:
#      x y z
#    x 1.786800 0.000000 0.000000 
#    y 0.000000 1.784360 0.000000 
#    z 0.000000 0.000000 1.757790 
# 
# From -- ./inp_files/10005.got.cif
#   From: 2010.06.25/outbox.cif.g09.slc.cpg/sg58_6_cif.got.tgz:10005.got - 2010.06.26 21:38:00.
