data_PCOD8237671
_publ_section_title
;
Structure prediction by ZEFSAII (Michael W. Deem and Ramdas Pophale) SiO2 
 PCOD8237671
Probable space group: P N N M
;
_chemical_formula_sum "Si O2"
_cell_formula_units_Z 48
_cell_length_a 14.961382
_cell_length_b 20.506838
_cell_length_c 7.608068
_cell_angle_alpha 90.000000
_cell_angle_beta 90.000000
_cell_angle_gamma 90.000000
_cell_volume 2334.236189
_symmetry_space_group_name_H-M "P N N M"
_symmetry_group_IT_number 58
_symmetry_cell_setting 'orthorhombic'
loop_
_space_group_symop_operation_xyz
x,y,z
-x,-y,z
1/2+x,1/2-y,1/2-z
1/2-x,1/2+y,1/2-z
-x,-y,-z
x,y,-z
1/2-x,1/2+y,1/2+z
1/2+x,1/2-y,1/2+z
loop_
_atom_site_type_symbol
_atom_site_label
_atom_site_fract_x
_atom_site_fract_y
_atom_site_fract_z
Si Si1 0.139879 0.541804 0.000000
Si Si2 0.955481 0.199080 0.707935
Si Si3 0.731288 0.754908 0.207966
Si Si4 0.090857 0.307348 0.697995
Si Si5 0.043534 0.067707 0.291567
Si Si6 0.451614 0.903217 0.500000
Si Si7 0.256362 0.595758 0.300794
O O1 0.199937 0.549269 0.826191
O O2 0.098501 0.471005 0.000000
O O3 0.058855 0.593100 0.000000
O O4 0.953235 0.199588 0.500000
O O5 0.860972 0.224520 0.780588
O O6 0.032010 0.248016 0.775122
O O7 0.978670 0.126180 0.774219
O O8 0.806879 0.714438 0.306153
O O9 0.739847 0.830301 0.262688
O O10 0.741966 0.746366 0.000000
O O11 0.061166 0.326545 0.500000
O O12 0.079028 0.368770 0.822252
O O13 0.055742 0.069098 0.500000
O O14 0.139865 0.076794 0.205101
O O15 0.000000 0.000000 0.227579
O O16 0.221744 0.586322 0.500000
#
# Coordination Sequence:
#
# PCOD8237671 Si02
#       7
#     4   8   8   8   8   4   8
#     4  11  26  46  69  90 130 174 223 266 331 404
#     4   9  19  36  60  91 130 166 214 270 323 384
#     4  10  20  37  62  95 131 171 219 269 324 389
#     4  11  22  40  65  94 130 166 212 276 330 383
#     4  10  20  37  62  93 129 177 217 262 325 393
#     4  11  26  46  66  96 125 172 220 274 327 392
#     4  11  23  41  67  97 128 174 221 269 329 401
#
# _framework density 20.563471
#
# number of rings (size 3 to 8) (size 9 to 14) (size 15 to 20)
#    0.000    1.667    3.333    1.000    1.167    4.333 
#    1.500    1.667    0.000    0.000    0.000    0.000 
#    0.000    0.000    0.000    0.000    0.000    0.000 
#
# Total GULP energy -595340.044318 kJ/mol
# GULP energy per Si atom -12402.917590 kJ/mol
# Density = 2.051667 g / cm^3
# Si number density = 20.563471 Si / 1000 Ang^3
#
#
#
# Elastic Constant Matrix: (Units=GPa)
#
#
# Indices 1 2 3 4 5 6 
#
# 1 161.6445 65.0870 25.2939 0.0000 0.0000 0.0000
# 2 65.0870 111.9769 35.8930 0.0000 0.0000 0.0000
# 3 25.2939 35.8930 84.9918 0.0000 0.0000 0.0000
# 4 0.0000 0.0000 0.0000 -4.7655 0.0000 0.0000
# 5 0.0000 0.0000 0.0000 0.0000 19.4947 0.0000
# 6 0.0000 0.0000 0.0000 0.0000 0.0000 39.7485
#
#
#
# Elastic Compliance Matrix: (Units=1/GPa)
#
#
# Indices 1 2 3 4 5 6 
#
# 1 0.008094 -0.004548 -0.000488 0.000000 0.000000 0.000000
# 2 -0.004548 0.012884 -0.004088 0.000000 0.000000 0.000000
# 3 -0.000488 -0.004088 0.013637 0.000000 0.000000 0.000000
# 4 0.000000 0.000000 0.000000 -0.209843 0.000000 0.000000
# 5 0.000000 0.000000 0.000000 0.000000 0.051296 0.000000
# 6 0.000000 0.000000 0.000000 0.000000 0.000000 0.025158
#
#
# Mechanical properties :
#
#
# Convention : Reuss Voigt Hill
#
# Bulk Modulus (GPa) = 61.09517 67.90677 64.50097
# Shear Modulus (GPa) = -66.60590 26.38482 -20.11054
#
# Velocity S-wave (km/s) = -5.69743 3.58591 -3.13065
# Velocity P-wave (km/s) = 3.67504 7.08800 4.28566
#
# Compressibility (1/GPa) = 0.01636791
#
# Stress axis : x y z
#
# Youngs Moduli (GPa) = 123.54534 77.61324 73.32808
#
# Poissons Ratio (x) = 0.35301 0.03579
# Poissons Ratio (y) = 0.56193 0.29974
# Poissons Ratio (z) = 0.06030 0.31725
#
# Static dielectric constant tensor:
#      x y z
#    x 3.894260 0.000000 0.000000 
#    y 0.000000 3.750760 0.000000 
#    z 0.000000 0.000000 3.548320 
# 
# 
# High freq. dielectric constant tensor:
#      x y z
#    x 1.814180 0.000000 0.000000 
#    y 0.000000 1.798370 0.000000 
#    z 0.000000 0.000000 1.799940 
# 
# From -- ./inp_files/5942.got.cif
#   From: 2010.06.25/outbox.cif.g09.slc.cpg/sg58_3_cif.got.tgz:5942.got - 2010.06.26 21:38:00.
