data_PCOD8237909
_publ_section_title
;
Structure prediction by ZEFSAII (Michael W. Deem and Ramdas Pophale) SiO2 
 PCOD8237909
Probable space group: P N N M
;
_chemical_formula_sum "Si O2"
_cell_formula_units_Z 48
_cell_length_a 9.593386
_cell_length_b 29.350888
_cell_length_c 8.225335
_cell_angle_alpha 90.000000
_cell_angle_beta 90.000000
_cell_angle_gamma 90.000000
_cell_volume 2316.043751
_symmetry_space_group_name_H-M "P N N M"
_symmetry_group_IT_number 58
_symmetry_cell_setting 'orthorhombic'
loop_
_space_group_symop_operation_xyz
x,y,z
-x,-y,z
1/2+x,1/2-y,1/2-z
1/2-x,1/2+y,1/2-z
-x,-y,-z
x,y,-z
1/2-x,1/2+y,1/2+z
1/2+x,1/2-y,1/2+z
loop_
_atom_site_type_symbol
_atom_site_label
_atom_site_fract_x
_atom_site_fract_y
_atom_site_fract_z
Si Si1 0.983826 0.634281 0.305984
Si Si2 0.210731 0.285949 0.690692
Si Si3 0.396804 0.963083 0.808665
Si Si4 0.526606 0.295590 0.307925
Si Si5 0.792850 0.879831 0.807804
Si Si6 0.361524 0.520577 0.307928
O O1 0.978247 0.636111 0.500000
O O2 0.887068 0.674427 0.233078
O O3 0.922170 0.586976 0.236006
O O4 0.143657 0.639178 0.243602
O O5 0.223550 0.293338 0.500000
O O6 0.369391 0.288330 0.761831
O O7 0.137463 0.238444 0.728558
O O8 0.500000 0.000000 0.729690
O O9 0.245031 0.980646 0.764917
O O10 0.425291 0.960276 0.000000
O O11 0.530583 0.288075 0.500000
O O12 0.581231 0.345978 0.259460
O O13 0.822371 0.930030 0.732557
O O14 0.781129 0.884379 0.000000
O O15 0.500000 0.500000 0.228688
O O16 0.377068 0.527275 0.500000
#
# Coordination Sequence:
#
# PCOD8237909 Si02
#       6
#     8   8   8   8   8   8
#     4   9  16  26  42  62  89 124 159 196 239 286
#     4  10  21  35  52  74  98 129 166 205 249 295
#     4   9  14  22  35  55  84 120 157 187 225 283
#     4  10  21  35  52  73  99 129 165 206 248 295
#     4   9  16  27  41  61  90 125 159 195 241 286
#     4   9  16  22  33  55  86 122 155 189 232 282
#
# _framework density 20.724996000000001
#
# number of rings (size 3 to 8) (size 9 to 14) (size 15 to 20)
#    0.000    2.667    1.667    1.000    2.333    2.000 
#    0.000    0.000    0.000    0.000    0.000    0.000 
#    0.000    2.667    0.000    0.167    0.000    0.000 
#
# Total GULP energy -594849.506408 kJ/mol
# GULP energy per Si atom -12392.698050 kJ/mol
# Density = 2.067782 g / cm^3
# Si number density = 20.724996 Si / 1000 Ang^3
#
#
#
# Elastic Constant Matrix: (Units=GPa)
#
#
# Indices 1 2 3 4 5 6 
#
# 1 156.5285 55.3692 5.1824 0.0000 0.0000 0.0000
# 2 55.3692 116.1121 1.0942 0.0000 0.0000 0.0000
# 3 5.1824 1.0942 3.9749 0.0000 0.0000 0.0000
# 4 0.0000 0.0000 0.0000 11.5110 0.0000 0.0000
# 5 0.0000 0.0000 0.0000 0.0000 11.8422 0.0000
# 6 0.0000 0.0000 0.0000 0.0000 0.0000 39.9984
#
#
#
# Elastic Compliance Matrix: (Units=1/GPa)
#
#
# Indices 1 2 3 4 5 6 
#
# 1 0.008023 -0.003737 -0.009431 0.000000 0.000000 0.000000
# 2 -0.003737 0.010375 0.002016 0.000000 0.000000 0.000000
# 3 -0.009431 0.002016 0.263318 0.000000 0.000000 0.000000
# 4 0.000000 0.000000 0.000000 0.086874 0.000000 0.000000
# 5 0.000000 0.000000 0.000000 0.000000 0.084444 0.000000
# 6 0.000000 0.000000 0.000000 0.000000 0.000000 0.025001
#
#
# Mechanical properties :
#
#
# Convention : Reuss Voigt Hill
#
# Bulk Modulus (GPa) = 3.85488 44.43413 24.14450
# Shear Modulus (GPa) = 8.52066 27.00161 17.76114
#
# Velocity S-wave (km/s) = 2.02983 3.61342 2.93062
# Velocity P-wave (km/s) = 2.71250 6.23663 4.80901
#
# Compressibility (1/GPa) = 0.25941169
#
# Stress axis : x y z
#
# Youngs Moduli (GPa) = 124.64632 96.38261 3.79769
#
# Poissons Ratio (x) = 0.36017 0.03582
# Poissons Ratio (y) = 0.46578 -0.00766
# Poissons Ratio (z) = 1.17556 -0.19430
#
# Static dielectric constant tensor:
#      x y z
#    x 4.093500 0.000000 0.000000 
#    y 0.000000 3.989360 0.000000 
#    z 0.000000 0.000000 2.922810 
# 
# 
# High freq. dielectric constant tensor:
#      x y z
#    x 1.827790 0.000000 0.000000 
#    y 0.000000 1.825430 0.000000 
#    z 0.000000 0.000000 1.726210 
# 
# From -- ./inp_files/2980.got.cif
#   From: 2010.06.25/outbox.cif.g09.slc.cpg/sg58_2_cif.got.tgz:2980.got - 2010.06.26 21:38:00.
