data_PCOD8237784
_publ_section_title
;
Structure prediction by ZEFSAII (Michael W. Deem and Ramdas Pophale) SiO2 
 PCOD8237784
Probable space group: P N N M
;
_chemical_formula_sum "Si O2"
_cell_formula_units_Z 40
_cell_length_a 9.295498
_cell_length_b 16.319195
_cell_length_c 12.343672
_cell_angle_alpha 90.000000
_cell_angle_beta 90.000000
_cell_angle_gamma 90.000000
_cell_volume 1872.473873
_symmetry_space_group_name_H-M "P N N M"
_symmetry_group_IT_number 58
_symmetry_cell_setting 'orthorhombic'
loop_
_space_group_symop_operation_xyz
x,y,z
-x,-y,z
1/2+x,1/2-y,1/2-z
1/2-x,1/2+y,1/2-z
-x,-y,-z
x,y,-z
1/2-x,1/2+y,1/2+z
1/2+x,1/2-y,1/2+z
loop_
_atom_site_type_symbol
_atom_site_label
_atom_site_fract_x
_atom_site_fract_y
_atom_site_fract_z
Si Si1 0.402190 0.620520 0.000000
Si Si2 0.846393 0.522500 0.620688
Si Si3 0.082385 0.076876 0.879552
Si Si4 0.217583 0.351304 0.210648
Si Si5 0.974409 0.788322 0.288833
Si Si6 0.276820 0.445647 0.000000
O O1 0.386852 0.678371 0.893834
O O2 0.282873 0.546292 0.000000
O O3 0.559149 0.581853 0.000000
O O4 0.871293 0.558833 0.500000
O O5 0.752801 0.440074 0.615612
O O6 0.754882 0.587474 0.689908
O O7 0.000000 0.500000 0.674276
O O8 0.060269 0.157197 0.813154
O O9 0.018748 0.090925 0.000000
O O10 0.000000 0.000000 0.824843
O O11 0.076658 0.300979 0.249068
O O12 0.353264 0.290485 0.191276
O O13 0.193539 0.408024 0.104131
#
# Coordination Sequence:
#
# PCOD8237784 Si02
#       6
#     4   8   8   8   8   4
#     4   9  20  40  67  88 115 170 217 247 302 387
#     4  10  22  40  64  91 120 160 206 254 302 370
#     4  10  20  38  64  90 115 158 206 252 302 363
#     4  11  24  41  62  91 129 161 205 257 312 367
#     4  11  24  39  63  91 124 163 205 257 312 370
#     4   9  20  42  66  89 120 165 216 257 299 375
#
# _framework density 21.362113999999998
#
# number of rings (size 3 to 8) (size 9 to 14) (size 15 to 20)
#    0.000    1.800    2.000    1.200    8.400    0.000 
#    0.000    0.500    0.000    0.000    0.000    0.000 
#    0.000    0.000    0.000    0.000    0.000    0.000 
#
# Total GULP energy -495764.937340 kJ/mol
# GULP energy per Si atom -12394.123434 kJ/mol
# Density = 2.131349 g / cm^3
# Si number density = 21.362114 Si / 1000 Ang^3
#
#
#
# Elastic Constant Matrix: (Units=GPa)
#
#
# Indices 1 2 3 4 5 6 
#
# 1 59.7534 1.1613 8.5083 0.0000 0.0000 0.0000
# 2 1.1613 56.6696 38.3657 0.0000 0.0000 0.0000
# 3 8.5083 38.3657 105.3393 0.0000 0.0000 0.0000
# 4 0.0000 0.0000 0.0000 29.8141 0.0000 0.0000
# 5 0.0000 0.0000 0.0000 0.0000 -14.8424 0.0000
# 6 0.0000 0.0000 0.0000 0.0000 0.0000 36.6279
#
#
#
# Elastic Compliance Matrix: (Units=1/GPa)
#
#
# Indices 1 2 3 4 5 6 
#
# 1 0.016955 0.000769 -0.001650 0.000000 0.000000 0.000000
# 2 0.000769 0.023456 -0.008605 0.000000 0.000000 0.000000
# 3 -0.001650 -0.008605 0.012760 0.000000 0.000000 0.000000
# 4 0.000000 0.000000 0.000000 0.033541 0.000000 0.000000
# 5 0.000000 0.000000 0.000000 0.000000 -0.067375 0.000000
# 6 0.000000 0.000000 0.000000 0.000000 0.000000 0.027302
#
#
# Mechanical properties :
#
#
# Convention : Reuss Voigt Hill
#
# Bulk Modulus (GPa) = 29.23881 35.31475 32.27678
# Shear Modulus (GPa) = 64.92544 21.90172 43.41358
#
# Velocity S-wave (km/s) = 5.51895 3.20544 4.51296
# Velocity P-wave (km/s) = 7.37080 5.50156 6.50368
#
# Compressibility (1/GPa) = 0.03420112
#
# Stress axis : x y z
#
# Youngs Moduli (GPa) = 58.97825 42.63285 78.36712
#
# Poissons Ratio (x) = -0.03280 0.12928
# Poissons Ratio (y) = -0.04538 0.67436
# Poissons Ratio (z) = 0.09730 0.36686
#
# Static dielectric constant tensor:
#      x y z
#    x 4.109050 0.000000 0.000000 
#    y 0.000000 3.888150 0.000000 
#    z 0.000000 0.000000 3.981730 
# 
# 
# High freq. dielectric constant tensor:
#      x y z
#    x 1.822500 0.000000 0.000000 
#    y 0.000000 1.819370 0.000000 
#    z 0.000000 0.000000 1.845760 
# 
# From -- ./inp_files/19529.got.cif
#   From: 2010.06.25/outbox.cif.g09.slc.cpg/sg58_10_cif.got.tgz:19529.got - 2010.06.26 21:38:00.
