data_PCOD8237221
_publ_section_title
;
Structure prediction by ZEFSAII (Michael W. Deem and Ramdas Pophale) SiO2 
 PCOD8237221
Probable space group: P N N M
;
_chemical_formula_sum "Si O2"
_cell_formula_units_Z 56
_cell_length_a 14.384139
_cell_length_b 22.266882
_cell_length_c 8.756020
_cell_angle_alpha 90.000000
_cell_angle_beta 90.000000
_cell_angle_gamma 90.000000
_cell_volume 2804.464996
_symmetry_space_group_name_H-M "P N N M"
_symmetry_group_IT_number 58
_symmetry_cell_setting 'orthorhombic'
loop_
_space_group_symop_operation_xyz
x,y,z
-x,-y,z
1/2+x,1/2-y,1/2-z
1/2-x,1/2+y,1/2-z
-x,-y,-z
x,y,-z
1/2-x,1/2+y,1/2+z
1/2+x,1/2-y,1/2+z
loop_
_atom_site_type_symbol
_atom_site_label
_atom_site_fract_x
_atom_site_fract_y
_atom_site_fract_z
Si Si1 0.399490 0.341439 0.175709
Si Si2 0.098241 0.288281 0.323191
Si Si3 0.895468 0.498903 0.319819
Si Si4 0.206910 0.391037 0.825120
Si Si5 0.094886 0.716423 0.178744
Si Si6 0.285065 0.117331 0.820658
Si Si7 0.894975 0.851962 0.675071
O O1 0.318719 0.390791 0.198677
O O2 0.379150 0.284846 0.283444
O O3 0.499194 0.371220 0.216503
O O4 0.403046 0.318232 0.000000
O O5 0.109720 0.305122 0.500000
O O6 0.171052 0.325757 0.224337
O O7 0.116324 0.218652 0.291141
O O8 0.994747 0.306164 0.271549
O O9 0.901363 0.496823 0.500000
O O10 0.839257 0.557908 0.275503
O O11 0.840545 0.440722 0.259221
O O12 0.000000 0.500000 0.250321
O O13 0.180728 0.402966 0.000000
O O14 0.180583 0.675115 0.227943
O O15 0.075864 0.710202 0.000000
O O16 0.175589 0.110560 0.781343
O O17 0.299165 0.126556 0.000000
O O18 0.871880 0.866858 0.500000
#
# Coordination Sequence:
#
# PCOD8237221 Si02
#       7
#     8   8   8   8   8   8   8
#     4   9  20  38  57  81 114 148 182 223 275 331
#     4  10  20  35  55  81 116 152 182 220 275 334
#     4  10  23  42  60  78 106 146 185 223 276 335
#     4  11  22  36  58  85 110 142 187 234 276 324
#     4  11  21  33  55  86 115 146 185 228 274 325
#     4  11  22  36  56  81 110 146 186 229 278 330
#     4   9  19  36  57  81 111 147 184 223 270 325
#
# _framework density 19.968157999999999
#
# number of rings (size 3 to 8) (size 9 to 14) (size 15 to 20)
#    0.000    1.857    0.000    5.143    0.000    8.857 
#    0.000    0.714    0.000    4.286    0.000    0.000 
#    0.000    0.000    0.000    0.000    0.000    0.000 
#
# Total GULP energy -694567.983693 kJ/mol
# GULP energy per Si atom -12402.999709 kJ/mol
# Density = 1.992271 g / cm^3
# Si number density = 19.968158 Si / 1000 Ang^3
#
#
#
# Elastic Constant Matrix: (Units=GPa)
#
#
# Indices 1 2 3 4 5 6 
#
# 1 144.8176 54.2669 20.1648 0.0000 0.0000 0.0000
# 2 54.2669 57.8464 19.1450 0.0000 0.0000 0.0000
# 3 20.1648 19.1450 29.4852 0.0000 0.0000 0.0000
# 4 0.0000 0.0000 0.0000 22.1613 0.0000 0.0000
# 5 0.0000 0.0000 0.0000 0.0000 32.1592 0.0000
# 6 0.0000 0.0000 0.0000 0.0000 0.0000 31.6239
#
#
#
# Elastic Compliance Matrix: (Units=1/GPa)
#
#
# Indices 1 2 3 4 5 6 
#
# 1 0.010673 -0.009676 -0.001016 0.000000 0.000000 0.000000
# 2 -0.009676 0.030791 -0.013376 0.000000 0.000000 0.000000
# 3 -0.001016 -0.013376 0.043295 0.000000 0.000000 0.000000
# 4 0.000000 0.000000 0.000000 0.045124 0.000000 0.000000
# 5 0.000000 0.000000 0.000000 0.000000 0.031095 0.000000
# 6 0.000000 0.000000 0.000000 0.000000 0.000000 0.031622
#
#
# Mechanical properties :
#
#
# Convention : Reuss Voigt Hill
#
# Bulk Modulus (GPa) = 27.30496 46.58918 36.94707
# Shear Modulus (GPa) = 19.76731 26.42706 23.09718
#
# Velocity S-wave (km/s) = 3.14975 3.64189 3.40472
# Velocity P-wave (km/s) = 5.18959 6.40834 5.83089
#
# Compressibility (1/GPa) = 0.03662338
#
# Stress axis : x y z
#
# Youngs Moduli (GPa) = 93.69871 32.47700 23.09712
#
# Poissons Ratio (x) = 0.31424 0.02347
# Poissons Ratio (y) = 0.90660 0.30894
# Poissons Ratio (z) = 0.09523 0.43440
#
# Static dielectric constant tensor:
#      x y z
#    x 3.949320 0.000000 0.000000 
#    y 0.000000 3.344740 0.000000 
#    z 0.000000 0.000000 3.515760 
# 
# 
# High freq. dielectric constant tensor:
#      x y z
#    x 1.798180 0.000000 0.000000 
#    y 0.000000 1.749240 0.000000 
#    z 0.000000 0.000000 1.776170 
# 
# From -- ./inp_files/6367.got.cif
#   From: 2010.06.25/outbox.cif.g09.slc.cpg/sg58_4_cif.got.tgz:6367.got - 2010.06.26 21:38:00.
