data_PCOD8237048
_publ_section_title
;
Structure prediction by ZEFSAII (Michael W. Deem and Ramdas Pophale) SiO2 
 PCOD8237048
Probable space group: P N N M
;
_chemical_formula_sum "Si O2"
_cell_formula_units_Z 64
_cell_length_a 18.521097
_cell_length_b 19.809910
_cell_length_c 9.299172
_cell_angle_alpha 90.000000
_cell_angle_beta 90.000000
_cell_angle_gamma 90.000000
_cell_volume 3411.877967
_symmetry_space_group_name_H-M "P N N M"
_symmetry_group_IT_number 58
_symmetry_cell_setting 'orthorhombic'
loop_
_space_group_symop_operation_xyz
x,y,z
-x,-y,z
1/2+x,1/2-y,1/2-z
1/2-x,1/2+y,1/2-z
-x,-y,-z
x,y,-z
1/2-x,1/2+y,1/2+z
1/2+x,1/2-y,1/2+z
loop_
_atom_site_type_symbol
_atom_site_label
_atom_site_fract_x
_atom_site_fract_y
_atom_site_fract_z
Si Si1 0.356628 0.723270 0.835119
Si Si2 0.286454 0.474739 0.329196
Si Si3 0.445920 0.441605 0.329583
Si Si4 0.166944 0.372833 0.670919
Si Si5 0.484840 0.925233 0.828245
Si Si6 0.257097 0.625753 0.329262
Si Si7 0.021103 0.807385 0.664874
Si Si8 0.896337 0.322941 0.670454
O O1 0.324061 0.794916 0.782356
O O2 0.324910 0.664254 0.737512
O O3 0.442738 0.726224 0.817321
O O4 0.335394 0.709110 0.000000
O O5 0.286565 0.472310 0.500000
O O6 0.366549 0.459912 0.270472
O O7 0.232830 0.417452 0.266659
O O8 0.259839 0.548168 0.277296
O O9 0.500000 0.500000 0.278288
O O10 0.446585 0.433850 0.500000
O O11 0.472729 0.371985 0.264249
O O12 0.164837 0.377873 0.500000
O O13 0.092272 0.401912 0.733597
O O14 0.546958 0.876632 0.765411
O O15 0.500000 0.000000 0.770798
O O16 0.484644 0.922944 0.000000
O O17 0.263647 0.630579 0.500000
O O18 0.183371 0.659687 0.271021
O O19 0.034550 0.828565 0.500000
O O20 0.080407 0.752471 0.716360
O O21 0.897215 0.329529 0.500000
#
# Coordination Sequence:
#
# PCOD8237048 Si02
#       8
#     8   8   8   8   8   8   8   8
#     4  10  20  34  53  75 104 139 171 208 255 308
#     4   9  18  32  50  74 103 135 172 214 258 304
#     4  10  21  36  54  76 103 136 178 224 261 298
#     4   9  16  28  46  72 103 133 165 205 253 302
#     4   9  14  23  44  72 101 130 161 199 246 299
#     4  10  20  34  54  77 104 134 167 211 260 306
#     4  10  20  35  53  76 107 138 170 210 258 311
#     4   9  17  30  47  74 107 134 162 205 257 305
#
# _framework density 18.757998000000001
#
# number of rings (size 3 to 8) (size 9 to 14) (size 15 to 20)
#    0.000    2.500    1.250    1.500    1.750    4.750 
#    0.000    0.625    0.000    0.750    0.000    0.000 
#    0.000    2.500    0.000    0.000    0.000    0.000 
#
# Total GULP energy -793585.138270 kJ/mol
# GULP energy per Si atom -12399.767785 kJ/mol
# Density = 1.871530 g / cm^3
# Si number density = 18.757998 Si / 1000 Ang^3
#
#
#
# Elastic Constant Matrix: (Units=GPa)
#
#
# Indices 1 2 3 4 5 6 
#
# 1 102.8610 46.7431 17.4824 0.0000 0.0000 0.0000
# 2 46.7431 140.2473 25.6695 0.0000 0.0000 0.0000
# 3 17.4824 25.6695 16.2658 0.0000 0.0000 0.0000
# 4 0.0000 0.0000 0.0000 16.4822 0.0000 0.0000
# 5 0.0000 0.0000 0.0000 0.0000 14.6926 0.0000
# 6 0.0000 0.0000 0.0000 0.0000 0.0000 41.6903
#
#
#
# Elastic Compliance Matrix: (Units=1/GPa)
#
#
# Indices 1 2 3 4 5 6 
#
# 1 0.012439 -0.002389 -0.009599 0.000000 0.000000 0.000000
# 2 -0.002389 0.010485 -0.013979 0.000000 0.000000 0.000000
# 3 -0.009599 -0.013979 0.093857 0.000000 0.000000 0.000000
# 4 0.000000 0.000000 0.000000 0.060672 0.000000 0.000000
# 5 0.000000 0.000000 0.000000 0.000000 0.068062 0.000000
# 6 0.000000 0.000000 0.000000 0.000000 0.000000 0.023986
#
#
# Mechanical properties :
#
#
# Convention : Reuss Voigt Hill
#
# Bulk Modulus (GPa) = 15.42117 48.79601 32.10859
# Shear Modulus (GPa) = 14.57510 25.87161 20.22335
#
# Velocity S-wave (km/s) = 2.79051 3.71783 3.28703
# Velocity P-wave (km/s) = 4.31527 6.67080 5.61788
#
# Compressibility (1/GPa) = 0.06484590
#
# Stress axis : x y z
#
# Youngs Moduli (GPa) = 80.39278 95.37392 10.65452
#
# Poissons Ratio (x) = 0.22783 0.10228
# Poissons Ratio (y) = 0.19204 0.14894
# Poissons Ratio (z) = 0.77173 1.33326
#
# Static dielectric constant tensor:
#      x y z
#    x 3.713270 0.000000 0.000000 
#    y 0.000000 3.561640 0.000000 
#    z 0.000000 0.000000 2.811010 
# 
# 
# High freq. dielectric constant tensor:
#      x y z
#    x 1.742850 0.000000 0.000000 
#    y 0.000000 1.745120 0.000000 
#    z 0.000000 0.000000 1.659430 
# 
# From -- ./inp_files/8378.got.cif
#   From: 2010.06.25/outbox.cif.g09.slc.cpg/sg58_5_cif.got.tgz:8378.got - 2010.06.26 21:38:00.
