data_PCOD8237218
_publ_section_title
;
Structure prediction by ZEFSAII (Michael W. Deem and Ramdas Pophale) SiO2 
 PCOD8237218
Probable space group: P N N M
;
_chemical_formula_sum "Si O2"
_cell_formula_units_Z 56
_cell_length_a 23.058763
_cell_length_b 13.619421
_cell_length_c 9.008052
_cell_angle_alpha 90.000000
_cell_angle_beta 90.000000
_cell_angle_gamma 90.000000
_cell_volume 2828.951716
_symmetry_space_group_name_H-M "P N N M"
_symmetry_group_IT_number 58
_symmetry_cell_setting 'orthorhombic'
loop_
_space_group_symop_operation_xyz
x,y,z
-x,-y,z
1/2+x,1/2-y,1/2-z
1/2-x,1/2+y,1/2-z
-x,-y,-z
x,y,-z
1/2-x,1/2+y,1/2+z
1/2+x,1/2-y,1/2+z
loop_
_atom_site_type_symbol
_atom_site_label
_atom_site_fract_x
_atom_site_fract_y
_atom_site_fract_z
Si Si1 0.468820 0.596447 0.672161
Si Si2 0.537382 0.794685 0.673625
Si Si3 0.833846 0.513501 0.824272
Si Si4 0.062712 0.392055 0.331881
Si Si5 0.630272 0.311179 0.165324
Si Si6 0.727129 0.210688 0.330076
Si Si7 0.158540 0.681997 0.327573
O O1 0.500000 0.500000 0.736915
O O2 0.455377 0.583850 0.500000
O O3 0.509533 0.689046 0.704117
O O4 0.406633 0.605869 0.751131
O O5 0.539088 0.820179 0.500000
O O6 0.500595 0.879453 0.757487
O O7 0.601656 0.789448 0.737511
O O8 0.899291 0.533778 0.767052
O O9 0.789735 0.600731 0.777562
O O10 0.812394 0.415940 0.740890
O O11 0.835546 0.496743 0.000000
O O12 0.055841 0.432254 0.500000
O O13 0.094225 0.288361 0.331984
O O14 0.692055 0.293642 0.241408
O O15 0.642138 0.348948 0.000000
O O16 0.708116 0.222690 0.500000
O O17 0.795415 0.229367 0.307301
O O18 0.143739 0.665343 0.500000
#
# Coordination Sequence:
#
# PCOD8237218 Si02
#       7
#     8   8   8   8   8   8   8
#     4   9  18  34  55  79 112 149 187 227 275 335
#     4  10  20  35  55  81 112 148 185 229 280 329
#     4  10  20  37  60  84 109 143 187 232 277 334
#     4   9  17  32  55  82 111 141 176 220 272 330
#     4   9  17  30  53  81 106 137 180 228 273 318
#     4   9  20  39  59  77 107 148 186 227 278 332
#     4  11  23  39  57  81 114 150 185 231 283 332
#
# _framework density 19.795318999999999
#
# number of rings (size 3 to 8) (size 9 to 14) (size 15 to 20)
#    0.000    2.429    0.000    2.143    0.000    6.571 
#    2.571    2.857    0.000    0.000    0.000    0.000 
#    0.000    0.000    0.000    0.000    0.000    0.000 
#
# Total GULP energy -694449.420404 kJ/mol
# GULP energy per Si atom -12400.882507 kJ/mol
# Density = 1.975026 g / cm^3
# Si number density = 19.795319 Si / 1000 Ang^3
#
#
#
# Elastic Constant Matrix: (Units=GPa)
#
#
# Indices 1 2 3 4 5 6 
#
# 1 95.9177 17.4147 37.6983 0.0000 0.0000 0.0000
# 2 17.4147 47.8412 24.8848 0.0000 0.0000 0.0000
# 3 37.6983 24.8848 94.6524 0.0000 0.0000 0.0000
# 4 0.0000 0.0000 0.0000 25.1112 0.0000 0.0000
# 5 0.0000 0.0000 0.0000 0.0000 32.8305 0.0000
# 6 0.0000 0.0000 0.0000 0.0000 0.0000 27.0741
#
#
#
# Elastic Compliance Matrix: (Units=1/GPa)
#
#
# Indices 1 2 3 4 5 6 
#
# 1 0.012572 -0.002284 -0.004407 0.000000 0.000000 0.000000
# 2 -0.002284 0.024629 -0.005565 0.000000 0.000000 0.000000
# 3 -0.004407 -0.005565 0.013783 0.000000 0.000000 0.000000
# 4 0.000000 0.000000 0.000000 0.039823 0.000000 0.000000
# 5 0.000000 0.000000 0.000000 0.000000 0.030459 0.000000
# 6 0.000000 0.000000 0.000000 0.000000 0.000000 0.036936
#
#
# Mechanical properties :
#
#
# Convention : Reuss Voigt Hill
#
# Bulk Modulus (GPa) = 37.77618 44.26743 41.02180
# Shear Modulus (GPa) = 26.10435 27.56406 26.83421
#
# Velocity S-wave (km/s) = 3.63535 3.73561 3.68582
# Velocity P-wave (km/s) = 6.06183 6.40449 6.23552
#
# Compressibility (1/GPa) = 0.02647171
#
# Stress axis : x y z
#
# Youngs Moduli (GPa) = 79.53984 40.60286 72.55170
#
# Poissons Ratio (x) = 0.09275 0.31972
# Poissons Ratio (y) = 0.18169 0.40377
# Poissons Ratio (z) = 0.35051 0.22597
#
# Static dielectric constant tensor:
#      x y z
#    x 3.521520 0.000000 0.000000 
#    y 0.000000 3.588890 0.000000 
#    z 0.000000 0.000000 3.724640 
# 
# 
# High freq. dielectric constant tensor:
#      x y z
#    x 1.766730 0.000000 0.000000 
#    y 0.000000 1.757980 0.000000 
#    z 0.000000 0.000000 1.780050 
# 
# From -- ./inp_files/6409.got.cif
#   From: 2010.06.25/outbox.cif.g09.slc.cpg/sg58_4_cif.got.tgz:6409.got - 2010.06.26 21:38:00.
