data_PCOD8237635
_publ_section_title
;
Structure prediction by ZEFSAII (Michael W. Deem and Ramdas Pophale) SiO2 
 PCOD8237635
Probable space group: P N N M
;
_chemical_formula_sum "Si O2"
_cell_formula_units_Z 48
_cell_length_a 14.033074
_cell_length_b 8.757135
_cell_length_c 19.293604
_cell_angle_alpha 90.000000
_cell_angle_beta 90.000000
_cell_angle_gamma 90.000000
_cell_volume 2370.981802
_symmetry_space_group_name_H-M "P N N M"
_symmetry_group_IT_number 58
_symmetry_cell_setting 'orthorhombic'
loop_
_space_group_symop_operation_xyz
x,y,z
-x,-y,z
1/2+x,1/2-y,1/2-z
1/2-x,1/2+y,1/2-z
-x,-y,-z
x,y,-z
1/2-x,1/2+y,1/2+z
1/2+x,1/2-y,1/2+z
loop_
_atom_site_type_symbol
_atom_site_label
_atom_site_fract_x
_atom_site_fract_y
_atom_site_fract_z
Si Si1 0.250871 0.262782 0.921016
Si Si2 0.716740 0.928345 0.791077
Si Si3 0.638808 0.265592 0.204619
Si Si4 0.891608 0.959494 0.578821
Si Si5 0.467758 0.827856 0.424729
Si Si6 0.963628 0.329016 0.783286
O O1 0.279212 0.123139 0.871063
O O2 0.323693 0.398541 0.905346
O O3 0.144335 0.322007 0.905395
O O4 0.261405 0.205085 0.000000
O O5 0.816732 0.895278 0.754137
O O6 0.642166 0.826630 0.746735
O O7 0.693855 0.106353 0.787461
O O8 0.642216 0.317476 0.125129
O O9 0.529227 0.254919 0.227343
O O10 0.881412 0.904470 0.500000
O O11 0.000000 0.000000 0.596808
O O12 0.485848 0.745268 0.500000
O O13 0.527415 0.752109 0.360676
O O14 0.500000 0.000000 0.434357
O O15 0.000000 0.500000 0.793752
#
# Coordination Sequence:
#
# PCOD8237635 Si02
#       6
#     8   8   8   8   8   8
#     4  10  20  37  61  85 116 154 198 247 296 355
#     4  11  22  37  57  87 119 155 198 242 299 355
#     4  11  22  36  58  84 119 157 194 245 296 353
#     4  10  22  39  59  85 117 154 195 243 301 361
#     4   9  17  31  55  83 108 145 195 240 283 337
#     4   9  19  34  53  79 111 148 193 241 281 342
#
# _framework density 20.244779999999999
#
# number of rings (size 3 to 8) (size 9 to 14) (size 15 to 20)
#    0.000    2.000    1.667    2.000    4.667    0.667 
#    0.000    0.000    0.000    6.000    0.000    2.333 
#    0.000    0.000    0.000    0.000    0.000    0.000 
#
# Total GULP energy -595004.872411 kJ/mol
# GULP energy per Si atom -12395.934842 kJ/mol
# Density = 2.019870 g / cm^3
# Si number density = 20.244780 Si / 1000 Ang^3
#
#
#
# Elastic Constant Matrix: (Units=GPa)
#
#
# Indices 1 2 3 4 5 6 
#
# 1 49.7815 9.2125 16.2210 0.0000 0.0000 0.0000
# 2 9.2125 51.4928 37.7461 0.0000 0.0000 0.0000
# 3 16.2210 37.7461 142.5586 0.0000 0.0000 0.0000
# 4 0.0000 0.0000 0.0000 34.0793 0.0000 0.0000
# 5 0.0000 0.0000 0.0000 0.0000 23.1218 0.0000
# 6 0.0000 0.0000 0.0000 0.0000 0.0000 19.6879
#
#
#
# Elastic Compliance Matrix: (Units=1/GPa)
#
#
# Indices 1 2 3 4 5 6 
#
# 1 0.021118 -0.002502 -0.001740 0.000000 0.000000 0.000000
# 2 -0.002502 0.024394 -0.006174 0.000000 0.000000 0.000000
# 3 -0.001740 -0.006174 0.008847 0.000000 0.000000 0.000000
# 4 0.000000 0.000000 0.000000 0.029343 0.000000 0.000000
# 5 0.000000 0.000000 0.000000 0.000000 0.043249 0.000000
# 6 0.000000 0.000000 0.000000 0.000000 0.000000 0.050793
#
#
# Mechanical properties :
#
#
# Convention : Reuss Voigt Hill
#
# Bulk Modulus (GPa) = 29.82820 41.13246 35.48033
# Shear Modulus (GPa) = 23.83751 27.42134 25.62943
#
# Velocity S-wave (km/s) = 3.43514 3.68433 3.56192
# Velocity P-wave (km/s) = 5.52262 6.20167 5.87197
#
# Compressibility (1/GPa) = 0.03352532
#
# Stress axis : x y z
#
# Youngs Moduli (GPa) = 47.35311 40.99402 113.02688
#
# Poissons Ratio (x) = 0.10259 0.19670
# Poissons Ratio (y) = 0.11850 0.69785
# Poissons Ratio (z) = 0.08241 0.25310
#
# Static dielectric constant tensor:
#      x y z
#    x 3.794150 0.000000 0.000000 
#    y 0.000000 3.175280 0.000000 
#    z 0.000000 0.000000 4.193170 
# 
# 
# High freq. dielectric constant tensor:
#      x y z
#    x 1.797300 0.000000 0.000000 
#    y 0.000000 1.748110 0.000000 
#    z 0.000000 0.000000 1.815520 
# 
# From -- ./inp_files/25268.got.cif
#   From: 2010.06.25/outbox.cif.g09.slc.cpg/sg58_13_cif.got.tgz:25268.got - 2010.06.26 21:38:00.
