data_PCOD8237788
_publ_section_title
;
Structure prediction by ZEFSAII (Michael W. Deem and Ramdas Pophale) SiO2 
 PCOD8237788
Probable space group: P N N M
;
_chemical_formula_sum "Si O2"
_cell_formula_units_Z 56
_cell_length_a 21.805246
_cell_length_b 7.948112
_cell_length_c 14.993392
_cell_angle_alpha 90.000000
_cell_angle_beta 90.000000
_cell_angle_gamma 90.000000
_cell_volume 2598.512825
_symmetry_space_group_name_H-M "P N N M"
_symmetry_group_IT_number 58
_symmetry_cell_setting 'orthorhombic'
loop_
_space_group_symop_operation_xyz
x,y,z
-x,-y,z
1/2+x,1/2-y,1/2-z
1/2-x,1/2+y,1/2-z
-x,-y,-z
x,y,-z
1/2-x,1/2+y,1/2+z
1/2+x,1/2-y,1/2+z
loop_
_atom_site_type_symbol
_atom_site_label
_atom_site_fract_x
_atom_site_fract_y
_atom_site_fract_z
Si Si1 0.669297 0.583476 0.396547
Si Si2 0.069602 0.438326 0.771391
Si Si3 0.673826 0.958315 0.604021
Si Si4 0.249711 0.722747 0.605198
Si Si5 0.431071 0.444622 0.094455
Si Si6 0.117759 0.598541 0.601370
Si Si7 0.069960 0.055126 0.221769
O O1 0.656131 0.554002 0.500000
O O2 0.699655 0.768224 0.381098
O O3 0.713315 0.438334 0.357186
O O4 0.604191 0.564909 0.347699
O O5 0.110219 0.540354 0.841926
O O6 0.097414 0.455275 0.670988
O O7 0.074748 0.248115 0.804911
O O8 0.000000 0.500000 0.774980
O O9 0.659224 0.989928 0.500000
O O10 0.721983 0.099440 0.640656
O O11 0.253723 0.725501 0.500000
O O12 0.179652 0.694272 0.634530
O O13 0.500000 0.500000 0.085885
O O14 0.433777 0.242471 0.105563
O O15 0.399579 0.531226 0.179695
O O16 0.396287 0.488252 0.000000
O O17 0.124479 0.523950 0.500000
O O18 0.000000 0.000000 0.225443
#
# Coordination Sequence:
#
# PCOD8237788 Si02
#       7
#     8   8   8   8   8   8   8
#     4  10  20  38  64  91 126 166 208 260 315 374
#     4  12  24  40  63  93 128 167 216 267 319 385
#     4  10  21  41  67  96 130 170 211 261 321 378
#     4   9  19  41  65  90 126 164 209 260 313 376
#     4   9  18  36  60  84 116 157 202 255 309 363
#     4  10  22  42  65  91 125 166 214 267 319 381
#     4  11  22  38  59  88 127 165 208 262 311 377
#
# _framework density 21.550787
#
# number of rings (size 3 to 8) (size 9 to 14) (size 15 to 20)
#    0.000    1.857    1.429    3.429    0.000    1.429 
#    7.714    0.000    0.000    0.000    0.000    0.000 
#    0.000    0.000    0.000    0.000    0.000    0.000 
#
# Total GULP energy -694029.290856 kJ/mol
# GULP energy per Si atom -12393.380194 kJ/mol
# Density = 2.150174 g / cm^3
# Si number density = 21.550787 Si / 1000 Ang^3
#
#
#
# Elastic Constant Matrix: (Units=GPa)
#
#
# Indices 1 2 3 4 5 6 
#
# 1 80.8642 37.5021 22.2553 0.0000 0.0000 0.0000
# 2 37.5021 135.5286 28.8652 0.0000 0.0000 0.0000
# 3 22.2553 28.8652 65.7796 0.0000 0.0000 0.0000
# 4 0.0000 0.0000 0.0000 30.8987 0.0000 0.0000
# 5 0.0000 0.0000 0.0000 0.0000 23.3044 0.0000
# 6 0.0000 0.0000 0.0000 0.0000 0.0000 21.0614
#
#
#
# Elastic Compliance Matrix: (Units=1/GPa)
#
#
# Indices 1 2 3 4 5 6 
#
# 1 0.014909 -0.003366 -0.003567 0.000000 0.000000 0.000000
# 2 -0.003366 0.008899 -0.002766 0.000000 0.000000 0.000000
# 3 -0.003567 -0.002766 0.017623 0.000000 0.000000 0.000000
# 4 0.000000 0.000000 0.000000 0.032364 0.000000 0.000000
# 5 0.000000 0.000000 0.000000 0.000000 0.042910 0.000000
# 6 0.000000 0.000000 0.000000 0.000000 0.000000 0.047480
#
#
# Mechanical properties :
#
#
# Convention : Reuss Voigt Hill
#
# Bulk Modulus (GPa) = 45.38732 51.04642 48.21687
# Shear Modulus (GPa) = 26.18782 27.95622 27.07202
#
# Velocity S-wave (km/s) = 3.48971 3.60561 3.54813
# Velocity P-wave (km/s) = 6.11095 6.40873 6.26161
#
# Compressibility (1/GPa) = 0.02203258
#
# Stress axis : x y z
#
# Youngs Moduli (GPa) = 67.07306 112.37183 56.74369
#
# Poissons Ratio (x) = 0.37821 0.20242
# Poissons Ratio (y) = 0.22575 0.15697
# Poissons Ratio (z) = 0.23927 0.31086
#
# Static dielectric constant tensor:
#      x y z
#    x 3.799350 0.000000 0.000000 
#    y 0.000000 4.179300 0.000000 
#    z 0.000000 0.000000 4.272200 
# 
# 
# High freq. dielectric constant tensor:
#      x y z
#    x 1.827660 0.000000 0.000000 
#    y 0.000000 1.850850 0.000000 
#    z 0.000000 0.000000 1.847980 
# 
# From -- ./inp_files/23261.got.cif
#   From: 2010.06.25/outbox.cif.g09.slc.cpg/sg58_12_cif.got.tgz:23261.got - 2010.06.26 21:38:00.
