data_PCOD8237355
_publ_section_title
;
Structure prediction by ZEFSAII (Michael W. Deem and Ramdas Pophale) SiO2 
 PCOD8237355
Probable space group: P N N M
;
_chemical_formula_sum "Si O2"
_cell_formula_units_Z 64
_cell_length_a 10.787095
_cell_length_b 32.641977
_cell_length_c 9.028907
_cell_angle_alpha 90.000000
_cell_angle_beta 90.000000
_cell_angle_gamma 90.000000
_cell_volume 3179.187467
_symmetry_space_group_name_H-M "P N N M"
_symmetry_group_IT_number 58
_symmetry_cell_setting 'orthorhombic'
loop_
_space_group_symop_operation_xyz
x,y,z
-x,-y,z
1/2+x,1/2-y,1/2-z
1/2-x,1/2+y,1/2-z
-x,-y,-z
x,y,-z
1/2-x,1/2+y,1/2+z
1/2+x,1/2-y,1/2+z
loop_
_atom_site_type_symbol
_atom_site_label
_atom_site_fract_x
_atom_site_fract_y
_atom_site_fract_z
Si Si1 0.387175 0.972087 0.325998
Si Si2 0.363672 0.518416 0.169422
Si Si3 0.770478 0.331135 0.834059
Si Si4 0.003305 0.309743 0.327228
Si Si5 0.395261 0.350737 0.331535
Si Si6 0.480514 0.718380 0.165905
Si Si7 0.843988 0.619156 0.175933
Si Si8 0.850947 0.898838 0.167654
O O1 0.405506 0.971860 0.500000
O O2 0.395451 0.925059 0.267874
O O3 0.500000 0.000000 0.257183
O O4 0.248998 0.988135 0.286211
O O5 0.500000 0.500000 0.189857
O O6 0.356867 0.554639 0.285363
O O7 0.346718 0.533450 0.000000
O O8 0.860096 0.309537 0.717631
O O9 0.646799 0.305375 0.831453
O O10 0.745442 0.376997 0.777272
O O11 0.826507 0.333559 0.000000
O O12 0.022517 0.318716 0.500000
O O13 0.050127 0.264513 0.281415
O O14 0.069857 0.344622 0.233568
O O15 0.349256 0.345788 0.500000
O O16 0.420839 0.304843 0.270381
O O17 0.293446 0.374050 0.236202
O O18 0.515225 0.378632 0.318141
O O19 0.536825 0.719440 0.000000
O O20 0.838564 0.620338 0.000000
O O21 0.801896 0.895570 0.000000
#
# Coordination Sequence:
#
# PCOD8237355 Si02
#       8
#     8   8   8   8   8   8   8   8
#     4   9  20  38  59  85 119 156 201 252 301 359
#     4  10  20  35  60  90 117 153 201 254 303 359
#     4  10  21  39  61  85 115 156 202 242 287 353
#     4  11  24  40  59  88 124 156 194 247 300 355
#     4  10  21  38  61  88 124 161 196 245 299 352
#     4   9  21  40  61  87 118 156 198 244 294 347
#     4  11  23  39  62  89 118 159 205 245 297 361
#     4  10  21  37  59  89 121 156 194 245 306 356
#
# _framework density 20.130928999999998
#
# number of rings (size 3 to 8) (size 9 to 14) (size 15 to 20)
#    0.000    2.000    0.000    2.625    3.500    4.250 
#    0.000    1.250    0.000    1.875    0.000    0.000 
#    0.000    0.000    0.000    0.000    0.000    0.000 
#
# Total GULP energy -793484.859184 kJ/mol
# GULP energy per Si atom -12398.200925 kJ/mol
# Density = 2.008511 g / cm^3
# Si number density = 20.130929 Si / 1000 Ang^3
#
#
#
# Elastic Constant Matrix: (Units=GPa)
#
#
# Indices 1 2 3 4 5 6 
#
# 1 59.1672 34.1633 30.5856 0.0000 0.0000 0.0000
# 2 34.1633 154.6502 57.0747 0.0000 0.0000 0.0000
# 3 30.5856 57.0747 78.9050 0.0000 0.0000 0.0000
# 4 0.0000 0.0000 0.0000 31.3158 0.0000 0.0000
# 5 0.0000 0.0000 0.0000 0.0000 30.8773 0.0000
# 6 0.0000 0.0000 0.0000 0.0000 0.0000 22.3092
#
#
#
# Elastic Compliance Matrix: (Units=1/GPa)
#
#
# Indices 1 2 3 4 5 6 
#
# 1 0.021724 -0.002307 -0.006752 0.000000 0.000000 0.000000
# 2 -0.002307 0.009066 -0.005663 0.000000 0.000000 0.000000
# 3 -0.006752 -0.005663 0.019387 0.000000 0.000000 0.000000
# 4 0.000000 0.000000 0.000000 0.031933 0.000000 0.000000
# 5 0.000000 0.000000 0.000000 0.000000 0.032386 0.000000
# 6 0.000000 0.000000 0.000000 0.000000 0.000000 0.044825
#
#
# Mechanical properties :
#
#
# Convention : Reuss Voigt Hill
#
# Bulk Modulus (GPa) = 48.23442 59.59662 53.91552
# Shear Modulus (GPa) = 25.55244 28.29371 26.92307
#
# Velocity S-wave (km/s) = 3.56661 3.75305 3.66101
# Velocity P-wave (km/s) = 6.40104 6.96055 6.68665
#
# Compressibility (1/GPa) = 0.02073208
#
# Stress axis : x y z
#
# Youngs Moduli (GPa) = 46.03278 110.30221 51.58030
#
# Poissons Ratio (x) = 0.25448 0.34826
# Poissons Ratio (y) = 0.10620 0.29212
# Poissons Ratio (z) = 0.31081 0.62469
#
# Static dielectric constant tensor:
#      x y z
#    x 3.792300 0.000000 0.000000 
#    y 0.000000 3.852160 0.000000 
#    z 0.000000 0.000000 3.720300 
# 
# 
# High freq. dielectric constant tensor:
#      x y z
#    x 1.786180 0.000000 0.000000 
#    y 0.000000 1.795520 0.000000 
#    z 0.000000 0.000000 1.778370 
# 
# From -- ./inp_files/4687.got.cif
#   From: 2010.06.25/outbox.cif.g09.slc.cpg/sg58_3_cif.got.tgz:4687.got - 2010.06.26 21:38:00.
