data_PCOD8237083
_publ_section_title
;
Structure prediction by ZEFSAII (Michael W. Deem and Ramdas Pophale) SiO2 
 PCOD8237083
Probable space group: P N N M
;
_chemical_formula_sum "Si O2"
_cell_formula_units_Z 64
_cell_length_a 15.662829
_cell_length_b 23.183217
_cell_length_c 9.177668
_cell_angle_alpha 90.000000
_cell_angle_beta 90.000000
_cell_angle_gamma 90.000000
_cell_volume 3332.546746
_symmetry_space_group_name_H-M "P N N M"
_symmetry_group_IT_number 58
_symmetry_cell_setting 'orthorhombic'
loop_
_space_group_symop_operation_xyz
x,y,z
-x,-y,z
1/2+x,1/2-y,1/2-z
1/2-x,1/2+y,1/2-z
-x,-y,-z
x,y,-z
1/2-x,1/2+y,1/2+z
1/2+x,1/2-y,1/2+z
loop_
_atom_site_type_symbol
_atom_site_label
_atom_site_fract_x
_atom_site_fract_y
_atom_site_fract_z
Si Si1 0.166222 0.314060 0.832286
Si Si2 0.298745 0.684630 0.667435
Si Si3 0.357487 0.140541 0.328796
Si Si4 0.594043 0.987183 0.672431
Si Si5 0.753701 0.567061 0.827577
Si Si6 0.064466 0.951507 0.671186
Si Si7 0.496625 0.208484 0.835309
Si Si8 0.536048 0.338056 0.835819
O O1 0.213694 0.253236 0.808559
O O2 0.229662 0.365847 0.786755
O O3 0.082679 0.316699 0.733342
O O4 0.136649 0.320982 0.000000
O O5 0.282530 0.668072 0.500000
O O6 0.237390 0.649973 0.773079
O O7 0.391608 0.663136 0.713804
O O8 0.361337 0.149171 0.500000
O O9 0.384952 0.077244 0.280546
O O10 0.416723 0.187303 0.254748
O O11 0.591730 0.995486 0.500000
O O12 0.500000 0.000000 0.738032
O O13 0.667975 0.029033 0.737153
O O14 0.661540 0.545899 0.763804
O O15 0.750573 0.559616 0.000000
O O16 0.070213 0.962227 0.500000
O O17 0.029264 0.888183 0.707671
O O18 0.000000 0.000000 0.738746
O O19 0.487999 0.277300 0.830935
O O20 0.491839 0.185506 0.000000
O O21 0.572798 0.348449 0.000000
#
# Coordination Sequence:
#
# PCOD8237083 Si02
#       8
#     8   8   8   8   8   8   8   8
#     4   9  18  34  57  80 107 141 181 222 271 326
#     4  10  21  35  54  80 111 145 178 219 273 330
#     4  11  22  34  55  83 111 142 182 224 270 329
#     4   9  18  32  52  81 111 138 177 232 280 318
#     4   9  17  30  53  82 109 139 179 232 280 318
#     4   9  18  30  51  82 109 135 179 236 281 318
#     4  10  20  34  54  80 113 145 176 221 275 329
#     4   9  19  35  56  80 108 140 180 227 276 324
#
# _framework density 19.204532
#
# number of rings (size 3 to 8) (size 9 to 14) (size 15 to 20)
#    0.000    2.500    0.000    1.875    3.500    3.000 
#    0.000    0.000    0.000    7.125    0.000    0.000 
#    0.000    0.000    0.000    0.000    0.000    0.000 
#
# Total GULP energy -793437.975544 kJ/mol
# GULP energy per Si atom -12397.468368 kJ/mol
# Density = 1.916082 g / cm^3
# Si number density = 19.204532 Si / 1000 Ang^3
#
#
#
# Elastic Constant Matrix: (Units=GPa)
#
#
# Indices 1 2 3 4 5 6 
#
# 1 133.7274 76.1791 24.0470 0.0000 0.0000 0.0000
# 2 76.1791 100.7793 34.3818 0.0000 0.0000 0.0000
# 3 24.0470 34.3818 49.4539 0.0000 0.0000 0.0000
# 4 0.0000 0.0000 0.0000 19.5556 0.0000 0.0000
# 5 0.0000 0.0000 0.0000 0.0000 25.0955 0.0000
# 6 0.0000 0.0000 0.0000 0.0000 0.0000 33.4537
#
#
#
# Elastic Compliance Matrix: (Units=1/GPa)
#
#
# Indices 1 2 3 4 5 6 
#
# 1 0.013150 -0.010171 0.000677 0.000000 0.000000 0.000000
# 2 -0.010171 0.020875 -0.009567 0.000000 0.000000 0.000000
# 3 0.000677 -0.009567 0.026543 0.000000 0.000000 0.000000
# 4 0.000000 0.000000 0.000000 0.051136 0.000000 0.000000
# 5 0.000000 0.000000 0.000000 0.000000 0.039848 0.000000
# 6 0.000000 0.000000 0.000000 0.000000 0.000000 0.029892
#
#
# Mechanical properties :
#
#
# Convention : Reuss Voigt Hill
#
# Bulk Modulus (GPa) = 44.55229 61.46406 53.00817
# Shear Modulus (GPa) = 22.02166 25.57781 23.79973
#
# Velocity S-wave (km/s) = 3.38996 3.65343 3.52416
# Velocity P-wave (km/s) = 6.21060 7.06195 6.64992
#
# Compressibility (1/GPa) = 0.02244554
#
# Stress axis : x y z
#
# Youngs Moduli (GPa) = 76.04366 47.90403 37.67476
#
# Poissons Ratio (x) = 0.48725 -0.02551
# Poissons Ratio (y) = 0.77346 0.36044
# Poissons Ratio (z) = -0.05148 0.45830
#
# Static dielectric constant tensor:
#      x y z
#    x 3.675500 0.000000 0.000000 
#    y 0.000000 3.622760 0.000000 
#    z 0.000000 0.000000 3.195280 
# 
# 
# High freq. dielectric constant tensor:
#      x y z
#    x 1.753200 0.000000 0.000000 
#    y 0.000000 1.755180 0.000000 
#    z 0.000000 0.000000 1.704890 
# 
# From -- ./inp_files/6763.got.cif
#   From: 2010.06.25/outbox.cif.g09.slc.cpg/sg58_4_cif.got.tgz:6763.got - 2010.06.26 21:38:00.
