data_PCOD8237450
_publ_section_title
;
Structure prediction by ZEFSAII (Michael W. Deem and Ramdas Pophale) SiO2 
 PCOD8237450
Probable space group: P N N M
;
_chemical_formula_sum "Si O2"
_cell_formula_units_Z 64
_cell_length_a 11.501291
_cell_length_b 13.935598
_cell_length_c 22.234803
_cell_angle_alpha 90.000000
_cell_angle_beta 90.000000
_cell_angle_gamma 90.000000
_cell_volume 3563.735700
_symmetry_space_group_name_H-M "P N N M"
_symmetry_group_IT_number 58
_symmetry_cell_setting 'orthorhombic'
loop_
_space_group_symop_operation_xyz
x,y,z
-x,-y,z
1/2+x,1/2-y,1/2-z
1/2-x,1/2+y,1/2-z
-x,-y,-z
x,y,-z
1/2-x,1/2+y,1/2+z
1/2+x,1/2-y,1/2+z
loop_
_atom_site_type_symbol
_atom_site_label
_atom_site_fract_x
_atom_site_fract_y
_atom_site_fract_z
Si Si1 0.007462 0.393994 0.932889
Si Si2 0.779841 0.320166 0.723535
Si Si3 0.131563 0.012291 0.637337
Si Si4 0.193934 0.350282 0.847260
Si Si5 0.367520 0.497271 0.280021
Si Si6 0.531543 0.107052 0.765662
Si Si7 0.728351 0.184158 0.172642
Si Si8 0.748655 0.815965 0.568565
O O1 0.883402 0.346764 0.932184
O O2 0.000000 0.500000 0.902501
O O3 0.095706 0.326261 0.896436
O O4 0.057002 0.404994 0.000000
O O5 0.768095 0.243296 0.669714
O O6 0.713903 0.414689 0.698018
O O7 0.726335 0.278903 0.785017
O O8 0.914146 0.333192 0.742001
O O9 0.218929 0.925771 0.620888
O O10 0.133694 0.012042 0.708999
O O11 0.174762 0.108518 0.605401
O O12 0.000000 0.000000 0.613710
O O13 0.123385 0.388414 0.789157
O O14 0.500000 0.500000 0.304410
O O15 0.319080 0.395178 0.302598
O O16 0.597711 0.143362 0.825105
O O17 0.500000 0.000000 0.778349
O O18 0.750168 0.214200 0.103670
O O19 0.794863 0.803897 0.500000
#
# Coordination Sequence:
#
# PCOD8237450 Si02
#       8
#     8   8   8   8   8   8   8   8
#     4  10  20  36  59  83 114 152 201 249 285 340
#     4  11  22  35  56  89 117 153 188 237 300 352
#     4  11  22  36  56  86 126 153 189 237 295 359
#     4  11  22  33  59  88 117 157 187 237 299 355
#     4  11  23  38  54  88 125 152 184 239 301 350
#     4  11  21  36  56  85 116 148 195 240 293 344
#     4  11  23  36  59  84 116 157 191 239 284 357
#     4  11  24  40  60  85 117 162 202 240 286 347
#
# _framework density 17.958684000000002
#
# number of rings (size 3 to 8) (size 9 to 14) (size 15 to 20)
#    0.000    1.125    6.250    1.125    7.000    0.250 
#    0.000    0.000    0.000    1.500    0.000    0.000 
#    0.000    0.000    0.000    0.000    0.000    0.000 
#
# Total GULP energy -793153.542374 kJ/mol
# GULP energy per Si atom -12393.024100 kJ/mol
# Density = 1.791781 g / cm^3
# Si number density = 17.958684 Si / 1000 Ang^3
#
#
#
# Elastic Constant Matrix: (Units=GPa)
#
#
# Indices 1 2 3 4 5 6 
#
# 1 114.3103 39.5891 30.1357 0.0000 0.0000 0.0000
# 2 39.5891 95.7659 44.2974 0.0000 0.0000 0.0000
# 3 30.1357 44.2974 87.5996 0.0000 0.0000 0.0000
# 4 0.0000 0.0000 0.0000 30.4159 0.0000 0.0000
# 5 0.0000 0.0000 0.0000 0.0000 20.2763 0.0000
# 6 0.0000 0.0000 0.0000 0.0000 0.0000 24.7608
#
#
#
# Elastic Compliance Matrix: (Units=1/GPa)
#
#
# Indices 1 2 3 4 5 6 
#
# 1 0.010432 -0.003462 -0.001838 0.000000 0.000000 0.000000
# 2 -0.003462 0.014780 -0.006283 0.000000 0.000000 0.000000
# 3 -0.001838 -0.006283 0.015225 0.000000 0.000000 0.000000
# 4 0.000000 0.000000 0.000000 0.032878 0.000000 0.000000
# 5 0.000000 0.000000 0.000000 0.000000 0.049319 0.000000
# 6 0.000000 0.000000 0.000000 0.000000 0.000000 0.040386
#
#
# Mechanical properties :
#
#
# Convention : Reuss Voigt Hill
#
# Bulk Modulus (GPa) = 57.90220 58.41335 58.15778
# Shear Modulus (GPa) = 26.04964 27.33416 26.69190
#
# Velocity S-wave (km/s) = 3.81272 3.90559 3.85943
# Velocity P-wave (km/s) = 7.18988 7.27566 7.23290
#
# Compressibility (1/GPa) = 0.01727050
#
# Stress axis : x y z
#
# Youngs Moduli (GPa) = 95.86133 67.66126 65.68218
#
# Poissons Ratio (x) = 0.23426 0.12072
# Poissons Ratio (y) = 0.33190 0.41266
# Poissons Ratio (z) = 0.17618 0.42509
#
# Static dielectric constant tensor:
#      x y z
#    x 2.476370 0.000000 0.000000 
#    y 0.000000 3.393400 0.000000 
#    z 0.000000 0.000000 3.290340 
# 
# 
# High freq. dielectric constant tensor:
#      x y z
#    x 1.712570 0.000000 0.000000 
#    y 0.000000 1.691050 0.000000 
#    z 0.000000 0.000000 1.659100 
# 
# From -- ./inp_files/32059.got.cif
#   From: 2010.06.25/outbox.cif.g09.slc.cpg/sg58_17_cif.got.tgz:32059.got - 2010.06.26 21:38:00.
