data_PCOD8237712
_publ_section_title
;
Structure prediction by ZEFSAII (Michael W. Deem and Ramdas Pophale) SiO2 
 PCOD8237712
Probable space group: P N N M
;
_chemical_formula_sum "Si O2"
_cell_formula_units_Z 56
_cell_length_a 22.045104
_cell_length_b 14.576294
_cell_length_c 8.632973
_cell_angle_alpha 90.000000
_cell_angle_beta 90.000000
_cell_angle_gamma 90.000000
_cell_volume 2774.084297
_symmetry_space_group_name_H-M "P N N M"
_symmetry_group_IT_number 58
_symmetry_cell_setting 'orthorhombic'
loop_
_space_group_symop_operation_xyz
x,y,z
-x,-y,z
1/2+x,1/2-y,1/2-z
1/2-x,1/2+y,1/2-z
-x,-y,-z
x,y,-z
1/2-x,1/2+y,1/2+z
1/2+x,1/2-y,1/2+z
loop_
_atom_site_type_symbol
_atom_site_label
_atom_site_fract_x
_atom_site_fract_y
_atom_site_fract_z
Si Si1 0.160458 0.114425 0.817770
Si Si2 0.423117 0.914433 0.816887
Si Si3 0.529097 0.403566 0.819081
Si Si4 0.306260 0.414601 0.316135
Si Si5 0.079029 0.800831 0.818216
Si Si6 0.441608 0.117293 0.816793
Si Si7 0.809070 0.696332 0.315750
O O1 0.090020 0.113281 0.774927
O O2 0.195432 0.198901 0.739314
O O3 0.192236 0.020221 0.759403
O O4 0.166737 0.124738 0.000000
O O5 0.488617 0.881592 0.757592
O O6 0.370274 0.850157 0.747521
O O7 0.411314 0.020343 0.770407
O O8 0.423149 0.907294 0.000000
O O9 0.500000 0.500000 0.769609
O O10 0.481919 0.324697 0.774713
O O11 0.544403 0.398555 0.000000
O O12 0.305402 0.410322 0.500000
O O13 0.366529 0.363956 0.255026
O O14 0.247526 0.362063 0.249362
O O15 0.094569 0.695600 0.776326
O O16 0.068970 0.814609 0.000000
O O17 0.437148 0.134420 0.000000
O O18 0.809092 0.694452 0.500000
#
# Coordination Sequence:
#
# PCOD8237712 Si02
#       7
#     8   8   8   8   8   8   8
#     4  11  22  39  60  86 118 154 191 236 294 351
#     4   8  16  32  55  78 106 141 182 228 283 332
#     4  11  22  36  58  87 114 147 191 241 291 345
#     4   9  21  38  55  76 112 154 189 224 281 344
#     4  11  21  35  54  81 115 153 186 231 293 349
#     4   9  17  32  54  82 109 139 180 234 284 340
#     4  10  20  38  60  81 109 154 201 239 279 340
#
# _framework density 20.186841000000001
#
# number of rings (size 3 to 8) (size 9 to 14) (size 15 to 20)
#    0.000    2.143    1.429    3.000    0.000    2.857 
#    0.000    6.429    0.000    0.000    0.000    0.000 
#    0.000    0.000    0.000    0.000    0.000    0.000 
#
# Total GULP energy -694417.057420 kJ/mol
# GULP energy per Si atom -12400.304597 kJ/mol
# Density = 2.014090 g / cm^3
# Si number density = 20.186841 Si / 1000 Ang^3
#
#
#
# Elastic Constant Matrix: (Units=GPa)
#
#
# Indices 1 2 3 4 5 6 
#
# 1 97.5053 61.4371 13.0443 0.0000 0.0000 0.0000
# 2 61.4371 165.8651 18.2726 0.0000 0.0000 0.0000
# 3 13.0443 18.2726 24.6111 0.0000 0.0000 0.0000
# 4 0.0000 0.0000 0.0000 31.7354 0.0000 0.0000
# 5 0.0000 0.0000 0.0000 0.0000 11.3366 0.0000
# 6 0.0000 0.0000 0.0000 0.0000 0.0000 33.3795
#
#
#
# Elastic Compliance Matrix: (Units=1/GPa)
#
#
# Indices 1 2 3 4 5 6 
#
# 1 0.013698 -0.004655 -0.003804 0.000000 0.000000 0.000000
# 2 -0.004655 0.008148 -0.003582 0.000000 0.000000 0.000000
# 3 -0.003804 -0.003582 0.045308 0.000000 0.000000 0.000000
# 4 0.000000 0.000000 0.000000 0.031511 0.000000 0.000000
# 5 0.000000 0.000000 0.000000 0.000000 0.088210 0.000000
# 6 0.000000 0.000000 0.000000 0.000000 0.000000 0.029958
#
#
# Mechanical properties :
#
#
# Convention : Reuss Voigt Hill
#
# Bulk Modulus (GPa) = 23.21732 52.60996 37.91364
# Shear Modulus (GPa) = 19.58702 28.30547 23.94625
#
# Velocity S-wave (km/s) = 3.11832 3.74862 3.44791
# Velocity P-wave (km/s) = 4.94888 6.69734 5.88837
#
# Compressibility (1/GPa) = 0.04307128
#
# Stress axis : x y z
#
# Youngs Moduli (GPa) = 73.00572 122.73394 22.07113
#
# Poissons Ratio (x) = 0.57127 0.08396
# Poissons Ratio (y) = 0.33981 0.07907
# Poissons Ratio (z) = 0.27773 0.43967
#
# Static dielectric constant tensor:
#      x y z
#    x 3.799920 0.000000 0.000000 
#    y 0.000000 3.989960 0.000000 
#    z 0.000000 0.000000 3.246130 
# 
# 
# High freq. dielectric constant tensor:
#      x y z
#    x 1.778430 0.000000 0.000000 
#    y 0.000000 1.809300 0.000000 
#    z 0.000000 0.000000 1.753200 
# 
# From -- ./inp_files/9049.got.cif
#   From: 2010.06.25/outbox.cif.g09.slc.cpg/sg58_5_cif.got.tgz:9049.got - 2010.06.26 21:38:00.
