data_PCOD8237918
_publ_section_title
;
Structure prediction by ZEFSAII (Michael W. Deem and Ramdas Pophale) SiO2 
 PCOD8237918
Probable space group: P N N M
;
_chemical_formula_sum "Si O2"
_cell_formula_units_Z 64
_cell_length_a 32.766655
_cell_length_b 10.238178
_cell_length_c 9.009475
_cell_angle_alpha 90.000000
_cell_angle_beta 90.000000
_cell_angle_gamma 90.000000
_cell_volume 3022.416203
_symmetry_space_group_name_H-M "P N N M"
_symmetry_group_IT_number 58
_symmetry_cell_setting 'orthorhombic'
loop_
_space_group_symop_operation_xyz
x,y,z
-x,-y,z
1/2+x,1/2-y,1/2-z
1/2-x,1/2+y,1/2-z
-x,-y,-z
x,y,-z
1/2-x,1/2+y,1/2+z
1/2+x,1/2-y,1/2+z
loop_
_atom_site_type_symbol
_atom_site_label
_atom_site_fract_x
_atom_site_fract_y
_atom_site_fract_z
Si Si1 0.619977 0.872480 0.174371
Si Si2 0.231068 0.016610 0.173525
Si Si3 0.467659 0.222191 0.172673
Si Si4 0.148228 0.879142 0.831036
Si Si5 0.212845 0.274234 0.324659
Si Si6 0.952937 0.733000 0.171368
Si Si7 0.060342 0.970377 0.833134
Si Si8 0.634067 0.134786 0.323433
O O1 0.571961 0.862923 0.217350
O O2 0.643581 0.742174 0.220610
O O3 0.640575 0.988157 0.266242
O O4 0.626191 0.895909 0.000000
O O5 0.186937 0.961944 0.219367
O O6 0.264373 0.908402 0.218623
O O7 0.238639 0.150294 0.264216
O O8 0.233501 0.049330 0.000000
O O9 0.508415 0.164496 0.249184
O O10 0.460135 0.371361 0.219495
O O11 0.475453 0.218105 0.000000
O O12 0.109265 0.973813 0.817437
O O13 0.153457 0.827648 0.000000
O O14 0.208081 0.260555 0.500000
O O15 0.168604 0.273468 0.247401
O O16 0.910086 0.681839 0.235806
O O17 0.956662 0.887032 0.201219
O O18 0.955377 0.696873 0.000000
O O19 0.048187 0.926343 0.000000
O O20 0.637538 0.143471 0.500000
#
# Coordination Sequence:
#
# PCOD8237918 Si02
#       8
#     8   8   8   8   8   8   8   8
#     4  10  22  39  58  86 122 159 203 255 312 372
#     4  10  23  43  66  96 131 167 209 256 306 371
#     4  10  21  35  53  82 118 153 192 245 307 366
#     4   9  18  36  62  87 116 157 205 251 302 364
#     4  11  25  43  66  99 133 166 208 257 313 373
#     4  10  21  36  56  81 111 152 201 250 300 360
#     4   9  17  32  55  81 111 148 193 244 296 357
#     4  11  24  42  63  85 116 160 207 256 310 369
#
# _framework density 21.175111000000001
#
# number of rings (size 3 to 8) (size 9 to 14) (size 15 to 20)
#    0.000    2.000    0.000    2.625    1.750    8.500 
#    0.000    5.000    0.000    0.000    0.000    0.000 
#    0.000    0.000    0.000    0.000    0.000    0.000 
#
# Total GULP energy -793790.329842 kJ/mol
# GULP energy per Si atom -12402.973904 kJ/mol
# Density = 2.112692 g / cm^3
# Si number density = 21.175111 Si / 1000 Ang^3
#
#
#
# Elastic Constant Matrix: (Units=GPa)
#
#
# Indices 1 2 3 4 5 6 
#
# 1 96.0857 27.8081 38.6839 0.0000 0.0000 0.0000
# 2 27.8081 75.4147 40.5153 0.0000 0.0000 0.0000
# 3 38.6839 40.5153 73.9744 0.0000 0.0000 0.0000
# 4 0.0000 0.0000 0.0000 25.0449 0.0000 0.0000
# 5 0.0000 0.0000 0.0000 0.0000 29.1565 0.0000
# 6 0.0000 0.0000 0.0000 0.0000 0.0000 26.0265
#
#
#
# Elastic Compliance Matrix: (Units=1/GPa)
#
#
# Indices 1 2 3 4 5 6 
#
# 1 0.013328 -0.001658 -0.006061 0.000000 0.000000 0.000000
# 2 -0.001658 0.018995 -0.009536 0.000000 0.000000 0.000000
# 3 -0.006061 -0.009536 0.021911 0.000000 0.000000 0.000000
# 4 0.000000 0.000000 0.000000 0.039928 0.000000 0.000000
# 5 0.000000 0.000000 0.000000 0.000000 0.034298 0.000000
# 6 0.000000 0.000000 0.000000 0.000000 0.000000 0.038422
#
#
# Mechanical properties :
#
#
# Convention : Reuss Voigt Hill
#
# Bulk Modulus (GPa) = 50.70527 51.05437 50.87982
# Shear Modulus (GPa) = 24.04237 25.27674 24.65956
#
# Velocity S-wave (km/s) = 3.37324 3.45875 3.41626
# Velocity P-wave (km/s) = 6.25854 6.33352 6.29614
#
# Compressibility (1/GPa) = 0.01972181
#
# Stress axis : x y z
#
# Youngs Moduli (GPa) = 75.03277 52.64676 45.63954
#
# Poissons Ratio (x) = 0.08729 0.27664
# Poissons Ratio (y) = 0.12440 0.43523
# Poissons Ratio (z) = 0.45480 0.50205
#
# Static dielectric constant tensor:
#      x y z
#    x 4.032520 0.000000 0.000000 
#    y 0.000000 3.676400 0.000000 
#    z 0.000000 0.000000 3.660350 
# 
# 
# High freq. dielectric constant tensor:
#      x y z
#    x 1.843210 0.000000 0.000000 
#    y 0.000000 1.823540 0.000000 
#    z 0.000000 0.000000 1.820080 
# 
# From -- ./inp_files/11011.got.cif
#   From: 2010.06.25/outbox.cif.g09.slc.cpg/sg58_6_cif.got.tgz:11011.got - 2010.06.26 21:38:00.
