data_PCOD8237512
_publ_section_title
;
Structure prediction by ZEFSAII (Michael W. Deem and Ramdas Pophale) SiO2 
 PCOD8237512
Probable space group: P N N M
;
_chemical_formula_sum "Si O2"
_cell_formula_units_Z 48
_cell_length_a 23.566652
_cell_length_b 11.887657
_cell_length_c 8.511058
_cell_angle_alpha 90.000000
_cell_angle_beta 90.000000
_cell_angle_gamma 90.000000
_cell_volume 2384.392267
_symmetry_space_group_name_H-M "P N N M"
_symmetry_group_IT_number 58
_symmetry_cell_setting 'orthorhombic'
loop_
_space_group_symop_operation_xyz
x,y,z
-x,-y,z
1/2+x,1/2-y,1/2-z
1/2-x,1/2+y,1/2-z
-x,-y,-z
x,y,-z
1/2-x,1/2+y,1/2+z
1/2+x,1/2-y,1/2+z
loop_
_atom_site_type_symbol
_atom_site_label
_atom_site_fract_x
_atom_site_fract_y
_atom_site_fract_z
Si Si1 0.660630 0.413215 0.181585
Si Si2 0.127581 0.509439 0.184790
Si Si3 0.850177 0.155606 0.818396
Si Si4 0.080212 0.268652 0.814351
Si Si5 0.276279 0.153353 0.181969
Si Si6 0.045310 0.700214 0.183049
O O1 0.657119 0.525557 0.283525
O O2 0.607826 0.335053 0.224796
O O3 0.718578 0.348741 0.219510
O O4 0.657747 0.445685 0.000000
O O5 0.115512 0.380714 0.225512
O O6 0.184873 0.546875 0.271808
O O7 0.075298 0.586442 0.246529
O O8 0.136472 0.529652 0.000000
O O9 0.806795 0.228645 0.715942
O O10 0.914674 0.193035 0.778721
O O11 0.836938 0.180437 0.000000
O O12 0.016788 0.281661 0.742774
O O13 0.080344 0.244531 0.000000
O O14 0.260525 0.146202 0.000000
O O15 0.034828 0.684087 0.000000
#
# Coordination Sequence:
#
# PCOD8237512 Si02
#       6
#     8   8   8   8   8   8
#     4  12  26  41  57  83 120 160 202 245 297 352
#     4   9  18  35  61  91 121 155 197 243 293 347
#     4  10  21  41  65  88 115 151 198 245 297 354
#     4  10  20  36  60  90 122 156 200 244 291 347
#     4  11  23  40  62  86 116 154 197 244 301 356
#     4   8  16  34  62  91 118 153 195 243 292 350
#
# _framework density 20.130915000000002
#
# number of rings (size 3 to 8) (size 9 to 14) (size 15 to 20)
#    0.000    2.000    0.000    5.000    2.333    3.333 
#    0.000    7.500    0.000    5.000    0.000    0.000 
#    0.000    0.000    0.000    0.000    0.000    0.000 
#
# Total GULP energy -595321.943912 kJ/mol
# GULP energy per Si atom -12402.540498 kJ/mol
# Density = 2.008510 g / cm^3
# Si number density = 20.130915 Si / 1000 Ang^3
#
#
#
# Elastic Constant Matrix: (Units=GPa)
#
#
# Indices 1 2 3 4 5 6 
#
# 1 72.3980 16.4596 15.0985 0.0000 0.0000 0.0000
# 2 16.4596 93.8964 15.4555 0.0000 0.0000 0.0000
# 3 15.0985 15.4555 51.6700 0.0000 0.0000 0.0000
# 4 0.0000 0.0000 0.0000 18.1524 0.0000 0.0000
# 5 0.0000 0.0000 0.0000 0.0000 27.1914 0.0000
# 6 0.0000 0.0000 0.0000 0.0000 0.0000 22.3860
#
#
#
# Elastic Compliance Matrix: (Units=1/GPa)
#
#
# Indices 1 2 3 4 5 6 
#
# 1 0.015063 -0.002015 -0.003799 0.000000 0.000000 0.000000
# 2 -0.002015 0.011471 -0.002842 0.000000 0.000000 0.000000
# 3 -0.003799 -0.002842 0.021314 0.000000 0.000000 0.000000
# 4 0.000000 0.000000 0.000000 0.055089 0.000000 0.000000
# 5 0.000000 0.000000 0.000000 0.000000 0.036776 0.000000
# 6 0.000000 0.000000 0.000000 0.000000 0.000000 0.044671
#
#
# Mechanical properties :
#
#
# Convention : Reuss Voigt Hill
#
# Bulk Modulus (GPa) = 32.74904 34.66574 33.70739
# Shear Modulus (GPa) = 23.59877 24.94266 24.27072
#
# Velocity S-wave (km/s) = 3.42755 3.52379 3.47601
# Velocity P-wave (km/s) = 5.65398 5.81495 5.73503
#
# Compressibility (1/GPa) = 0.03053525
#
# Stress axis : x y z
#
# Youngs Moduli (GPa) = 66.38824 87.17525 46.91788
#
# Poissons Ratio (x) = 0.17567 0.17823
# Poissons Ratio (y) = 0.13378 0.13336
# Poissons Ratio (z) = 0.25219 0.24779
#
# Static dielectric constant tensor:
#      x y z
#    x 3.861890 0.000000 0.000000 
#    y 0.000000 3.570440 0.000000 
#    z 0.000000 0.000000 3.394250 
# 
# 
# High freq. dielectric constant tensor:
#      x y z
#    x 1.794790 0.000000 0.000000 
#    y 0.000000 1.787430 0.000000 
#    z 0.000000 0.000000 1.764830 
# 
# From -- ./inp_files/4193.got.cif
#   From: 2010.06.25/outbox.cif.g09.slc.cpg/sg58_3_cif.got.tgz:4193.got - 2010.06.26 21:38:00.
