data_PCOD8237541
_publ_section_title
;
Structure prediction by ZEFSAII (Michael W. Deem and Ramdas Pophale) SiO2 
 PCOD8237541
Probable space group: P N N M
;
_chemical_formula_sum "Si O2"
_cell_formula_units_Z 48
_cell_length_a 12.248461
_cell_length_b 11.579432
_cell_length_c 16.796985
_cell_angle_alpha 90.000000
_cell_angle_beta 90.000000
_cell_angle_gamma 90.000000
_cell_volume 2382.320099
_symmetry_space_group_name_H-M "P N N M"
_symmetry_group_IT_number 58
_symmetry_cell_setting 'orthorhombic'
loop_
_space_group_symop_operation_xyz
x,y,z
-x,-y,z
1/2+x,1/2-y,1/2-z
1/2-x,1/2+y,1/2-z
-x,-y,-z
x,y,-z
1/2-x,1/2+y,1/2+z
1/2+x,1/2-y,1/2+z
loop_
_atom_site_type_symbol
_atom_site_label
_atom_site_fract_x
_atom_site_fract_y
_atom_site_fract_z
Si Si1 0.923883 0.646638 0.914087
Si Si2 0.814988 0.746889 0.331158
Si Si3 0.020074 0.864634 0.593664
Si Si4 0.638432 0.916189 0.648051
Si Si5 0.728356 0.762419 0.151210
Si Si6 0.128574 0.505756 0.675253
O O1 0.864252 0.521524 0.913898
O O2 0.835542 0.746063 0.901777
O O3 0.020804 0.649370 0.848836
O O4 0.978023 0.665580 0.000000
O O5 0.934484 0.796857 0.350178
O O6 0.729045 0.824186 0.380876
O O7 0.772277 0.756110 0.241016
O O8 0.815034 0.612127 0.355354
O O9 0.011455 0.828776 0.500000
O O10 0.138785 0.835242 0.630225
O O11 0.000000 0.000000 0.603820
O O12 0.659622 0.974483 0.733041
O O13 0.678128 0.886361 0.127181
O O14 0.000000 0.500000 0.660554
#
# Coordination Sequence:
#
# PCOD8237541 Si02
#       6
#     8   8   8   8   8   8
#     4  11  21  38  63  91 124 158 200 261 320 366
#     4  11  23  39  64  92 125 169 210 257 308 381
#     4  11  25  43  65  97 131 163 211 275 329 369
#     4  10  20  36  62  92 122 154 209 259 310 370
#     4  11  23  38  63  92 127 166 211 256 311 383
#     4  11  19  39  61  88 122 160 215 256 303 373
#
# _framework density 20.148426000000001
#
# number of rings (size 3 to 8) (size 9 to 14) (size 15 to 20)
#    0.000    1.167    5.000    2.500    4.667    2.667 
#    0.000    3.333    0.000    1.000    0.000    0.000 
#    0.000    0.000    0.000    0.000    0.000    0.000 
#
# Total GULP energy -594868.041545 kJ/mol
# GULP energy per Si atom -12393.084199 kJ/mol
# Density = 2.010257 g / cm^3
# Si number density = 20.148426 Si / 1000 Ang^3
#
#
#
# Elastic Constant Matrix: (Units=GPa)
#
#
# Indices 1 2 3 4 5 6 
#
# 1 76.5994 22.4259 11.1764 0.0000 0.0000 0.0000
# 2 22.4259 98.0820 5.9864 0.0000 0.0000 0.0000
# 3 11.1764 5.9864 61.4616 0.0000 0.0000 0.0000
# 4 0.0000 0.0000 0.0000 19.7388 0.0000 0.0000
# 5 0.0000 0.0000 0.0000 0.0000 18.8646 0.0000
# 6 0.0000 0.0000 0.0000 0.0000 0.0000 45.6142
#
#
#
# Elastic Compliance Matrix: (Units=1/GPa)
#
#
# Indices 1 2 3 4 5 6 
#
# 1 0.014307 -0.003131 -0.002297 0.000000 0.000000 0.000000
# 2 -0.003131 0.010942 -0.000496 0.000000 0.000000 0.000000
# 3 -0.002297 -0.000496 0.016736 0.000000 0.000000 0.000000
# 4 0.000000 0.000000 0.000000 0.050662 0.000000 0.000000
# 5 0.000000 0.000000 0.000000 0.000000 0.053009 0.000000
# 6 0.000000 0.000000 0.000000 0.000000 0.000000 0.021923
#
#
# Mechanical properties :
#
#
# Convention : Reuss Voigt Hill
#
# Bulk Modulus (GPa) = 33.18210 35.03562 34.10886
# Shear Modulus (GPa) = 26.38911 29.94714 28.16813
#
# Velocity S-wave (km/s) = 3.62295 3.85947 3.74308
# Velocity P-wave (km/s) = 5.83144 6.10633 5.97046
#
# Compressibility (1/GPa) = 0.03013673
#
# Stress axis : x y z
#
# Youngs Moduli (GPa) = 69.89740 91.39318 59.75041
#
# Poissons Ratio (x) = 0.28615 0.13722
# Poissons Ratio (y) = 0.21885 0.02966
# Poissons Ratio (z) = 0.16053 0.04537
#
# Static dielectric constant tensor:
#      x y z
#    x 3.901400 0.000000 0.000000 
#    y 0.000000 4.108190 0.000000 
#    z 0.000000 0.000000 3.615340 
# 
# 
# High freq. dielectric constant tensor:
#      x y z
#    x 1.795970 0.000000 0.000000 
#    y 0.000000 1.787780 0.000000 
#    z 0.000000 0.000000 1.762870 
# 
# From -- ./inp_files/26125.got.cif
#   From: 2010.06.25/outbox.cif.g09.slc.cpg/sg58_14_cif.got.tgz:26125.got - 2010.06.26 21:38:00.
