data_PCOD8237047
_publ_section_title
;
Structure prediction by ZEFSAII (Michael W. Deem and Ramdas Pophale) SiO2 
 PCOD8237047
Probable space group: P N N M
;
_chemical_formula_sum "Si O2"
_cell_formula_units_Z 64
_cell_length_a 20.530012
_cell_length_b 18.526398
_cell_length_c 9.020284
_cell_angle_alpha 90.000000
_cell_angle_beta 90.000000
_cell_angle_gamma 90.000000
_cell_volume 3430.839521
_symmetry_space_group_name_H-M "P N N M"
_symmetry_group_IT_number 58
_symmetry_cell_setting 'orthorhombic'
loop_
_space_group_symop_operation_xyz
x,y,z
-x,-y,z
1/2+x,1/2-y,1/2-z
1/2-x,1/2+y,1/2-z
-x,-y,-z
x,y,-z
1/2-x,1/2+y,1/2+z
1/2+x,1/2-y,1/2+z
loop_
_atom_site_type_symbol
_atom_site_label
_atom_site_fract_x
_atom_site_fract_y
_atom_site_fract_z
Si Si1 0.938384 0.044866 0.825504
Si Si2 0.679221 0.953617 0.325170
Si Si3 0.947754 0.702120 0.676264
Si Si4 0.939018 0.210268 0.825458
Si Si5 0.937790 0.549901 0.172267
Si Si6 0.326321 0.539613 0.825920
Si Si7 0.170590 0.202726 0.324036
Si Si8 0.686234 0.793785 0.675708
O O1 0.948683 0.127586 0.779347
O O2 0.871974 0.016986 0.755369
O O3 0.931655 0.036029 0.000000
O O4 0.000000 0.000000 0.764157
O O5 0.669966 0.950455 0.500000
O O6 0.625540 0.008706 0.261758
O O7 0.751844 0.979953 0.283518
O O8 0.667073 0.872975 0.260867
O O9 0.949172 0.702567 0.500000
O O10 0.946801 0.621217 0.733065
O O11 0.884432 0.744208 0.739930
O O12 0.011200 0.741497 0.735736
O O13 0.866528 0.234537 0.775755
O O14 0.949846 0.222647 0.000000
O O15 0.000000 0.500000 0.196364
O O16 0.929446 0.570574 0.000000
O O17 0.343015 0.620705 0.771193
O O18 0.337797 0.532502 0.000000
O O19 0.169575 0.204445 0.500000
O O20 0.241784 0.228332 0.265101
O O21 0.690163 0.800068 0.500000
#
# Coordination Sequence:
#
# PCOD8237047 Si02
#       8
#     8   8   8   8   8   8   8   8
#     4  10  21  34  48  72 105 135 167 211 257 301
#     4   8  15  29  51  77  99 122 162 214 252 286
#     4  11  22  34  51  77 107 134 164 210 261 301
#     4  10  20  34  53  73  96 134 176 209 246 296
#     4  10  20  35  55  76 100 135 176 210 245 297
#     4   9  17  32  54  75  97 129 167 205 250 304
#     4   8  16  31  51  75 100 128 164 206 251 300
#     4   8  14  29  53  75  94 124 172 214 240 286
#
# _framework density 18.654326000000001
#
# number of rings (size 3 to 8) (size 9 to 14) (size 15 to 20)
#    0.000    2.750    0.000    3.375    0.000    4.000 
#    0.000    2.500    0.000    6.000    0.000    0.000 
#    0.000    0.000    0.000    0.000    0.000    0.000 
#
# Total GULP energy -793431.283292 kJ/mol
# GULP energy per Si atom -12397.363801 kJ/mol
# Density = 1.861187 g / cm^3
# Si number density = 18.654326 Si / 1000 Ang^3
#
#
#
# Elastic Constant Matrix: (Units=GPa)
#
#
# Indices 1 2 3 4 5 6 
#
# 1 103.5031 43.5911 21.0876 0.0000 0.0000 0.0000
# 2 43.5911 93.2672 23.4974 0.0000 0.0000 0.0000
# 3 21.0876 23.4974 22.7390 0.0000 0.0000 0.0000
# 4 0.0000 0.0000 0.0000 17.6374 0.0000 0.0000
# 5 0.0000 0.0000 0.0000 0.0000 21.2446 0.0000
# 6 0.0000 0.0000 0.0000 0.0000 0.0000 41.0560
#
#
#
# Elastic Compliance Matrix: (Units=1/GPa)
#
#
# Indices 1 2 3 4 5 6 
#
# 1 0.012977 -0.004101 -0.007797 0.000000 0.000000 0.000000
# 2 -0.004101 0.015792 -0.012515 0.000000 0.000000 0.000000
# 3 -0.007797 -0.012515 0.064141 0.000000 0.000000 0.000000
# 4 0.000000 0.000000 0.000000 0.056698 0.000000 0.000000
# 5 0.000000 0.000000 0.000000 0.000000 0.047071 0.000000
# 6 0.000000 0.000000 0.000000 0.000000 0.000000 0.024357
#
#
# Mechanical properties :
#
#
# Convention : Reuss Voigt Hill
#
# Bulk Modulus (GPa) = 22.68442 43.98462 33.33452
# Shear Modulus (GPa) = 17.57126 24.74315 21.15720
#
# Velocity S-wave (km/s) = 3.07243 3.64593 3.37140
# Velocity P-wave (km/s) = 4.97728 6.43069 5.75009
#
# Compressibility (1/GPa) = 0.04408312
#
# Stress axis : x y z
#
# Youngs Moduli (GPa) = 77.05794 63.32485 15.59074
#
# Poissons Ratio (x) = 0.25969 0.12156
# Poissons Ratio (y) = 0.31601 0.19512
# Poissons Ratio (z) = 0.60083 0.79252
#
# Static dielectric constant tensor:
#      x y z
#    x 3.813830 0.000000 0.000000 
#    y 0.000000 3.572980 0.000000 
#    z 0.000000 0.000000 2.972990 
# 
# 
# High freq. dielectric constant tensor:
#      x y z
#    x 1.742150 0.000000 0.000000 
#    y 0.000000 1.727650 0.000000 
#    z 0.000000 0.000000 1.678270 
# 
# From -- ./inp_files/9305.got.cif
#   From: 2010.06.25/outbox.cif.g09.slc.cpg/sg58_5_cif.got.tgz:9305.got - 2010.06.26 21:38:00.
