data_PCOD8237808
_publ_section_title
;
Structure prediction by ZEFSAII (Michael W. Deem and Ramdas Pophale) SiO2 
 PCOD8237808
Probable space group: P N N M
;
_chemical_formula_sum "Si O2"
_cell_formula_units_Z 32
_cell_length_a 7.206528
_cell_length_b 16.958367
_cell_length_c 12.503587
_cell_angle_alpha 90.000000
_cell_angle_beta 90.000000
_cell_angle_gamma 90.000000
_cell_volume 1528.075203
_symmetry_space_group_name_H-M "P N N M"
_symmetry_group_IT_number 58
_symmetry_cell_setting 'orthorhombic'
loop_
_space_group_symop_operation_xyz
x,y,z
-x,-y,z
1/2+x,1/2-y,1/2-z
1/2-x,1/2+y,1/2-z
-x,-y,-z
x,y,-z
1/2-x,1/2+y,1/2+z
1/2+x,1/2-y,1/2+z
loop_
_atom_site_type_symbol
_atom_site_label
_atom_site_fract_x
_atom_site_fract_y
_atom_site_fract_z
Si Si1 0.893310 0.073709 0.811711
Si Si2 0.213900 0.513979 0.878507
Si Si3 0.720011 0.331204 0.759438
Si Si4 0.585534 0.181038 0.877927
O O1 0.834344 0.045200 0.693234
O O2 0.710483 0.101269 0.875841
O O3 0.032913 0.147547 0.804875
O O4 0.000000 0.000000 0.869148
O O5 0.251637 0.604985 0.852260
O O6 0.000000 0.500000 0.856089
O O7 0.269730 0.495897 0.000000
O O8 0.700334 0.246284 0.812930
O O9 0.887686 0.333469 0.675597
O O10 0.552621 0.206972 0.000000
#
# Coordination Sequence:
#
# PCOD8237808 Si02
#       4
#     8   8   8   8
#     4  10  23  42  65  94 136 165 216 271 317 397
#     4  10  20  38  68  97 128 171 213 273 332 373
#     4  11  23  44  63  97 131 164 223 274 315 399
#     4  12  25  43  67  94 132 176 215 272 332 381
#
# _framework density 20.941379000000001
#
# number of rings (size 3 to 8) (size 9 to 14) (size 15 to 20)
#    0.000    1.250    5.000    0.750    0.000    7.000 
#    0.000    8.750    0.000    0.000    0.000    0.000 
#    0.000    0.000    0.000    0.000    0.000    0.000 
#
# Total GULP energy -396794.462358 kJ/mol
# GULP energy per Si atom -12399.826949 kJ/mol
# Density = 2.089372 g / cm^3
# Si number density = 20.941379 Si / 1000 Ang^3
#
#
#
# Elastic Constant Matrix: (Units=GPa)
#
#
# Indices 1 2 3 4 5 6 
#
# 1 138.2632 43.0428 52.8090 0.0000 0.0000 0.0000
# 2 43.0428 84.2816 29.3543 0.0000 0.0000 0.0000
# 3 52.8090 29.3543 83.6089 0.0000 0.0000 0.0000
# 4 0.0000 0.0000 0.0000 13.6288 0.0000 0.0000
# 5 0.0000 0.0000 0.0000 0.0000 4.6466 0.0000
# 6 0.0000 0.0000 0.0000 0.0000 0.0000 45.3830
#
#
#
# Elastic Compliance Matrix: (Units=1/GPa)
#
#
# Indices 1 2 3 4 5 6 
#
# 1 0.010331 -0.003422 -0.005324 0.000000 0.000000 0.000000
# 2 -0.003422 0.014651 -0.002983 0.000000 0.000000 0.000000
# 3 -0.005324 -0.002983 0.016370 0.000000 0.000000 0.000000
# 4 0.000000 0.000000 0.000000 0.073374 0.000000 0.000000
# 5 0.000000 0.000000 0.000000 0.000000 0.215210 0.000000
# 6 0.000000 0.000000 0.000000 0.000000 0.000000 0.022035
#
#
# Mechanical properties :
#
#
# Convention : Reuss Voigt Hill
#
# Bulk Modulus (GPa) = 55.87869 61.84066 58.85967
# Shear Modulus (GPa) = 13.10981 24.79488 18.95234
#
# Velocity S-wave (km/s) = 2.50476 3.44468 3.01162
# Velocity P-wave (km/s) = 5.92507 6.73911 6.34516
#
# Compressibility (1/GPa) = 0.01789591
#
# Stress axis : x y z
#
# Youngs Moduli (GPa) = 96.79258 68.25295 61.08588
#
# Poissons Ratio (x) = 0.23356 0.32523
# Poissons Ratio (y) = 0.33122 0.18220
# Poissons Ratio (z) = 0.51533 0.20357
#
# Static dielectric constant tensor:
#      x y z
#    x 4.078980 0.000000 0.000000 
#    y 0.000000 3.832730 0.000000 
#    z 0.000000 0.000000 3.436650 
# 
# 
# High freq. dielectric constant tensor:
#      x y z
#    x 1.848220 0.000000 0.000000 
#    y 0.000000 1.820040 0.000000 
#    z 0.000000 0.000000 1.795610 
# 
# From -- ./inp_files/12345.got.cif
#   From: 2010.06.25/outbox.cif.g09.slc.cpg/sg58_7_cif.got.tgz:12345.got - 2010.06.26 21:38:00.
