data_PCOD8237153
_publ_section_title
;
Structure prediction by ZEFSAII (Michael W. Deem and Ramdas Pophale) SiO2 
 PCOD8237153
Probable space group: P N N M
;
_chemical_formula_sum "Si O2"
_cell_formula_units_Z 64
_cell_length_a 9.233664
_cell_length_b 21.367870
_cell_length_c 16.873939
_cell_angle_alpha 90.000000
_cell_angle_beta 90.000000
_cell_angle_gamma 90.000000
_cell_volume 3329.291138
_symmetry_space_group_name_H-M "P N N M"
_symmetry_group_IT_number 58
_symmetry_cell_setting 'orthorhombic'
loop_
_space_group_symop_operation_xyz
x,y,z
-x,-y,z
1/2+x,1/2-y,1/2-z
1/2-x,1/2+y,1/2-z
-x,-y,-z
x,y,-z
1/2-x,1/2+y,1/2+z
1/2+x,1/2-y,1/2+z
loop_
_atom_site_type_symbol
_atom_site_label
_atom_site_fract_x
_atom_site_fract_y
_atom_site_fract_z
Si Si1 0.633181 0.453506 0.408174
Si Si2 0.909565 0.140770 0.088314
Si Si3 0.451128 0.716282 0.905818
Si Si4 0.227068 0.767749 0.305498
Si Si5 0.865731 0.656508 0.668817
Si Si6 0.019681 0.273290 0.911728
Si Si7 0.103824 0.557258 0.706370
Si Si8 0.694435 0.842508 0.316953
O O1 0.500000 0.500000 0.389989
O O2 0.681236 0.455775 0.500000
O O3 0.564390 0.386282 0.382154
O O4 0.777135 0.466203 0.356887
O O5 0.905854 0.216049 0.092262
O O6 0.770896 0.116373 0.136658
O O7 0.889003 0.114560 0.000000
O O8 0.589541 0.702263 0.850039
O O9 0.401295 0.787468 0.892070
O O10 0.332773 0.666880 0.873478
O O11 0.478695 0.705345 0.000000
O O12 0.314423 0.818777 0.254264
O O13 0.334905 0.746359 0.373983
O O14 0.183015 0.708018 0.254001
O O15 0.004821 0.612471 0.671236
O O16 0.950027 0.332860 0.868817
O O17 0.056106 0.294030 0.000000
O O18 0.188449 0.586925 0.782146
O O19 0.000000 0.500000 0.732080
#
# Coordination Sequence:
#
# PCOD8237153 Si02
#       8
#     8   8   8   8   8   8   8   8
#     4  10  23  42  62  86 120 165 211 252 299 359
#     4  10  20  34  57  84 118 159 200 243 303 367
#     4  11  22  36  60  93 128 162 200 257 323 378
#     4  11  20  35  57  88 125 153 194 257 310 367
#     4  11  22  36  58  89 126 162 204 250 309 369
#     4  11  20  34  56  85 121 159 194 243 312 375
#     4  12  25  42  62  88 123 169 213 254 298 362
#     4  11  21  39  57  88 123 159 203 254 308 368
#
# _framework density 19.223313000000001
#
# number of rings (size 3 to 8) (size 9 to 14) (size 15 to 20)
#    0.000    1.125    5.000    3.375    1.750    1.250 
#    0.000    0.000    0.000    1.500    0.000    0.875 
#    0.000    0.000    0.000    0.000    0.000    0.000 
#
# Total GULP energy -793247.289704 kJ/mol
# GULP energy per Si atom -12394.488902 kJ/mol
# Density = 1.917956 g / cm^3
# Si number density = 19.223313 Si / 1000 Ang^3
#
#
#
# Elastic Constant Matrix: (Units=GPa)
#
#
# Indices 1 2 3 4 5 6 
#
# 1 99.3798 26.0299 51.5644 0.0000 0.0000 0.0000
# 2 26.0299 69.7299 31.9723 0.0000 0.0000 0.0000
# 3 51.5644 31.9723 113.7481 0.0000 0.0000 0.0000
# 4 0.0000 0.0000 0.0000 18.3300 0.0000 0.0000
# 5 0.0000 0.0000 0.0000 0.0000 28.1927 0.0000
# 6 0.0000 0.0000 0.0000 0.0000 0.0000 30.6981
#
#
#
# Elastic Compliance Matrix: (Units=1/GPa)
#
#
# Indices 1 2 3 4 5 6 
#
# 1 0.013548 -0.002573 -0.005418 0.000000 0.000000 0.000000
# 2 -0.002573 0.016951 -0.003598 0.000000 0.000000 0.000000
# 3 -0.005418 -0.003598 0.012259 0.000000 0.000000 0.000000
# 4 0.000000 0.000000 0.000000 0.054555 0.000000 0.000000
# 5 0.000000 0.000000 0.000000 0.000000 0.035470 0.000000
# 6 0.000000 0.000000 0.000000 0.000000 0.000000 0.032575
#
#
# Mechanical properties :
#
#
# Convention : Reuss Voigt Hill
#
# Bulk Modulus (GPa) = 51.07507 55.77678 53.42592
# Shear Modulus (GPa) = 25.63258 26.99690 26.31474
#
# Velocity S-wave (km/s) = 3.65555 3.75158 3.70388
# Velocity P-wave (km/s) = 6.66667 6.91693 6.79295
#
# Compressibility (1/GPa) = 0.01957903
#
# Stress axis : x y z
#
# Youngs Moduli (GPa) = 73.81364 58.99207 81.57288
#
# Poissons Ratio (x) = 0.15178 0.44198
# Poissons Ratio (y) = 0.18992 0.29353
# Poissons Ratio (z) = 0.39994 0.21227
#
# Static dielectric constant tensor:
#      x y z
#    x 3.712800 0.000000 0.000000 
#    y 0.000000 3.343780 0.000000 
#    z 0.000000 0.000000 3.599200 
# 
# 
# High freq. dielectric constant tensor:
#      x y z
#    x 1.768770 0.000000 0.000000 
#    y 0.000000 1.707860 0.000000 
#    z 0.000000 0.000000 1.742080 
# 
# From -- ./inp_files/20301.got.cif
#   From: 2010.06.25/outbox.cif.g09.slc.cpg/sg58_11_cif.got.tgz:20301.got - 2010.06.26 21:38:00.
