data_PCOD8237803
_publ_section_title
;
Structure prediction by ZEFSAII (Michael W. Deem and Ramdas Pophale) SiO2 
 PCOD8237803
Probable space group: P N N M
;
_chemical_formula_sum "Si O2"
_cell_formula_units_Z 44
_cell_length_a 8.736232
_cell_length_b 7.744483
_cell_length_c 27.753580
_cell_angle_alpha 90.000000
_cell_angle_beta 90.000000
_cell_angle_gamma 90.000000
_cell_volume 1877.740620
_symmetry_space_group_name_H-M "P N N M"
_symmetry_group_IT_number 58
_symmetry_cell_setting 'orthorhombic'
loop_
_space_group_symop_operation_xyz
x,y,z
-x,-y,z
1/2+x,1/2-y,1/2-z
1/2-x,1/2+y,1/2-z
-x,-y,-z
x,y,-z
1/2-x,1/2+y,1/2+z
1/2+x,1/2-y,1/2+z
loop_
_atom_site_type_symbol
_atom_site_label
_atom_site_fract_x
_atom_site_fract_y
_atom_site_fract_z
Si Si1 0.759394 0.083589 0.732193
Si Si2 0.563769 0.806907 0.000000
Si Si3 0.445644 0.737478 0.797387
Si Si4 0.077346 0.317466 0.404187
Si Si5 0.000000 0.500000 0.160899
Si Si6 0.427530 0.314788 0.594707
Si Si7 0.425395 0.688067 0.500000
O O1 0.660093 0.098718 0.782078
O O2 0.879832 0.243168 0.722796
O O3 0.861059 0.913684 0.731979
O O4 0.637622 0.084358 0.689735
O O5 0.501712 0.720046 0.049798
O O6 0.500000 0.000000 0.000000
O O7 0.744447 0.805650 0.000000
O O8 0.443146 0.707137 0.855069
O O9 0.252123 0.351984 0.418205
O O10 0.000000 0.500000 0.393367
O O11 0.067489 0.665327 0.133794
O O12 0.500000 0.500000 0.610724
O O13 0.513093 0.226753 0.548972
O O14 0.500000 0.500000 0.500000
#
# Coordination Sequence:
#
# PCOD8237803 Si02
#       7
#     8   4   8   8   4   8   4
#     4  11  26  48  67 106 140 185 244 306 360 440
#     4  10  20  38  66 105 145 181 245 308 353 439
#     4  11  26  45  75  99 148 189 239 300 373 434
#     4  11  23  41  71 106 140 196 240 297 369 439
#     4  12  26  45  72 102 156 179 250 308 366 444
#     4  11  24  43  71 105 141 198 242 301 370 436
#     4  10  20  39  70 106 143 191 247 305 361 437
#
# _framework density 23.432414999999999
#
# number of rings (size 3 to 8) (size 9 to 14) (size 15 to 20)
#    0.000    1.091    1.818    6.000    8.909    0.364 
#    0.000    0.000    0.000    3.273    0.000    0.000 
#    0.000    0.000    0.000    0.000    0.000    0.000 
#
# Total GULP energy -545221.798959 kJ/mol
# GULP energy per Si atom -12391.404522 kJ/mol
# Density = 2.337908 g / cm^3
# Si number density = 23.432415 Si / 1000 Ang^3
#
#
#
# Elastic Constant Matrix: (Units=GPa)
#
#
# Indices 1 2 3 4 5 6 
#
# 1 223.7687 24.2861 68.1165 0.0000 0.0000 0.0000
# 2 24.2861 62.3460 19.3520 0.0000 0.0000 0.0000
# 3 68.1165 19.3520 164.6302 0.0000 0.0000 0.0000
# 4 0.0000 0.0000 0.0000 41.3706 0.0000 0.0000
# 5 0.0000 0.0000 0.0000 0.0000 81.9599 0.0000
# 6 0.0000 0.0000 0.0000 0.0000 0.0000 27.7592
#
#
#
# Elastic Compliance Matrix: (Units=1/GPa)
#
#
# Indices 1 2 3 4 5 6 
#
# 1 0.005231 -0.001418 -0.001998 0.000000 0.000000 0.000000
# 2 -0.001418 0.017031 -0.001415 0.000000 0.000000 0.000000
# 3 -0.001998 -0.001415 0.007067 0.000000 0.000000 0.000000
# 4 0.000000 0.000000 0.000000 0.024172 0.000000 0.000000
# 5 0.000000 0.000000 0.000000 0.000000 0.012201 0.000000
# 6 0.000000 0.000000 0.000000 0.000000 0.000000 0.036024
#
#
# Mechanical properties :
#
#
# Convention : Reuss Voigt Hill
#
# Bulk Modulus (GPa) = 50.84467 74.91712 62.88089
# Shear Modulus (GPa) = 42.39327 52.81729 47.60528
#
# Velocity S-wave (km/s) = 4.25805 4.75281 4.51222
# Velocity P-wave (km/s) = 6.77644 7.88416 7.35119
#
# Compressibility (1/GPa) = 0.01966774
#
# Stress axis : x y z
#
# Youngs Moduli (GPa) = 191.17360 58.71621 141.49986
#
# Poissons Ratio (x) = 0.08323 0.28267
# Poissons Ratio (y) = 0.27100 0.20029
# Poissons Ratio (z) = 0.38190 0.08311
#
# Static dielectric constant tensor:
#      x y z
#    x 4.792540 0.000000 0.000000 
#    y 0.000000 4.073320 0.000000 
#    z 0.000000 0.000000 4.946950 
# 
# 
# High freq. dielectric constant tensor:
#      x y z
#    x 1.958890 0.000000 0.000000 
#    y 0.000000 1.898170 0.000000 
#    z 0.000000 0.000000 1.934030 
# 
# From -- ./inp_files/34512.got.cif
#   From: 2010.06.25/outbox.cif.g09.slc.cpg/sg58_18_cif.got.tgz:34512.got - 2010.06.26 21:38:00.
