data_PCOD8237575
_publ_section_title
;
Structure prediction by ZEFSAII (Michael W. Deem and Ramdas Pophale) SiO2 
 PCOD8237575
Probable space group: P N N M
;
_chemical_formula_sum "Si O2"
_cell_formula_units_Z 48
_cell_length_a 17.431324
_cell_length_b 9.460097
_cell_length_c 15.351497
_cell_angle_alpha 90.000000
_cell_angle_beta 90.000000
_cell_angle_gamma 90.000000
_cell_volume 2531.492802
_symmetry_space_group_name_H-M "P N N M"
_symmetry_group_IT_number 58
_symmetry_cell_setting 'orthorhombic'
loop_
_space_group_symop_operation_xyz
x,y,z
-x,-y,z
1/2+x,1/2-y,1/2-z
1/2-x,1/2+y,1/2-z
-x,-y,-z
x,y,-z
1/2-x,1/2+y,1/2+z
1/2+x,1/2-y,1/2+z
loop_
_atom_site_type_symbol
_atom_site_label
_atom_site_fract_x
_atom_site_fract_y
_atom_site_fract_z
Si Si1 0.555642 0.867324 0.000000
Si Si2 0.939280 0.878216 0.500000
Si Si3 0.567142 0.220670 0.500000
Si Si4 0.330524 0.061985 0.327236
Si Si5 0.340352 0.735952 0.334744
Si Si6 0.159701 0.725065 0.657855
Si Si7 0.091154 0.614056 0.000000
Si Si8 0.347671 0.553554 0.830740
O O1 0.611992 0.851947 0.082431
O O2 0.500000 0.000000 0.000000
O O3 0.488888 0.757710 0.000000
O O4 0.887650 0.877769 0.586171
O O5 0.000000 0.000000 0.500000
O O6 0.606600 0.295833 0.417730
O O7 0.475289 0.234111 0.500000
O O8 0.573103 0.051827 0.500000
O O9 0.363218 0.147011 0.245891
O O10 0.362945 0.139686 0.411850
O O11 0.241251 0.079875 0.340600
O O12 0.353073 0.899613 0.310081
O O13 0.251062 0.710305 0.359818
O O14 0.371935 0.633898 0.258209
O O15 0.133386 0.887167 0.669603
#
# Coordination Sequence:
#
# PCOD8237575 Si02
#       8
#     4   4   4   8   8   8   4   8
#     4  12  27  40  56  86 119 155 191 247 305 353
#     4  12  23  40  58  82 115 157 195 231 296 363
#     4   9  17  32  52  85 111 143 183 227 275 326
#     4   9  19  35  59  84 112 151 193 238 278 335
#     4   9  19  35  62  84 110 153 195 233 278 339
#     4  10  20  39  57  83 115 149 192 236 287 340
#     4   9  17  32  52  81 113 142 184 227 277 325
#     4  10  20  37  59  82 111 151 195 234 283 346
#
# _framework density 18.961144000000001
#
# number of rings (size 3 to 8) (size 9 to 14) (size 15 to 20)
#    0.000    2.167    1.667    1.000    2.333    4.000 
#    3.000    0.833    0.000    1.000    0.000    0.000 
#    0.000    0.000    0.000    0.000    0.000    0.000 
#
# Total GULP energy -594814.526848 kJ/mol
# GULP energy per Si atom -12391.969309 kJ/mol
# Density = 1.891799 g / cm^3
# Si number density = 18.961144 Si / 1000 Ang^3
#
#
#
# Elastic Constant Matrix: (Units=GPa)
#
#
# Indices 1 2 3 4 5 6 
#
# 1 62.7234 45.6329 78.3199 0.0000 0.0000 0.0000
# 2 45.6329 76.5114 62.2541 0.0000 0.0000 0.0000
# 3 78.3199 62.2541 192.7659 0.0000 0.0000 0.0000
# 4 0.0000 0.0000 0.0000 35.9940 0.0000 0.0000
# 5 0.0000 0.0000 0.0000 0.0000 2.8631 0.0000
# 6 0.0000 0.0000 0.0000 0.0000 0.0000 28.8742
#
#
#
# Elastic Compliance Matrix: (Units=1/GPa)
#
#
# Indices 1 2 3 4 5 6 
#
# 1 0.042430 -0.015300 -0.012298 0.000000 0.000000 0.000000
# 2 -0.015300 0.023245 -0.001291 0.000000 0.000000 0.000000
# 3 -0.012298 -0.001291 0.010601 0.000000 0.000000 0.000000
# 4 0.000000 0.000000 0.000000 0.027782 0.000000 0.000000
# 5 0.000000 0.000000 0.000000 0.000000 0.349271 0.000000
# 6 0.000000 0.000000 0.000000 0.000000 0.000000 0.034633
#
#
# Mechanical properties :
#
#
# Convention : Reuss Voigt Hill
#
# Bulk Modulus (GPa) = 54.05642 78.26826 66.16234
# Shear Modulus (GPa) = 9.05951 23.26586 16.16268
#
# Velocity S-wave (km/s) = 2.18822 3.50670 2.92277
# Velocity P-wave (km/s) = 5.91231 7.60025 6.80878
#
# Compressibility (1/GPa) = 0.01849919
#
# Stress axis : x y z
#
# Youngs Moduli (GPa) = 23.56829 43.01935 94.32914
#
# Poissons Ratio (x) = 0.65818 1.16006
# Poissons Ratio (y) = 0.36059 0.12177
# Poissons Ratio (z) = 0.28984 0.05554
#
# Static dielectric constant tensor:
#      x y z
#    x 3.604740 0.000000 0.000000 
#    y 0.000000 3.421150 0.000000 
#    z 0.000000 0.000000 3.737420 
# 
# 
# High freq. dielectric constant tensor:
#      x y z
#    x 1.739310 0.000000 0.000000 
#    y 0.000000 1.723640 0.000000 
#    z 0.000000 0.000000 1.749310 
# 
# From -- ./inp_files/22809.got.cif
#   From: 2010.06.25/outbox.cif.g09.slc.cpg/sg58_12_cif.got.tgz:22809.got - 2010.06.26 21:38:00.
