data_PCOD8237495
_publ_section_title
;
Structure prediction by ZEFSAII (Michael W. Deem and Ramdas Pophale) SiO2 
 PCOD8237495
Probable space group: P N N M
;
_chemical_formula_sum "Si O2"
_cell_formula_units_Z 48
_cell_length_a 29.147849
_cell_length_b 9.447312
_cell_length_c 8.918319
_cell_angle_alpha 90.000000
_cell_angle_beta 90.000000
_cell_angle_gamma 90.000000
_cell_volume 2455.827012
_symmetry_space_group_name_H-M "P N N M"
_symmetry_group_IT_number 58
_symmetry_cell_setting 'orthorhombic'
loop_
_space_group_symop_operation_xyz
x,y,z
-x,-y,z
1/2+x,1/2-y,1/2-z
1/2-x,1/2+y,1/2-z
-x,-y,-z
x,y,-z
1/2-x,1/2+y,1/2+z
1/2+x,1/2-y,1/2+z
loop_
_atom_site_type_symbol
_atom_site_label
_atom_site_fract_x
_atom_site_fract_y
_atom_site_fract_z
Si Si1 0.213603 0.304633 0.823388
Si Si2 0.476638 0.351394 0.326410
Si Si3 0.296558 0.499373 0.175543
Si Si4 0.620165 0.695955 0.176099
Si Si5 0.131630 0.509762 0.821886
Si Si6 0.461157 0.885184 0.665580
O O1 0.258927 0.386246 0.766696
O O2 0.170918 0.401185 0.773343
O O3 0.209958 0.150354 0.752139
O O4 0.214502 0.282243 0.000000
O O5 0.500000 0.500000 0.309909
O O6 0.466782 0.310096 0.500000
O O7 0.429409 0.344149 0.238243
O O8 0.514618 0.246942 0.252144
O O9 0.346268 0.434784 0.214862
O O10 0.290029 0.524058 0.000000
O O11 0.640672 0.837905 0.249089
O O12 0.617057 0.721345 0.000000
O O13 0.084028 0.446515 0.753511
O O14 0.128976 0.531757 0.000000
O O15 0.445175 0.835566 0.500000
O O16 0.500000 0.000000 0.653725
#
# Coordination Sequence:
#
# PCOD8237495 Si02
#       6
#     8   8   8   8   8   8
#     4  10  22  39  63  90 112 147 197 241 280 338
#     4  10  21  36  58  83 111 149 194 241 287 330
#     4  10  23  41  58  84 121 152 183 234 293 340
#     4  11  23  38  56  81 119 158 189 228 288 353
#     4  10  20  36  60  86 112 144 193 244 282 329
#     4   9  16  31  54  81 111 140 177 236 288 319
#
# _framework density 19.545351
#
# number of rings (size 3 to 8) (size 9 to 14) (size 15 to 20)
#    0.000    2.000    1.667    1.500    2.333    3.000 
#    0.000    1.667    0.000    0.000    0.000    0.000 
#    0.000    0.000    0.000    0.000    0.000    0.000 
#
# Total GULP energy -595052.017663 kJ/mol
# GULP energy per Si atom -12396.917035 kJ/mol
# Density = 1.950087 g / cm^3
# Si number density = 19.545351 Si / 1000 Ang^3
#
#
#
# Elastic Constant Matrix: (Units=GPa)
#
#
# Indices 1 2 3 4 5 6 
#
# 1 109.4095 59.5097 38.7554 0.0000 0.0000 0.0000
# 2 59.5097 148.8259 46.1741 0.0000 0.0000 0.0000
# 3 38.7554 46.1741 49.5343 0.0000 0.0000 0.0000
# 4 0.0000 0.0000 0.0000 31.4503 0.0000 0.0000
# 5 0.0000 0.0000 0.0000 0.0000 26.1016 0.0000
# 6 0.0000 0.0000 0.0000 0.0000 0.0000 36.5290
#
#
#
# Elastic Compliance Matrix: (Units=1/GPa)
#
#
# Indices 1 2 3 4 5 6 
#
# 1 0.013528 -0.002990 -0.007797 0.000000 0.000000 0.000000
# 2 -0.002990 0.010114 -0.007088 0.000000 0.000000 0.000000
# 3 -0.007797 -0.007088 0.032896 0.000000 0.000000 0.000000
# 4 0.000000 0.000000 0.000000 0.031796 0.000000 0.000000
# 5 0.000000 0.000000 0.000000 0.000000 0.038312 0.000000
# 6 0.000000 0.000000 0.000000 0.000000 0.000000 0.027376
#
#
# Mechanical properties :
#
#
# Convention : Reuss Voigt Hill
#
# Bulk Modulus (GPa) = 48.10728 66.29425 57.20077
# Shear Modulus (GPa) = 25.41905 29.70488 27.56196
#
# Velocity S-wave (km/s) = 3.61018 3.90268 3.75928
# Velocity P-wave (km/s) = 6.48417 7.36883 6.94061
#
# Compressibility (1/GPa) = 0.02078687
#
# Stress axis : x y z
#
# Youngs Moduli (GPa) = 73.91859 98.87047 30.39887
#
# Poissons Ratio (x) = 0.29566 0.23702
# Poissons Ratio (y) = 0.22105 0.21548
# Poissons Ratio (z) = 0.57634 0.70084
#
# Static dielectric constant tensor:
#      x y z
#    x 3.785230 0.000000 0.000000 
#    y 0.000000 3.670040 0.000000 
#    z 0.000000 0.000000 3.320210 
# 
# 
# High freq. dielectric constant tensor:
#      x y z
#    x 1.779000 0.000000 0.000000 
#    y 0.000000 1.777130 0.000000 
#    z 0.000000 0.000000 1.726600 
# 
# From -- ./inp_files/2996.got.cif
#   From: 2010.06.25/outbox.cif.g09.slc.cpg/sg58_2_cif.got.tgz:2996.got - 2010.06.26 21:38:00.
