data_PCOD8237547
_publ_section_title
;
Structure prediction by ZEFSAII (Michael W. Deem and Ramdas Pophale) SiO2 
 PCOD8237547
Probable space group: P N N M
;
_chemical_formula_sum "Si O2"
_cell_formula_units_Z 48
_cell_length_a 13.802741
_cell_length_b 20.119624
_cell_length_c 9.201580
_cell_angle_alpha 90.000000
_cell_angle_beta 90.000000
_cell_angle_gamma 90.000000
_cell_volume 2555.333599
_symmetry_space_group_name_H-M "P N N M"
_symmetry_group_IT_number 58
_symmetry_cell_setting 'orthorhombic'
loop_
_space_group_symop_operation_xyz
x,y,z
-x,-y,z
1/2+x,1/2-y,1/2-z
1/2-x,1/2+y,1/2-z
-x,-y,-z
x,y,-z
1/2-x,1/2+y,1/2+z
1/2+x,1/2-y,1/2+z
loop_
_atom_site_type_symbol
_atom_site_label
_atom_site_fract_x
_atom_site_fract_y
_atom_site_fract_z
Si Si1 0.759192 0.140697 0.329840
Si Si2 0.947856 0.181465 0.169901
Si Si3 0.435999 0.062432 0.829336
Si Si4 0.549116 0.433321 0.164428
Si Si5 0.543468 0.177963 0.668382
Si Si6 0.242184 0.511964 0.836227
O O1 0.780078 0.148309 0.500000
O O2 0.842661 0.180223 0.244873
O O3 0.656274 0.172997 0.286058
O O4 0.762261 0.063246 0.282866
O O5 0.018893 0.125606 0.230822
O O6 0.002484 0.249781 0.203665
O O7 0.932308 0.170263 0.000000
O O8 0.480252 0.127901 0.761137
O O9 0.329292 0.049701 0.770564
O O10 0.500000 0.000000 0.782749
O O11 0.430935 0.072595 0.000000
O O12 0.500000 0.500000 0.223581
O O13 0.663471 0.442549 0.168486
O O14 0.512581 0.418427 0.000000
O O15 0.531917 0.159008 0.500000
O O16 0.199594 0.509112 0.000000
#
# Coordination Sequence:
#
# PCOD8237547 Si02
#       6
#     8   8   8   8   8   8
#     4  10  20  39  64  85 114 161 205 242 292 356
#     4  11  24  39  59  91 125 155 195 248 303 354
#     4  11  23  37  58  91 123 150 192 248 302 349
#     4  10  20  38  61  87 115 151 204 245 286 354
#     4  10  23  42  62  85 118 161 205 241 289 360
#     4  10  20  36  63  90 116 158 205 245 287 349
#
# _framework density 18.78424
#
# number of rings (size 3 to 8) (size 9 to 14) (size 15 to 20)
#    0.000    1.667    3.333    1.000    0.000    5.667 
#    0.000    3.333    0.000    0.000    0.000    0.000 
#    0.000    0.000    0.000    0.000    0.000    0.000 
#
# Total GULP energy -595391.288203 kJ/mol
# GULP energy per Si atom -12403.985171 kJ/mol
# Density = 1.874149 g / cm^3
# Si number density = 18.784240 Si / 1000 Ang^3
#
#
#
# Elastic Constant Matrix: (Units=GPa)
#
#
# Indices 1 2 3 4 5 6 
#
# 1 111.5508 58.4371 40.9987 0.0000 0.0000 0.0000
# 2 58.4371 121.9771 62.1020 0.0000 0.0000 0.0000
# 3 40.9987 62.1020 63.7587 0.0000 0.0000 0.0000
# 4 0.0000 0.0000 0.0000 30.2922 0.0000 0.0000
# 5 0.0000 0.0000 0.0000 0.0000 16.6243 0.0000
# 6 0.0000 0.0000 0.0000 0.0000 0.0000 33.4392
#
#
#
# Elastic Compliance Matrix: (Units=1/GPa)
#
#
# Indices 1 2 3 4 5 6 
#
# 1 0.012560 -0.003780 -0.004395 0.000000 0.000000 0.000000
# 2 -0.003780 0.017400 -0.014518 0.000000 0.000000 0.000000
# 3 -0.004395 -0.014518 0.032651 0.000000 0.000000 0.000000
# 4 0.000000 0.000000 0.000000 0.033012 0.000000 0.000000
# 5 0.000000 0.000000 0.000000 0.000000 0.060153 0.000000
# 6 0.000000 0.000000 0.000000 0.000000 0.000000 0.029905
#
#
# Mechanical properties :
#
#
# Convention : Reuss Voigt Hill
#
# Bulk Modulus (GPa) = 58.05098 68.92912 63.49005
# Shear Modulus (GPa) = 21.11416 25.12107 23.11762
#
# Velocity S-wave (km/s) = 3.35630 3.66094 3.51193
# Velocity P-wave (km/s) = 6.78166 7.39222 7.09351
#
# Compressibility (1/GPa) = 0.01722624
#
# Stress axis : x y z
#
# Youngs Moduli (GPa) = 79.61919 57.46964 30.62701
#
# Poissons Ratio (x) = 0.21721 0.13460
# Poissons Ratio (y) = 0.30093 0.44464
# Poissons Ratio (z) = 0.34992 0.83434
#
# Static dielectric constant tensor:
#      x y z
#    x 3.536030 0.000000 0.000000 
#    y 0.000000 3.305160 0.000000 
#    z 0.000000 0.000000 3.416660 
# 
# 
# High freq. dielectric constant tensor:
#      x y z
#    x 1.743680 0.000000 0.000000 
#    y 0.000000 1.727300 0.000000 
#    z 0.000000 0.000000 1.726680 
# 
# From -- ./inp_files/5908.got.cif
#   From: 2010.06.25/outbox.cif.g09.slc.cpg/sg58_3_cif.got.tgz:5908.got - 2010.06.26 21:38:00.
