data_PCOD8237143
_publ_section_title
;
Structure prediction by ZEFSAII (Michael W. Deem and Ramdas Pophale) SiO2 
 PCOD8237143
Probable space group: P N N M
;
_chemical_formula_sum "Si O2"
_cell_formula_units_Z 64
_cell_length_a 15.007072
_cell_length_b 24.866583
_cell_length_c 8.668199
_cell_angle_alpha 90.000000
_cell_angle_beta 90.000000
_cell_angle_gamma 90.000000
_cell_volume 3234.751707
_symmetry_space_group_name_H-M "P N N M"
_symmetry_group_IT_number 58
_symmetry_cell_setting 'orthorhombic'
loop_
_space_group_symop_operation_xyz
x,y,z
-x,-y,z
1/2+x,1/2-y,1/2-z
1/2-x,1/2+y,1/2-z
-x,-y,-z
x,y,-z
1/2-x,1/2+y,1/2+z
1/2+x,1/2-y,1/2+z
loop_
_atom_site_type_symbol
_atom_site_label
_atom_site_fract_x
_atom_site_fract_y
_atom_site_fract_z
Si Si1 0.856267 0.069649 0.675860
Si Si2 0.446905 0.608797 0.824227
Si Si3 0.492924 0.284269 0.678724
Si Si4 0.698118 0.677631 0.321746
Si Si5 0.299322 0.539002 0.322166
Si Si6 0.442957 0.927269 0.179995
Si Si7 0.381957 0.033518 0.679435
Si Si8 0.105106 0.306770 0.678377
O O1 0.832325 0.054738 0.500000
O O2 0.804853 0.123761 0.721060
O O3 0.961166 0.077520 0.697109
O O4 0.828563 0.021457 0.785778
O O5 0.457271 0.670825 0.778534
O O6 0.376698 0.581053 0.712831
O O7 0.413456 0.605581 0.000000
O O8 0.508012 0.297110 0.500000
O O9 0.386513 0.283960 0.716789
O O10 0.536704 0.227448 0.719782
O O11 0.696215 0.659748 0.500000
O O12 0.791246 0.708344 0.285869
O O13 0.273177 0.542562 0.500000
O O14 0.214719 0.556415 0.220342
O O15 0.546377 0.932454 0.224506
O O16 0.408252 0.868621 0.224431
O O17 0.385296 0.970508 0.275141
O O18 0.430412 0.939337 0.000000
O O19 0.402500 0.040488 0.500000
O O20 0.081768 0.296728 0.500000
#
# Coordination Sequence:
#
# PCOD8237143 Si02
#       8
#     8   8   8   8   8   8   8   8
#     4  10  20  34  56  85 115 147 187 234 284 340
#     4  10  21  38  57  79 113 151 187 233 287 342
#     4  10  21  38  59  84 114 149 192 242 288 339
#     4   9  19  37  59  84 113 149 191 235 288 342
#     4  12  23  35  54  82 115 152 193 232 279 343
#     4  10  20  37  60  85 114 150 189 236 288 344
#     4  11  22  37  57  83 117 153 188 234 288 343
#     4  10  21  38  61  85 112 150 193 238 290 342
#
# _framework density 19.785133999999999
#
# number of rings (size 3 to 8) (size 9 to 14) (size 15 to 20)
#    0.000    1.750    0.000    5.625    0.000    6.000 
#    2.250    0.000    0.000    0.000    0.000    0.000 
#    0.000    0.000    0.000    0.000    0.000    0.000 
#
# Total GULP energy -793828.009635 kJ/mol
# GULP energy per Si atom -12403.562651 kJ/mol
# Density = 1.974010 g / cm^3
# Si number density = 19.785134 Si / 1000 Ang^3
#
#
#
# Elastic Constant Matrix: (Units=GPa)
#
#
# Indices 1 2 3 4 5 6 
#
# 1 98.6025 44.3068 22.4502 0.0000 0.0000 0.0000
# 2 44.3068 51.5532 20.9844 0.0000 0.0000 0.0000
# 3 22.4502 20.9844 62.1873 0.0000 0.0000 0.0000
# 4 0.0000 0.0000 0.0000 32.7001 0.0000 0.0000
# 5 0.0000 0.0000 0.0000 0.0000 29.4432 0.0000
# 6 0.0000 0.0000 0.0000 0.0000 0.0000 24.0695
#
#
#
# Elastic Compliance Matrix: (Units=1/GPa)
#
#
# Indices 1 2 3 4 5 6 
#
# 1 0.016622 -0.013729 -0.001368 0.000000 0.000000 0.000000
# 2 -0.013729 0.033825 -0.006458 0.000000 0.000000 0.000000
# 3 -0.001368 -0.006458 0.018753 0.000000 0.000000 0.000000
# 4 0.000000 0.000000 0.000000 0.030581 0.000000 0.000000
# 5 0.000000 0.000000 0.000000 0.000000 0.033964 0.000000
# 6 0.000000 0.000000 0.000000 0.000000 0.000000 0.041546
#
#
# Mechanical properties :
#
#
# Convention : Reuss Voigt Hill
#
# Bulk Modulus (GPa) = 38.32672 43.09174 40.70923
# Shear Modulus (GPa) = 22.01687 25.54934 23.78310
#
# Velocity S-wave (km/s) = 3.33948 3.59742 3.47085
# Velocity P-wave (km/s) = 5.85517 6.25159 6.05663
#
# Compressibility (1/GPa) = 0.02609146
#
# Stress axis : x y z
#
# Youngs Moduli (GPa) = 60.16003 29.56374 53.32362
#
# Poissons Ratio (x) = 0.40588 0.07295
# Poissons Ratio (y) = 0.82594 0.34434
# Poissons Ratio (z) = 0.08231 0.19091
#
# Static dielectric constant tensor:
#      x y z
#    x 3.786990 0.000000 0.000000 
#    y 0.000000 3.355470 0.000000 
#    z 0.000000 0.000000 3.625600 
# 
# 
# High freq. dielectric constant tensor:
#      x y z
#    x 1.783320 0.000000 0.000000 
#    y 0.000000 1.749420 0.000000 
#    z 0.000000 0.000000 1.778540 
# 
# From -- ./inp_files/6888.got.cif
#   From: 2010.06.25/outbox.cif.g09.slc.cpg/sg58_4_cif.got.tgz:6888.got - 2010.06.26 21:38:00.
