data_PCOD8237309
_publ_section_title
;
Structure prediction by ZEFSAII (Michael W. Deem and Ramdas Pophale) SiO2 
 PCOD8237309
Probable space group: P N N M
;
_chemical_formula_sum "Si O2"
_cell_formula_units_Z 44
_cell_length_a 8.188398
_cell_length_b 13.351654
_cell_length_c 19.033030
_cell_angle_alpha 90.000000
_cell_angle_beta 90.000000
_cell_angle_gamma 90.000000
_cell_volume 2080.855607
_symmetry_space_group_name_H-M "P N N M"
_symmetry_group_IT_number 58
_symmetry_cell_setting 'orthorhombic'
loop_
_space_group_symop_operation_xyz
x,y,z
-x,-y,z
1/2+x,1/2-y,1/2-z
1/2-x,1/2+y,1/2-z
-x,-y,-z
x,y,-z
1/2-x,1/2+y,1/2+z
1/2+x,1/2-y,1/2+z
loop_
_atom_site_type_symbol
_atom_site_label
_atom_site_fract_x
_atom_site_fract_y
_atom_site_fract_z
Si Si1 0.584230 0.699381 0.419859
Si Si2 0.342141 0.294917 0.838678
Si Si3 0.754028 0.894508 0.080780
Si Si4 0.000000 0.500000 0.668765
Si Si5 0.848494 0.701460 0.301442
Si Si6 0.897116 0.593830 0.918924
O O1 0.648899 0.692314 0.500000
O O2 0.449577 0.612236 0.406018
O O3 0.731457 0.682361 0.367134
O O4 0.503792 0.807278 0.406358
O O5 0.324394 0.210989 0.898174
O O6 0.245228 0.267305 0.768078
O O7 0.533834 0.296567 0.819045
O O8 0.270543 0.397248 0.872993
O O9 0.664732 0.982377 0.123342
O O10 0.716672 0.914440 0.000000
O O11 0.043256 0.399746 0.713235
O O12 0.000000 0.500000 0.890617
O O13 0.849016 0.578566 0.000000
#
# Coordination Sequence:
#
# PCOD8237309 Si02
#       6
#     8   8   8   4   8   8
#     4   9  19  36  59  84 117 154 191 237 295 353
#     4  10  20  35  58  80 115 152 194 243 291 359
#     4   9  18  36  60  87 117 153 191 237 292 349
#     4  10  23  36  58  88 119 150 198 246 287 362
#     4  11  23  39  57  84 114 158 197 243 302 355
#     4   9  18  35  61  87 112 149 194 241 294 354
#
# _framework density 21.145147999999999
#
# number of rings (size 3 to 8) (size 9 to 14) (size 15 to 20)
#    0.000    2.364    0.000    4.091    1.273    5.091 
#    0.000    2.727    0.000    3.273    0.000    0.000 
#    0.000    0.000    0.000    0.000    0.000    0.000 
#
# Total GULP energy -545312.026370 kJ/mol
# GULP energy per Si atom -12393.455145 kJ/mol
# Density = 2.109702 g / cm^3
# Si number density = 21.145148 Si / 1000 Ang^3
#
#
#
# Elastic Constant Matrix: (Units=GPa)
#
#
# Indices 1 2 3 4 5 6 
#
# 1 114.7965 27.1089 36.6232 0.0000 0.0000 0.0000
# 2 27.1089 73.2473 10.6040 0.0000 0.0000 0.0000
# 3 36.6232 10.6040 48.1266 0.0000 0.0000 0.0000
# 4 0.0000 0.0000 0.0000 20.9781 0.0000 0.0000
# 5 0.0000 0.0000 0.0000 0.0000 33.9544 0.0000
# 6 0.0000 0.0000 0.0000 0.0000 0.0000 32.9133
#
#
#
# Elastic Compliance Matrix: (Units=1/GPa)
#
#
# Indices 1 2 3 4 5 6 
#
# 1 0.012223 -0.003282 -0.008578 0.000000 0.000000 0.000000
# 2 -0.003282 0.014983 -0.000804 0.000000 0.000000 0.000000
# 3 -0.008578 -0.000804 0.027483 0.000000 0.000000 0.000000
# 4 0.000000 0.000000 0.000000 0.047669 0.000000 0.000000
# 5 0.000000 0.000000 0.000000 0.000000 0.029451 0.000000
# 6 0.000000 0.000000 0.000000 0.000000 0.000000 0.030383
#
#
# Mechanical properties :
#
#
# Convention : Reuss Voigt Hill
#
# Bulk Modulus (GPa) = 34.05799 42.76031 38.40915
# Shear Modulus (GPa) = 25.34116 28.35810 26.84963
#
# Velocity S-wave (km/s) = 3.46560 3.66610 3.56726
# Velocity P-wave (km/s) = 5.67059 6.17953 5.93052
#
# Compressibility (1/GPa) = 0.02936169
#
# Stress axis : x y z
#
# Youngs Moduli (GPa) = 81.81493 66.74064 36.38557
#
# Poissons Ratio (x) = 0.21903 0.31212
# Poissons Ratio (y) = 0.26850 0.02925
# Poissons Ratio (z) = 0.70182 0.05366
#
# Static dielectric constant tensor:
#      x y z
#    x 4.035180 0.000000 0.000000 
#    y 0.000000 3.724820 0.000000 
#    z 0.000000 0.000000 3.808770 
# 
# 
# High freq. dielectric constant tensor:
#      x y z
#    x 1.825680 0.000000 0.000000 
#    y 0.000000 1.809350 0.000000 
#    z 0.000000 0.000000 1.831000 
# 
# From -- ./inp_files/25225.got.cif
#   From: 2010.06.25/outbox.cif.g09.slc.cpg/sg58_13_cif.got.tgz:25225.got - 2010.06.26 21:38:00.
