data_PCOD8237430
_publ_section_title
;
Structure prediction by ZEFSAII (Michael W. Deem and Ramdas Pophale) SiO2 
 PCOD8237430
Probable space group: P N N M
;
_chemical_formula_sum "Si O2"
_cell_formula_units_Z 56
_cell_length_a 21.205493
_cell_length_b 15.005892
_cell_length_c 8.722549
_cell_angle_alpha 90.000000
_cell_angle_beta 90.000000
_cell_angle_gamma 90.000000
_cell_volume 2775.579096
_symmetry_space_group_name_H-M "P N N M"
_symmetry_group_IT_number 58
_symmetry_cell_setting 'orthorhombic'
loop_
_space_group_symop_operation_xyz
x,y,z
-x,-y,z
1/2+x,1/2-y,1/2-z
1/2-x,1/2+y,1/2-z
-x,-y,-z
x,y,-z
1/2-x,1/2+y,1/2+z
1/2+x,1/2-y,1/2+z
loop_
_atom_site_type_symbol
_atom_site_label
_atom_site_fract_x
_atom_site_fract_y
_atom_site_fract_z
Si Si1 0.742151 0.729597 0.681499
Si Si2 0.104944 0.717591 0.820715
Si Si3 0.475017 0.360365 0.174472
Si Si4 0.097816 0.039786 0.675607
Si Si5 0.931871 0.473640 0.819192
Si Si6 0.195928 0.443519 0.821108
Si Si7 0.722302 0.408305 0.321639
O O1 0.747060 0.739937 0.500000
O O2 0.670049 0.739179 0.742132
O O3 0.771337 0.634907 0.726714
O O4 0.781996 0.807217 0.762131
O O5 0.046042 0.780477 0.783077
O O6 0.091230 0.620521 0.747401
O O7 0.111805 0.706862 0.000000
O O8 0.435516 0.447641 0.215376
O O9 0.548790 0.379456 0.201605
O O10 0.462416 0.332083 0.000000
O O11 0.122241 0.040831 0.500000
O O12 0.154435 0.048049 0.794235
O O13 0.879039 0.549328 0.783856
O O14 0.000000 0.500000 0.747442
O O15 0.939615 0.461575 0.000000
O O16 0.225544 0.538235 0.774318
O O17 0.207743 0.426533 0.000000
O O18 0.739183 0.412320 0.500000
#
# Coordination Sequence:
#
# PCOD8237430 Si02
#       7
#     8   8   8   8   8   8   8
#     4  11  23  40  61  89 122 158 203 253 310 368
#     4  10  20  36  58  85 116 155 196 245 304 362
#     4   9  19  35  57  84 114 154 196 239 297 364
#     4   9  19  37  57  81 118 157 194 243 304 357
#     4   9  19  38  62  85 114 154 199 245 299 362
#     4  11  22  40  63  90 123 160 202 253 314 370
#     4  12  24  38  59  88 119 158 204 250 301 360
#
# _framework density 20.17597
#
# number of rings (size 3 to 8) (size 9 to 14) (size 15 to 20)
#    0.000    1.857    1.429    3.857    0.000    5.714 
#    0.000    2.857    0.000    3.000    0.000    0.000 
#    0.000    0.000    0.000    0.000    0.000    0.000 
#
# Total GULP energy -694435.312209 kJ/mol
# GULP energy per Si atom -12400.630575 kJ/mol
# Density = 2.013005 g / cm^3
# Si number density = 20.175970 Si / 1000 Ang^3
#
#
#
# Elastic Constant Matrix: (Units=GPa)
#
#
# Indices 1 2 3 4 5 6 
#
# 1 122.4944 40.7576 27.4378 0.0000 0.0000 0.0000
# 2 40.7576 94.4494 15.9939 0.0000 0.0000 0.0000
# 3 27.4378 15.9939 54.2466 0.0000 0.0000 0.0000
# 4 0.0000 0.0000 0.0000 31.8497 0.0000 0.0000
# 5 0.0000 0.0000 0.0000 0.0000 23.6708 0.0000
# 6 0.0000 0.0000 0.0000 0.0000 0.0000 29.1032
#
#
#
# Elastic Compliance Matrix: (Units=1/GPa)
#
#
# Indices 1 2 3 4 5 6 
#
# 1 0.010339 -0.003764 -0.004120 0.000000 0.000000 0.000000
# 2 -0.003764 0.012514 -0.001786 0.000000 0.000000 0.000000
# 3 -0.004120 -0.001786 0.021045 0.000000 0.000000 0.000000
# 4 0.000000 0.000000 0.000000 0.031397 0.000000 0.000000
# 5 0.000000 0.000000 0.000000 0.000000 0.042246 0.000000
# 6 0.000000 0.000000 0.000000 0.000000 0.000000 0.034360
#
#
# Mechanical properties :
#
#
# Convention : Reuss Voigt Hill
#
# Bulk Modulus (GPa) = 40.71850 48.84102 44.77976
# Shear Modulus (GPa) = 27.86651 29.39147 28.62899
#
# Velocity S-wave (km/s) = 3.72045 3.82089 3.77100
# Velocity P-wave (km/s) = 6.21941 6.61254 6.41899
#
# Compressibility (1/GPa) = 0.02455886
#
# Stress axis : x y z
#
# Youngs Moduli (GPa) = 96.72357 79.90846 47.51817
#
# Poissons Ratio (x) = 0.30076 0.19576
# Poissons Ratio (y) = 0.36405 0.08486
# Poissons Ratio (z) = 0.39846 0.14271
#
# Static dielectric constant tensor:
#      x y z
#    x 3.841990 0.000000 0.000000 
#    y 0.000000 3.620860 0.000000 
#    z 0.000000 0.000000 3.361580 
# 
# 
# High freq. dielectric constant tensor:
#      x y z
#    x 1.795760 0.000000 0.000000 
#    y 0.000000 1.788220 0.000000 
#    z 0.000000 0.000000 1.765600 
# 
# From -- ./inp_files/6277.got.cif
#   From: 2010.06.25/outbox.cif.g09.slc.cpg/sg58_4_cif.got.tgz:6277.got - 2010.06.26 21:38:00.
