data_PCOD8237516
_publ_section_title
;
Structure prediction by ZEFSAII (Michael W. Deem and Ramdas Pophale) SiO2 
 PCOD8237516
Probable space group: P N N M
;
_chemical_formula_sum "Si O2"
_cell_formula_units_Z 48
_cell_length_a 9.170069
_cell_length_b 27.735170
_cell_length_c 9.906621
_cell_angle_alpha 90.000000
_cell_angle_beta 90.000000
_cell_angle_gamma 90.000000
_cell_volume 2519.584826
_symmetry_space_group_name_H-M "P N N M"
_symmetry_group_IT_number 58
_symmetry_cell_setting 'orthorhombic'
loop_
_space_group_symop_operation_xyz
x,y,z
-x,-y,z
1/2+x,1/2-y,1/2-z
1/2-x,1/2+y,1/2-z
-x,-y,-z
x,y,-z
1/2-x,1/2+y,1/2+z
1/2+x,1/2-y,1/2+z
loop_
_atom_site_type_symbol
_atom_site_label
_atom_site_fract_x
_atom_site_fract_y
_atom_site_fract_z
Si Si1 0.621673 0.289247 0.345166
Si Si2 0.418886 0.449728 0.500000
Si Si3 0.380986 0.207950 0.344268
Si Si4 0.079958 0.104672 0.772409
Si Si5 0.921963 0.948728 0.500000
Si Si6 0.426364 0.947569 0.000000
Si Si7 0.914240 0.451634 0.000000
Si Si8 0.916253 0.395626 0.736499
O O1 0.677433 0.297677 0.500000
O O2 0.502339 0.248194 0.344707
O O3 0.747248 0.271561 0.243513
O O4 0.553472 0.338227 0.284332
O O5 0.500000 0.500000 0.500000
O O6 0.467169 0.420930 0.630575
O O7 0.245849 0.456417 0.500000
O O8 0.334649 0.195528 0.500000
O O9 0.438263 0.160922 0.265080
O O10 0.038097 0.084973 0.625800
O O11 0.249245 0.093340 0.807802
O O12 0.754925 0.963345 0.500000
O O13 0.000000 0.000000 0.500000
O O14 0.472559 0.915319 0.126467
O O15 0.500000 0.000000 0.000000
O O16 0.962369 0.422097 0.128863
O O17 0.000000 0.500000 0.000000
#
# Coordination Sequence:
#
# PCOD8237516 Si02
#       8
#     8   4   8   8   4   4   4   8
#     4  10  22  40  64  93 125 162 207 251 307 367
#     4  12  24  40  61  86 123 161 204 257 309 362
#     4  10  22  41  64  93 127 163 204 253 307 367
#     4  10  21  40  63  87 120 164 200 250 308 363
#     4  10  22  38  59  90 117 155 202 245 299 364
#     4  12  26  40  61  92 123 161 210 255 303 370
#     4  10  20  36  61  84 117 155 196 245 303 356
#     4  10  21  40  62  89 120 162 203 250 308 362
#
# _framework density 19.050757999999998
#
# number of rings (size 3 to 8) (size 9 to 14) (size 15 to 20)
#    0.000    1.667    1.667    2.500    7.000    6.000 
#    0.000    0.000    0.000    0.000    0.000    0.000 
#    0.000    0.000    0.000    0.000    0.000    0.000 
#
# Total GULP energy -595126.812762 kJ/mol
# GULP energy per Si atom -12398.475266 kJ/mol
# Density = 1.900740 g / cm^3
# Si number density = 19.050758 Si / 1000 Ang^3
#
#
#
# Elastic Constant Matrix: (Units=GPa)
#
#
# Indices 1 2 3 4 5 6 
#
# 1 98.3919 54.1716 69.2491 0.0000 0.0000 0.0000
# 2 54.1716 103.3021 60.9769 0.0000 0.0000 0.0000
# 3 69.2491 60.9769 158.2551 0.0000 0.0000 0.0000
# 4 0.0000 0.0000 0.0000 36.2098 0.0000 0.0000
# 5 0.0000 0.0000 0.0000 0.0000 45.6434 0.0000
# 6 0.0000 0.0000 0.0000 0.0000 0.0000 34.1756
#
#
#
# Elastic Compliance Matrix: (Units=1/GPa)
#
#
# Indices 1 2 3 4 5 6 
#
# 1 0.017059 -0.005876 -0.005201 0.000000 0.000000 0.000000
# 2 -0.005876 0.014554 -0.003037 0.000000 0.000000 0.000000
# 3 -0.005201 -0.003037 0.009765 0.000000 0.000000 0.000000
# 4 0.000000 0.000000 0.000000 0.027617 0.000000 0.000000
# 5 0.000000 0.000000 0.000000 0.000000 0.021909 0.000000
# 6 0.000000 0.000000 0.000000 0.000000 0.000000 0.029261
#
#
# Mechanical properties :
#
#
# Convention : Reuss Voigt Hill
#
# Bulk Modulus (GPa) = 76.03774 80.97156 78.50465
# Shear Modulus (GPa) = 32.72817 34.90919 33.81868
#
# Velocity S-wave (km/s) = 4.14931 4.28533 4.21787
# Velocity P-wave (km/s) = 7.93445 8.19029 8.06338
#
# Compressibility (1/GPa) = 0.01315136
#
# Stress axis : x y z
#
# Youngs Moduli (GPa) = 58.62131 68.70916 102.41071
#
# Poissons Ratio (x) = 0.40372 0.53259
# Poissons Ratio (y) = 0.34445 0.31099
# Poissons Ratio (z) = 0.30486 0.20865
#
# Static dielectric constant tensor:
#      x y z
#    x 3.529910 0.000000 0.000000 
#    y 0.000000 2.370480 0.000000 
#    z 0.000000 0.000000 3.980150 
# 
# 
# High freq. dielectric constant tensor:
#      x y z
#    x 1.724120 0.000000 0.000000 
#    y 0.000000 1.754790 0.000000 
#    z 0.000000 0.000000 1.761320 
# 
# From -- ./inp_files/3104.got.cif
#   From: 2010.06.25/outbox.cif.g09.slc.cpg/sg58_2_cif.got.tgz:3104.got - 2010.06.26 21:38:00.
