data_PCOD8237214
_publ_section_title
;
Structure prediction by ZEFSAII (Michael W. Deem and Ramdas Pophale) SiO2 
 PCOD8237214
Probable space group: P N N M
;
_chemical_formula_sum "Si O2"
_cell_formula_units_Z 48
_cell_length_a 30.913398
_cell_length_b 8.934816
_cell_length_c 9.083146
_cell_angle_alpha 90.000000
_cell_angle_beta 90.000000
_cell_angle_gamma 90.000000
_cell_volume 2508.815092
_symmetry_space_group_name_H-M "P N N M"
_symmetry_group_IT_number 58
_symmetry_cell_setting 'orthorhombic'
loop_
_space_group_symop_operation_xyz
x,y,z
-x,-y,z
1/2+x,1/2-y,1/2-z
1/2-x,1/2+y,1/2-z
-x,-y,-z
x,y,-z
1/2-x,1/2+y,1/2+z
1/2+x,1/2-y,1/2+z
loop_
_atom_site_type_symbol
_atom_site_label
_atom_site_fract_x
_atom_site_fract_y
_atom_site_fract_z
Si Si1 0.379317 0.073587 0.326970
Si Si2 0.624558 0.587908 0.325223
Si Si3 0.289858 0.574285 0.674240
Si Si4 0.957564 0.901551 0.169191
Si Si5 0.210547 0.417557 0.828236
Si Si6 0.957657 0.590838 0.326497
O O1 0.389084 0.068416 0.500000
O O2 0.334183 0.996539 0.288230
O O3 0.416269 0.984324 0.244999
O O4 0.378118 0.242862 0.265802
O O5 0.625814 0.590512 0.500000
O O6 0.667733 0.509419 0.263043
O O7 0.582986 0.496214 0.270064
O O8 0.287681 0.559162 0.500000
O O9 0.247753 0.499512 0.740146
O O10 0.292299 0.746292 0.723585
O O11 0.963280 0.757970 0.269463
O O12 0.949959 0.852527 0.000000
O O13 0.000000 0.000000 0.184843
O O14 0.221045 0.430646 0.000000
O O15 0.951353 0.593123 0.500000
O O16 0.000000 0.500000 0.278627
#
# Coordination Sequence:
#
# PCOD8237214 Si02
#       6
#     8   8   8   8   8   8
#     4  10  20  37  61  83 106 140 183 229 273 320
#     4   9  18  34  57  84 109 137 180 232 277 318
#     4  10  20  35  55  79 111 147 181 222 273 328
#     4  10  20  36  60  86 110 142 187 231 271 321
#     4  10  21  36  56  83 111 142 183 229 274 321
#     4  11  24  39  55  80 115 149 180 220 272 327
#
# _framework density 19.132536999999999
#
# number of rings (size 3 to 8) (size 9 to 14) (size 15 to 20)
#    0.000    2.000    0.000    3.500    0.000    8.333 
#    0.000    4.167    0.000    0.000    0.000    0.000 
#    0.000    0.000    0.000    0.000    0.000    0.000 
#
# Total GULP energy -595391.893154 kJ/mol
# GULP energy per Si atom -12403.997774 kJ/mol
# Density = 1.908899 g / cm^3
# Si number density = 19.132537 Si / 1000 Ang^3
#
#
#
# Elastic Constant Matrix: (Units=GPa)
#
#
# Indices 1 2 3 4 5 6 
#
# 1 131.5503 65.2827 44.3499 0.0000 0.0000 0.0000
# 2 65.2827 140.6630 31.5889 0.0000 0.0000 0.0000
# 3 44.3499 31.5889 31.4893 0.0000 0.0000 0.0000
# 4 0.0000 0.0000 0.0000 25.5919 0.0000 0.0000
# 5 0.0000 0.0000 0.0000 0.0000 59.1946 0.0000
# 6 0.0000 0.0000 0.0000 0.0000 0.0000 52.0419
#
#
#
# Elastic Compliance Matrix: (Units=1/GPa)
#
#
# Indices 1 2 3 4 5 6 
#
# 1 0.015356 -0.002930 -0.018689 0.000000 0.000000 0.000000
# 2 -0.002930 0.009736 -0.005640 0.000000 0.000000 0.000000
# 3 -0.018689 -0.005640 0.063736 0.000000 0.000000 0.000000
# 4 0.000000 0.000000 0.000000 0.039075 0.000000 0.000000
# 5 0.000000 0.000000 0.000000 0.000000 0.016893 0.000000
# 6 0.000000 0.000000 0.000000 0.000000 0.000000 0.019215
#
#
# Mechanical properties :
#
#
# Convention : Reuss Voigt Hill
#
# Bulk Modulus (GPa) = 29.14535 65.12729 47.13632
# Shear Modulus (GPa) = 21.74249 38.19775 29.97012
#
# Velocity S-wave (km/s) = 3.37473 4.47305 3.96213
# Velocity P-wave (km/s) = 5.51829 7.79689 6.75437
#
# Compressibility (1/GPa) = 0.03431079
#
# Stress axis : x y z
#
# Youngs Moduli (GPa) = 65.12008 102.71652 15.68982
#
# Poissons Ratio (x) = 0.30096 0.29322
# Poissons Ratio (y) = 0.19080 0.08848
# Poissons Ratio (z) = 1.21701 0.57928
#
# Static dielectric constant tensor:
#      x y z
#    x 3.668930 0.000000 0.000000 
#    y 0.000000 3.679150 0.000000 
#    z 0.000000 0.000000 3.256760 
# 
# 
# High freq. dielectric constant tensor:
#      x y z
#    x 1.764040 0.000000 0.000000 
#    y 0.000000 1.765280 0.000000 
#    z 0.000000 0.000000 1.715660 
# 
# From -- ./inp_files/2902.got.cif
#   From: 2010.06.25/outbox.cif.g09.slc.cpg/sg58_2_cif.got.tgz:2902.got - 2010.06.26 21:38:00.
