data_PCOD8237351
_publ_section_title
;
Structure prediction by ZEFSAII (Michael W. Deem and Ramdas Pophale) SiO2 
 PCOD8237351
Probable space group: P N N M
;
_chemical_formula_sum "Si O2"
_cell_formula_units_Z 64
_cell_length_a 19.075828
_cell_length_b 7.924022
_cell_length_c 20.481511
_cell_angle_alpha 90.000000
_cell_angle_beta 90.000000
_cell_angle_gamma 90.000000
_cell_volume 3095.929508
_symmetry_space_group_name_H-M "P N N M"
_symmetry_group_IT_number 58
_symmetry_cell_setting 'orthorhombic'
loop_
_space_group_symop_operation_xyz
x,y,z
-x,-y,z
1/2+x,1/2-y,1/2-z
1/2-x,1/2+y,1/2-z
-x,-y,-z
x,y,-z
1/2-x,1/2+y,1/2+z
1/2+x,1/2-y,1/2+z
loop_
_atom_site_type_symbol
_atom_site_label
_atom_site_fract_x
_atom_site_fract_y
_atom_site_fract_z
Si Si1 0.688068 0.266781 0.921971
Si Si2 0.326941 0.156835 0.760586
Si Si3 0.700784 0.515340 0.812789
Si Si4 0.339842 0.277509 0.374661
Si Si5 0.439646 0.617354 0.243938
Si Si6 0.431679 0.588043 0.394032
Si Si7 0.427706 0.926541 0.842781
Si Si8 0.924036 0.533930 0.073581
O O1 0.687978 0.450024 0.886732
O O2 0.759725 0.186124 0.895259
O O3 0.622331 0.151345 0.899204
O O4 0.686340 0.288660 0.000000
O O5 0.293912 0.281891 0.814942
O O6 0.355460 0.280601 0.703064
O O7 0.271423 0.040022 0.723807
O O8 0.386738 0.059886 0.798519
O O9 0.637492 0.448765 0.769533
O O10 0.375049 0.441995 0.405236
O O11 0.365439 0.089986 0.396171
O O12 0.500000 0.500000 0.213971
O O13 0.449702 0.639968 0.320582
O O14 0.453286 0.793118 0.209523
O O15 0.500000 0.500000 0.426566
O O16 0.406030 0.765420 0.425384
O O17 0.500000 0.000000 0.874540
O O18 0.000000 0.500000 0.107271
O O19 0.928276 0.471463 0.000000
#
# Coordination Sequence:
#
# PCOD8237351 Si02
#       8
#     8   8   8   8   8   8   8   8
#     4  10  24  46  64  87 126 172 219 267 324 387
#     4  11  21  38  63  97 128 154 199 260 333 398
#     4  10  20  37  63  90 123 161 196 251 319 382
#     4  11  22  41  66  92 130 172 213 270 329 388
#     4  10  20  35  59  93 127 154 198 257 318 390
#     4  11  22  36  62  93 127 174 214 262 325 387
#     4  11  24  39  66  97 126 166 210 271 337 398
#     4  11  24  38  54  84 127 174 226 266 307 375
#
# _framework density 20.672305000000001
#
# number of rings (size 3 to 8) (size 9 to 14) (size 15 to 20)
#    0.000    1.375    2.500    4.125    1.750    3.500 
#    0.000    0.625    0.000   12.750    0.000    0.000 
#    0.000    0.000    0.000    0.000    0.000    0.000 
#
# Total GULP energy -792878.077668 kJ/mol
# GULP energy per Si atom -12388.719964 kJ/mol
# Density = 2.062525 g / cm^3
# Si number density = 20.672305 Si / 1000 Ang^3
#
#
#
# Elastic Constant Matrix: (Units=GPa)
#
#
# Indices 1 2 3 4 5 6 
#
# 1 105.3998 41.9759 31.6085 0.0000 0.0000 0.0000
# 2 41.9759 137.8477 34.6408 0.0000 0.0000 0.0000
# 3 31.6085 34.6408 103.4156 0.0000 0.0000 0.0000
# 4 0.0000 0.0000 0.0000 18.9082 0.0000 0.0000
# 5 0.0000 0.0000 0.0000 0.0000 14.5341 0.0000
# 6 0.0000 0.0000 0.0000 0.0000 0.0000 31.7489
#
#
#
# Elastic Compliance Matrix: (Units=1/GPa)
#
#
# Indices 1 2 3 4 5 6 
#
# 1 0.011372 -0.002827 -0.002529 0.000000 0.000000 0.000000
# 2 -0.002827 0.008624 -0.002025 0.000000 0.000000 0.000000
# 3 -0.002529 -0.002025 0.011121 0.000000 0.000000 0.000000
# 4 0.000000 0.000000 0.000000 0.052887 0.000000 0.000000
# 5 0.000000 0.000000 0.000000 0.000000 0.068804 0.000000
# 6 0.000000 0.000000 0.000000 0.000000 0.000000 0.031497
#
#
# Mechanical properties :
#
#
# Convention : Reuss Voigt Hill
#
# Bulk Modulus (GPa) = 61.14166 62.56818 61.85492
# Shear Modulus (GPa) = 24.44766 28.93409 26.69088
#
# Velocity S-wave (km/s) = 3.44267 3.74525 3.59714
# Velocity P-wave (km/s) = 6.74117 7.00250 6.87308
#
# Compressibility (1/GPa) = 0.01635546
#
# Stress axis : x y z
#
# Youngs Moduli (GPa) = 87.93475 115.95358 89.92166
#
# Poissons Ratio (x) = 0.32785 0.22739
# Poissons Ratio (y) = 0.24863 0.18206
# Poissons Ratio (z) = 0.22236 0.23476
#
# Static dielectric constant tensor:
#      x y z
#    x 3.896810 0.000000 0.000000 
#    y 0.000000 3.751120 0.000000 
#    z 0.000000 0.000000 3.593910 
# 
# 
# High freq. dielectric constant tensor:
#      x y z
#    x 1.817180 0.000000 0.000000 
#    y 0.000000 1.820790 0.000000 
#    z 0.000000 0.000000 1.783820 
# 
# From -- ./inp_files/30280.got.cif
#   From: 2010.06.25/outbox.cif.g09.slc.cpg/sg58_16_cif.got.tgz:30280.got - 2010.06.26 21:38:00.
