data_PCOD8237330
_publ_section_title
;
Structure prediction by ZEFSAII (Michael W. Deem and Ramdas Pophale) SiO2 
 PCOD8237330
Probable space group: P N N M
;
_chemical_formula_sum "Si O2"
_cell_formula_units_Z 64
_cell_length_a 11.099080
_cell_length_b 32.786498
_cell_length_c 8.645894
_cell_angle_alpha 90.000000
_cell_angle_beta 90.000000
_cell_angle_gamma 90.000000
_cell_volume 3146.240517
_symmetry_space_group_name_H-M "P N N M"
_symmetry_group_IT_number 58
_symmetry_cell_setting 'orthorhombic'
loop_
_space_group_symop_operation_xyz
x,y,z
-x,-y,z
1/2+x,1/2-y,1/2-z
1/2-x,1/2+y,1/2-z
-x,-y,-z
x,y,-z
1/2-x,1/2+y,1/2+z
1/2+x,1/2-y,1/2+z
loop_
_atom_site_type_symbol
_atom_site_label
_atom_site_fract_x
_atom_site_fract_y
_atom_site_fract_z
Si Si1 0.526266 0.718493 0.679930
Si Si2 0.238950 0.823970 0.326573
Si Si3 0.996376 0.308436 0.816850
Si Si4 0.109396 0.139926 0.179640
Si Si5 0.898540 0.097208 0.672061
Si Si6 0.885531 0.472051 0.682975
Si Si7 0.861781 0.007248 0.320624
Si Si8 0.351905 0.114486 0.681714
O O1 0.501995 0.722564 0.500000
O O2 0.658338 0.701622 0.709950
O O3 0.522396 0.763358 0.757298
O O4 0.427471 0.685459 0.742686
O O5 0.223902 0.805939 0.500000
O O6 0.372153 0.820961 0.264334
O O7 0.210858 0.871524 0.323722
O O8 0.910498 0.343805 0.749878
O O9 0.978582 0.306310 0.000000
O O10 0.211772 0.119925 0.283194
O O11 0.997157 0.109513 0.201101
O O12 0.146222 0.140939 0.000000
O O13 0.958336 0.096254 0.500000
O O14 0.836740 0.054547 0.710790
O O15 0.882368 0.473452 0.500000
O O16 0.750717 0.484600 0.739760
O O17 0.907896 0.425637 0.738472
O O18 0.000000 0.500000 0.742069
O O19 0.857243 0.994439 0.500000
O O20 0.000000 0.000000 0.257746
O O21 0.374758 0.109985 0.500000
#
# Coordination Sequence:
#
# PCOD8237330 Si02
#       8
#     8   8   8   8   8   8   8   8
#     4   9  19  36  55  81 115 152 188 232 288 339
#     4   9  18  34  55  79 108 145 189 234 279 332
#     4   9  20  36  56  81 112 149 191 238 284 336
#     4  10  20  35  58  86 122 158 190 235 292 349
#     4   9  18  33  57  86 116 148 191 239 284 340
#     4  11  26  45  63  89 126 162 198 246 306 369
#     4  10  21  37  62  94 121 152 200 252 297 352
#     4  11  23  39  62  86 114 154 200 243 288 344
#
# _framework density 20.341739
#
# number of rings (size 3 to 8) (size 9 to 14) (size 15 to 20)
#    0.000    2.250    0.000    1.875    3.500    3.250 
#    0.000    2.500    0.000    0.000    0.000    0.000 
#    0.000    0.000    0.000    0.000    0.000    0.000 
#
# Total GULP energy -793034.833005 kJ/mol
# GULP energy per Si atom -12391.169266 kJ/mol
# Density = 2.029544 g / cm^3
# Si number density = 20.341739 Si / 1000 Ang^3
#
#
#
# Elastic Constant Matrix: (Units=GPa)
#
#
# Indices 1 2 3 4 5 6 
#
# 1 82.2845 36.1497 15.0112 0.0000 0.0000 0.0000
# 2 36.1497 139.8362 25.2893 0.0000 0.0000 0.0000
# 3 15.0112 25.2893 36.9538 0.0000 0.0000 0.0000
# 4 0.0000 0.0000 0.0000 23.4245 0.0000 0.0000
# 5 0.0000 0.0000 0.0000 0.0000 24.5928 0.0000
# 6 0.0000 0.0000 0.0000 0.0000 0.0000 26.4281
#
#
#
# Elastic Compliance Matrix: (Units=1/GPa)
#
#
# Indices 1 2 3 4 5 6 
#
# 1 0.014140 -0.002986 -0.003700 0.000000 0.000000 0.000000
# 2 -0.002986 0.008792 -0.004804 0.000000 0.000000 0.000000
# 3 -0.003700 -0.004804 0.031851 0.000000 0.000000 0.000000
# 4 0.000000 0.000000 0.000000 0.042690 0.000000 0.000000
# 5 0.000000 0.000000 0.000000 0.000000 0.040662 0.000000
# 6 0.000000 0.000000 0.000000 0.000000 0.000000 0.037839
#
#
# Mechanical properties :
#
#
# Convention : Reuss Voigt Hill
#
# Bulk Modulus (GPa) = 31.44372 45.77497 38.60934
# Shear Modulus (GPa) = 23.86002 27.06403 25.46203
#
# Velocity S-wave (km/s) = 3.42856 3.65152 3.54179
# Velocity P-wave (km/s) = 5.58253 6.35058 5.97890
#
# Compressibility (1/GPa) = 0.03180286
#
# Stress axis : x y z
#
# Youngs Moduli (GPa) = 70.72180 113.74042 31.39590
#
# Poissons Ratio (x) = 0.33965 0.11617
# Poissons Ratio (y) = 0.21119 0.15082
# Poissons Ratio (z) = 0.26169 0.54638
#
# Static dielectric constant tensor:
#      x y z
#    x 3.675480 0.000000 0.000000 
#    y 0.000000 4.140930 0.000000 
#    z 0.000000 0.000000 3.430380 
# 
# 
# High freq. dielectric constant tensor:
#      x y z
#    x 1.791860 0.000000 0.000000 
#    y 0.000000 1.813920 0.000000 
#    z 0.000000 0.000000 1.766740 
# 
# From -- ./inp_files/4797.got.cif
#   From: 2010.06.25/outbox.cif.g09.slc.cpg/sg58_3_cif.got.tgz:4797.got - 2010.06.26 21:38:00.
