data_PCOD8237834
_publ_section_title
;
Structure prediction by ZEFSAII (Michael W. Deem and Ramdas Pophale) SiO2 
 PCOD8237834
Probable space group: P N N M
;
_chemical_formula_sum "Si O2"
_cell_formula_units_Z 48
_cell_length_a 9.188954
_cell_length_b 28.636786
_cell_length_c 9.329709
_cell_angle_alpha 90.000000
_cell_angle_beta 90.000000
_cell_angle_gamma 90.000000
_cell_volume 2455.039305
_symmetry_space_group_name_H-M "P N N M"
_symmetry_group_IT_number 58
_symmetry_cell_setting 'orthorhombic'
loop_
_space_group_symop_operation_xyz
x,y,z
-x,-y,z
1/2+x,1/2-y,1/2-z
1/2-x,1/2+y,1/2-z
-x,-y,-z
x,y,-z
1/2-x,1/2+y,1/2+z
1/2+x,1/2-y,1/2+z
loop_
_atom_site_type_symbol
_atom_site_label
_atom_site_fract_x
_atom_site_fract_y
_atom_site_fract_z
Si Si1 0.158349 0.020643 0.840620
Si Si2 0.006886 0.798137 0.334994
Si Si3 0.303607 0.787926 0.167514
Si Si4 0.686551 0.384983 0.166015
Si Si5 0.629113 0.036389 0.340890
Si Si6 0.010281 0.363060 0.166621
O O1 0.162077 0.068454 0.754351
O O2 0.250791 0.979633 0.769964
O O3 0.218154 0.030701 0.000000
O O4 0.000000 0.000000 0.847057
O O5 0.057417 0.795211 0.500000
O O6 0.143928 0.787474 0.235772
O O7 0.877717 0.761851 0.304041
O O8 0.944021 0.849364 0.299411
O O9 0.405014 0.826823 0.236406
O O10 0.286393 0.798459 0.000000
O O11 0.839584 0.360553 0.204874
O O12 0.688732 0.399647 0.000000
O O13 0.698048 0.039679 0.500000
O O14 0.568142 0.086032 0.291979
O O15 0.500000 0.000000 0.340920
O O16 0.037402 0.351259 0.000000
#
# Coordination Sequence:
#
# PCOD8237834 Si02
#       6
#     8   8   8   8   8   8
#     4  11  25  40  56  86 127 161 196 251 309 355
#     4  10  23  42  64  90 120 158 201 243 294 355
#     4  11  24  41  64  93 124 157 195 245 302 357
#     4  10  21  41  65  87 115 158 208 248 289 355
#     4  10  20  39  64  88 115 159 210 248 288 351
#     4  10  21  39  64  91 121 156 201 250 296 353
#
# _framework density 19.551621000000001
#
# number of rings (size 3 to 8) (size 9 to 14) (size 15 to 20)
#    0.000    1.667    1.667    2.000    2.333    6.333 
#    0.000    0.000    0.000    0.000    0.000    0.000 
#    0.000    0.000    0.000    0.000    0.000    0.000 
#
# Total GULP energy -595346.729787 kJ/mol
# GULP energy per Si atom -12403.056871 kJ/mol
# Density = 1.950712 g / cm^3
# Si number density = 19.551621 Si / 1000 Ang^3
#
#
#
# Elastic Constant Matrix: (Units=GPa)
#
#
# Indices 1 2 3 4 5 6 
#
# 1 99.9597 21.7727 61.4652 0.0000 0.0000 0.0000
# 2 21.7727 70.9915 46.7714 0.0000 0.0000 0.0000
# 3 61.4652 46.7714 110.2190 0.0000 0.0000 0.0000
# 4 0.0000 0.0000 0.0000 174.6675 0.0000 0.0000
# 5 0.0000 0.0000 0.0000 0.0000 37.2807 0.0000
# 6 0.0000 0.0000 0.0000 0.0000 0.0000 32.4712
#
#
#
# Elastic Compliance Matrix: (Units=1/GPa)
#
#
# Indices 1 2 3 4 5 6 
#
# 1 0.015309 0.001290 -0.009085 0.000000 0.000000 0.000000
# 2 0.001290 0.019661 -0.009063 0.000000 0.000000 0.000000
# 3 -0.009085 -0.009063 0.017985 0.000000 0.000000 0.000000
# 4 0.000000 0.000000 0.000000 0.005725 0.000000 0.000000
# 5 0.000000 0.000000 0.000000 0.000000 0.026824 0.000000
# 6 0.000000 0.000000 0.000000 0.000000 0.000000 0.030796
#
#
# Mechanical properties :
#
#
# Convention : Reuss Voigt Hill
#
# Bulk Modulus (GPa) = 51.97354 60.13209 56.05282
# Shear Modulus (GPa) = 31.96327 58.96126 45.46227
#
# Velocity S-wave (km/s) = 4.04767 5.49747 4.82731
# Velocity P-wave (km/s) = 6.96314 8.43318 7.73317
#
# Compressibility (1/GPa) = 0.01924056
#
# Stress axis : x y z
#
# Youngs Moduli (GPa) = 65.31958 50.86117 55.60196
#
# Poissons Ratio (x) = -0.06562 0.50514
# Poissons Ratio (y) = -0.08427 0.50391
# Poissons Ratio (z) = 0.59342 0.46094
#
# Static dielectric constant tensor:
#      x y z
#    x 3.617230 0.000000 0.000000 
#    y 0.000000 2.891460 0.000000 
#    z 0.000000 0.000000 3.814940 
# 
# 
# High freq. dielectric constant tensor:
#      x y z
#    x 1.769660 0.000000 0.000000 
#    y 0.000000 1.774180 0.000000 
#    z 0.000000 0.000000 1.761280 
# 
# From -- ./inp_files/2995.got.cif
#   From: 2010.06.25/outbox.cif.g09.slc.cpg/sg58_2_cif.got.tgz:2995.got - 2010.06.26 21:38:00.
