data_PCOD8237391
_publ_section_title
;
Structure prediction by ZEFSAII (Michael W. Deem and Ramdas Pophale) SiO2 
 PCOD8237391
Probable space group: P N N M
;
_chemical_formula_sum "Si O2"
_cell_formula_units_Z 48
_cell_length_a 30.787886
_cell_length_b 9.147838
_cell_length_c 9.094885
_cell_angle_alpha 90.000000
_cell_angle_beta 90.000000
_cell_angle_gamma 90.000000
_cell_volume 2561.506999
_symmetry_space_group_name_H-M "P N N M"
_symmetry_group_IT_number 58
_symmetry_cell_setting 'orthorhombic'
loop_
_space_group_symop_operation_xyz
x,y,z
-x,-y,z
1/2+x,1/2-y,1/2-z
1/2-x,1/2+y,1/2-z
-x,-y,-z
x,y,-z
1/2-x,1/2+y,1/2+z
1/2+x,1/2-y,1/2+z
loop_
_atom_site_type_symbol
_atom_site_label
_atom_site_fract_x
_atom_site_fract_y
_atom_site_fract_z
Si Si1 0.042409 0.920986 0.668926
Si Si2 0.543094 0.920157 0.169098
Si Si3 0.205821 0.406661 0.328303
Si Si4 0.870159 0.421916 0.826329
Si Si5 0.628803 0.587955 0.672435
Si Si6 0.289113 0.602815 0.671014
O O1 0.048634 0.965805 0.500000
O O2 0.035070 0.750316 0.690373
O O3 0.085416 0.974511 0.752715
O O4 0.000000 0.000000 0.735655
O O5 0.583039 0.974207 0.268216
O O6 0.500000 0.000000 0.225918
O O7 0.553134 0.960130 0.000000
O O8 0.195233 0.398248 0.500000
O O9 0.165341 0.474823 0.244987
O O10 0.247803 0.503311 0.296039
O O11 0.215191 0.245604 0.269235
O O12 0.861503 0.254420 0.777243
O O13 0.868316 0.441574 0.000000
O O14 0.621186 0.583554 0.500000
O O15 0.668657 0.487363 0.721714
O O16 0.292076 0.646244 0.500000
#
# Coordination Sequence:
#
# PCOD8237391 Si02
#       6
#     8   8   8   8   8   8
#     4   9  18  32  50  74 104 138 176 218 264 313
#     4   9  18  33  52  75 106 142 181 225 269 317
#     4  11  23  38  58  83 110 142 180 220 267 323
#     4  10  20  36  57  80 110 145 182 225 271 320
#     4   9  19  36  56  78 106 141 179 220 267 317
#     4  10  22  39  57  80 110 141 176 220 268 319
#
# _framework density 18.738969000000001
#
# number of rings (size 3 to 8) (size 9 to 14) (size 15 to 20)
#    0.000    2.333    0.000    2.000    0.000    6.000 
#    0.000    1.667    0.000    0.000    0.000    0.000 
#    0.000    0.000    0.000    0.000    0.000    0.000 
#
# Total GULP energy -595370.466065 kJ/mol
# GULP energy per Si atom -12403.551376 kJ/mol
# Density = 1.869632 g / cm^3
# Si number density = 18.738969 Si / 1000 Ang^3
#
#
#
# Elastic Constant Matrix: (Units=GPa)
#
#
# Indices 1 2 3 4 5 6 
#
# 1 159.8149 68.8715 65.3000 0.0000 0.0000 0.0000
# 2 68.8715 83.7040 50.0372 0.0000 0.0000 0.0000
# 3 65.3000 50.0372 74.0672 0.0000 0.0000 0.0000
# 4 0.0000 0.0000 0.0000 29.0224 0.0000 0.0000
# 5 0.0000 0.0000 0.0000 0.0000 522.0367 0.0000
# 6 0.0000 0.0000 0.0000 0.0000 0.0000 38.0961
#
#
#
# Elastic Compliance Matrix: (Units=1/GPa)
#
#
# Indices 1 2 3 4 5 6 
#
# 1 0.011116 -0.005515 -0.006074 0.000000 0.000000 0.000000
# 2 -0.005515 0.022776 -0.010525 0.000000 0.000000 0.000000
# 3 -0.006074 -0.010525 0.025967 0.000000 0.000000 0.000000
# 4 0.000000 0.000000 0.000000 0.034456 0.000000 0.000000
# 5 0.000000 0.000000 0.000000 0.000000 0.001916 0.000000
# 6 0.000000 0.000000 0.000000 0.000000 0.000000 0.026249
#
#
# Mechanical properties :
#
#
# Convention : Reuss Voigt Hill
#
# Bulk Modulus (GPa) = 63.97636 76.22262 70.09949
# Shear Modulus (GPa) = 29.08371 126.72286 77.90328
#
# Velocity S-wave (km/s) = 3.94387 8.23238 6.45470
# Velocity P-wave (km/s) = 7.41308 11.45108 9.64575
#
# Compressibility (1/GPa) = 0.01563077
#
# Stress axis : x y z
#
# Youngs Moduli (GPa) = 89.96164 43.90594 38.51089
#
# Poissons Ratio (x) = 0.24214 0.23393
# Poissons Ratio (y) = 0.49613 0.40531
# Poissons Ratio (z) = 0.54646 0.46209
#
# Static dielectric constant tensor:
#      x y z
#    x 3.647960 0.000000 0.000000 
#    y 0.000000 3.422560 0.000000 
#    z 0.000000 0.000000 3.426170 
# 
# 
# High freq. dielectric constant tensor:
#      x y z
#    x 1.742370 0.000000 0.000000 
#    y 0.000000 1.724810 0.000000 
#    z 0.000000 0.000000 1.724450 
# 
# From -- ./inp_files/2938.got.cif
#   From: 2010.06.25/outbox.cif.g09.slc.cpg/sg58_2_cif.got.tgz:2938.got - 2010.06.26 21:38:00.
