data_PCOD8237570
_publ_section_title
;
Structure prediction by ZEFSAII (Michael W. Deem and Ramdas Pophale) SiO2 
 PCOD8237570
Probable space group: P N N M
;
_chemical_formula_sum "Si O2"
_cell_formula_units_Z 56
_cell_length_a 12.760496
_cell_length_b 15.006332
_cell_length_c 13.401442
_cell_angle_alpha 90.000000
_cell_angle_beta 90.000000
_cell_angle_gamma 90.000000
_cell_volume 2566.218535
_symmetry_space_group_name_H-M "P N N M"
_symmetry_group_IT_number 58
_symmetry_cell_setting 'orthorhombic'
loop_
_space_group_symop_operation_xyz
x,y,z
-x,-y,z
1/2+x,1/2-y,1/2-z
1/2-x,1/2+y,1/2-z
-x,-y,-z
x,y,-z
1/2-x,1/2+y,1/2+z
1/2+x,1/2-y,1/2+z
loop_
_atom_site_type_symbol
_atom_site_label
_atom_site_fract_x
_atom_site_fract_y
_atom_site_fract_z
Si Si1 0.335711 0.650451 0.382745
Si Si2 0.557012 0.870442 0.305796
Si Si3 0.729572 0.543623 0.616645
Si Si4 0.644778 0.037727 0.385789
Si Si5 0.687576 0.683701 0.115033
Si Si6 0.452883 0.903524 0.109893
Si Si7 0.437140 0.322802 0.302983
O O1 0.364359 0.650641 0.500000
O O2 0.285664 0.557555 0.346536
O O3 0.254602 0.728717 0.356674
O O4 0.440304 0.662890 0.318629
O O5 0.457189 0.901908 0.369074
O O6 0.525549 0.852740 0.189492
O O7 0.595744 0.774838 0.346399
O O8 0.644395 0.947879 0.317887
O O9 0.748778 0.540149 0.500000
O O10 0.836491 0.587648 0.659682
O O11 0.628275 0.602339 0.640117
O O12 0.646872 0.007135 0.500000
O O13 0.746671 0.094963 0.359718
O O14 0.585872 0.675376 0.184449
O O15 0.652562 0.687015 0.000000
O O16 0.500000 0.000000 0.095140
O O17 0.453983 0.855769 0.000000
#
# Coordination Sequence:
#
# PCOD8237570 Si02
#       7
#     8   8   8   8   8   8   8
#     4  10  22  42  64  90 125 164 206 256 317 375
#     4  11  21  34  58  92 119 153 200 249 304 356
#     4  10  23  41  63  92 125 163 206 256 315 372
#     4  10  20  37  58  82 119 158 197 245 293 355
#     4  10  23  41  61  88 123 165 210 248 302 373
#     4  10  21  37  60  88 125 162 201 257 315 364
#     4  12  24  35  64  93 124 158 205 260 306 366
#
# _framework density 21.821991000000001
#
# number of rings (size 3 to 8) (size 9 to 14) (size 15 to 20)
#    0.000    1.571    2.857    2.571    2.000    3.429 
#    0.000    0.000    0.000    1.714    0.000    0.000 
#    0.000    0.000    0.000    0.000    0.000    0.000 
#
# Total GULP energy -694261.905673 kJ/mol
# GULP energy per Si atom -12397.534030 kJ/mol
# Density = 2.177232 g / cm^3
# Si number density = 21.821991 Si / 1000 Ang^3
#
#
#
# Elastic Constant Matrix: (Units=GPa)
#
#
# Indices 1 2 3 4 5 6 
#
# 1 65.4559 18.1596 45.7054 0.0000 0.0000 0.0000
# 2 18.1596 111.9281 38.4625 0.0000 0.0000 0.0000
# 3 45.7054 38.4625 76.6080 0.0000 0.0000 0.0000
# 4 0.0000 0.0000 0.0000 13.4950 0.0000 0.0000
# 5 0.0000 0.0000 0.0000 0.0000 32.4468 0.0000
# 6 0.0000 0.0000 0.0000 0.0000 0.0000 15.6418
#
#
#
# Elastic Compliance Matrix: (Units=1/GPa)
#
#
# Indices 1 2 3 4 5 6 
#
# 1 0.026357 0.001362 -0.016409 0.000000 0.000000 0.000000
# 2 0.001362 0.010868 -0.006269 0.000000 0.000000 0.000000
# 3 -0.016409 -0.006269 0.025991 0.000000 0.000000 0.000000
# 4 0.000000 0.000000 0.000000 0.074102 0.000000 0.000000
# 5 0.000000 0.000000 0.000000 0.000000 0.030820 0.000000
# 6 0.000000 0.000000 0.000000 0.000000 0.000000 0.063931
#
#
# Mechanical properties :
#
#
# Convention : Reuss Voigt Hill
#
# Bulk Modulus (GPa) = 48.58109 50.96078 49.77093
# Shear Modulus (GPa) = 17.75809 22.42767 20.09288
#
# Velocity S-wave (km/s) = 2.85576 3.20934 3.03770
# Velocity P-wave (km/s) = 5.76061 6.09400 5.92965
#
# Compressibility (1/GPa) = 0.02058414
#
# Stress axis : x y z
#
# Youngs Moduli (GPa) = 37.93995 92.01704 38.47483
#
# Poissons Ratio (x) = -0.12537 0.63134
# Poissons Ratio (y) = -0.05169 0.24120
# Poissons Ratio (z) = 0.62257 0.57687
#
# Static dielectric constant tensor:
#      x y z
#    x 3.857830 0.000000 0.000000 
#    y 0.000000 4.100700 0.000000 
#    z 0.000000 0.000000 4.175230 
# 
# 
# High freq. dielectric constant tensor:
#      x y z
#    x 1.840270 0.000000 0.000000 
#    y 0.000000 1.854670 0.000000 
#    z 0.000000 0.000000 1.863820 
# 
# From -- ./inp_files/21279.got.cif
#   From: 2010.06.25/outbox.cif.g09.slc.cpg/sg58_11_cif.got.tgz:21279.got - 2010.06.26 21:38:00.
