data_PCOD8237728
_publ_section_title
;
Structure prediction by ZEFSAII (Michael W. Deem and Ramdas Pophale) SiO2 
 PCOD8237728
Probable space group: P N N M
;
_chemical_formula_sum "Si O2"
_cell_formula_units_Z 48
_cell_length_a 14.875562
_cell_length_b 18.672079
_cell_length_c 8.836818
_cell_angle_alpha 90.000000
_cell_angle_beta 90.000000
_cell_angle_gamma 90.000000
_cell_volume 2454.493968
_symmetry_space_group_name_H-M "P N N M"
_symmetry_group_IT_number 58
_symmetry_cell_setting 'orthorhombic'
loop_
_space_group_symop_operation_xyz
x,y,z
-x,-y,z
1/2+x,1/2-y,1/2-z
1/2-x,1/2+y,1/2-z
-x,-y,-z
x,y,-z
1/2-x,1/2+y,1/2+z
1/2+x,1/2-y,1/2+z
loop_
_atom_site_type_symbol
_atom_site_label
_atom_site_fract_x
_atom_site_fract_y
_atom_site_fract_z
Si Si1 0.250639 0.583585 0.321156
Si Si2 0.802289 0.270765 0.827138
Si Si3 0.902772 0.522142 0.679714
Si Si4 0.129575 0.317430 0.673652
Si Si5 0.059743 0.068399 0.676819
Si Si6 0.493503 0.288449 0.322206
O O1 0.257990 0.578309 0.500000
O O2 0.230097 0.664794 0.277209
O O3 0.171914 0.532484 0.256820
O O4 0.344072 0.557289 0.252992
O O5 0.733181 0.205136 0.811871
O O6 0.898158 0.243076 0.769475
O O7 0.807414 0.297992 0.000000
O O8 0.903941 0.518117 0.500000
O O9 0.878980 0.601862 0.734545
O O10 0.000000 0.500000 0.745836
O O11 0.096118 0.310959 0.500000
O O12 0.070114 0.267402 0.779069
O O13 0.075373 0.078824 0.500000
O O14 0.008265 0.137281 0.738185
O O15 0.000000 0.000000 0.715976
O O16 0.496163 0.303030 0.500000
#
# Coordination Sequence:
#
# PCOD8237728 Si02
#       6
#     8   8   8   8   8   8
#     4  11  22  38  65  94 120 156 204 251 297 357
#     4  10  22  38  59  86 122 161 195 240 304 361
#     4   9  19  35  58  89 120 154 196 241 294 355
#     4  10  20  38  61  84 119 161 195 240 301 360
#     4  11  25  43  61  85 121 165 204 248 309 364
#     4  11  23  39  62  92 120 155 204 252 297 356
#
# _framework density 19.555965
#
# number of rings (size 3 to 8) (size 9 to 14) (size 15 to 20)
#    0.000    1.667    1.667    2.500    2.333    4.000 
#    0.000    1.667    0.000    4.500    0.000    0.000 
#    0.000    0.000    0.000    0.000    0.000    0.000 
#
# Total GULP energy -595438.342443 kJ/mol
# GULP energy per Si atom -12404.965468 kJ/mol
# Density = 1.951145 g / cm^3
# Si number density = 19.555965 Si / 1000 Ang^3
#
#
#
# Elastic Constant Matrix: (Units=GPa)
#
#
# Indices 1 2 3 4 5 6 
#
# 1 135.3901 45.2966 48.3690 0.0000 0.0000 0.0000
# 2 45.2966 128.8255 40.1120 0.0000 0.0000 0.0000
# 3 48.3690 40.1120 54.1098 0.0000 0.0000 0.0000
# 4 0.0000 0.0000 0.0000 10.5367 0.0000 0.0000
# 5 0.0000 0.0000 0.0000 0.0000 15.4684 0.0000
# 6 0.0000 0.0000 0.0000 0.0000 0.0000 37.0596
#
#
#
# Elastic Compliance Matrix: (Units=1/GPa)
#
#
# Indices 1 2 3 4 5 6 
#
# 1 0.010958 -0.001044 -0.009022 0.000000 0.000000 0.000000
# 2 -0.001044 0.010191 -0.006622 0.000000 0.000000 0.000000
# 3 -0.009022 -0.006622 0.031454 0.000000 0.000000 0.000000
# 4 0.000000 0.000000 0.000000 0.094906 0.000000 0.000000
# 5 0.000000 0.000000 0.000000 0.000000 0.064648 0.000000
# 6 0.000000 0.000000 0.000000 0.000000 0.000000 0.026984
#
#
# Mechanical properties :
#
#
# Convention : Reuss Voigt Hill
#
# Bulk Modulus (GPa) = 52.00477 65.09784 58.55130
# Shear Modulus (GPa) = 17.92588 24.91613 21.42101
#
# Velocity S-wave (km/s) = 3.03090 3.57332 3.31323
# Velocity P-wave (km/s) = 6.23691 7.09824 6.68147
#
# Compressibility (1/GPa) = 0.01922901
#
# Stress axis : x y z
#
# Youngs Moduli (GPa) = 91.25351 98.12307 31.79213
#
# Poissons Ratio (x) = 0.10244 0.28683
# Poissons Ratio (y) = 0.09527 0.21052
# Poissons Ratio (z) = 0.82328 0.64973
#
# Static dielectric constant tensor:
#      x y z
#    x 3.831730 0.000000 0.000000 
#    y 0.000000 3.711240 0.000000 
#    z 0.000000 0.000000 3.421920 
# 
# 
# High freq. dielectric constant tensor:
#      x y z
#    x 1.779540 0.000000 0.000000 
#    y 0.000000 1.771930 0.000000 
#    z 0.000000 0.000000 1.747080 
# 
# From -- ./inp_files/5832.got.cif
#   From: 2010.06.25/outbox.cif.g09.slc.cpg/sg58_3_cif.got.tgz:5832.got - 2010.06.26 21:38:00.
