data_PCOD8237594
_publ_section_title
;
Structure prediction by ZEFSAII (Michael W. Deem and Ramdas Pophale) SiO2 
 PCOD8237594
Probable space group: P N N M
;
_chemical_formula_sum "Si O2"
_cell_formula_units_Z 64
_cell_length_a 12.018106
_cell_length_b 30.803756
_cell_length_c 8.794055
_cell_angle_alpha 90.000000
_cell_angle_beta 90.000000
_cell_angle_gamma 90.000000
_cell_volume 3255.583827
_symmetry_space_group_name_H-M "P N N M"
_symmetry_group_IT_number 58
_symmetry_cell_setting 'orthorhombic'
loop_
_space_group_symop_operation_xyz
x,y,z
-x,-y,z
1/2+x,1/2-y,1/2-z
1/2-x,1/2+y,1/2-z
-x,-y,-z
x,y,-z
1/2-x,1/2+y,1/2+z
1/2+x,1/2-y,1/2+z
loop_
_atom_site_type_symbol
_atom_site_label
_atom_site_fract_x
_atom_site_fract_y
_atom_site_fract_z
Si Si1 0.490257 0.302735 0.819835
Si Si2 0.246599 0.327526 0.822819
Si Si3 0.535119 0.206482 0.179545
Si Si4 0.647750 0.378923 0.819639
Si Si5 0.503965 0.549221 0.320695
Si Si6 0.258689 0.414510 0.672864
Si Si7 0.902864 0.373040 0.179773
Si Si8 0.971003 0.547064 0.673918
O O1 0.370275 0.318379 0.763491
O O2 0.504661 0.254108 0.757583
O O3 0.582633 0.336344 0.755971
O O4 0.497683 0.302496 0.000000
O O5 0.163125 0.298509 0.725780
O O6 0.220155 0.377406 0.788556
O O7 0.230543 0.317446 0.000000
O O8 0.456345 0.170591 0.254024
O O9 0.521279 0.202517 0.000000
O O10 0.592880 0.422670 0.755651
O O11 0.775148 0.376031 0.764478
O O12 0.639461 0.380992 0.000000
O O13 0.500000 0.500000 0.260599
O O14 0.485607 0.551035 0.500000
O O15 0.624520 0.566584 0.271686
O O16 0.267266 0.396575 0.500000
O O17 0.162703 0.450478 0.683654
O O18 0.968602 0.415472 0.232267
O O19 0.910266 0.369851 0.000000
O O20 0.012164 0.551123 0.500000
O O21 0.000000 0.500000 0.742635
#
# Coordination Sequence:
#
# PCOD8237594 Si02
#       8
#     8   8   8   8   8   8   8   8
#     4   9  21  40  61  85 117 156 193 237 293 349
#     4  11  21  38  63  88 116 151 196 245 292 348
#     4  11  23  40  62  87 119 158 197 241 296 353
#     4  10  22  42  61  83 118 158 196 239 294 350
#     4  10  22  38  60  90 121 153 194 244 291 344
#     4  10  20  37  59  87 118 152 196 241 291 346
#     4  11  24  40  60  87 120 156 198 248 295 347
#     4  10  22  39  62  87 117 159 198 239 294 353
#
# _framework density 19.658532000000001
#
# number of rings (size 3 to 8) (size 9 to 14) (size 15 to 20)
#    0.000    1.750    2.500    1.125    3.500    1.500 
#    0.000    3.125    0.000    0.000    0.000    0.000 
#    0.000    0.000    0.000    0.000    0.000    0.000 
#
# Total GULP energy -793677.051319 kJ/mol
# GULP energy per Si atom -12401.203927 kJ/mol
# Density = 1.961379 g / cm^3
# Si number density = 19.658532 Si / 1000 Ang^3
#
#
#
# Elastic Constant Matrix: (Units=GPa)
#
#
# Indices 1 2 3 4 5 6 
#
# 1 124.7577 43.6080 26.1922 0.0000 0.0000 0.0000
# 2 43.6080 136.5390 27.0738 0.0000 0.0000 0.0000
# 3 26.1922 27.0738 43.0650 0.0000 0.0000 0.0000
# 4 0.0000 0.0000 0.0000 16.3103 0.0000 0.0000
# 5 0.0000 0.0000 0.0000 0.0000 22.0923 0.0000
# 6 0.0000 0.0000 0.0000 0.0000 0.0000 32.8842
#
#
#
# Elastic Compliance Matrix: (Units=1/GPa)
#
#
# Indices 1 2 3 4 5 6 
#
# 1 0.009741 -0.002212 -0.004534 0.000000 0.000000 0.000000
# 2 -0.002212 0.008869 -0.004231 0.000000 0.000000 0.000000
# 3 -0.004534 -0.004231 0.028638 0.000000 0.000000 0.000000
# 4 0.000000 0.000000 0.000000 0.061311 0.000000 0.000000
# 5 0.000000 0.000000 0.000000 0.000000 0.045265 0.000000
# 6 0.000000 0.000000 0.000000 0.000000 0.000000 0.030410
#
#
# Mechanical properties :
#
#
# Convention : Reuss Voigt Hill
#
# Bulk Modulus (GPa) = 39.53313 55.34554 47.43933
# Shear Modulus (GPa) = 23.29736 28.08987 25.69361
#
# Velocity S-wave (km/s) = 3.44627 3.78417 3.61916
# Velocity P-wave (km/s) = 5.99910 6.87807 6.45357
#
# Compressibility (1/GPa) = 0.02529524
#
# Stress axis : x y z
#
# Youngs Moduli (GPa) = 102.66388 112.74932 34.91905
#
# Poissons Ratio (x) = 0.24940 0.15831
# Poissons Ratio (y) = 0.22709 0.14773
# Poissons Ratio (z) = 0.46544 0.47699
#
# Static dielectric constant tensor:
#      x y z
#    x 3.832340 0.000000 0.000000 
#    y 0.000000 3.746710 0.000000 
#    z 0.000000 0.000000 3.375750 
# 
# 
# High freq. dielectric constant tensor:
#      x y z
#    x 1.781830 0.000000 0.000000 
#    y 0.000000 1.773340 0.000000 
#    z 0.000000 0.000000 1.749080 
# 
# From -- ./inp_files/4689.got.cif
#   From: 2010.06.25/outbox.cif.g09.slc.cpg/sg58_3_cif.got.tgz:4689.got - 2010.06.26 21:38:00.
