data_PCOD8237028
_publ_section_title
;
Structure prediction by ZEFSAII (Michael W. Deem and Ramdas Pophale) SiO2 
 PCOD8237028
Probable space group: P N N M
;
_chemical_formula_sum "Si O2"
_cell_formula_units_Z 64
_cell_length_a 34.993483
_cell_length_b 10.989461
_cell_length_c 9.315576
_cell_angle_alpha 90.000000
_cell_angle_beta 90.000000
_cell_angle_gamma 90.000000
_cell_volume 3582.393404
_symmetry_space_group_name_H-M "P N N M"
_symmetry_group_IT_number 58
_symmetry_cell_setting 'orthorhombic'
loop_
_space_group_symop_operation_xyz
x,y,z
-x,-y,z
1/2+x,1/2-y,1/2-z
1/2-x,1/2+y,1/2-z
-x,-y,-z
x,y,-z
1/2-x,1/2+y,1/2+z
1/2+x,1/2-y,1/2+z
loop_
_atom_site_type_symbol
_atom_site_label
_atom_site_fract_x
_atom_site_fract_y
_atom_site_fract_z
Si Si1 0.566766 0.260788 0.329788
Si Si2 0.273880 0.857273 0.670758
Si Si3 0.043480 0.018245 0.339474
Si Si4 0.358191 0.146705 0.665365
Si Si5 0.140680 0.378595 0.829957
Si Si6 0.077809 0.757512 0.339347
Si Si7 0.498793 0.142219 0.838837
Si Si8 0.230594 0.639424 0.833480
O O1 0.563453 0.254890 0.500000
O O2 0.564675 0.397343 0.274392
O O3 0.607565 0.210473 0.274888
O O4 0.532418 0.184665 0.263375
O O5 0.269655 0.843681 0.500000
O O6 0.317535 0.837485 0.723661
O O7 0.251644 0.745198 0.743901
O O8 0.260821 0.997161 0.713804
O O9 0.043302 0.075046 0.500000
O O10 0.067800 0.897696 0.337397
O O11 0.000000 0.000000 0.287772
O O12 0.368940 0.160044 0.500000
O O13 0.383618 0.243517 0.749583
O O14 0.313665 0.169976 0.690745
O O15 0.369056 0.013560 0.726086
O O16 0.142518 0.384607 0.000000
O O17 0.085734 0.710490 0.500000
O O18 0.041868 0.683759 0.273040
O O19 0.500000 0.000000 0.846911
O O20 0.503284 0.198584 0.000000
O O21 0.241881 0.653520 0.000000
#
# Coordination Sequence:
#
# PCOD8237028 Si02
#       8
#     8   8   8   8   8   8   8   8
#     4  11  21  33  53  78 103 130 174 222 259 310
#     4   9  18  36  60  81 110 148 180 217 266 323
#     4  10  20  38  55  66  98 145 178 211 262 313
#     4   9  18  35  57  77 105 139 168 209 263 313
#     4   8  17  35  55  77 106 139 169 208 265 313
#     4  10  20  34  52  74 100 134 175 215 255 307
#     4  10  20  34  52  74 102 135 170 210 259 311
#     4   9  19  36  57  84 113 142 179 219 266 323
#
# _framework density 17.865151000000001
#
# number of rings (size 3 to 8) (size 9 to 14) (size 15 to 20)
#    0.000    2.500    1.250    2.625    0.000    2.500 
#    2.250    3.750    0.000    0.000    0.000    0.000 
#    0.000    0.000    0.000    0.000    0.000    0.000 
#
# Total GULP energy -793164.807205 kJ/mol
# GULP energy per Si atom -12393.200113 kJ/mol
# Density = 1.782449 g / cm^3
# Si number density = 17.865151 Si / 1000 Ang^3
#
#
#
# Elastic Constant Matrix: (Units=GPa)
#
#
# Indices 1 2 3 4 5 6 
#
# 1 104.1326 57.2709 51.4192 0.0000 0.0000 0.0000
# 2 57.2709 102.3644 45.0575 0.0000 0.0000 0.0000
# 3 51.4192 45.0575 63.2983 0.0000 0.0000 0.0000
# 4 0.0000 0.0000 0.0000 34.0012 0.0000 0.0000
# 5 0.0000 0.0000 0.0000 0.0000 33.3798 0.0000
# 6 0.0000 0.0000 0.0000 0.0000 0.0000 33.8947
#
#
#
# Elastic Compliance Matrix: (Units=1/GPa)
#
#
# Indices 1 2 3 4 5 6 
#
# 1 0.017767 -0.005224 -0.010714 0.000000 0.000000 0.000000
# 2 -0.005224 0.015763 -0.006976 0.000000 0.000000 0.000000
# 3 -0.010714 -0.006976 0.029467 0.000000 0.000000 0.000000
# 4 0.000000 0.000000 0.000000 0.029411 0.000000 0.000000
# 5 0.000000 0.000000 0.000000 0.000000 0.029958 0.000000
# 6 0.000000 0.000000 0.000000 0.000000 0.000000 0.029503
#
#
# Mechanical properties :
#
#
# Convention : Reuss Voigt Hill
#
# Bulk Modulus (GPa) = 58.24837 64.14338 61.19587
# Shear Modulus (GPa) = 24.57968 27.99165 26.28567
#
# Velocity S-wave (km/s) = 3.71326 3.96261 3.83996
# Velocity P-wave (km/s) = 7.14561 7.54444 7.34773
#
# Compressibility (1/GPa) = 0.01716786
#
# Stress axis : x y z
#
# Youngs Moduli (GPa) = 56.28533 63.44073 33.93603
#
# Poissons Ratio (x) = 0.33143 0.36358
# Poissons Ratio (y) = 0.29405 0.23675
# Poissons Ratio (z) = 0.60302 0.44259
#
# Static dielectric constant tensor:
#      x y z
#    x 3.474400 0.000000 0.000000 
#    y 0.000000 3.717020 0.000000 
#    z 0.000000 0.000000 3.179910 
# 
# 
# High freq. dielectric constant tensor:
#      x y z
#    x 1.691460 0.000000 0.000000 
#    y 0.000000 1.697900 0.000000 
#    z 0.000000 0.000000 1.674550 
# 
# From -- ./inp_files/11079.got.cif
#   From: 2010.06.25/outbox.cif.g09.slc.cpg/sg58_6_cif.got.tgz:11079.got - 2010.06.26 21:38:00.
