data_PCOD8237276
_publ_section_title
;
Structure prediction by ZEFSAII (Michael W. Deem and Ramdas Pophale) SiO2 
 PCOD8237276
Probable space group: P N N M
;
_chemical_formula_sum "Si O2"
_cell_formula_units_Z 48
_cell_length_a 30.377204
_cell_length_b 9.397055
_cell_length_c 8.931538
_cell_angle_alpha 90.000000
_cell_angle_beta 90.000000
_cell_angle_gamma 90.000000
_cell_volume 2549.563404
_symmetry_space_group_name_H-M "P N N M"
_symmetry_group_IT_number 58
_symmetry_cell_setting 'orthorhombic'
loop_
_space_group_symop_operation_xyz
x,y,z
-x,-y,z
1/2+x,1/2-y,1/2-z
1/2-x,1/2+y,1/2-z
-x,-y,-z
x,y,-z
1/2-x,1/2+y,1/2+z
1/2+x,1/2-y,1/2+z
loop_
_atom_site_type_symbol
_atom_site_label
_atom_site_fract_x
_atom_site_fract_y
_atom_site_fract_z
Si Si1 0.543806 0.586067 0.823790
Si Si2 0.208881 0.075306 0.670162
Si Si3 0.881564 0.904883 0.823132
Si Si4 0.040350 0.591284 0.677322
Si Si5 0.881210 0.606075 0.675692
Si Si6 0.781952 0.596408 0.330786
O O1 0.500000 0.500000 0.783570
O O2 0.584384 0.520327 0.735996
O O3 0.538118 0.747335 0.764097
O O4 0.553895 0.581020 0.000000
O O5 0.195510 0.040347 0.500000
O O6 0.166851 0.045369 0.773156
O O7 0.225071 0.236112 0.685443
O O8 0.249219 0.977093 0.716675
O O9 0.894097 0.750663 0.759141
O O10 0.883403 0.898570 0.000000
O O11 0.036428 0.592227 0.500000
O O12 0.086095 0.518715 0.727773
O O13 0.000000 0.500000 0.745761
O O14 0.885297 0.640259 0.500000
O O15 0.831874 0.556087 0.715190
O O16 0.772187 0.545355 0.500000
#
# Coordination Sequence:
#
# PCOD8237276 Si02
#       6
#     8   8   8   8   8   8
#     4  10  20  35  57  83 111 144 181 221 268 323
#     4  10  21  37  57  80 108 143 182 222 269 325
#     4  11  22  36  55  79 109 143 181 224 270 320
#     4   9  17  31  55  84 108 136 178 223 264 312
#     4   9  18  35  56  78 107 141 180 224 270 321
#     4   9  19  34  52  78 109 140 178 225 273 320
#
# _framework density 18.826753
#
# number of rings (size 3 to 8) (size 9 to 14) (size 15 to 20)
#    0.000    2.333    0.000    4.000    0.000    7.667 
#    0.000    2.500    0.000    2.000    0.000    0.000 
#    0.000    0.000    0.000    0.000    0.000    0.000 
#
# Total GULP energy -595304.463866 kJ/mol
# GULP energy per Si atom -12402.176331 kJ/mol
# Density = 1.878390 g / cm^3
# Si number density = 18.826753 Si / 1000 Ang^3
#
#
#
# Elastic Constant Matrix: (Units=GPa)
#
#
# Indices 1 2 3 4 5 6 
#
# 1 121.9973 88.7849 42.4253 0.0000 0.0000 0.0000
# 2 88.7849 134.3271 49.1761 0.0000 0.0000 0.0000
# 3 42.4253 49.1761 64.4645 0.0000 0.0000 0.0000
# 4 0.0000 0.0000 0.0000 22.4855 0.0000 0.0000
# 5 0.0000 0.0000 0.0000 0.0000 28.0669 0.0000
# 6 0.0000 0.0000 0.0000 0.0000 0.0000 38.4538
#
#
#
# Elastic Compliance Matrix: (Units=1/GPa)
#
#
# Indices 1 2 3 4 5 6 
#
# 1 0.016341 -0.009523 -0.003490 0.000000 0.000000 0.000000
# 2 -0.009523 0.015879 -0.005846 0.000000 0.000000 0.000000
# 3 -0.003490 -0.005846 0.022268 0.000000 0.000000 0.000000
# 4 0.000000 0.000000 0.000000 0.044473 0.000000 0.000000
# 5 0.000000 0.000000 0.000000 0.000000 0.035629 0.000000
# 6 0.000000 0.000000 0.000000 0.000000 0.000000 0.026005
#
#
# Mechanical properties :
#
#
# Convention : Reuss Voigt Hill
#
# Bulk Modulus (GPa) = 59.62593 75.72904 67.67749
# Shear Modulus (GPa) = 24.52134 27.16142 25.84138
#
# Velocity S-wave (km/s) = 3.61289 3.80241 3.70886
# Velocity P-wave (km/s) = 7.01025 7.71941 7.37336
#
# Compressibility (1/GPa) = 0.01677123
#
# Stress axis : x y z
#
# Youngs Moduli (GPa) = 61.19522 62.97568 44.90662
#
# Poissons Ratio (x) = 0.59974 0.15671
# Poissons Ratio (y) = 0.58278 0.26251
# Poissons Ratio (z) = 0.21355 0.36814
#
# Static dielectric constant tensor:
#      x y z
#    x 3.569860 0.000000 0.000000 
#    y 0.000000 3.524100 0.000000 
#    z 0.000000 0.000000 3.218940 
# 
# 
# High freq. dielectric constant tensor:
#      x y z
#    x 1.743020 0.000000 0.000000 
#    y 0.000000 1.732200 0.000000 
#    z 0.000000 0.000000 1.708410 
# 
# From -- ./inp_files/2951.got.cif
#   From: 2010.06.25/outbox.cif.g09.slc.cpg/sg58_2_cif.got.tgz:2951.got - 2010.06.26 21:38:00.
