data_PCOD8237506
_publ_section_title
;
Structure prediction by ZEFSAII (Michael W. Deem and Ramdas Pophale) SiO2 
 PCOD8237506
Probable space group: P N N M
;
_chemical_formula_sum "Si O2"
_cell_formula_units_Z 48
_cell_length_a 14.353368
_cell_length_b 13.023265
_cell_length_c 13.541812
_cell_angle_alpha 90.000000
_cell_angle_beta 90.000000
_cell_angle_gamma 90.000000
_cell_volume 2531.339976
_symmetry_space_group_name_H-M "P N N M"
_symmetry_group_IT_number 58
_symmetry_cell_setting 'orthorhombic'
loop_
_space_group_symop_operation_xyz
x,y,z
-x,-y,z
1/2+x,1/2-y,1/2-z
1/2-x,1/2+y,1/2-z
-x,-y,-z
x,y,-z
1/2-x,1/2+y,1/2+z
1/2+x,1/2-y,1/2+z
loop_
_atom_site_type_symbol
_atom_site_label
_atom_site_fract_x
_atom_site_fract_y
_atom_site_fract_z
Si Si1 0.185232 0.623104 0.724200
Si Si2 0.252249 0.478524 0.112930
Si Si3 0.598795 0.053473 0.890947
Si Si4 0.015093 0.277557 0.262451
Si Si5 0.166347 0.265699 0.886311
Si Si6 0.055834 0.898105 0.607678
O O1 0.227482 0.580257 0.825900
O O2 0.174185 0.526944 0.650413
O O3 0.251882 0.707148 0.673698
O O4 0.085044 0.670255 0.752875
O O5 0.175309 0.389236 0.119594
O O6 0.345564 0.426353 0.156426
O O7 0.267490 0.514783 0.000000
O O8 0.589592 0.150941 0.819446
O O9 0.500000 0.000000 0.899147
O O10 0.631728 0.088956 0.000000
O O11 0.064131 0.244218 0.159800
O O12 0.003650 0.175016 0.324141
O O13 0.168515 0.228208 0.000000
O O14 0.072913 0.844767 0.500000
O O15 0.000000 0.000000 0.590888
#
# Coordination Sequence:
#
# PCOD8237506 Si02
#       6
#     8   8   8   8   8   8
#     4  11  21  38  62  85 121 163 201 252 303 360
#     4  10  21  38  60  88 120 157 202 250 302 360
#     4   9  18  31  52  84 114 143 189 245 299 350
#     4  11  21  36  60  90 117 155 203 252 303 358
#     4  11  23  39  61  89 123 163 202 244 307 372
#     4  10  20  36  60  88 118 155 199 252 306 359
#
# _framework density 18.962288999999998
#
# number of rings (size 3 to 8) (size 9 to 14) (size 15 to 20)
#    0.000    1.667    3.333    2.000    0.000    2.000 
#    0.000    2.500    0.000    5.500    0.000    0.000 
#    0.000    0.000    0.000    0.000    0.000    0.000 
#
# Total GULP energy -595081.727859 kJ/mol
# GULP energy per Si atom -12397.535997 kJ/mol
# Density = 1.891913 g / cm^3
# Si number density = 18.962289 Si / 1000 Ang^3
#
#
#
# Elastic Constant Matrix: (Units=GPa)
#
#
# Indices 1 2 3 4 5 6 
#
# 1 92.5442 26.1588 49.9295 0.0000 0.0000 0.0000
# 2 26.1588 77.4060 45.1063 0.0000 0.0000 0.0000
# 3 49.9295 45.1063 113.5339 0.0000 0.0000 0.0000
# 4 0.0000 0.0000 0.0000 34.7026 0.0000 0.0000
# 5 0.0000 0.0000 0.0000 0.0000 30.0440 0.0000
# 6 0.0000 0.0000 0.0000 0.0000 0.0000 29.3365
#
#
#
# Elastic Compliance Matrix: (Units=1/GPa)
#
#
# Indices 1 2 3 4 5 6 
#
# 1 0.014303 -0.001520 -0.005686 0.000000 0.000000 0.000000
# 2 -0.001520 0.016972 -0.006074 0.000000 0.000000 0.000000
# 3 -0.005686 -0.006074 0.013722 0.000000 0.000000 0.000000
# 4 0.000000 0.000000 0.000000 0.028816 0.000000 0.000000
# 5 0.000000 0.000000 0.000000 0.000000 0.033285 0.000000
# 6 0.000000 0.000000 0.000000 0.000000 0.000000 0.034087
#
#
# Mechanical properties :
#
#
# Convention : Reuss Voigt Hill
#
# Bulk Modulus (GPa) = 54.24242 58.43035 56.33639
# Shear Modulus (GPa) = 28.75340 29.63593 29.19466
#
# Velocity S-wave (km/s) = 3.89825 3.95763 3.92805
# Velocity P-wave (km/s) = 6.99495 7.19476 7.09556
#
# Compressibility (1/GPa) = 0.01843575
#
# Stress axis : x y z
#
# Youngs Moduli (GPa) = 69.91449 58.91934 72.87588
#
# Poissons Ratio (x) = 0.08957 0.41439
# Poissons Ratio (y) = 0.10628 0.44268
# Poissons Ratio (z) = 0.39755 0.35790
#
# Static dielectric constant tensor:
#      x y z
#    x 3.478470 0.000000 0.000000 
#    y 0.000000 3.395310 0.000000 
#    z 0.000000 0.000000 3.567120 
# 
# 
# High freq. dielectric constant tensor:
#      x y z
#    x 1.729140 0.000000 0.000000 
#    y 0.000000 1.732170 0.000000 
#    z 0.000000 0.000000 1.734410 
# 
# From -- ./inp_files/15594.got.cif
#   From: 2010.06.25/outbox.cif.g09.slc.cpg/sg58_8_cif.got.tgz:15594.got - 2010.06.26 21:38:00.
