data_PCOD8237702
_publ_section_title
;
Structure prediction by ZEFSAII (Michael W. Deem and Ramdas Pophale) SiO2 
 PCOD8237702
Probable space group: P N N M
;
_chemical_formula_sum "Si O2"
_cell_formula_units_Z 40
_cell_length_a 25.962748
_cell_length_b 10.221252
_cell_length_c 8.046767
_cell_angle_alpha 90.000000
_cell_angle_beta 90.000000
_cell_angle_gamma 90.000000
_cell_volume 2135.384962
_symmetry_space_group_name_H-M "P N N M"
_symmetry_group_IT_number 58
_symmetry_cell_setting 'orthorhombic'
loop_
_space_group_symop_operation_xyz
x,y,z
-x,-y,z
1/2+x,1/2-y,1/2-z
1/2-x,1/2+y,1/2-z
-x,-y,-z
x,y,-z
1/2-x,1/2+y,1/2+z
1/2+x,1/2-y,1/2+z
loop_
_atom_site_type_symbol
_atom_site_label
_atom_site_fract_x
_atom_site_fract_y
_atom_site_fract_z
Si Si1 0.351357 0.754153 0.820370
Si Si2 0.706931 0.015201 0.313955
Si Si3 0.130196 0.715661 0.802720
Si Si4 0.318394 0.486738 0.686808
Si Si5 0.557755 0.154585 0.000000
Si Si6 0.441078 0.155814 0.000000
O O1 0.321498 0.844194 0.689050
O O2 0.345988 0.600812 0.788246
O O3 0.325417 0.784467 0.000000
O O4 0.412345 0.791100 0.834816
O O5 0.725970 0.988503 0.500000
O O6 0.756807 0.010992 0.199193
O O7 0.667463 0.904005 0.256416
O O8 0.160592 0.846898 0.755459
O O9 0.083011 0.708507 0.673157
O O10 0.113526 0.710919 0.000000
O O11 0.334680 0.512915 0.500000
O O12 0.499750 0.206909 0.000000
O O13 0.560746 0.999287 0.000000
#
# Coordination Sequence:
#
# PCOD8237702 Si02
#       6
#     8   8   8   8   4   4
#     4  10  20  38  56  85 120 149 198 247 291 362
#     4  11  21  36  58  86 119 163 201 244 295 354
#     4  10  23  39  58  91 122 155 205 253 295 368
#     4  11  23  36  56  86 124 164 198 240 301 362
#     4   9  22  39  67  93 111 153 209 253 308 360
#     4  11  20  43  71  87 117 161 201 261 318 342
#
# _framework density 18.731985000000002
#
# number of rings (size 3 to 8) (size 9 to 14) (size 15 to 20)
#    0.600    1.000    2.000    3.000    4.200    1.600 
#    0.000    6.000    0.000    2.400    0.000    0.000 
#    0.000    0.000    0.000    0.000    0.000    0.000 
#
# Total GULP energy -495773.530726 kJ/mol
# GULP energy per Si atom -12394.338268 kJ/mol
# Density = 1.868935 g / cm^3
# Si number density = 18.731985 Si / 1000 Ang^3
#
#
#
# Elastic Constant Matrix: (Units=GPa)
#
#
# Indices 1 2 3 4 5 6 
#
# 1 122.5848 41.5122 45.0288 0.0000 0.0000 0.0000
# 2 41.5122 108.8246 24.8972 0.0000 0.0000 0.0000
# 3 45.0288 24.8972 66.7050 0.0000 0.0000 0.0000
# 4 0.0000 0.0000 0.0000 -3.9064 0.0000 0.0000
# 5 0.0000 0.0000 0.0000 0.0000 22.9562 0.0000
# 6 0.0000 0.0000 0.0000 0.0000 0.0000 12.2124
#
#
#
# Elastic Compliance Matrix: (Units=1/GPa)
#
#
# Indices 1 2 3 4 5 6 
#
# 1 0.011620 -0.002884 -0.006768 0.000000 0.000000 0.000000
# 2 -0.002884 0.010763 -0.002070 0.000000 0.000000 0.000000
# 3 -0.006768 -0.002070 0.020332 0.000000 0.000000 0.000000
# 4 0.000000 0.000000 0.000000 -0.255989 0.000000 0.000000
# 5 0.000000 0.000000 0.000000 0.000000 0.043561 0.000000
# 6 0.000000 0.000000 0.000000 0.000000 0.000000 0.081884
#
#
# Mechanical properties :
#
#
# Convention : Reuss Voigt Hill
#
# Bulk Modulus (GPa) = 51.89010 57.88784 54.88897
# Shear Modulus (GPa) = -86.26577 18.69753 -33.78412
#
# Velocity S-wave (km/s) = -6.79357 3.16280 -4.25143
# Velocity P-wave (km/s) = 5.81166 6.65643 2.29484
#
# Compressibility (1/GPa) = 0.01927150
#
# Stress axis : x y z
#
# Youngs Moduli (GPa) = 86.05609 92.91111 49.18236
#
# Poissons Ratio (x) = 0.26799 0.33285
# Poissons Ratio (y) = 0.24822 0.10181
# Poissons Ratio (z) = 0.58240 0.19234
#
# Static dielectric constant tensor:
#      x y z
#    x 3.331200 0.000000 0.000000 
#    y 0.000000 3.477540 0.000000 
#    z 0.000000 0.000000 3.372960 
# 
# 
# High freq. dielectric constant tensor:
#      x y z
#    x 1.706150 0.000000 0.000000 
#    y 0.000000 1.738920 0.000000 
#    z 0.000000 0.000000 1.727490 
# 
# From -- ./inp_files/2653.got.cif
#   From: 2010.06.25/outbox.cif.g09.slc.cpg/sg58_2_cif.got.tgz:2653.got - 2010.06.26 21:38:00.
