data_PCOD8237853
_publ_section_title
;
Structure prediction by ZEFSAII (Michael W. Deem and Ramdas Pophale) SiO2 
 PCOD8237853
Probable space group: P N N M
;
_chemical_formula_sum "Si O2"
_cell_formula_units_Z 48
_cell_length_a 6.551163
_cell_length_b 27.201422
_cell_length_c 13.674045
_cell_angle_alpha 90.000000
_cell_angle_beta 90.000000
_cell_angle_gamma 90.000000
_cell_volume 2436.727801
_symmetry_space_group_name_H-M "P N N M"
_symmetry_group_IT_number 58
_symmetry_cell_setting 'orthorhombic'
loop_
_space_group_symop_operation_xyz
x,y,z
-x,-y,z
1/2+x,1/2-y,1/2-z
1/2-x,1/2+y,1/2-z
-x,-y,-z
x,y,-z
1/2-x,1/2+y,1/2+z
1/2+x,1/2-y,1/2+z
loop_
_atom_site_type_symbol
_atom_site_label
_atom_site_fract_x
_atom_site_fract_y
_atom_site_fract_z
Si Si1 0.296841 0.872591 0.114254
Si Si2 0.604277 0.799400 0.786054
Si Si3 0.742800 0.112547 0.610019
Si Si4 0.527201 0.942613 0.238721
Si Si5 0.085301 0.115714 0.239357
Si Si6 0.631307 0.225786 0.608217
O O1 0.409927 0.828674 0.171731
O O2 0.404680 0.924010 0.143040
O O3 0.060876 0.875537 0.146048
O O4 0.311982 0.863292 0.000000
O O5 0.780116 0.835651 0.748780
O O6 0.541400 0.767294 0.690952
O O7 0.681757 0.762338 0.869105
O O8 0.756528 0.091785 0.500000
O O9 0.558064 0.085225 0.665113
O O10 0.707397 0.170327 0.610513
O O11 0.956859 0.103161 0.663857
O O12 0.766252 0.930836 0.223330
O O13 0.500000 0.000000 0.252019
O O14 0.545146 0.238736 0.500000
#
# Coordination Sequence:
#
# PCOD8237853 Si02
#       6
#     8   8   8   8   8   8
#     4  10  22  40  61  89 120 160 204 254 314 372
#     4  11  22  41  60  89 131 162 206 256 305 372
#     4  10  21  39  59  88 121 159 207 252 306 369
#     4  10  22  41  63  88 123 162 202 260 316 367
#     4  10  20  40  61  85 120 163 199 256 301 370
#     4  11  22  38  62  89 122 164 205 249 306 366
#
# _framework density 19.698547999999999
#
# number of rings (size 3 to 8) (size 9 to 14) (size 15 to 20)
#    0.000    1.667    5.000    1.500    0.000    8.000 
#    0.000    2.500    0.000    0.000    0.000    0.000 
#    0.000    0.000    0.000    0.000    0.000    0.000 
#
# Total GULP energy -595174.860626 kJ/mol
# GULP energy per Si atom -12399.476263 kJ/mol
# Density = 1.965371 g / cm^3
# Si number density = 19.698548 Si / 1000 Ang^3
#
#
#
# Elastic Constant Matrix: (Units=GPa)
#
#
# Indices 1 2 3 4 5 6 
#
# 1 115.4337 31.2194 48.3636 0.0000 0.0000 0.0000
# 2 31.2194 99.4976 24.6116 0.0000 0.0000 0.0000
# 3 48.3636 24.6116 163.2988 0.0000 0.0000 0.0000
# 4 0.0000 0.0000 0.0000 11.8777 0.0000 0.0000
# 5 0.0000 0.0000 0.0000 0.0000 21.1393 0.0000
# 6 0.0000 0.0000 0.0000 0.0000 0.0000 20.5103
#
#
#
# Elastic Compliance Matrix: (Units=1/GPa)
#
#
# Indices 1 2 3 4 5 6 
#
# 1 0.010512 -0.002626 -0.002717 0.000000 0.000000 0.000000
# 2 -0.002626 0.011096 -0.000895 0.000000 0.000000 0.000000
# 3 -0.002717 -0.000895 0.007063 0.000000 0.000000 0.000000
# 4 0.000000 0.000000 0.000000 0.084192 0.000000 0.000000
# 5 0.000000 0.000000 0.000000 0.000000 0.047305 0.000000
# 6 0.000000 0.000000 0.000000 0.000000 0.000000 0.048756
#
#
# Mechanical properties :
#
#
# Convention : Reuss Voigt Hill
#
# Bulk Modulus (GPa) = 61.74840 65.17991 63.46415
# Shear Modulus (GPa) = 22.04605 28.97449 25.51027
#
# Velocity S-wave (km/s) = 3.34903 3.83939 3.60256
# Velocity P-wave (km/s) = 6.80951 7.26739 7.04217
#
# Compressibility (1/GPa) = 0.01619475
#
# Stress axis : x y z
#
# Youngs Moduli (GPa) = 95.13167 90.12456 141.57534
#
# Poissons Ratio (x) = 0.23668 0.38472
# Poissons Ratio (y) = 0.24982 0.12665
# Poissons Ratio (z) = 0.25851 0.08062
#
# Static dielectric constant tensor:
#      x y z
#    x 3.716020 0.000000 0.000000 
#    y 0.000000 3.508870 0.000000 
#    z 0.000000 0.000000 3.847640 
# 
# 
# High freq. dielectric constant tensor:
#      x y z
#    x 1.771750 0.000000 0.000000 
#    y 0.000000 1.757680 0.000000 
#    z 0.000000 0.000000 1.767630 
# 
# From -- ./inp_files/18586.got.cif
#   From: 2010.06.25/outbox.cif.g09.slc.cpg/sg58_10_cif.got.tgz:18586.got - 2010.06.26 21:38:00.
