data_PCOD8237762
_publ_section_title
;
Structure prediction by ZEFSAII (Michael W. Deem and Ramdas Pophale) SiO2 
 PCOD8237762
Probable space group: P N N M
;
_chemical_formula_sum "Si O2"
_cell_formula_units_Z 40
_cell_length_a 21.102877
_cell_length_b 10.242780
_cell_length_c 8.543120
_cell_angle_alpha 90.000000
_cell_angle_beta 90.000000
_cell_angle_gamma 90.000000
_cell_volume 1846.613555
_symmetry_space_group_name_H-M "P N N M"
_symmetry_group_IT_number 58
_symmetry_cell_setting 'orthorhombic'
loop_
_space_group_symop_operation_xyz
x,y,z
-x,-y,z
1/2+x,1/2-y,1/2-z
1/2-x,1/2+y,1/2-z
-x,-y,-z
x,y,-z
1/2-x,1/2+y,1/2+z
1/2+x,1/2-y,1/2+z
loop_
_atom_site_type_symbol
_atom_site_label
_atom_site_fract_x
_atom_site_fract_y
_atom_site_fract_z
Si Si1 0.218246 0.298050 0.184596
Si Si2 0.917315 0.596951 0.182789
Si Si3 0.191267 0.030790 0.315893
Si Si4 0.954518 0.331062 0.318518
Si Si5 0.433724 0.438645 0.683330
O O1 0.150073 0.350645 0.238757
O O2 0.230885 0.159762 0.268602
O O3 0.270319 0.402936 0.239778
O O4 0.221262 0.277541 0.000000
O O5 0.920739 0.443227 0.218097
O O6 0.970993 0.675485 0.277288
O O7 0.928697 0.621442 0.000000
O O8 0.180076 0.029050 0.500000
O O9 0.123757 0.035154 0.227026
O O10 0.945087 0.362741 0.500000
O O11 0.921575 0.195048 0.276576
O O12 0.500000 0.500000 0.739159
O O13 0.435067 0.410144 0.500000
#
# Coordination Sequence:
#
# PCOD8237762 Si02
#       5
#     8   8   8   8   8
#     4  10  24  44  64  92 128 167 212 258 311 380
#     4  10  20  38  62  88 125 168 210 254 311 383
#     4  11  25  43  66  98 129 167 215 264 318 375
#     4  11  22  36  59  94 127 159 208 264 316 372
#     4  11  24  42  64  89 123 167 212 261 321 383
#
# _framework density 21.661273000000001
#
# number of rings (size 3 to 8) (size 9 to 14) (size 15 to 20)
#    0.000    1.400    0.000    6.000    2.800    9.600 
#    0.000    0.000    0.000    0.000    0.000    0.000 
#    0.000    0.000    0.000    0.000    0.000    0.000 
#
# Total GULP energy -496268.648021 kJ/mol
# GULP energy per Si atom -12406.716201 kJ/mol
# Density = 2.161197 g / cm^3
# Si number density = 21.661273 Si / 1000 Ang^3
#
#
#
# Elastic Constant Matrix: (Units=GPa)
#
#
# Indices 1 2 3 4 5 6 
#
# 1 96.9586 46.0532 22.3866 0.0000 0.0000 0.0000
# 2 46.0532 122.1120 19.7844 0.0000 0.0000 0.0000
# 3 22.3866 19.7844 53.1868 0.0000 0.0000 0.0000
# 4 0.0000 0.0000 0.0000 33.7828 0.0000 0.0000
# 5 0.0000 0.0000 0.0000 0.0000 24.2899 0.0000
# 6 0.0000 0.0000 0.0000 0.0000 0.0000 33.1466
#
#
#
# Elastic Compliance Matrix: (Units=1/GPa)
#
#
# Indices 1 2 3 4 5 6 
#
# 1 0.013310 -0.004376 -0.003974 0.000000 0.000000 0.000000
# 2 -0.004376 0.010153 -0.001935 0.000000 0.000000 0.000000
# 3 -0.003974 -0.001935 0.021194 0.000000 0.000000 0.000000
# 4 0.000000 0.000000 0.000000 0.029601 0.000000 0.000000
# 5 0.000000 0.000000 0.000000 0.000000 0.041169 0.000000
# 6 0.000000 0.000000 0.000000 0.000000 0.000000 0.030169
#
#
# Mechanical properties :
#
#
# Convention : Reuss Voigt Hill
#
# Bulk Modulus (GPa) = 41.51657 49.85619 45.68638
# Shear Modulus (GPa) = 28.70342 30.51273 29.60808
#
# Velocity S-wave (km/s) = 3.64415 3.75724 3.70113
# Velocity P-wave (km/s) = 6.07571 6.47215 6.27706
#
# Compressibility (1/GPa) = 0.02408677
#
# Stress axis : x y z
#
# Youngs Moduli (GPa) = 75.13329 98.49371 47.18252
#
# Poissons Ratio (x) = 0.43097 0.18753
# Poissons Ratio (y) = 0.32876 0.09130
# Poissons Ratio (z) = 0.29861 0.19058
#
# Static dielectric constant tensor:
#      x y z
#    x 3.939000 0.000000 0.000000 
#    y 0.000000 3.984720 0.000000 
#    z 0.000000 0.000000 3.747480 
# 
# 
# High freq. dielectric constant tensor:
#      x y z
#    x 1.849380 0.000000 0.000000 
#    y 0.000000 1.862580 0.000000 
#    z 0.000000 0.000000 1.848340 
# 
# From -- ./inp_files/9598.got.cif
#   From: 2010.06.25/outbox.cif.g09.slc.cpg/sg58_5_cif.got.tgz:9598.got - 2010.06.26 21:38:00.
