data_PCOD8237417
_publ_section_title
;
Structure prediction by ZEFSAII (Michael W. Deem and Ramdas Pophale) SiO2 
 PCOD8237417
Probable space group: P N N M
;
_chemical_formula_sum "Si O2"
_cell_formula_units_Z 40
_cell_length_a 12.346066
_cell_length_b 9.783367
_cell_length_c 16.418752
_cell_angle_alpha 90.000000
_cell_angle_beta 90.000000
_cell_angle_gamma 90.000000
_cell_volume 1983.156934
_symmetry_space_group_name_H-M "P N N M"
_symmetry_group_IT_number 58
_symmetry_cell_setting 'orthorhombic'
loop_
_space_group_symop_operation_xyz
x,y,z
-x,-y,z
1/2+x,1/2-y,1/2-z
1/2-x,1/2+y,1/2-z
-x,-y,-z
x,y,-z
1/2-x,1/2+y,1/2+z
1/2+x,1/2-y,1/2+z
loop_
_atom_site_type_symbol
_atom_site_label
_atom_site_fract_x
_atom_site_fract_y
_atom_site_fract_z
Si Si1 0.008836 0.160888 0.823653
Si Si2 0.639328 0.402708 0.908148
Si Si3 0.228183 0.131414 0.096789
Si Si4 0.295928 0.323184 0.594237
Si Si5 0.421958 0.317546 0.149639
O O1 0.920661 0.213650 0.888650
O O2 0.975454 0.222092 0.736195
O O3 0.128058 0.204393 0.855483
O O4 0.000000 0.000000 0.818116
O O5 0.720736 0.294095 0.865886
O O6 0.640637 0.536024 0.849619
O O7 0.520536 0.333313 0.913744
O O8 0.674165 0.444675 0.000000
O O9 0.340873 0.200136 0.121171
O O10 0.235287 0.974006 0.126258
O O11 0.207018 0.142146 0.000000
O O12 0.271015 0.317526 0.500000
#
# Coordination Sequence:
#
# PCOD8237417 Si02
#       5
#     8   8   8   8   8
#     4  10  20  36  58  82 115 146 188 230 284 334
#     4  10  20  37  58  82 112 148 185 226 282 342
#     4  10  21  38  60  85 113 150 191 232 279 338
#     4   9  20  36  59  82 110 147 186 229 279 335
#     4  11  21  34  59  83 114 148 189 229 280 330
#
# _framework density 20.169861000000001
#
# number of rings (size 3 to 8) (size 9 to 14) (size 15 to 20)
#    0.000    2.000    2.000    3.000    2.800    3.200 
#    0.000    4.000    4.400    3.600    0.000    0.000 
#    0.000    0.000    0.000    0.000    0.000    0.000 
#
# Total GULP energy -495776.901748 kJ/mol
# GULP energy per Si atom -12394.422544 kJ/mol
# Density = 2.012395 g / cm^3
# Si number density = 20.169861 Si / 1000 Ang^3
#
#
#
# Elastic Constant Matrix: (Units=GPa)
#
#
# Indices 1 2 3 4 5 6 
#
# 1 39.3261 12.7346 8.8213 0.0000 0.0000 0.0000
# 2 12.7346 45.6955 14.3850 0.0000 0.0000 0.0000
# 3 8.8213 14.3850 64.5636 0.0000 0.0000 0.0000
# 4 0.0000 0.0000 0.0000 18.9551 0.0000 0.0000
# 5 0.0000 0.0000 0.0000 0.0000 37.7648 0.0000
# 6 0.0000 0.0000 0.0000 0.0000 0.0000 26.8755
#
#
#
# Elastic Compliance Matrix: (Units=1/GPa)
#
#
# Indices 1 2 3 4 5 6 
#
# 1 0.028255 -0.007161 -0.002265 0.000000 0.000000 0.000000
# 2 -0.007161 0.025350 -0.004670 0.000000 0.000000 0.000000
# 3 -0.002265 -0.004670 0.016838 0.000000 0.000000 0.000000
# 4 0.000000 0.000000 0.000000 0.052756 0.000000 0.000000
# 5 0.000000 0.000000 0.000000 0.000000 0.026480 0.000000
# 6 0.000000 0.000000 0.000000 0.000000 0.000000 0.037209
#
#
# Mechanical properties :
#
#
# Convention : Reuss Voigt Hill
#
# Bulk Modulus (GPa) = 23.66755 24.60744 24.13750
# Shear Modulus (GPa) = 21.81846 24.29537 23.05691
#
# Velocity S-wave (km/s) = 3.29254 3.47441 3.38470
# Velocity P-wave (km/s) = 5.11997 5.32184 5.22188
#
# Compressibility (1/GPa) = 0.04225194
#
# Stress axis : x y z
#
# Youngs Moduli (GPa) = 35.39138 39.44819 59.38793
#
# Poissons Ratio (x) = 0.28250 0.13451
# Poissons Ratio (y) = 0.25345 0.27731
# Poissons Ratio (z) = 0.08016 0.18420
#
# Static dielectric constant tensor:
#      x y z
#    x 3.863960 0.000000 0.000000 
#    y 0.000000 3.594900 0.000000 
#    z 0.000000 0.000000 3.728720 
# 
# 
# High freq. dielectric constant tensor:
#      x y z
#    x 1.790500 0.000000 0.000000 
#    y 0.000000 1.759610 0.000000 
#    z 0.000000 0.000000 1.785580 
# 
# From -- ./inp_files/20898.got.cif
#   From: 2010.06.25/outbox.cif.g09.slc.cpg/sg58_11_cif.got.tgz:20898.got - 2010.06.26 21:38:00.
