data_PCOD8237895
_publ_section_title
;
Structure prediction by ZEFSAII (Michael W. Deem and Ramdas Pophale) SiO2 
 PCOD8237895
Probable space group: P N N M
;
_chemical_formula_sum "Si O2"
_cell_formula_units_Z 64
_cell_length_a 22.492855
_cell_length_b 8.002379
_cell_length_c 18.163984
_cell_angle_alpha 90.000000
_cell_angle_beta 90.000000
_cell_angle_gamma 90.000000
_cell_volume 3269.450831
_symmetry_space_group_name_H-M "P N N M"
_symmetry_group_IT_number 58
_symmetry_cell_setting 'orthorhombic'
loop_
_space_group_symop_operation_xyz
x,y,z
-x,-y,z
1/2+x,1/2-y,1/2-z
1/2-x,1/2+y,1/2-z
-x,-y,-z
x,y,-z
1/2-x,1/2+y,1/2+z
1/2+x,1/2-y,1/2+z
loop_
_atom_site_type_symbol
_atom_site_label
_atom_site_fract_x
_atom_site_fract_y
_atom_site_fract_z
Si Si1 0.237443 0.694696 0.667964
Si Si2 0.374726 0.195727 0.082764
Si Si3 0.356434 0.310701 0.412838
Si Si4 0.125274 0.304273 0.417236
Si Si5 0.500000 0.695417 0.084279
Si Si6 0.643566 0.310702 0.587162
Si Si7 0.433437 0.000000 0.412365
Si Si8 0.237443 0.305303 0.332036
O O1 0.177311 0.776440 0.633659
O O2 0.292583 0.744990 0.617040
O O3 0.227715 0.500000 0.668345
O O4 0.250000 0.749999 0.750000
O O5 0.439094 0.233870 0.120030
O O6 0.364957 0.000000 0.077175
O O7 0.371201 0.273837 0.000000
O O8 0.352978 0.307132 0.500000
O O9 0.374106 0.500000 0.386448
O O10 0.402625 0.171017 0.383422
O O11 0.292583 0.255011 0.382962
O O12 0.128799 0.226163 0.500000
O O13 0.177311 0.223560 0.366341
O O14 0.060906 0.266130 0.379970
O O15 0.500000 0.500000 0.093855
O O16 0.500000 0.755695 0.000000
O O17 0.647023 0.307133 0.500000
O O18 0.597375 0.171018 0.616578
O O19 0.433107 0.000001 0.500000
O O20 0.500000 0.000000 0.380788
#
# Coordination Sequence:
#
# PCOD8237895 Si02
#       8
#     8   8   8   8   8   8   8   8
#     4  10  21  34  52  76 104 137 174 218 265 314
#     4   9  17  32  54  76 100 135 175 211 254 309
#     4   9  18  34  55  79 108 139 176 220 264 314
#     4   9  17  32  54  76 100 135 175 211 254 309
#     4   9  17  29  47  77 109 131 162 211 260 305
#     4   9  18  34  55  79 108 139 176 220 264 314
#     4   9  18  32  54  84 110 135 172 218 268 318
#     4  10  21  34  52  76 104 137 174 218 265 314
#
# _framework density 19.575153
#
# number of rings (size 3 to 8) (size 9 to 14) (size 15 to 20)
#    0.000    2.750    0.000    1.125    1.750    6.000 
#    0.000    2.500    2.750    0.000    0.000    0.000 
#    0.000    0.000    0.000    0.000    0.000    0.000 
#
# Total GULP energy -793123.676646 kJ/mol
# GULP energy per Si atom -12392.557448 kJ/mol
# Density = 1.953060 g / cm^3
# Si number density = 19.575153 Si / 1000 Ang^3
#
#
#
# Elastic Constant Matrix: (Units=GPa)
#
#
# Indices 1 2 3 4 5 6 
#
# 1 207.4354 69.0532 53.4059 0.0000 0.0000 0.0000
# 2 69.0532 73.5396 16.4317 0.0000 0.0000 0.0000
# 3 53.4059 16.4317 47.3606 0.0000 0.0000 0.0000
# 4 0.0000 0.0000 0.0000 19.0879 0.0000 0.0000
# 5 0.0000 0.0000 0.0000 0.0000 8.1639 0.0000
# 6 0.0000 0.0000 0.0000 0.0000 0.0000 30.8790
#
#
#
# Elastic Compliance Matrix: (Units=1/GPa)
#
#
# Indices 1 2 3 4 5 6 
#
# 1 0.009125 -0.006796 -0.007932 0.000000 0.000000 0.000000
# 2 -0.006796 0.019803 0.000793 0.000000 0.000000 0.000000
# 3 -0.007932 0.000793 0.029784 0.000000 0.000000 0.000000
# 4 0.000000 0.000000 0.000000 0.052389 0.000000 0.000000
# 5 0.000000 0.000000 0.000000 0.000000 0.122490 0.000000
# 6 0.000000 0.000000 0.000000 0.000000 0.000000 0.032384
#
#
# Mechanical properties :
#
#
# Convention : Reuss Voigt Hill
#
# Bulk Modulus (GPa) = 32.42367 67.34636 49.88502
# Shear Modulus (GPa) = 16.44051 24.25584 20.34818
#
# Velocity S-wave (km/s) = 2.90119 3.52392 3.22761
# Velocity P-wave (km/s) = 5.27467 7.14395 6.27926
#
# Compressibility (1/GPa) = 0.03084166
#
# Stress axis : x y z
#
# Youngs Moduli (GPa) = 109.58374 50.49854 33.57498
#
# Poissons Ratio (x) = 0.34321 0.26633
# Poissons Ratio (y) = 0.74477 -0.02664
# Poissons Ratio (z) = 0.86925 -0.04007
#
# Static dielectric constant tensor:
#      x y z
#    x 3.974290 0.000000 0.000000 
#    y 0.000000 3.658530 0.000000 
#    z 0.000000 0.000000 3.692160 
# 
# 
# High freq. dielectric constant tensor:
#      x y z
#    x 1.775530 0.000000 0.000000 
#    y 0.000000 1.758610 0.000000 
#    z 0.000000 0.000000 1.718290 
# 
# From -- ./inp_files/27539.got.cif
#   From: 2010.06.25/outbox.cif.g09.slc.cpg/sg58_14_cif.got.tgz:27539.got - 2010.06.26 21:38:00.
