data_PCOD8237830
_publ_section_title
;
Structure prediction by ZEFSAII (Michael W. Deem and Ramdas Pophale) SiO2 
 PCOD8237830
Probable space group: P N N M
;
_chemical_formula_sum "Si O2"
_cell_formula_units_Z 48
_cell_length_a 13.110655
_cell_length_b 8.528338
_cell_length_c 21.338523
_cell_angle_alpha 90.000000
_cell_angle_beta 90.000000
_cell_angle_gamma 90.000000
_cell_volume 2385.905009
_symmetry_space_group_name_H-M "P N N M"
_symmetry_group_IT_number 58
_symmetry_cell_setting 'orthorhombic'
loop_
_space_group_symop_operation_xyz
x,y,z
-x,-y,z
1/2+x,1/2-y,1/2-z
1/2-x,1/2+y,1/2-z
-x,-y,-z
x,y,-z
1/2-x,1/2+y,1/2+z
1/2+x,1/2-y,1/2+z
loop_
_atom_site_type_symbol
_atom_site_label
_atom_site_fract_x
_atom_site_fract_y
_atom_site_fract_z
Si Si1 0.058455 0.352114 0.607910
Si Si2 0.595131 0.583620 0.713885
Si Si3 0.311174 0.027233 0.796377
Si Si4 0.621156 0.648846 0.847200
Si Si5 0.775784 0.888603 0.571545
Si Si6 0.103854 0.585327 0.831155
O O1 0.099864 0.426153 0.672171
O O2 0.152580 0.267890 0.572198
O O3 0.000000 0.500000 0.572368
O O4 0.981765 0.211495 0.621501
O O5 0.500000 0.500000 0.680307
O O6 0.701673 0.537858 0.682006
O O7 0.597732 0.537981 0.787690
O O8 0.568428 0.764454 0.707351
O O9 0.311167 0.205926 0.821287
O O10 0.326285 0.997505 0.721295
O O11 0.674820 0.545860 0.900291
O O12 0.747907 0.923898 0.500000
O O13 0.669666 0.864252 0.608577
O O14 0.000000 0.500000 0.852524
#
# Coordination Sequence:
#
# PCOD8237830 Si02
#       6
#     8   8   8   8   8   8
#     4  10  21  41  63  91 124 155 201 253 313 370
#     4  11  21  34  64  95 122 152 195 251 318 371
#     4  10  20  39  63  94 124 156 193 252 319 369
#     4  10  22  35  62  92 126 153 192 250 308 374
#     4  12  25  41  61  87 123 168 210 249 300 361
#     4  11  24  39  63  91 124 161 201 250 307 369
#
# _framework density 20.118153
#
# number of rings (size 3 to 8) (size 9 to 14) (size 15 to 20)
#    0.000    1.333    3.333    4.000    2.333    2.000 
#    0.000    2.500    0.000    0.500    0.000    0.000 
#    0.000    0.000    0.000    0.000    0.000    0.000 
#
# Total GULP energy -594811.813970 kJ/mol
# GULP energy per Si atom -12391.912791 kJ/mol
# Density = 2.007236 g / cm^3
# Si number density = 20.118153 Si / 1000 Ang^3
#
#
#
# Elastic Constant Matrix: (Units=GPa)
#
#
# Indices 1 2 3 4 5 6 
#
# 1 128.6575 37.8566 24.5875 0.0000 0.0000 0.0000
# 2 37.8566 69.0221 26.5289 0.0000 0.0000 0.0000
# 3 24.5875 26.5289 104.7892 0.0000 0.0000 0.0000
# 4 0.0000 0.0000 0.0000 16.8776 0.0000 0.0000
# 5 0.0000 0.0000 0.0000 0.0000 12.1867 0.0000
# 6 0.0000 0.0000 0.0000 0.0000 0.0000 41.1348
#
#
#
# Elastic Compliance Matrix: (Units=1/GPa)
#
#
# Indices 1 2 3 4 5 6 
#
# 1 0.009361 -0.004752 -0.000993 0.000000 0.000000 0.000000
# 2 -0.004752 0.018463 -0.003559 0.000000 0.000000 0.000000
# 3 -0.000993 -0.003559 0.010677 0.000000 0.000000 0.000000
# 4 0.000000 0.000000 0.000000 0.059250 0.000000 0.000000
# 5 0.000000 0.000000 0.000000 0.000000 0.082057 0.000000
# 6 0.000000 0.000000 0.000000 0.000000 0.000000 0.024310
#
#
# Mechanical properties :
#
#
# Convention : Reuss Voigt Hill
#
# Bulk Modulus (GPa) = 50.27358 53.37942 51.82650
# Shear Modulus (GPa) = 21.80009 28.27287 25.03648
#
# Velocity S-wave (km/s) = 3.29538 3.75285 3.53153
# Velocity P-wave (km/s) = 6.28672 6.73566 6.51506
#
# Compressibility (1/GPa) = 0.01989116
#
# Stress axis : x y z
#
# Youngs Moduli (GPa) = 106.82926 54.16379 93.65894
#
# Poissons Ratio (x) = 0.25740 0.09303
# Poissons Ratio (y) = 0.50769 0.33333
# Poissons Ratio (z) = 0.10611 0.19277
#
# Static dielectric constant tensor:
#      x y z
#    x 3.688130 0.000000 0.000000 
#    y 0.000000 3.730550 0.000000 
#    z 0.000000 0.000000 3.232530 
# 
# 
# High freq. dielectric constant tensor:
#      x y z
#    x 1.794840 0.000000 0.000000 
#    y 0.000000 1.793980 0.000000 
#    z 0.000000 0.000000 1.740750 
# 
# From -- ./inp_files/31887.got.cif
#   From: 2010.06.25/outbox.cif.g09.slc.cpg/sg58_16_cif.got.tgz:31887.got - 2010.06.26 21:38:00.
