data_PCOD8237410
_publ_section_title
;
Structure prediction by ZEFSAII (Michael W. Deem and Ramdas Pophale) SiO2 
 PCOD8237410
Probable space group: P N N M
;
_chemical_formula_sum "Si O2"
_cell_formula_units_Z 48
_cell_length_a 10.230927
_cell_length_b 26.447034
_cell_length_c 9.138295
_cell_angle_alpha 90.000000
_cell_angle_beta 90.000000
_cell_angle_gamma 90.000000
_cell_volume 2472.618607
_symmetry_space_group_name_H-M "P N N M"
_symmetry_group_IT_number 58
_symmetry_cell_setting 'orthorhombic'
loop_
_space_group_symop_operation_xyz
x,y,z
-x,-y,z
1/2+x,1/2-y,1/2-z
1/2-x,1/2+y,1/2-z
-x,-y,-z
x,y,-z
1/2-x,1/2+y,1/2+z
1/2+x,1/2-y,1/2+z
loop_
_atom_site_type_symbol
_atom_site_label
_atom_site_fract_x
_atom_site_fract_y
_atom_site_fract_z
Si Si1 0.903208 0.696564 0.169219
Si Si2 0.355166 0.360829 0.826475
Si Si3 0.632126 0.525100 0.174139
Si Si4 0.620847 0.963006 0.668364
Si Si5 0.127177 0.640592 0.327230
Si Si6 0.901832 0.813756 0.168183
O O1 0.778481 0.665159 0.226406
O O2 0.871719 0.755078 0.194129
O O3 0.029524 0.682060 0.262314
O O4 0.931531 0.684081 0.000000
O O5 0.356188 0.418016 0.765112
O O6 0.477322 0.330415 0.765341
O O7 0.366444 0.359524 0.000000
O O8 0.500000 0.500000 0.235187
O O9 0.752171 0.491515 0.231504
O O10 0.633563 0.526444 0.000000
O O11 0.640879 0.946691 0.500000
O O12 0.592131 0.913880 0.763263
O O13 0.500000 0.000000 0.685009
O O14 0.109420 0.640066 0.500000
O O15 0.274252 0.655238 0.282055
O O16 0.936154 0.824716 0.000000
#
# Coordination Sequence:
#
# PCOD8237410 Si02
#       6
#     8   8   8   8   8   8
#     4  10  21  38  58  80 109 147 191 233 275 330
#     4  10  20  36  59  83 108 143 187 233 279 328
#     4   9  17  30  51  79 106 134 175 224 269 318
#     4  10  20  36  58  81 108 145 187 228 271 323
#     4  11  23  38  57  84 117 149 184 229 281 333
#     4  10  22  38  55  80 114 148 184 230 281 334
#
# _framework density 19.412617999999998
#
# number of rings (size 3 to 8) (size 9 to 14) (size 15 to 20)
#    0.000    2.000    0.000    3.500    0.000    8.333 
#    0.000    0.833    0.000    3.000    0.000    0.000 
#    0.000    0.000    0.000    0.000    0.000    0.000 
#
# Total GULP energy -595428.770183 kJ/mol
# GULP energy per Si atom -12404.766045 kJ/mol
# Density = 1.936843 g / cm^3
# Si number density = 19.412618 Si / 1000 Ang^3
#
#
#
# Elastic Constant Matrix: (Units=GPa)
#
#
# Indices 1 2 3 4 5 6 
#
# 1 105.7573 18.5522 34.1577 0.0000 0.0000 0.0000
# 2 18.5522 85.1435 23.5672 0.0000 0.0000 0.0000
# 3 34.1577 23.5672 47.1383 0.0000 0.0000 0.0000
# 4 0.0000 0.0000 0.0000 15.9084 0.0000 0.0000
# 5 0.0000 0.0000 0.0000 0.0000 26.9666 0.0000
# 6 0.0000 0.0000 0.0000 0.0000 0.0000 40.1376
#
#
#
# Elastic Compliance Matrix: (Units=1/GPa)
#
#
# Indices 1 2 3 4 5 6 
#
# 1 0.012349 -0.000248 -0.008825 0.000000 0.000000 0.000000
# 2 -0.000248 0.013636 -0.006638 0.000000 0.000000 0.000000
# 3 -0.008825 -0.006638 0.030927 0.000000 0.000000 0.000000
# 4 0.000000 0.000000 0.000000 0.062860 0.000000 0.000000
# 5 0.000000 0.000000 0.000000 0.000000 0.037083 0.000000
# 6 0.000000 0.000000 0.000000 0.000000 0.000000 0.024914
#
#
# Mechanical properties :
#
#
# Convention : Reuss Voigt Hill
#
# Bulk Modulus (GPa) = 39.22821 43.39928 41.31374
# Shear Modulus (GPa) = 22.55419 27.38664 24.97041
#
# Velocity S-wave (km/s) = 3.41226 3.76009 3.59039
# Velocity P-wave (km/s) = 5.98132 6.42307 6.20612
#
# Compressibility (1/GPa) = 0.02549186
#
# Stress axis : x y z
#
# Youngs Moduli (GPa) = 80.97603 73.33404 32.33397
#
# Poissons Ratio (x) = 0.01821 0.28533
# Poissons Ratio (y) = 0.02010 0.21462
# Poissons Ratio (z) = 0.71458 0.48677
#
# Static dielectric constant tensor:
#      x y z
#    x 3.687940 0.000000 0.000000 
#    y 0.000000 3.724000 0.000000 
#    z 0.000000 0.000000 3.288290 
# 
# 
# High freq. dielectric constant tensor:
#      x y z
#    x 1.771690 0.000000 0.000000 
#    y 0.000000 1.772320 0.000000 
#    z 0.000000 0.000000 1.726760 
# 
# From -- ./inp_files/2936.got.cif
#   From: 2010.06.25/outbox.cif.g09.slc.cpg/sg58_2_cif.got.tgz:2936.got - 2010.06.26 21:38:00.
