data_PCOD8237199
_publ_section_title
;
Structure prediction by ZEFSAII (Michael W. Deem and Ramdas Pophale) SiO2 
 PCOD8237199
Probable space group: P N N M
;
_chemical_formula_sum "Si O2"
_cell_formula_units_Z 48
_cell_length_a 11.494130
_cell_length_b 9.902819
_cell_length_c 23.348525
_cell_angle_alpha 90.000000
_cell_angle_beta 90.000000
_cell_angle_gamma 90.000000
_cell_volume 2657.629256
_symmetry_space_group_name_H-M "P N N M"
_symmetry_group_IT_number 58
_symmetry_cell_setting 'orthorhombic'
loop_
_space_group_symop_operation_xyz
x,y,z
-x,-y,z
1/2+x,1/2-y,1/2-z
1/2-x,1/2+y,1/2-z
-x,-y,-z
x,y,-z
1/2-x,1/2+y,1/2+z
1/2+x,1/2-y,1/2+z
loop_
_atom_site_type_symbol
_atom_site_label
_atom_site_fract_x
_atom_site_fract_y
_atom_site_fract_z
Si Si1 0.197192 0.046038 0.936584
Si Si2 0.039797 0.698281 0.184440
Si Si3 0.424830 0.370931 0.214493
Si Si4 0.173069 0.473453 0.770430
Si Si5 0.393208 0.088904 0.846452
Si Si6 0.044324 0.799632 0.936343
O O1 0.158964 0.891299 0.925465
O O2 0.293813 0.105631 0.894150
O O3 0.076798 0.124034 0.931970
O O4 0.250501 0.061442 0.000000
O O5 0.043135 0.841178 0.218534
O O6 0.157814 0.619498 0.200422
O O7 0.927672 0.624471 0.208795
O O8 0.038955 0.695828 0.115814
O O9 0.500000 0.500000 0.192962
O O10 0.291779 0.410264 0.209332
O O11 0.440312 0.235692 0.175430
O O12 0.165230 0.497926 0.702774
O O13 0.500000 0.000000 0.871487
O O14 0.054424 0.732249 0.000000
#
# Coordination Sequence:
#
# PCOD8237199 Si02
#       6
#     8   8   8   8   8   8
#     4   9  19  33  55  83 107 142 188 232 277 322
#     4  10  20  35  54  79 112 150 177 226 285 327
#     4  11  24  33  56  83 111 149 185 222 284 333
#     4  10  21  37  51  79 114 143 191 222 268 348
#     4  11  21  38  55  77 115 146 182 230 271 330
#     4   9  18  33  54  84 111 137 185 235 278 329
#
# _framework density 18.061209000000002
#
# number of rings (size 3 to 8) (size 9 to 14) (size 15 to 20)
#    0.000    2.000    3.333    3.000    9.333    1.667 
#    0.000    1.667    0.000    1.500    0.000    0.000 
#    0.000    0.000    0.000    0.000    0.000    0.000 
#
# Total GULP energy -594645.757191 kJ/mol
# GULP energy per Si atom -12388.453275 kJ/mol
# Density = 1.802010 g / cm^3
# Si number density = 18.061209 Si / 1000 Ang^3
#
#
#
# Elastic Constant Matrix: (Units=GPa)
#
#
# Indices 1 2 3 4 5 6 
#
# 1 75.1392 36.0477 36.4866 0.0000 0.0000 0.0000
# 2 36.0477 68.8340 33.4776 0.0000 0.0000 0.0000
# 3 36.4866 33.4776 133.7834 0.0000 0.0000 0.0000
# 4 0.0000 0.0000 0.0000 15.6567 0.0000 0.0000
# 5 0.0000 0.0000 0.0000 0.0000 17.8861 0.0000
# 6 0.0000 0.0000 0.0000 0.0000 0.0000 24.0511
#
#
#
# Elastic Compliance Matrix: (Units=1/GPa)
#
#
# Indices 1 2 3 4 5 6 
#
# 1 0.018796 -0.008368 -0.003032 0.000000 0.000000 0.000000
# 2 -0.008368 0.020267 -0.002789 0.000000 0.000000 0.000000
# 3 -0.003032 -0.002789 0.009000 0.000000 0.000000 0.000000
# 4 0.000000 0.000000 0.000000 0.063870 0.000000 0.000000
# 5 0.000000 0.000000 0.000000 0.000000 0.055909 0.000000
# 6 0.000000 0.000000 0.000000 0.000000 0.000000 0.041578
#
#
# Mechanical properties :
#
#
# Convention : Reuss Voigt Hill
#
# Bulk Modulus (GPa) = 50.80600 54.42003 52.61301
# Shear Modulus (GPa) = 20.46159 22.96841 21.71500
#
# Velocity S-wave (km/s) = 3.36951 3.56996 3.47118
# Velocity P-wave (km/s) = 6.58249 6.86943 6.72749
#
# Compressibility (1/GPa) = 0.01968272
#
# Stress axis : x y z
#
# Youngs Moduli (GPa) = 53.20367 49.34199 111.11548
#
# Poissons Ratio (x) = 0.41292 0.33691
# Poissons Ratio (y) = 0.44523 0.30992
# Poissons Ratio (z) = 0.16132 0.13762
#
# Static dielectric constant tensor:
#      x y z
#    x 3.408440 0.000000 0.000000 
#    y 0.000000 3.478470 0.000000 
#    z 0.000000 0.000000 3.446840 
# 
# 
# High freq. dielectric constant tensor:
#      x y z
#    x 1.697000 0.000000 0.000000 
#    y 0.000000 1.686780 0.000000 
#    z 0.000000 0.000000 1.691010 
# 
# From -- ./inp_files/31904.got.cif
#   From: 2010.06.25/outbox.cif.g09.slc.cpg/sg58_16_cif.got.tgz:31904.got - 2010.06.26 21:38:00.
