data_PCOD8237576
_publ_section_title
;
Structure prediction by ZEFSAII (Michael W. Deem and Ramdas Pophale) SiO2 
 PCOD8237576
Probable space group: P N N M
;
_chemical_formula_sum "Si O2"
_cell_formula_units_Z 64
_cell_length_a 16.533004
_cell_length_b 21.988006
_cell_length_c 8.969442
_cell_angle_alpha 90.000000
_cell_angle_beta 90.000000
_cell_angle_gamma 90.000000
_cell_volume 3260.641438
_symmetry_space_group_name_H-M "P N N M"
_symmetry_group_IT_number 58
_symmetry_cell_setting 'orthorhombic'
loop_
_space_group_symop_operation_xyz
x,y,z
-x,-y,z
1/2+x,1/2-y,1/2-z
1/2-x,1/2+y,1/2-z
-x,-y,-z
x,y,-z
1/2-x,1/2+y,1/2+z
1/2+x,1/2-y,1/2+z
loop_
_atom_site_type_symbol
_atom_site_label
_atom_site_fract_x
_atom_site_fract_y
_atom_site_fract_z
Si Si1 0.579807 0.676501 0.827995
Si Si2 0.455512 0.187523 0.823719
Si Si3 0.273538 0.405719 0.170748
Si Si4 0.687664 0.875989 0.675367
Si Si5 0.304798 0.708386 0.334257
Si Si6 0.879198 0.666489 0.829202
Si Si7 0.799404 0.970750 0.176290
Si Si8 0.441164 0.613862 0.333576
O O1 0.566254 0.744555 0.761898
O O2 0.671080 0.653788 0.797490
O O3 0.520876 0.624788 0.762409
O O4 0.558479 0.680422 0.000000
O O5 0.399726 0.137337 0.744857
O O6 0.546451 0.167978 0.783433
O O7 0.443703 0.183743 0.000000
O O8 0.178796 0.391409 0.199663
O O9 0.300560 0.459023 0.280769
O O10 0.286292 0.426710 0.000000
O O11 0.679645 0.884786 0.500000
O O12 0.744873 0.818831 0.712150
O O13 0.723983 0.937486 0.745378
O O14 0.265544 0.700982 0.500000
O O15 0.319471 0.777839 0.295697
O O16 0.391308 0.676186 0.330636
O O17 0.910703 0.668232 0.000000
O O18 0.884236 0.940401 0.229652
O O19 0.789975 0.961665 0.000000
O O20 0.469686 0.597378 0.500000
#
# Coordination Sequence:
#
# PCOD8237576 Si02
#       8
#     8   8   8   8   8   8   8   8
#     4  10  21  36  57  86 121 154 187 232 285 341
#     4  11  22  37  58  88 122 151 188 236 289 344
#     4  10  22  39  58  82 113 154 195 237 286 338
#     4  11  22  36  59  86 112 148 194 238 285 343
#     4   9  17  33  56  82 116 152 185 229 288 342
#     4  10  20  37  59  82 116 154 190 234 291 347
#     4  10  22  41  60  81 113 153 196 242 290 337
#     4   9  18  33  56  83 113 151 189 231 282 335
#
# _framework density 19.628039000000001
#
# number of rings (size 3 to 8) (size 9 to 14) (size 15 to 20)
#    0.000    2.000    1.250    3.375    0.000    7.000 
#    0.000    4.375    0.000    3.750    0.000    0.000 
#    0.000    0.000    0.000    0.000    0.000    0.000 
#
# Total GULP energy -793567.030568 kJ/mol
# GULP energy per Si atom -12399.484853 kJ/mol
# Density = 1.958336 g / cm^3
# Si number density = 19.628039 Si / 1000 Ang^3
#
#
#
# Elastic Constant Matrix: (Units=GPa)
#
#
# Indices 1 2 3 4 5 6 
#
# 1 100.2680 26.5536 39.7711 0.0000 0.0000 0.0000
# 2 26.5536 39.2550 14.7345 0.0000 0.0000 0.0000
# 3 39.7711 14.7345 73.3626 0.0000 0.0000 0.0000
# 4 0.0000 0.0000 0.0000 26.7812 0.0000 0.0000
# 5 0.0000 0.0000 0.0000 0.0000 33.9766 0.0000
# 6 0.0000 0.0000 0.0000 0.0000 0.0000 20.4012
#
#
#
# Elastic Compliance Matrix: (Units=1/GPa)
#
#
# Indices 1 2 3 4 5 6 
#
# 1 0.014449 -0.007391 -0.006348 0.000000 0.000000 0.000000
# 2 -0.007391 0.031332 -0.002286 0.000000 0.000000 0.000000
# 3 -0.006348 -0.002286 0.017532 0.000000 0.000000 0.000000
# 4 0.000000 0.000000 0.000000 0.037340 0.000000 0.000000
# 5 0.000000 0.000000 0.000000 0.000000 0.029432 0.000000
# 6 0.000000 0.000000 0.000000 0.000000 0.000000 0.049017
#
#
# Mechanical properties :
#
#
# Convention : Reuss Voigt Hill
#
# Bulk Modulus (GPa) = 31.98824 41.66711 36.82768
# Shear Modulus (GPa) = 22.56604 25.02023 23.79313
#
# Velocity S-wave (km/s) = 3.39438 3.57419 3.48545
# Velocity P-wave (km/s) = 5.62983 6.18931 5.91619
#
# Compressibility (1/GPa) = 0.03126149
#
# Stress axis : x y z
#
# Youngs Moduli (GPa) = 69.21075 31.91629 57.03951
#
# Poissons Ratio (x) = 0.23588 0.36211
# Poissons Ratio (y) = 0.51152 0.13041
# Poissons Ratio (z) = 0.43938 0.07297
#
# Static dielectric constant tensor:
#      x y z
#    x 3.540040 0.000000 0.000000 
#    y 0.000000 3.451040 0.000000 
#    z 0.000000 0.000000 3.450630 
# 
# 
# High freq. dielectric constant tensor:
#      x y z
#    x 1.764890 0.000000 0.000000 
#    y 0.000000 1.752800 0.000000 
#    z 0.000000 0.000000 1.754920 
# 
# From -- ./inp_files/8411.got.cif
#   From: 2010.06.25/outbox.cif.g09.slc.cpg/sg58_5_cif.got.tgz:8411.got - 2010.06.26 21:38:00.
