data_PCOD8237208
_publ_section_title
;
Structure prediction by ZEFSAII (Michael W. Deem and Ramdas Pophale) SiO2 
 PCOD8237208
Probable space group: P N N M
;
_chemical_formula_sum "Si O2"
_cell_formula_units_Z 64
_cell_length_a 20.862015
_cell_length_b 17.576441
_cell_length_c 9.245031
_cell_angle_alpha 90.000000
_cell_angle_beta 90.000000
_cell_angle_gamma 90.000000
_cell_volume 3389.967743
_symmetry_space_group_name_H-M "P N N M"
_symmetry_group_IT_number 58
_symmetry_cell_setting 'orthorhombic'
loop_
_space_group_symop_operation_xyz
x,y,z
-x,-y,z
1/2+x,1/2-y,1/2-z
1/2-x,1/2+y,1/2-z
-x,-y,-z
x,y,-z
1/2-x,1/2+y,1/2+z
1/2+x,1/2-y,1/2+z
loop_
_atom_site_type_symbol
_atom_site_label
_atom_site_fract_x
_atom_site_fract_y
_atom_site_fract_z
Si Si1 0.075200 0.664956 0.826876
Si Si2 0.680286 0.281320 0.670757
Si Si3 0.883599 0.084664 0.337694
Si Si4 0.929117 0.665131 0.827429
Si Si5 0.075354 0.499130 0.843103
Si Si6 0.372993 0.586594 0.830278
Si Si7 0.997214 0.910182 0.160077
Si Si8 0.320844 0.263486 0.836453
O O1 0.093443 0.579620 0.766241
O O2 0.126070 0.723390 0.761946
O O3 0.002003 0.687233 0.779349
O O4 0.080245 0.666365 0.000000
O O5 0.674343 0.293984 0.500000
O O6 0.622656 0.226874 0.727682
O O7 0.679820 0.362260 0.751896
O O8 0.748793 0.248534 0.717417
O O9 0.912576 0.077856 0.500000
O O10 0.826600 0.144949 0.330210
O O11 0.937352 0.118137 0.231177
O O12 0.858507 0.001371 0.291023
O O13 0.908389 0.581274 0.762638
O O14 0.927189 0.658478 0.000000
O O15 0.000000 0.500000 0.867542
O O16 0.109701 0.498666 0.000000
O O17 0.440038 0.614927 0.763496
O O18 0.372997 0.601910 0.000000
O O19 0.989054 0.873208 0.000000
O O20 0.000000 0.000000 0.147157
O O21 0.330649 0.233739 0.000000
#
# Coordination Sequence:
#
# PCOD8237208 Si02
#       8
#     8   8   8   8   8   8   8   8
#     4   9  17  31  55  84 106 129 171 222 267 315
#     4  10  21  37  54  75 107 143 181 220 264 320
#     4   9  19  36  54  75 106 145 182 218 266 320
#     4   8  15  30  54  81 104 131 170 219 266 311
#     4   7  11  24  48  79 107 125 156 213 268 309
#     4  10  20  35  55  78 108 141 177 221 266 316
#     4   9  17  30  52  82 108 134 174 220 264 311
#     4  10  22  38  52  73 110 147 177 216 268 319
#
# _framework density 18.879235999999999
#
# number of rings (size 3 to 8) (size 9 to 14) (size 15 to 20)
#    0.000    3.000    0.000    2.250    1.750    3.000 
#    2.250    0.000    0.000    4.125    0.000    0.000 
#    0.000    0.000    0.000    0.000    0.000    0.000 
#
# Total GULP energy -792881.222743 kJ/mol
# GULP energy per Si atom -12388.769105 kJ/mol
# Density = 1.883627 g / cm^3
# Si number density = 18.879236 Si / 1000 Ang^3
#
#
#
# Elastic Constant Matrix: (Units=GPa)
#
#
# Indices 1 2 3 4 5 6 
#
# 1 114.2634 64.8138 36.5415 0.0000 0.0000 0.0000
# 2 64.8138 119.3095 35.2021 0.0000 0.0000 0.0000
# 3 36.5415 35.2021 49.6718 0.0000 0.0000 0.0000
# 4 0.0000 0.0000 0.0000 19.6066 0.0000 0.0000
# 5 0.0000 0.0000 0.0000 0.0000 20.1886 0.0000
# 6 0.0000 0.0000 0.0000 0.0000 0.0000 27.0977
#
#
#
# Elastic Compliance Matrix: (Units=1/GPa)
#
#
# Indices 1 2 3 4 5 6 
#
# 1 0.014019 -0.005782 -0.006216 0.000000 0.000000 0.000000
# 2 -0.005782 0.012982 -0.004947 0.000000 0.000000 0.000000
# 3 -0.006216 -0.004947 0.028211 0.000000 0.000000 0.000000
# 4 0.000000 0.000000 0.000000 0.051003 0.000000 0.000000
# 5 0.000000 0.000000 0.000000 0.000000 0.049533 0.000000
# 6 0.000000 0.000000 0.000000 0.000000 0.000000 0.036904
#
#
# Mechanical properties :
#
#
# Convention : Reuss Voigt Hill
#
# Bulk Modulus (GPa) = 46.89780 61.81771 54.35775
# Shear Modulus (GPa) = 21.39972 23.15774 22.27873
#
# Velocity S-wave (km/s) = 3.37041 3.50612 3.43893
# Velocity P-wave (km/s) = 6.32780 7.01465 6.68006
#
# Compressibility (1/GPa) = 0.02132296
#
# Stress axis : x y z
#
# Youngs Moduli (GPa) = 71.33103 77.02948 35.44759
#
# Poissons Ratio (x) = 0.44537 0.22033
# Poissons Ratio (y) = 0.41242 0.17535
# Poissons Ratio (z) = 0.44338 0.38105
#
# Static dielectric constant tensor:
#      x y z
#    x 3.284180 0.000000 0.000000 
#    y 0.000000 3.800000 0.000000 
#    z 0.000000 0.000000 3.213000 
# 
# 
# High freq. dielectric constant tensor:
#      x y z
#    x 1.708150 0.000000 0.000000 
#    y 0.000000 1.748890 0.000000 
#    z 0.000000 0.000000 1.697800 
# 
# From -- ./inp_files/9248.got.cif
#   From: 2010.06.25/outbox.cif.g09.slc.cpg/sg58_5_cif.got.tgz:9248.got - 2010.06.26 21:38:00.
