data_PCOD8237440
_publ_section_title
;
Structure prediction by ZEFSAII (Michael W. Deem and Ramdas Pophale) SiO2 
 PCOD8237440
Probable space group: P N N M
;
_chemical_formula_sum "Si O2"
_cell_formula_units_Z 48
_cell_length_a 20.814174
_cell_length_b 14.944276
_cell_length_c 7.777182
_cell_angle_alpha 90.000000
_cell_angle_beta 90.000000
_cell_angle_gamma 90.000000
_cell_volume 2419.113934
_symmetry_space_group_name_H-M "P N N M"
_symmetry_group_IT_number 58
_symmetry_cell_setting 'orthorhombic'
loop_
_space_group_symop_operation_xyz
x,y,z
-x,-y,z
1/2+x,1/2-y,1/2-z
1/2-x,1/2+y,1/2-z
-x,-y,-z
x,y,-z
1/2-x,1/2+y,1/2+z
1/2+x,1/2-y,1/2+z
loop_
_atom_site_type_symbol
_atom_site_label
_atom_site_fract_x
_atom_site_fract_y
_atom_site_fract_z
Si Si1 0.179643 0.989657 0.305656
Si Si2 0.306733 0.097414 0.701636
Si Si3 0.491483 0.256409 0.297283
Si Si4 0.344179 0.294710 0.698453
Si Si5 0.477192 0.872482 0.000000
Si Si6 0.549737 0.434156 0.694369
Si Si7 0.393336 0.025372 0.000000
O O1 0.163698 0.014081 0.500000
O O2 0.187203 0.881920 0.289033
O O3 0.242007 0.045192 0.247594
O O4 0.121455 0.028379 0.195227
O O5 0.324788 0.082966 0.500000
O O6 0.303362 0.204483 0.741565
O O7 0.359684 0.054675 0.823881
O O8 0.496145 0.231129 0.500000
O O9 0.418112 0.281064 0.245885
O O10 0.539705 0.334899 0.234011
O O11 0.517197 0.177694 0.180703
O O12 0.340670 0.317649 0.500000
O O13 0.535867 0.938757 0.000000
O O14 0.406329 0.918533 0.000000
O O15 0.500000 0.500000 0.792632
O O16 0.525375 0.425976 0.500000
#
# Coordination Sequence:
#
# PCOD8237440 Si02
#       7
#     8   8   8   8   4   8   4
#     4  11  24  38  60  94 125 162 214 265 311 373
#     4  10  24  45  63  90 127 167 215 256 311 381
#     4  10  21  38  61  90 129 166 202 258 315 376
#     4  10  20  39  64  85 119 169 208 250 312 376
#     4  11  24  40  65 100 120 156 223 253 315 381
#     4  10  20  36  58  88 126 162 204 256 318 376
#     4  11  24  42  70  92 121 168 206 268 312 368
#
# _framework density 19.841977
#
# number of rings (size 3 to 8) (size 9 to 14) (size 15 to 20)
#    0.000    1.667    3.333    0.500    5.833    1.000 
#    3.000    1.667    0.000    0.000    0.000    0.000 
#    0.000    0.000    0.000    0.000    0.000    0.000 
#
# Total GULP energy -594765.385138 kJ/mol
# GULP energy per Si atom -12390.945524 kJ/mol
# Density = 1.979682 g / cm^3
# Si number density = 19.841977 Si / 1000 Ang^3
#
#
#
# Elastic Constant Matrix: (Units=GPa)
#
#
# Indices 1 2 3 4 5 6 
#
# 1 94.0229 74.2333 28.2476 0.0000 0.0000 0.0000
# 2 74.2333 145.1283 36.1572 0.0000 0.0000 0.0000
# 3 28.2476 36.1572 65.6920 0.0000 0.0000 0.0000
# 4 0.0000 0.0000 0.0000 82.8745 0.0000 0.0000
# 5 0.0000 0.0000 0.0000 0.0000 15.5634 0.0000
# 6 0.0000 0.0000 0.0000 0.0000 0.0000 43.1451
#
#
#
# Elastic Compliance Matrix: (Units=1/GPa)
#
#
# Indices 1 2 3 4 5 6 
#
# 1 0.018391 -0.008619 -0.003164 0.000000 0.000000 0.000000
# 2 -0.008619 0.012024 -0.002912 0.000000 0.000000 0.000000
# 3 -0.003164 -0.002912 0.018186 0.000000 0.000000 0.000000
# 4 0.000000 0.000000 0.000000 0.012066 0.000000 0.000000
# 5 0.000000 0.000000 0.000000 0.000000 0.064253 0.000000
# 6 0.000000 0.000000 0.000000 0.000000 0.000000 0.023178
#
#
# Mechanical properties :
#
#
# Convention : Reuss Voigt Hill
#
# Bulk Modulus (GPa) = 52.05356 64.67991 58.36673
# Shear Modulus (GPa) = 27.18964 39.39694 33.29329
#
# Velocity S-wave (km/s) = 3.70578 4.46077 4.10069
# Velocity P-wave (km/s) = 6.67843 7.69412 7.20420
#
# Compressibility (1/GPa) = 0.01921098
#
# Stress axis : x y z
#
# Youngs Moduli (GPa) = 54.37437 83.16373 54.98680
#
# Poissons Ratio (x) = 0.71676 0.17400
# Poissons Ratio (y) = 0.46863 0.16014
# Poissons Ratio (z) = 0.17206 0.24220
#
# Static dielectric constant tensor:
#      x y z
#    x 3.562680 0.000000 0.000000 
#    y 0.000000 4.021310 0.000000 
#    z 0.000000 0.000000 3.527810 
# 
# 
# High freq. dielectric constant tensor:
#      x y z
#    x 1.754320 0.000000 0.000000 
#    y 0.000000 1.785130 0.000000 
#    z 0.000000 0.000000 1.777150 
# 
# From -- ./inp_files/7770.got.cif
#   From: 2010.06.25/outbox.cif.g09.slc.cpg/sg58_4_cif.got.tgz:7770.got - 2010.06.26 21:38:00.
