data_PCOD8237362
_publ_section_title
;
Structure prediction by ZEFSAII (Michael W. Deem and Ramdas Pophale) SiO2 
 PCOD8237362
Probable space group: P N N M
;
_chemical_formula_sum "Si O2"
_cell_formula_units_Z 64
_cell_length_a 12.385851
_cell_length_b 29.001241
_cell_length_c 8.659741
_cell_angle_alpha 90.000000
_cell_angle_beta 90.000000
_cell_angle_gamma 90.000000
_cell_volume 3110.622698
_symmetry_space_group_name_H-M "P N N M"
_symmetry_group_IT_number 58
_symmetry_cell_setting 'orthorhombic'
loop_
_space_group_symop_operation_xyz
x,y,z
-x,-y,z
1/2+x,1/2-y,1/2-z
1/2-x,1/2+y,1/2-z
-x,-y,-z
x,y,-z
1/2-x,1/2+y,1/2+z
1/2+x,1/2-y,1/2+z
loop_
_atom_site_type_symbol
_atom_site_label
_atom_site_fract_x
_atom_site_fract_y
_atom_site_fract_z
Si Si1 0.941823 0.595092 0.318941
Si Si2 0.348991 0.334678 0.171572
Si Si3 0.433354 0.420611 0.677279
Si Si4 0.889088 0.689059 0.822607
Si Si5 0.662892 0.934155 0.681949
Si Si6 0.565256 0.284294 0.825937
Si Si7 0.848679 0.875892 0.182510
Si Si8 0.242490 0.465858 0.180755
O O1 0.956688 0.588013 0.500000
O O2 0.944589 0.649241 0.278998
O O3 0.828997 0.573060 0.264450
O O4 0.039004 0.569554 0.231636
O O5 0.368595 0.373028 0.301062
O O6 0.238123 0.309470 0.207933
O O7 0.439598 0.296032 0.177811
O O8 0.346902 0.358028 0.000000
O O9 0.432627 0.435789 0.500000
O O10 0.556084 0.411488 0.736570
O O11 0.369138 0.459836 0.773027
O O12 0.929861 0.739004 0.776553
O O13 0.918545 0.679204 0.000000
O O14 0.674463 0.927433 0.500000
O O15 0.733545 0.895378 0.766568
O O16 0.705015 0.983986 0.735687
O O17 0.636655 0.325906 0.758316
O O18 0.605455 0.274642 0.000000
O O19 0.853842 0.869495 0.000000
O O20 0.226892 0.459414 0.000000
#
# Coordination Sequence:
#
# PCOD8237362 Si02
#       8
#     8   8   8   8   8   8   8   8
#     4  12  25  41  63  91 123 159 204 257 312 371
#     4   9  19  36  58  81 113 155 197 246 300 355
#     4  10  20  35  61  91 120 155 200 252 303 357
#     4  11  22  38  61  89 120 158 204 253 306 364
#     4  11  25  43  63  88 123 168 209 251 309 373
#     4  10  21  38  60  88 120 159 206 252 305 366
#     4  10  22  41  62  89 125 163 204 255 312 369
#     4  11  23  40  63  91 123 161 207 255 307 369
#
# _framework density 20.574657999999999
#
# number of rings (size 3 to 8) (size 9 to 14) (size 15 to 20)
#    0.000    1.500    1.250    3.750    0.000    7.500 
#    0.000    6.250    0.000    0.000    0.000    0.000 
#    0.000    0.000    0.000    0.000    0.000    0.000 
#
# Total GULP energy -793784.126657 kJ/mol
# GULP energy per Si atom -12402.876979 kJ/mol
# Density = 2.052783 g / cm^3
# Si number density = 20.574658 Si / 1000 Ang^3
#
#
#
# Elastic Constant Matrix: (Units=GPa)
#
#
# Indices 1 2 3 4 5 6 
#
# 1 44.7669 0.9137 17.8346 0.0000 0.0000 0.0000
# 2 0.9137 76.4735 16.1290 0.0000 0.0000 0.0000
# 3 17.8346 16.1290 61.5575 0.0000 0.0000 0.0000
# 4 0.0000 0.0000 0.0000 30.9164 0.0000 0.0000
# 5 0.0000 0.0000 0.0000 0.0000 20.8303 0.0000
# 6 0.0000 0.0000 0.0000 0.0000 0.0000 27.8497
#
#
#
# Elastic Compliance Matrix: (Units=1/GPa)
#
#
# Indices 1 2 3 4 5 6 
#
# 1 0.025378 0.001320 -0.007699 0.000000 0.000000 0.000000
# 2 0.001320 0.013910 -0.004027 0.000000 0.000000 0.000000
# 3 -0.007699 -0.004027 0.019531 0.000000 0.000000 0.000000
# 4 0.000000 0.000000 0.000000 0.032345 0.000000 0.000000
# 5 0.000000 0.000000 0.000000 0.000000 0.048007 0.000000
# 6 0.000000 0.000000 0.000000 0.000000 0.000000 0.035907
#
#
# Mechanical properties :
#
#
# Convention : Reuss Voigt Hill
#
# Bulk Modulus (GPa) = 26.31023 28.06141 27.18582
# Shear Modulus (GPa) = 23.97417 25.78066 24.87741
#
# Velocity S-wave (km/s) = 3.41725 3.54366 3.48103
# Velocity P-wave (km/s) = 5.32781 5.51469 5.42205
#
# Compressibility (1/GPa) = 0.03800803
#
# Stress axis : x y z
#
# Youngs Moduli (GPa) = 39.40425 71.89063 51.20171
#
# Poissons Ratio (x) = -0.09493 0.39418
# Poissons Ratio (y) = -0.05203 0.20620
# Poissons Ratio (z) = 0.30336 0.28952
#
# Static dielectric constant tensor:
#      x y z
#    x 3.813400 0.000000 0.000000 
#    y 0.000000 3.599810 0.000000 
#    z 0.000000 0.000000 3.760770 
# 
# 
# High freq. dielectric constant tensor:
#      x y z
#    x 1.809060 0.000000 0.000000 
#    y 0.000000 1.800100 0.000000 
#    z 0.000000 0.000000 1.811140 
# 
# From -- ./inp_files/4734.got.cif
#   From: 2010.06.25/outbox.cif.g09.slc.cpg/sg58_3_cif.got.tgz:4734.got - 2010.06.26 21:38:00.
