data_PCOD8237923
_publ_section_title
;
Structure prediction by ZEFSAII (Michael W. Deem and Ramdas Pophale) SiO2 
 PCOD8237923
Probable space group: P N N M
;
_chemical_formula_sum "Si O2"
_cell_formula_units_Z 40
_cell_length_a 7.503954
_cell_length_b 29.090227
_cell_length_c 9.060704
_cell_angle_alpha 90.000000
_cell_angle_beta 90.000000
_cell_angle_gamma 90.000000
_cell_volume 1977.876708
_symmetry_space_group_name_H-M "P N N M"
_symmetry_group_IT_number 58
_symmetry_cell_setting 'orthorhombic'
loop_
_space_group_symop_operation_xyz
x,y,z
-x,-y,z
1/2+x,1/2-y,1/2-z
1/2-x,1/2+y,1/2-z
-x,-y,-z
x,y,-z
1/2-x,1/2+y,1/2+z
1/2+x,1/2-y,1/2+z
loop_
_atom_site_type_symbol
_atom_site_label
_atom_site_fract_x
_atom_site_fract_y
_atom_site_fract_z
Si Si1 0.349592 0.603907 0.174402
Si Si2 0.453145 0.052008 0.828657
Si Si3 0.775886 0.118415 0.826028
Si Si4 0.296612 0.703514 0.160231
Si Si5 0.212363 0.791740 0.661362
O O1 0.222643 0.564114 0.235671
O O2 0.542059 0.601099 0.251680
O O3 0.245743 0.651929 0.211169
O O4 0.378964 0.598118 0.000000
O O5 0.621934 0.082811 0.783354
O O6 0.500000 0.000000 0.789920
O O7 0.406590 0.058595 0.000000
O O8 0.711137 0.168591 0.767532
O O9 0.807063 0.122040 0.000000
O O10 0.239190 0.740614 0.278538
O O11 0.506077 0.700822 0.142839
O O12 0.211572 0.715582 0.000000
O O13 0.304952 0.795137 0.500000
#
# Coordination Sequence:
#
# PCOD8237923 Si02
#       5
#     8   8   8   8   8
#     4  10  22  40  61  88 122 157 197 248 301 356
#     4  10  23  42  64  90 118 156 205 251 302 363
#     4  10  21  39  62  86 118 158 198 245 298 355
#     4   9  20  36  52  79 114 151 193 233 286 349
#     4  10  21  35  54  82 115 152 194 239 287 345
#
# _framework density 20.223706
#
# number of rings (size 3 to 8) (size 9 to 14) (size 15 to 20)
#    0.000    2.200    0.000    3.000    2.800    7.600 
#    0.000    4.000    0.000    0.000    0.000    0.000 
#    0.000    0.000    0.000    0.000    0.000    0.000 
#
# Total GULP energy -495907.593074 kJ/mol
# GULP energy per Si atom -12397.689827 kJ/mol
# Density = 2.017768 g / cm^3
# Si number density = 20.223706 Si / 1000 Ang^3
#
#
#
# Elastic Constant Matrix: (Units=GPa)
#
#
# Indices 1 2 3 4 5 6 
#
# 1 32.3057 -5.4169 11.2685 0.0000 0.0000 0.0000
# 2 -5.4169 63.3233 13.9154 0.0000 0.0000 0.0000
# 3 11.2685 13.9154 89.0751 0.0000 0.0000 0.0000
# 4 0.0000 0.0000 0.0000 28.9143 0.0000 0.0000
# 5 0.0000 0.0000 0.0000 0.0000 23.5372 0.0000
# 6 0.0000 0.0000 0.0000 0.0000 0.0000 24.9461
#
#
#
# Elastic Compliance Matrix: (Units=1/GPa)
#
#
# Indices 1 2 3 4 5 6 
#
# 1 0.033291 0.003908 -0.004822 0.000000 0.000000 0.000000
# 2 0.003908 0.016812 -0.003121 0.000000 0.000000 0.000000
# 3 -0.004822 -0.003121 0.012324 0.000000 0.000000 0.000000
# 4 0.000000 0.000000 0.000000 0.034585 0.000000 0.000000
# 5 0.000000 0.000000 0.000000 0.000000 0.042486 0.000000
# 6 0.000000 0.000000 0.000000 0.000000 0.000000 0.040086
#
#
# Mechanical properties :
#
#
# Convention : Reuss Voigt Hill
#
# Bulk Modulus (GPa) = 18.39685 24.91533 21.65609
# Shear Modulus (GPa) = 24.29848 26.47533 25.38690
#
# Velocity S-wave (km/s) = 3.47000 3.62211 3.54687
# Velocity P-wave (km/s) = 5.01707 5.46255 5.24454
#
# Compressibility (1/GPa) = 0.05435715
#
# Stress axis : x y z
#
# Youngs Moduli (GPa) = 30.03773 59.48119 81.14238
#
# Poissons Ratio (x) = -0.23242 0.39127
# Poissons Ratio (y) = -0.11737 0.25322
# Poissons Ratio (z) = 0.14484 0.18562
#
# Static dielectric constant tensor:
#      x y z
#    x 3.549350 0.000000 0.000000 
#    y 0.000000 17.381510 0.000000 
#    z 0.000000 0.000000 3.805390 
# 
# 
# High freq. dielectric constant tensor:
#      x y z
#    x 1.786280 0.000000 0.000000 
#    y 0.000000 1.791140 0.000000 
#    z 0.000000 0.000000 1.796770 
# 
# From -- ./inp_files/2605.got.cif
#   From: 2010.06.25/outbox.cif.g09.slc.cpg/sg58_2_cif.got.tgz:2605.got - 2010.06.26 21:38:00.
