data_PCOD8237367
_publ_section_title
;
Structure prediction by ZEFSAII (Michael W. Deem and Ramdas Pophale) SiO2 
 PCOD8237367
Probable space group: P N N M
;
_chemical_formula_sum "Si O2"
_cell_formula_units_Z 48
_cell_length_a 12.301355
_cell_length_b 21.863361
_cell_length_c 8.730112
_cell_angle_alpha 90.000000
_cell_angle_beta 90.000000
_cell_angle_gamma 90.000000
_cell_volume 2347.954588
_symmetry_space_group_name_H-M "P N N M"
_symmetry_group_IT_number 58
_symmetry_cell_setting 'orthorhombic'
loop_
_space_group_symop_operation_xyz
x,y,z
-x,-y,z
1/2+x,1/2-y,1/2-z
1/2-x,1/2+y,1/2-z
-x,-y,-z
x,y,-z
1/2-x,1/2+y,1/2+z
1/2+x,1/2-y,1/2+z
loop_
_atom_site_type_symbol
_atom_site_label
_atom_site_fract_x
_atom_site_fract_y
_atom_site_fract_z
Si Si1 0.368190 0.171657 0.179429
Si Si2 0.379107 0.506806 0.318113
Si Si3 0.866142 0.859733 0.178924
Si Si4 0.237983 0.395544 0.318358
Si Si5 0.987566 0.570294 0.181353
Si Si6 0.416593 0.298305 0.681641
O O1 0.239833 0.180422 0.215462
O O2 0.411590 0.110067 0.258575
O O3 0.423954 0.231867 0.244196
O O4 0.390801 0.165410 0.000000
O O5 0.500000 0.500000 0.252833
O O6 0.379239 0.499604 0.500000
O O7 0.338477 0.572526 0.259067
O O8 0.301182 0.454473 0.251463
O O9 0.976482 0.832201 0.249862
O O10 0.888866 0.865804 0.000000
O O11 0.223014 0.398297 0.500000
O O12 0.120250 0.395658 0.241759
O O13 0.307828 0.335483 0.271270
O O14 0.000000 0.500000 0.241181
O O15 0.985985 0.571303 0.000000
O O16 0.422905 0.291097 0.500000
#
# Coordination Sequence:
#
# PCOD8237367 Si02
#       6
#     8   8   8   8   8   8
#     4  11  24  40  61  89 119 157 207 251 295 361
#     4   9  14  27  54  88 118 145 186 239 292 345
#     4   9  18  34  57  85 117 151 191 242 295 351
#     4  10  20  35  62  94 125 159 200 249 300 364
#     4  11  25  44  64  87 121 163 205 255 317 370
#     4  10  21  38  59  89 125 160 196 243 306 363
#
# _framework density 20.443325999999999
#
# number of rings (size 3 to 8) (size 9 to 14) (size 15 to 20)
#    0.000    2.000    1.667    2.000    2.333    3.333 
#    0.000    0.833    0.000    1.500    0.000    0.000 
#    0.000    0.000    0.000    0.000    0.000    0.000 
#
# Total GULP energy -595055.708102 kJ/mol
# GULP energy per Si atom -12396.993919 kJ/mol
# Density = 2.039680 g / cm^3
# Si number density = 20.443326 Si / 1000 Ang^3
#
#
#
# Elastic Constant Matrix: (Units=GPa)
#
#
# Indices 1 2 3 4 5 6 
#
# 1 108.3396 39.7115 29.1460 0.0000 0.0000 0.0000
# 2 39.7115 135.3295 30.2783 0.0000 0.0000 0.0000
# 3 29.1460 30.2783 42.6435 0.0000 0.0000 0.0000
# 4 0.0000 0.0000 0.0000 24.6414 0.0000 0.0000
# 5 0.0000 0.0000 0.0000 0.0000 19.3957 0.0000
# 6 0.0000 0.0000 0.0000 0.0000 0.0000 32.4081
#
#
#
# Elastic Compliance Matrix: (Units=1/GPa)
#
#
# Indices 1 2 3 4 5 6 
#
# 1 0.011731 -0.001960 -0.006627 0.000000 0.000000 0.000000
# 2 -0.001960 0.009112 -0.005131 0.000000 0.000000 0.000000
# 3 -0.006627 -0.005131 0.031622 0.000000 0.000000 0.000000
# 4 0.000000 0.000000 0.000000 0.040582 0.000000 0.000000
# 5 0.000000 0.000000 0.000000 0.000000 0.051558 0.000000
# 6 0.000000 0.000000 0.000000 0.000000 0.000000 0.030856
#
#
# Mechanical properties :
#
#
# Convention : Reuss Voigt Hill
#
# Bulk Modulus (GPa) = 39.94898 53.84270 46.89584
# Shear Modulus (GPa) = 23.66974 27.76750 25.71862
#
# Velocity S-wave (km/s) = 3.40637 3.68947 3.55074
# Velocity P-wave (km/s) = 5.92072 6.67415 6.30869
#
# Compressibility (1/GPa) = 0.02503193
#
# Stress axis : x y z
#
# Youngs Moduli (GPa) = 85.24188 109.74078 31.62335
#
# Poissons Ratio (x) = 0.21508 0.20955
# Poissons Ratio (y) = 0.16706 0.16225
# Poissons Ratio (z) = 0.56486 0.56303
#
# Static dielectric constant tensor:
#      x y z
#    x 3.841220 0.000000 0.000000 
#    y 0.000000 3.863390 0.000000 
#    z 0.000000 0.000000 3.236940 
# 
# 
# High freq. dielectric constant tensor:
#      x y z
#    x 1.812440 0.000000 0.000000 
#    y 0.000000 1.810660 0.000000 
#    z 0.000000 0.000000 1.753610 
# 
# From -- ./inp_files/4199.got.cif
#   From: 2010.06.25/outbox.cif.g09.slc.cpg/sg58_3_cif.got.tgz:4199.got - 2010.06.26 21:38:00.
