data_PCOD8237080
_publ_section_title
;
Structure prediction by ZEFSAII (Michael W. Deem and Ramdas Pophale) SiO2 
 PCOD8237080
Probable space group: P N N M
;
_chemical_formula_sum "Si O2"
_cell_formula_units_Z 56
_cell_length_a 21.995686
_cell_length_b 14.741853
_cell_length_c 9.213529
_cell_angle_alpha 90.000000
_cell_angle_beta 90.000000
_cell_angle_gamma 90.000000
_cell_volume 2987.552836
_symmetry_space_group_name_H-M "P N N M"
_symmetry_group_IT_number 58
_symmetry_cell_setting 'orthorhombic'
loop_
_space_group_symop_operation_xyz
x,y,z
-x,-y,z
1/2+x,1/2-y,1/2-z
1/2-x,1/2+y,1/2-z
-x,-y,-z
x,y,-z
1/2-x,1/2+y,1/2+z
1/2+x,1/2-y,1/2+z
loop_
_atom_site_type_symbol
_atom_site_label
_atom_site_fract_x
_atom_site_fract_y
_atom_site_fract_z
Si Si1 0.773370 0.202592 0.329011
Si Si2 0.452677 0.923278 0.828013
Si Si3 0.612308 0.416351 0.172756
Si Si4 0.826345 0.558661 0.169439
Si Si5 0.747898 0.383458 0.170607
Si Si6 0.398372 0.383110 0.827572
Si Si7 0.513486 0.275944 0.172864
O O1 0.776402 0.218859 0.500000
O O2 0.713036 0.146739 0.286336
O O3 0.776327 0.297990 0.249961
O O4 0.832209 0.147716 0.274078
O O5 0.387760 0.943468 0.759618
O O6 0.477706 0.826560 0.771226
O O7 0.500000 0.000000 0.777301
O O8 0.444497 0.923415 0.000000
O O9 0.679993 0.398381 0.230803
O O10 0.589566 0.514621 0.228811
O O11 0.568031 0.338455 0.234119
O O12 0.612498 0.415857 0.000000
O O13 0.787944 0.470231 0.210607
O O14 0.842223 0.560380 0.000000
O O15 0.747406 0.365080 0.000000
O O16 0.450083 0.315672 0.765585
O O17 0.400809 0.382260 0.000000
O O18 0.513572 0.278108 0.000000
#
# Coordination Sequence:
#
# PCOD8237080 Si02
#       7
#     8   8   8   8   8   8   8
#     4  10  20  34  54  80 109 142 180 224 271 319
#     4  10  22  37  54  80 110 140 181 229 275 322
#     4   9  15  28  49  74 102 133 171 214 261 315
#     4  10  21  38  56  78 110 147 185 222 270 332
#     4  10  20  34  54  79 108 142 180 220 265 322
#     4   9  16  28  48  74 103 133 169 216 267 316
#     4   9  17  28  47  75 104 135 170 216 270 316
#
# _framework density 18.744439
#
# number of rings (size 3 to 8) (size 9 to 14) (size 15 to 20)
#    0.000    2.429    1.429    1.286    2.000    4.286 
#    0.000    0.000    0.000    0.000    0.000    0.000 
#    0.000    5.714    0.000    0.000    0.000    0.000 
#
# Total GULP energy -694374.904781 kJ/mol
# GULP energy per Si atom -12399.551871 kJ/mol
# Density = 1.870178 g / cm^3
# Si number density = 18.744439 Si / 1000 Ang^3
#
#
#
# Elastic Constant Matrix: (Units=GPa)
#
#
# Indices 1 2 3 4 5 6 
#
# 1 138.4252 61.7857 22.1013 0.0000 0.0000 0.0000
# 2 61.7857 148.3401 25.1875 0.0000 0.0000 0.0000
# 3 22.1013 25.1875 16.5470 0.0000 0.0000 0.0000
# 4 0.0000 0.0000 0.0000 22.1485 0.0000 0.0000
# 5 0.0000 0.0000 0.0000 0.0000 22.3963 0.0000
# 6 0.0000 0.0000 0.0000 0.0000 0.0000 30.3280
#
#
#
# Elastic Compliance Matrix: (Units=1/GPa)
#
#
# Indices 1 2 3 4 5 6 
#
# 1 0.009832 -0.002516 -0.009304 0.000000 0.000000 0.000000
# 2 -0.002516 0.009735 -0.011458 0.000000 0.000000 0.000000
# 3 -0.009304 -0.011458 0.090301 0.000000 0.000000 0.000000
# 4 0.000000 0.000000 0.000000 0.045150 0.000000 0.000000
# 5 0.000000 0.000000 0.000000 0.000000 0.044650 0.000000
# 6 0.000000 0.000000 0.000000 0.000000 0.000000 0.032973
#
#
# Mechanical properties :
#
#
# Convention : Reuss Voigt Hill
#
# Bulk Modulus (GPa) = 15.79426 57.94013 36.86720
# Shear Modulus (GPa) = 16.65008 27.92375 22.28692
#
# Velocity S-wave (km/s) = 2.98362 3.86386 3.45191
# Velocity P-wave (km/s) = 4.50707 7.13327 5.96646
#
# Compressibility (1/GPa) = 0.06331413
#
# Stress axis : x y z
#
# Youngs Moduli (GPa) = 101.70471 102.72737 11.07410
#
# Poissons Ratio (x) = 0.25842 0.10303
# Poissons Ratio (y) = 0.25585 0.12688
# Poissons Ratio (z) = 0.94622 1.17701
#
# Static dielectric constant tensor:
#      x y z
#    x 3.612150 0.000000 0.000000 
#    y 0.000000 3.689710 0.000000 
#    z 0.000000 0.000000 2.868230 
# 
# 
# High freq. dielectric constant tensor:
#      x y z
#    x 1.742070 0.000000 0.000000 
#    y 0.000000 1.746520 0.000000 
#    z 0.000000 0.000000 1.666970 
# 
# From -- ./inp_files/6261.got.cif
#   From: 2010.06.25/outbox.cif.g09.slc.cpg/sg58_4_cif.got.tgz:6261.got - 2010.06.26 21:38:00.
