data_PCOD8237729
_publ_section_title
;
Structure prediction by ZEFSAII (Michael W. Deem and Ramdas Pophale) SiO2 
 PCOD8237729
Probable space group: P N N M
;
_chemical_formula_sum "Si O2"
_cell_formula_units_Z 48
_cell_length_a 20.069331
_cell_length_b 14.322394
_cell_length_c 8.942871
_cell_angle_alpha 90.000000
_cell_angle_beta 90.000000
_cell_angle_gamma 90.000000
_cell_volume 2570.546584
_symmetry_space_group_name_H-M "P N N M"
_symmetry_group_IT_number 58
_symmetry_cell_setting 'orthorhombic'
loop_
_space_group_symop_operation_xyz
x,y,z
-x,-y,z
1/2+x,1/2-y,1/2-z
1/2-x,1/2+y,1/2-z
-x,-y,-z
x,y,-z
1/2-x,1/2+y,1/2+z
1/2+x,1/2-y,1/2+z
loop_
_atom_site_type_symbol
_atom_site_label
_atom_site_fract_x
_atom_site_fract_y
_atom_site_fract_z
Si Si1 0.808329 0.720658 0.173750
Si Si2 0.679698 0.841337 0.172942
Si Si3 0.926885 0.191779 0.670843
Si Si4 0.922266 0.833115 0.327602
Si Si5 0.768521 0.513331 0.174989
Si Si6 0.627185 0.511369 0.676374
O O1 0.741284 0.774997 0.216745
O O2 0.869640 0.758634 0.268288
O O3 0.798932 0.613025 0.217862
O O4 0.825283 0.732995 0.000000
O O5 0.611565 0.787006 0.209811
O O6 0.679522 0.933849 0.274545
O O7 0.683355 0.870663 0.000000
O O8 0.911022 0.161558 0.500000
O O9 0.901120 0.111074 0.778362
O O10 0.004745 0.210855 0.695430
O O11 0.907177 0.854013 0.500000
O O12 0.920318 0.930635 0.239818
O O13 0.700850 0.494234 0.262964
O O14 0.753419 0.507085 0.000000
O O15 0.628970 0.502838 0.500000
#
# Coordination Sequence:
#
# PCOD8237729 Si02
#       6
#     8   8   8   8   8   8
#     4  10  21  38  60  84 116 152 188 238 287 332
#     4  10  20  38  61  85 115 150 191 238 285 334
#     4  10  22  41  60  83 118 156 192 236 287 340
#     4  11  23  38  60  86 116 155 194 233 285 348
#     4  11  22  38  60  87 117 151 193 238 285 340
#     4  12  23  35  57  88 121 153 187 237 291 342
#
# _framework density 18.673072000000001
#
# number of rings (size 3 to 8) (size 9 to 14) (size 15 to 20)
#    0.000    1.333    3.333    3.000    0.000    5.333 
#    0.000    0.833    0.000    5.000    0.000    0.000 
#    0.000    0.000    0.000    0.000    0.000    0.000 
#
# Total GULP energy -595487.445368 kJ/mol
# GULP energy per Si atom -12405.988445 kJ/mol
# Density = 1.863057 g / cm^3
# Si number density = 18.673072 Si / 1000 Ang^3
#
#
#
# Elastic Constant Matrix: (Units=GPa)
#
#
# Indices 1 2 3 4 5 6 
#
# 1 60.8920 5.7336 26.4401 0.0000 0.0000 0.0000
# 2 5.7336 88.7273 37.6578 0.0000 0.0000 0.0000
# 3 26.4401 37.6578 89.7890 0.0000 0.0000 0.0000
# 4 0.0000 0.0000 0.0000 34.6741 0.0000 0.0000
# 5 0.0000 0.0000 0.0000 0.0000 20.2873 0.0000
# 6 0.0000 0.0000 0.0000 0.0000 0.0000 24.5764
#
#
#
# Elastic Compliance Matrix: (Units=1/GPa)
#
#
# Indices 1 2 3 4 5 6 
#
# 1 0.018971 0.001393 -0.006171 0.000000 0.000000 0.000000
# 2 0.001393 0.013813 -0.006204 0.000000 0.000000 0.000000
# 3 -0.006171 -0.006204 0.015556 0.000000 0.000000 0.000000
# 4 0.000000 0.000000 0.000000 0.028840 0.000000 0.000000
# 5 0.000000 0.000000 0.000000 0.000000 0.049292 0.000000
# 6 0.000000 0.000000 0.000000 0.000000 0.000000 0.040689
#
#
# Mechanical properties :
#
#
# Convention : Reuss Voigt Hill
#
# Bulk Modulus (GPa) = 37.91045 42.11903 40.01474
# Shear Modulus (GPa) = 25.26319 27.21267 26.23793
#
# Velocity S-wave (km/s) = 3.68220 3.82163 3.75256
# Velocity P-wave (km/s) = 6.19874 6.48677 6.34439
#
# Compressibility (1/GPa) = 0.02637795
#
# Stress axis : x y z
#
# Youngs Moduli (GPa) = 52.71290 72.39347 64.28366
#
# Poissons Ratio (x) = -0.10084 0.39666
# Poissons Ratio (y) = -0.07343 0.39879
# Poissons Ratio (z) = 0.32527 0.44910
#
# Static dielectric constant tensor:
#      x y z
#    x 3.444030 0.000000 0.000000 
#    y 0.000000 3.473220 0.000000 
#    z 0.000000 0.000000 3.444740 
# 
# 
# High freq. dielectric constant tensor:
#      x y z
#    x 1.721300 0.000000 0.000000 
#    y 0.000000 1.726840 0.000000 
#    z 0.000000 0.000000 1.728600 
# 
# From -- ./inp_files/5743.got.cif
#   From: 2010.06.25/outbox.cif.g09.slc.cpg/sg58_3_cif.got.tgz:5743.got - 2010.06.26 21:38:00.
