data_PCOD8237078
_publ_section_title
;
Structure prediction by ZEFSAII (Michael W. Deem and Ramdas Pophale) SiO2 
 PCOD8237078
Probable space group: P N N M
;
_chemical_formula_sum "Si O2"
_cell_formula_units_Z 48
_cell_length_a 16.883932
_cell_length_b 11.576316
_cell_length_c 13.455212
_cell_angle_alpha 90.000000
_cell_angle_beta 90.000000
_cell_angle_gamma 90.000000
_cell_volume 2629.871402
_symmetry_space_group_name_H-M "P N N M"
_symmetry_group_IT_number 58
_symmetry_cell_setting 'orthorhombic'
loop_
_space_group_symop_operation_xyz
x,y,z
-x,-y,z
1/2+x,1/2-y,1/2-z
1/2-x,1/2+y,1/2-z
-x,-y,-z
x,y,-z
1/2-x,1/2+y,1/2+z
1/2+x,1/2-y,1/2+z
loop_
_atom_site_type_symbol
_atom_site_label
_atom_site_fract_x
_atom_site_fract_y
_atom_site_fract_z
Si Si1 0.250483 0.873562 0.384451
Si Si2 0.863933 0.793120 0.204955
Si Si3 0.845394 0.065468 0.791172
Si Si4 0.784964 0.707500 0.389328
Si Si5 0.340878 0.091241 0.389081
Si Si6 0.534153 0.733753 0.619118
O O1 0.229160 0.890626 0.500000
O O2 0.291742 0.750487 0.364877
O O3 0.169842 0.885849 0.320680
O O4 0.311584 0.971423 0.340587
O O5 0.856885 0.731687 0.313069
O O6 0.945284 0.753523 0.155526
O O7 0.857908 0.929622 0.211370
O O8 0.769245 0.098268 0.858630
O O9 0.925714 0.119933 0.834528
O O10 0.819187 0.686241 0.500000
O O11 0.731606 0.820985 0.386000
O O12 0.365329 0.058306 0.500000
O O13 0.417883 0.152871 0.340920
O O14 0.538690 0.723599 0.500000
#
# Coordination Sequence:
#
# PCOD8237078 Si02
#       6
#     8   8   8   8   8   8
#     4  10  20  34  55  81 106 135 178 225 259 299
#     4  11  21  32  52  84 108 136 177 220 263 313
#     4  10  20  34  54  78 106 140 176 213 260 316
#     4   9  18  34  54  73 100 143 182 213 253 309
#     4   8  15  32  54  72  97 135 171 208 256 304
#     4  10  21  35  53  78 110 141 170 212 270 322
#
# _framework density 18.251843999999998
#
# number of rings (size 3 to 8) (size 9 to 14) (size 15 to 20)
#    0.000    2.333    1.667    2.500    0.000    4.000 
#    0.000    3.333    0.000    2.000    0.000    2.333 
#    0.000    0.000    0.000    0.000    0.000    0.000 
#
# Total GULP energy -594859.450530 kJ/mol
# GULP energy per Si atom -12392.905219 kJ/mol
# Density = 1.821030 g / cm^3
# Si number density = 18.251844 Si / 1000 Ang^3
#
#
#
# Elastic Constant Matrix: (Units=GPa)
#
#
# Indices 1 2 3 4 5 6 
#
# 1 57.4109 4.2462 29.7425 0.0000 0.0000 0.0000
# 2 4.2462 13.9017 14.8721 0.0000 0.0000 0.0000
# 3 29.7425 14.8721 114.4749 0.0000 0.0000 0.0000
# 4 0.0000 0.0000 0.0000 18.0266 0.0000 0.0000
# 5 0.0000 0.0000 0.0000 0.0000 31.1008 0.0000
# 6 0.0000 0.0000 0.0000 0.0000 0.0000 20.9169
#
#
#
# Elastic Compliance Matrix: (Units=1/GPa)
#
#
# Indices 1 2 3 4 5 6 
#
# 1 0.020132 -0.000643 -0.005147 0.000000 0.000000 0.000000
# 2 -0.000643 0.083565 -0.010689 0.000000 0.000000 0.000000
# 3 -0.005147 -0.010689 0.011462 0.000000 0.000000 0.000000
# 4 0.000000 0.000000 0.000000 0.055473 0.000000 0.000000
# 5 0.000000 0.000000 0.000000 0.000000 0.032154 0.000000
# 6 0.000000 0.000000 0.000000 0.000000 0.000000 0.047808
#
#
# Mechanical properties :
#
#
# Convention : Reuss Voigt Hill
#
# Bulk Modulus (GPa) = 12.16539 31.50100 21.83319
# Shear Modulus (GPa) = 16.07955 23.13729 19.60842
#
# Velocity S-wave (km/s) = 2.97135 3.56430 3.28125
# Velocity P-wave (km/s) = 4.29554 5.85111 5.13260
#
# Compressibility (1/GPa) = 0.08220039
#
# Stress axis : x y z
#
# Youngs Moduli (GPa) = 49.67106 11.96668 87.24790
#
# Poissons Ratio (x) = 0.00769 0.44908
# Poissons Ratio (y) = 0.03193 0.93263
# Poissons Ratio (z) = 0.25567 0.12792
#
# Static dielectric constant tensor:
#      x y z
#    x 3.231600 0.000000 0.000000 
#    y 0.000000 3.459590 0.000000 
#    z 0.000000 0.000000 3.500800 
# 
# 
# High freq. dielectric constant tensor:
#      x y z
#    x 1.679640 0.000000 0.000000 
#    y 0.000000 1.714370 0.000000 
#    z 0.000000 0.000000 1.700080 
# 
# From -- ./inp_files/21338.got.cif
#   From: 2010.06.25/outbox.cif.g09.slc.cpg/sg58_11_cif.got.tgz:21338.got - 2010.06.26 21:38:00.
