data_PCOD8237165
_publ_section_title
;
Structure prediction by ZEFSAII (Michael W. Deem and Ramdas Pophale) SiO2 
 PCOD8237165
Probable space group: P N N M
;
_chemical_formula_sum "Si O2"
_cell_formula_units_Z 64
_cell_length_a 20.847806
_cell_length_b 9.417635
_cell_length_c 16.515205
_cell_angle_alpha 90.000000
_cell_angle_beta 90.000000
_cell_angle_gamma 90.000000
_cell_volume 3242.546258
_symmetry_space_group_name_H-M "P N N M"
_symmetry_group_IT_number 58
_symmetry_cell_setting 'orthorhombic'
loop_
_space_group_symop_operation_xyz
x,y,z
-x,-y,z
1/2+x,1/2-y,1/2-z
1/2-x,1/2+y,1/2-z
-x,-y,-z
x,y,-z
1/2-x,1/2+y,1/2+z
1/2+x,1/2-y,1/2+z
loop_
_atom_site_type_symbol
_atom_site_label
_atom_site_fract_x
_atom_site_fract_y
_atom_site_fract_z
Si Si1 0.740533 0.226868 0.406027
Si Si2 0.813393 0.452161 0.327750
Si Si3 0.270668 0.558388 0.818289
Si Si4 0.407359 0.399704 0.408889
Si Si5 0.261658 0.315425 0.589593
Si Si6 0.572688 0.052026 0.259705
Si Si7 0.436570 0.094483 0.588061
Si Si8 0.625159 0.349448 0.697432
O O1 0.730092 0.186621 0.500000
O O2 0.799041 0.340954 0.399620
O O3 0.763399 0.100398 0.349303
O O4 0.675572 0.295740 0.370395
O O5 0.784844 0.393716 0.243797
O O6 0.775341 0.596820 0.342904
O O7 0.888295 0.491961 0.317629
O O8 0.260430 0.654156 0.897564
O O9 0.339654 0.581413 0.775038
O O10 0.419186 0.458057 0.500000
O O11 0.336785 0.335786 0.398168
O O12 0.452595 0.260994 0.392327
O O13 0.418817 0.528849 0.345844
O O14 0.240817 0.363649 0.500000
O O15 0.579749 0.221747 0.270475
O O16 0.500000 0.000000 0.248111
O O17 0.604349 0.977609 0.340010
O O18 0.400939 0.086857 0.500000
O O19 0.500000 0.000000 0.583619
#
# Coordination Sequence:
#
# PCOD8237165 Si02
#       8
#     8   8   8   8   8   8   8   8
#     4  11  22  35  58  92 127 159 195 251 326 382
#     4  11  20  37  57  85 122 158 199 255 304 367
#     4  11  20  34  56  88 123 153 188 249 314 368
#     4  10  20  34  58  87 121 159 197 243 303 364
#     4  11  20  33  54  87 122 154 191 241 312 375
#     4  11  23  41  61  83 117 164 212 253 296 361
#     4   9  20  38  59  84 116 159 207 249 291 348
#     4  11  22  36  57  89 124 158 202 252 308 370
#
# _framework density 19.737575
#
# number of rings (size 3 to 8) (size 9 to 14) (size 15 to 20)
#    0.000    1.375    5.000    2.625    1.750    1.000 
#    0.000    2.500    0.000    8.250    0.000    0.875 
#    0.000    0.000    0.000    0.000    0.000    0.000 
#
# Total GULP energy -793063.375518 kJ/mol
# GULP energy per Si atom -12391.615242 kJ/mol
# Density = 1.969265 g / cm^3
# Si number density = 19.737575 Si / 1000 Ang^3
#
#
#
# Elastic Constant Matrix: (Units=GPa)
#
#
# Indices 1 2 3 4 5 6 
#
# 1 62.5899 32.6984 19.5665 0.0000 0.0000 0.0000
# 2 32.6984 118.4716 20.2855 0.0000 0.0000 0.0000
# 3 19.5665 20.2855 58.1075 0.0000 0.0000 0.0000
# 4 0.0000 0.0000 0.0000 22.2379 0.0000 0.0000
# 5 0.0000 0.0000 0.0000 0.0000 12.1946 0.0000
# 6 0.0000 0.0000 0.0000 0.0000 0.0000 33.7981
#
#
#
# Elastic Compliance Matrix: (Units=1/GPa)
#
#
# Indices 1 2 3 4 5 6 
#
# 1 0.020002 -0.004645 -0.005114 0.000000 0.000000 0.000000
# 2 -0.004645 0.010056 -0.001947 0.000000 0.000000 0.000000
# 3 -0.005114 -0.001947 0.019611 0.000000 0.000000 0.000000
# 4 0.000000 0.000000 0.000000 0.044968 0.000000 0.000000
# 5 0.000000 0.000000 0.000000 0.000000 0.082003 0.000000
# 6 0.000000 0.000000 0.000000 0.000000 0.000000 0.029587
#
#
# Mechanical properties :
#
#
# Convention : Reuss Voigt Hill
#
# Bulk Modulus (GPa) = 38.08246 42.69663 40.38955
# Shear Modulus (GPa) = 20.97384 24.75403 22.86394
#
# Velocity S-wave (km/s) = 3.26334 3.54525 3.40721
# Velocity P-wave (km/s) = 5.79099 6.19980 5.99888
#
# Compressibility (1/GPa) = 0.02625881
#
# Stress axis : x y z
#
# Youngs Moduli (GPa) = 49.99412 99.44129 50.99182
#
# Poissons Ratio (x) = 0.46191 0.26076
# Poissons Ratio (y) = 0.23223 0.09926
# Poissons Ratio (z) = 0.25566 0.19356
#
# Static dielectric constant tensor:
#      x y z
#    x 3.290550 0.000000 0.000000 
#    y 0.000000 3.841110 0.000000 
#    z 0.000000 0.000000 3.876380 
# 
# 
# High freq. dielectric constant tensor:
#      x y z
#    x 1.729420 0.000000 0.000000 
#    y 0.000000 1.790350 0.000000 
#    z 0.000000 0.000000 1.758040 
# 
# From -- ./inp_files/27566.got.cif
#   From: 2010.06.25/outbox.cif.g09.slc.cpg/sg58_14_cif.got.tgz:27566.got - 2010.06.26 21:38:00.
