data_PCOD8237269
_publ_section_title
;
Structure prediction by ZEFSAII (Michael W. Deem and Ramdas Pophale) SiO2 
 PCOD8237269
Probable space group: P N N M
;
_chemical_formula_sum "Si O2"
_cell_formula_units_Z 64
_cell_length_a 11.027327
_cell_length_b 34.620540
_cell_length_c 8.808844
_cell_angle_alpha 90.000000
_cell_angle_beta 90.000000
_cell_angle_gamma 90.000000
_cell_volume 3362.970128
_symmetry_space_group_name_H-M "P N N M"
_symmetry_group_IT_number 58
_symmetry_cell_setting 'orthorhombic'
loop_
_space_group_symop_operation_xyz
x,y,z
-x,-y,z
1/2+x,1/2-y,1/2-z
1/2-x,1/2+y,1/2-z
-x,-y,-z
x,y,-z
1/2-x,1/2+y,1/2+z
1/2+x,1/2-y,1/2+z
loop_
_atom_site_type_symbol
_atom_site_label
_atom_site_fract_x
_atom_site_fract_y
_atom_site_fract_z
Si Si1 0.352970 0.725346 0.679934
Si Si2 0.628504 0.729855 0.674334
Si Si3 0.884514 0.140186 0.825809
Si Si4 0.858898 0.004251 0.169599
Si Si5 0.756302 0.425991 0.671963
Si Si6 0.744436 0.075274 0.324024
Si Si7 0.981334 0.543866 0.329304
Si Si8 0.366762 0.643347 0.177362
O O1 0.353398 0.724750 0.500000
O O2 0.489573 0.739699 0.732744
O O3 0.238538 0.750525 0.734369
O O4 0.329736 0.682230 0.736741
O O5 0.640712 0.742765 0.500000
O O6 0.651791 0.684547 0.694930
O O7 0.774407 0.113902 0.769562
O O8 0.000285 0.129169 0.724988
O O9 0.915565 0.130942 0.000000
O O10 0.830685 0.040057 0.277070
O O11 0.803010 0.965072 0.238543
O O12 0.804408 0.011086 0.000000
O O13 0.000000 0.000000 0.159975
O O14 0.709259 0.418481 0.500000
O O15 0.899320 0.430678 0.675034
O O16 0.726736 0.390088 0.779032
O O17 0.761033 0.084132 0.500000
O O18 0.607263 0.064369 0.287947
O O19 0.926943 0.543266 0.500000
O O20 0.000000 0.500000 0.273952
O O21 0.361247 0.651538 0.000000
#
# Coordination Sequence:
#
# PCOD8237269 Si02
#       8
#     8   8   8   8   8   8   8   8
#     4  10  21  39  64  92 124 162 199 238 292 360
#     4   9  20  39  63  92 121 154 197 245 294 347
#     4  10  21  40  63  85 116 155 196 237 286 348
#     4  10  20  35  57  81 107 145 189 235 283 340
#     4  10  20  36  58  82 110 149 196 237 282 344
#     4  12  24  36  55  84 116 147 187 239 294 343
#     4  10  20  39  61  78 105 152 201 238 283 347
#     4  11  22  37  60  89 122 152 187 239 293 341
#
# _framework density 19.030797
#
# number of rings (size 3 to 8) (size 9 to 14) (size 15 to 20)
#    0.000    1.750    1.250    4.500    0.000    5.500 
#    2.250    0.000    0.000    0.000    0.000    0.000 
#    0.000    0.000    0.000    0.000    0.000    0.000 
#
# Total GULP energy -793565.054967 kJ/mol
# GULP energy per Si atom -12399.453984 kJ/mol
# Density = 1.898748 g / cm^3
# Si number density = 19.030797 Si / 1000 Ang^3
#
#
#
# Elastic Constant Matrix: (Units=GPa)
#
#
# Indices 1 2 3 4 5 6 
#
# 1 112.5042 54.1502 41.6577 0.0000 0.0000 0.0000
# 2 54.1502 89.7138 43.1106 0.0000 0.0000 0.0000
# 3 41.6577 43.1106 79.4683 0.0000 0.0000 0.0000
# 4 0.0000 0.0000 0.0000 36.8944 0.0000 0.0000
# 5 0.0000 0.0000 0.0000 0.0000 33.1740 0.0000
# 6 0.0000 0.0000 0.0000 0.0000 0.0000 32.4346
#
#
#
# Elastic Compliance Matrix: (Units=1/GPa)
#
#
# Indices 1 2 3 4 5 6 
#
# 1 0.013217 -0.006287 -0.003518 0.000000 0.000000 0.000000
# 2 -0.006287 0.018068 -0.006506 0.000000 0.000000 0.000000
# 3 -0.003518 -0.006506 0.017957 0.000000 0.000000 0.000000
# 4 0.000000 0.000000 0.000000 0.027104 0.000000 0.000000
# 5 0.000000 0.000000 0.000000 0.000000 0.030144 0.000000
# 6 0.000000 0.000000 0.000000 0.000000 0.000000 0.030831
#
#
# Mechanical properties :
#
#
# Convention : Reuss Voigt Hill
#
# Bulk Modulus (GPa) = 60.16718 62.16927 61.16822
# Shear Modulus (GPa) = 28.49270 30.01845 29.25558
#
# Velocity S-wave (km/s) = 3.87355 3.97591 3.92506
# Velocity P-wave (km/s) = 7.18959 7.33592 7.26313
#
# Compressibility (1/GPa) = 0.01662036
#
# Stress axis : x y z
#
# Youngs Moduli (GPa) = 75.65810 55.34722 55.68892
#
# Poissons Ratio (x) = 0.34799 0.19590
# Poissons Ratio (y) = 0.47570 0.36229
# Poissons Ratio (z) = 0.26615 0.36007
#
# Static dielectric constant tensor:
#      x y z
#    x 3.547430 0.000000 0.000000 
#    y 0.000000 3.429030 0.000000 
#    z 0.000000 0.000000 3.461700 
# 
# 
# High freq. dielectric constant tensor:
#      x y z
#    x 1.745980 0.000000 0.000000 
#    y 0.000000 1.736850 0.000000 
#    z 0.000000 0.000000 1.733700 
# 
# From -- ./inp_files/4716.got.cif
#   From: 2010.06.25/outbox.cif.g09.slc.cpg/sg58_3_cif.got.tgz:4716.got - 2010.06.26 21:38:00.
