data_PCOD8237588
_publ_section_title
;
Structure prediction by ZEFSAII (Michael W. Deem and Ramdas Pophale) SiO2 
 PCOD8237588
Probable space group: P N N M
;
_chemical_formula_sum "Si O2"
_cell_formula_units_Z 32
_cell_length_a 13.031817
_cell_length_b 15.436836
_cell_length_c 7.712180
_cell_angle_alpha 90.000000
_cell_angle_beta 90.000000
_cell_angle_gamma 90.000000
_cell_volume 1551.459419
_symmetry_space_group_name_H-M "P N N M"
_symmetry_group_IT_number 58
_symmetry_cell_setting 'orthorhombic'
loop_
_space_group_symop_operation_xyz
x,y,z
-x,-y,z
1/2+x,1/2-y,1/2-z
1/2-x,1/2+y,1/2-z
-x,-y,-z
x,y,-z
1/2-x,1/2+y,1/2+z
1/2+x,1/2-y,1/2+z
loop_
_atom_site_type_symbol
_atom_site_label
_atom_site_fract_x
_atom_site_fract_y
_atom_site_fract_z
Si Si1 0.471277 0.593633 0.299697
Si Si2 0.524834 0.136878 0.000000
Si Si3 0.069703 0.733903 0.802296
Si Si4 0.334734 0.011326 0.000000
Si Si5 0.251301 0.611278 0.805756
O O1 0.500000 0.500000 0.218092
O O2 0.443374 0.581024 0.500000
O O3 0.565041 0.661781 0.274144
O O4 0.371406 0.634008 0.205940
O O5 0.514527 0.192697 0.174740
O O6 0.437920 0.065133 0.000000
O O7 0.636421 0.090603 0.000000
O O8 0.183503 0.696967 0.759414
O O9 0.038110 0.711300 0.000000
O O10 0.270860 0.032828 0.826606
O O11 0.223860 0.580244 0.000000
#
# Coordination Sequence:
#
# PCOD8237588 Si02
#       5
#     8   4   8   4   8
#     4  10  21  40  61  85 120 157 194 243 293 346
#     4   9  18  34  61  84 110 157 191 236 296 346
#     4   9  20  38  58  85 117 151 195 244 291 346
#     4   9  18  36  57  84 120 149 189 240 292 349
#     4  10  20  37  59  84 119 155 192 241 292 347
#
# _framework density 20.625741999999999
#
# number of rings (size 3 to 8) (size 9 to 14) (size 15 to 20)
#    0.000    2.500    1.250    0.000    1.750    1.500 
#    4.500    5.000    0.000    0.000    0.000    0.000 
#    0.000    0.000    0.000    0.000    0.000    0.000 
#
# Total GULP energy -396605.269436 kJ/mol
# GULP energy per Si atom -12393.914670 kJ/mol
# Density = 2.057880 g / cm^3
# Si number density = 20.625742 Si / 1000 Ang^3
#
#
#
# Elastic Constant Matrix: (Units=GPa)
#
#
# Indices 1 2 3 4 5 6 
#
# 1 99.0522 62.6573 30.9741 0.0000 0.0000 0.0000
# 2 62.6573 129.8657 45.7522 0.0000 0.0000 0.0000
# 3 30.9741 45.7522 107.0366 0.0000 0.0000 0.0000
# 4 0.0000 0.0000 0.0000 21.2738 0.0000 0.0000
# 5 0.0000 0.0000 0.0000 0.0000 20.0886 0.0000
# 6 0.0000 0.0000 0.0000 0.0000 0.0000 28.4199
#
#
#
# Elastic Compliance Matrix: (Units=1/GPa)
#
#
# Indices 1 2 3 4 5 6 
#
# 1 0.014717 -0.006593 -0.001441 0.000000 0.000000 0.000000
# 2 -0.006593 0.012019 -0.003230 0.000000 0.000000 0.000000
# 3 -0.001441 -0.003230 0.011140 0.000000 0.000000 0.000000
# 4 0.000000 0.000000 0.000000 0.047006 0.000000 0.000000
# 5 0.000000 0.000000 0.000000 0.000000 0.049780 0.000000
# 6 0.000000 0.000000 0.000000 0.000000 0.000000 0.035187
#
#
# Mechanical properties :
#
#
# Convention : Reuss Voigt Hill
#
# Bulk Modulus (GPa) = 65.14919 68.30240 66.72580
# Shear Modulus (GPa) = 25.31767 27.06119 26.18943
#
# Velocity S-wave (km/s) = 3.50734 3.62610 3.56721
# Velocity P-wave (km/s) = 6.93230 7.12169 7.02763
#
# Compressibility (1/GPa) = 0.01534938
#
# Stress axis : x y z
#
# Youngs Moduli (GPa) = 67.95028 83.20162 89.76702
#
# Poissons Ratio (x) = 0.54854 0.12932
# Poissons Ratio (y) = 0.44799 0.28991
# Poissons Ratio (z) = 0.09789 0.26871
#
# Static dielectric constant tensor:
#      x y z
#    x 3.603920 0.000000 0.000000 
#    y 0.000000 3.798260 0.000000 
#    z 0.000000 0.000000 3.815960 
# 
# 
# High freq. dielectric constant tensor:
#      x y z
#    x 1.787730 0.000000 0.000000 
#    y 0.000000 1.789790 0.000000 
#    z 0.000000 0.000000 1.813540 
# 
# From -- ./inp_files/3522.got.cif
#   From: 2010.06.25/outbox.cif.g09.slc.cpg/sg58_2_cif.got.tgz:3522.got - 2010.06.26 21:38:00.
