data_PCOD8237568
_publ_section_title
;
Structure prediction by ZEFSAII (Michael W. Deem and Ramdas Pophale) SiO2 
 PCOD8237568
Probable space group: P N N M
;
_chemical_formula_sum "Si O2"
_cell_formula_units_Z 48
_cell_length_a 27.290040
_cell_length_b 9.882019
_cell_length_c 9.523664
_cell_angle_alpha 90.000000
_cell_angle_beta 90.000000
_cell_angle_gamma 90.000000
_cell_volume 2568.348315
_symmetry_space_group_name_H-M "P N N M"
_symmetry_group_IT_number 58
_symmetry_cell_setting 'orthorhombic'
loop_
_space_group_symop_operation_xyz
x,y,z
-x,-y,z
1/2+x,1/2-y,1/2-z
1/2-x,1/2+y,1/2-z
-x,-y,-z
x,y,-z
1/2-x,1/2+y,1/2+z
1/2+x,1/2-y,1/2+z
loop_
_atom_site_type_symbol
_atom_site_label
_atom_site_fract_x
_atom_site_fract_y
_atom_site_fract_z
Si Si1 0.290967 0.234457 0.336096
Si Si2 0.677906 0.266810 0.162245
Si Si3 0.536494 0.619828 0.663390
Si Si4 0.643075 0.515801 0.663531
Si Si5 0.854405 0.468252 0.662860
Si Si6 0.036885 0.618388 0.664173
O O1 0.299020 0.205261 0.500000
O O2 0.234467 0.244820 0.293749
O O3 0.315443 0.376601 0.293666
O O4 0.314495 0.111960 0.251520
O O5 0.650690 0.379024 0.252137
O O6 0.651085 0.126419 0.194956
O O7 0.673036 0.306968 0.000000
O O8 0.500000 0.500000 0.703944
O O9 0.533041 0.657038 0.500000
O O10 0.591082 0.577787 0.706558
O O11 0.520370 0.749774 0.751467
O O12 0.645009 0.479510 0.500000
O O13 0.844282 0.437421 0.500000
O O14 0.908569 0.424602 0.708747
O O15 0.033478 0.651083 0.500000
O O16 0.000000 0.500000 0.707130
#
# Coordination Sequence:
#
# PCOD8237568 Si02
#       6
#     8   8   8   8   8   8
#     4  10  20  37  58  81 111 148 190 234 280 329
#     4  10  22  36  55  84 114 147 189 233 277 331
#     4  10  22  40  61  86 114 147 187 231 281 336
#     4  10  21  38  58  82 115 149 186 232 280 333
#     4  10  21  38  58  82 115 150 187 231 279 333
#     4  10  22  39  60  87 115 147 187 231 281 336
#
# _framework density 18.689055
#
# number of rings (size 3 to 8) (size 9 to 14) (size 15 to 20)
#    0.000    2.000    1.667    1.000    2.333    4.667 
#    0.000    0.000    0.000    0.000    0.000    0.000 
#    0.000    0.000    0.000    0.000    0.000    0.000 
#
# Total GULP energy -595484.697731 kJ/mol
# GULP energy per Si atom -12405.931203 kJ/mol
# Density = 1.864652 g / cm^3
# Si number density = 18.689055 Si / 1000 Ang^3
#
#
#
# Elastic Constant Matrix: (Units=GPa)
#
#
# Indices 1 2 3 4 5 6 
#
# 1 83.6752 52.9333 35.7992 0.0000 0.0000 0.0000
# 2 52.9333 137.4026 63.2216 0.0000 0.0000 0.0000
# 3 35.7992 63.2216 54.3024 0.0000 0.0000 0.0000
# 4 0.0000 0.0000 0.0000 21.1809 0.0000 0.0000
# 5 0.0000 0.0000 0.0000 0.0000 26.1366 0.0000
# 6 0.0000 0.0000 0.0000 0.0000 0.0000 33.1843
#
#
#
# Elastic Compliance Matrix: (Units=1/GPa)
#
#
# Indices 1 2 3 4 5 6 
#
# 1 0.017215 -0.003037 -0.007813 0.000000 0.000000 0.000000
# 2 -0.003037 0.016210 -0.016871 0.000000 0.000000 0.000000
# 3 -0.007813 -0.016871 0.043209 0.000000 0.000000 0.000000
# 4 0.000000 0.000000 0.000000 0.047212 0.000000 0.000000
# 5 0.000000 0.000000 0.000000 0.000000 0.038260 0.000000
# 6 0.000000 0.000000 0.000000 0.000000 0.000000 0.030135
#
#
# Mechanical properties :
#
#
# Convention : Reuss Voigt Hill
#
# Bulk Modulus (GPa) = 47.18890 64.36537 55.77714
# Shear Modulus (GPa) = 19.62723 24.32876 21.97800
#
# Velocity S-wave (km/s) = 3.24419 3.61191 3.43298
# Velocity P-wave (km/s) = 6.27195 7.20482 6.75451
#
# Compressibility (1/GPa) = 0.02119142
#
# Stress axis : x y z
#
# Youngs Moduli (GPa) = 58.08908 61.68848 23.14352
#
# Poissons Ratio (x) = 0.18734 0.18083
# Poissons Ratio (y) = 0.17640 0.39046
# Poissons Ratio (z) = 0.45388 1.04075
#
# Static dielectric constant tensor:
#      x y z
#    x 3.578740 0.000000 0.000000 
#    y 0.000000 3.399110 0.000000 
#    z 0.000000 0.000000 3.345850 
# 
# 
# High freq. dielectric constant tensor:
#      x y z
#    x 1.738130 0.000000 0.000000 
#    y 0.000000 1.733820 0.000000 
#    z 0.000000 0.000000 1.718680 
# 
# From -- ./inp_files/2912.got.cif
#   From: 2010.06.25/outbox.cif.g09.slc.cpg/sg58_2_cif.got.tgz:2912.got - 2010.06.26 21:38:00.
