data_PCOD8237758
_publ_section_title
;
Structure prediction by ZEFSAII (Michael W. Deem and Ramdas Pophale) SiO2 
 PCOD8237758
Probable space group: P N N M
;
_chemical_formula_sum "Si O2"
_cell_formula_units_Z 48
_cell_length_a 20.141129
_cell_length_b 13.796094
_cell_length_c 9.236849
_cell_angle_alpha 90.000000
_cell_angle_beta 90.000000
_cell_angle_gamma 90.000000
_cell_volume 2566.633154
_symmetry_space_group_name_H-M "P N N M"
_symmetry_group_IT_number 58
_symmetry_cell_setting 'orthorhombic'
loop_
_space_group_symop_operation_xyz
x,y,z
-x,-y,z
1/2+x,1/2-y,1/2-z
1/2-x,1/2+y,1/2-z
-x,-y,-z
x,y,-z
1/2-x,1/2+y,1/2+z
1/2+x,1/2-y,1/2+z
loop_
_atom_site_type_symbol
_atom_site_label
_atom_site_fract_x
_atom_site_fract_y
_atom_site_fract_z
Si Si1 0.438000 0.069866 0.161073
Si Si2 0.064700 0.944531 0.835500
Si Si3 0.690593 0.050769 0.169059
Si Si4 0.495869 0.238928 0.664396
Si Si5 0.315948 0.534465 0.170479
Si Si6 0.133563 0.244780 0.669199
O O1 0.449737 0.154900 0.273610
O O2 0.500000 0.000000 0.161528
O O3 0.374820 0.008539 0.210716
O O4 0.427511 0.113121 0.000000
O O5 0.051427 0.831242 0.826282
O O6 0.124666 0.969897 0.731004
O O7 0.081540 0.977081 0.000000
O O8 0.000000 0.000000 0.778449
O O9 0.678823 0.163178 0.212845
O O10 0.748773 0.004366 0.261185
O O11 0.708238 0.042622 0.000000
O O12 0.515411 0.214733 0.500000
O O13 0.563596 0.253890 0.750461
O O14 0.326439 0.647541 0.210868
O O15 0.312538 0.519680 0.000000
O O16 0.116313 0.249031 0.500000
#
# Coordination Sequence:
#
# PCOD8237758 Si02
#       6
#     8   8   8   8   8   8
#     4  10  20  38  62  87 118 157 199 238 291 358
#     4  10  21  39  60  85 119 157 197 238 293 359
#     4  10  22  41  63  84 118 164 197 235 296 365
#     4  11  22  35  60  93 121 153 196 251 296 341
#     4  11  24  39  61  91 121 153 198 255 297 344
#     4  10  21  40  62  84 115 158 200 241 299 359
#
# _framework density 18.701542
#
# number of rings (size 3 to 8) (size 9 to 14) (size 15 to 20)
#    0.000    1.667    3.333    1.000    0.000    5.333 
#    0.000    5.000    0.000    0.000    0.000    0.000 
#    0.000    0.000    0.000    0.000    0.000    0.000 
#
# Total GULP energy -595336.942897 kJ/mol
# GULP energy per Si atom -12402.852977 kJ/mol
# Density = 1.865898 g / cm^3
# Si number density = 18.701542 Si / 1000 Ang^3
#
#
#
# Elastic Constant Matrix: (Units=GPa)
#
#
# Indices 1 2 3 4 5 6 
#
# 1 143.4164 62.5191 64.4375 0.0000 0.0000 0.0000
# 2 62.5191 123.5909 62.7015 0.0000 0.0000 0.0000
# 3 64.4375 62.7015 85.8525 0.0000 0.0000 0.0000
# 4 0.0000 0.0000 0.0000 31.2807 0.0000 0.0000
# 5 0.0000 0.0000 0.0000 0.0000 34.6817 0.0000
# 6 0.0000 0.0000 0.0000 0.0000 0.0000 29.3208
#
#
#
# Elastic Compliance Matrix: (Units=1/GPa)
#
#
# Indices 1 2 3 4 5 6 
#
# 1 0.010872 -0.002160 -0.006582 0.000000 0.000000 0.000000
# 2 -0.002160 0.013283 -0.008080 0.000000 0.000000 0.000000
# 3 -0.006582 -0.008080 0.022489 0.000000 0.000000 0.000000
# 4 0.000000 0.000000 0.000000 0.031969 0.000000 0.000000
# 5 0.000000 0.000000 0.000000 0.000000 0.028834 0.000000
# 6 0.000000 0.000000 0.000000 0.000000 0.000000 0.034106
#
#
# Mechanical properties :
#
#
# Convention : Reuss Voigt Hill
#
# Bulk Modulus (GPa) = 76.92528 81.35290 79.13909
# Shear Modulus (GPa) = 27.85053 29.93677 28.89365
#
# Velocity S-wave (km/s) = 3.86322 4.00530 3.93490
# Velocity P-wave (km/s) = 7.81803 8.06132 7.94061
#
# Compressibility (1/GPa) = 0.01299963
#
# Stress axis : x y z
#
# Youngs Moduli (GPa) = 91.98084 75.28370 44.46552
#
# Poissons Ratio (x) = 0.16262 0.29269
# Poissons Ratio (y) = 0.19869 0.35927
# Poissons Ratio (z) = 0.60545 0.60828
#
# Static dielectric constant tensor:
#      x y z
#    x 3.296870 0.000000 0.000000 
#    y 0.000000 3.633890 0.000000 
#    z 0.000000 0.000000 3.534470 
# 
# 
# High freq. dielectric constant tensor:
#      x y z
#    x 1.724770 0.000000 0.000000 
#    y 0.000000 1.738930 0.000000 
#    z 0.000000 0.000000 1.727660 
# 
# From -- ./inp_files/7720.got.cif
#   From: 2010.06.25/outbox.cif.g09.slc.cpg/sg58_4_cif.got.tgz:7720.got - 2010.06.26 21:38:00.
