data_PCOD8237293
_publ_section_title
;
Structure prediction by ZEFSAII (Michael W. Deem and Ramdas Pophale) SiO2 
 PCOD8237293
Probable space group: P N N M
;
_chemical_formula_sum "Si O2"
_cell_formula_units_Z 40
_cell_length_a 15.737950
_cell_length_b 12.913957
_cell_length_c 9.506907
_cell_angle_alpha 90.000000
_cell_angle_beta 90.000000
_cell_angle_gamma 90.000000
_cell_volume 1932.176264
_symmetry_space_group_name_H-M "P N N M"
_symmetry_group_IT_number 58
_symmetry_cell_setting 'orthorhombic'
loop_
_space_group_symop_operation_xyz
x,y,z
-x,-y,z
1/2+x,1/2-y,1/2-z
1/2-x,1/2+y,1/2-z
-x,-y,-z
x,y,-z
1/2-x,1/2+y,1/2+z
1/2+x,1/2-y,1/2+z
loop_
_atom_site_type_symbol
_atom_site_label
_atom_site_fract_x
_atom_site_fract_y
_atom_site_fract_z
Si Si1 0.493276 0.168691 0.156622
Si Si2 0.865519 0.520636 0.344747
Si Si3 0.252526 0.108137 0.340235
Si Si4 0.369804 0.292928 0.666783
Si Si5 0.403635 0.486175 0.162009
O O1 0.586778 0.126996 0.201361
O O2 0.458778 0.248612 0.272240
O O3 0.432163 0.071336 0.149347
O O4 0.497346 0.220295 0.000000
O O5 0.825563 0.537843 0.500000
O O6 0.791720 0.491060 0.238195
O O7 0.281585 0.095419 0.500000
O O8 0.289698 0.218955 0.288853
O O9 0.150028 0.094495 0.323229
O O10 0.377906 0.306306 0.500000
O O11 0.355565 0.402659 0.740817
O O12 0.500000 0.500000 0.215379
O O13 0.402811 0.448641 0.000000
#
# Coordination Sequence:
#
# PCOD8237293 Si02
#       5
#     8   8   8   8   8
#     4   8  14  27  48  76 111 148 185 222 271 338
#     4   8  14  26  48  78 109 143 183 228 275 330
#     4   9  19  36  57  82 113 148 188 238 293 342
#     4  10  20  35  57  85 116 147 187 241 293 340
#     4  10  22  42  63  81 111 157 200 235 280 348
#
# _framework density 20.702047
#
# number of rings (size 3 to 8) (size 9 to 14) (size 15 to 20)
#    0.000    3.000    0.000    1.800    0.000    2.800 
#    3.600    4.000    0.000    0.000    0.000    0.000 
#    0.000    0.000    0.000    0.000    0.000    0.000 
#
# Total GULP energy -495571.803383 kJ/mol
# GULP energy per Si atom -12389.295085 kJ/mol
# Density = 2.065493 g / cm^3
# Si number density = 20.702047 Si / 1000 Ang^3
#
#
#
# Elastic Constant Matrix: (Units=GPa)
#
#
# Indices 1 2 3 4 5 6 
#
# 1 96.6887 35.2003 32.9998 0.0000 0.0000 0.0000
# 2 35.2003 77.4600 35.5850 0.0000 0.0000 0.0000
# 3 32.9998 35.5850 74.8608 0.0000 0.0000 0.0000
# 4 0.0000 0.0000 0.0000 27.3693 0.0000 0.0000
# 5 0.0000 0.0000 0.0000 0.0000 18.8924 0.0000
# 6 0.0000 0.0000 0.0000 0.0000 0.0000 24.2248
#
#
#
# Elastic Compliance Matrix: (Units=1/GPa)
#
#
# Indices 1 2 3 4 5 6 
#
# 1 0.013183 -0.004249 -0.003792 0.000000 0.000000 0.000000
# 2 -0.004249 0.017886 -0.006629 0.000000 0.000000 0.000000
# 3 -0.003792 -0.006629 0.018181 0.000000 0.000000 0.000000
# 4 0.000000 0.000000 0.000000 0.036537 0.000000 0.000000
# 5 0.000000 0.000000 0.000000 0.000000 0.052931 0.000000
# 6 0.000000 0.000000 0.000000 0.000000 0.000000 0.041280
#
#
# Mechanical properties :
#
#
# Convention : Reuss Voigt Hill
#
# Bulk Modulus (GPa) = 50.22450 50.73107 50.47779
# Shear Modulus (GPa) = 23.15073 23.77891 23.46482
#
# Velocity S-wave (km/s) = 3.34770 3.39282 3.37033
# Velocity P-wave (km/s) = 6.26547 6.31718 6.29138
#
# Compressibility (1/GPa) = 0.01991060
#
# Stress axis : x y z
#
# Youngs Moduli (GPa) = 75.85249 55.90897 55.00336
#
# Poissons Ratio (x) = 0.23756 0.20856
# Poissons Ratio (y) = 0.32230 0.36462
# Poissons Ratio (z) = 0.28761 0.37063
#
# Static dielectric constant tensor:
#      x y z
#    x 3.920210 0.000000 0.000000 
#    y 0.000000 3.639270 0.000000 
#    z 0.000000 0.000000 3.737320 
# 
# 
# High freq. dielectric constant tensor:
#      x y z
#    x 1.802840 0.000000 0.000000 
#    y 0.000000 1.794400 0.000000 
#    z 0.000000 0.000000 1.796660 
# 
# From -- ./inp_files/7453.got.cif
#   From: 2010.06.25/outbox.cif.g09.slc.cpg/sg58_4_cif.got.tgz:7453.got - 2010.06.26 21:38:00.
