data_PCOD8237374
_publ_section_title
;
Structure prediction by ZEFSAII (Michael W. Deem and Ramdas Pophale) SiO2 
 PCOD8237374
Probable space group: P N N M
;
_chemical_formula_sum "Si O2"
_cell_formula_units_Z 64
_cell_length_a 29.004067
_cell_length_b 12.837907
_cell_length_c 8.631003
_cell_angle_alpha 90.000000
_cell_angle_beta 90.000000
_cell_angle_gamma 90.000000
_cell_volume 3213.767041
_symmetry_space_group_name_H-M "P N N M"
_symmetry_group_IT_number 58
_symmetry_cell_setting 'orthorhombic'
loop_
_space_group_symop_operation_xyz
x,y,z
-x,-y,z
1/2+x,1/2-y,1/2-z
1/2-x,1/2+y,1/2-z
-x,-y,-z
x,y,-z
1/2-x,1/2+y,1/2+z
1/2+x,1/2-y,1/2+z
loop_
_atom_site_type_symbol
_atom_site_label
_atom_site_fract_x
_atom_site_fract_y
_atom_site_fract_z
Si Si1 0.257499 0.029057 0.184338
Si Si2 0.118373 0.719849 0.815532
Si Si3 0.297826 0.349314 0.670578
Si Si4 0.861220 0.499281 0.682405
Si Si5 0.449307 0.387655 0.816088
Si Si6 0.287966 0.716973 0.829732
Si Si7 0.449877 0.605263 0.315954
Si Si8 0.879445 0.714810 0.819989
O O1 0.213239 0.961119 0.248557
O O2 0.308196 0.991798 0.239000
O O3 0.249468 0.138618 0.262448
O O4 0.255413 0.038112 0.000000
O O5 0.165530 0.773611 0.745054
O O6 0.114362 0.601981 0.754993
O O7 0.076156 0.787364 0.752949
O O8 0.117637 0.714899 0.000000
O O9 0.319416 0.364722 0.500000
O O10 0.244323 0.316764 0.654533
O O11 0.864745 0.488472 0.500000
O O12 0.887314 0.605193 0.732583
O O13 0.502416 0.375350 0.771103
O O14 0.428862 0.494622 0.742177
O O15 0.443453 0.391506 0.000000
O O16 0.329782 0.735939 0.714333
O O17 0.307113 0.685987 0.000000
O O18 0.457339 0.599951 0.500000
O O19 0.416993 0.700335 0.266957
O O20 0.883585 0.691296 0.000000
#
# Coordination Sequence:
#
# PCOD8237374 Si02
#       8
#     8   8   8   8   8   8   8   8
#     4  10  20  36  53  77 115 158 200 245 294 346
#     4  11  22  39  62  87 122 164 205 245 294 360
#     4   9  19  35  54  78 113 157 201 241 285 341
#     4  11  22  38  60  86 121 161 202 252 301 348
#     4  11  23  41  66  96 124 150 191 246 304 357
#     4  11  21  36  55  83 117 156 202 247 293 344
#     4  10  22  43  68  92 120 156 195 238 300 367
#     4  11  24  40  61  89 119 158 203 245 296 361
#
# _framework density 19.914324000000001
#
# number of rings (size 3 to 8) (size 9 to 14) (size 15 to 20)
#    0.000    1.500    2.500    3.750    1.750    2.500 
#    0.000    1.250    0.000    3.750    0.000    0.000 
#    0.000    0.000    0.000    0.000    0.000    0.000 
#
# Total GULP energy -793117.524305 kJ/mol
# GULP energy per Si atom -12392.461317 kJ/mol
# Density = 1.986900 g / cm^3
# Si number density = 19.914324 Si / 1000 Ang^3
#
#
#
# Elastic Constant Matrix: (Units=GPa)
#
#
# Indices 1 2 3 4 5 6 
#
# 1 61.0507 37.3636 21.5938 0.0000 0.0000 0.0000
# 2 37.3636 111.0435 40.4744 0.0000 0.0000 0.0000
# 3 21.5938 40.4744 72.8709 0.0000 0.0000 0.0000
# 4 0.0000 0.0000 0.0000 27.9939 0.0000 0.0000
# 5 0.0000 0.0000 0.0000 0.0000 25.8329 0.0000
# 6 0.0000 0.0000 0.0000 0.0000 0.0000 39.6571
#
#
#
# Elastic Compliance Matrix: (Units=1/GPa)
#
#
# Indices 1 2 3 4 5 6 
#
# 1 0.021104 -0.006045 -0.002896 0.000000 0.000000 0.000000
# 2 -0.006045 0.013023 -0.005442 0.000000 0.000000 0.000000
# 3 -0.002896 -0.005442 0.017604 0.000000 0.000000 0.000000
# 4 0.000000 0.000000 0.000000 0.035722 0.000000 0.000000
# 5 0.000000 0.000000 0.000000 0.000000 0.038710 0.000000
# 6 0.000000 0.000000 0.000000 0.000000 0.000000 0.025216
#
#
# Mechanical properties :
#
#
# Convention : Reuss Voigt Hill
#
# Bulk Modulus (GPa) = 43.54618 49.31429 46.43024
# Shear Modulus (GPa) = 26.62394 28.39900 27.51147
#
# Velocity S-wave (km/s) = 3.66036 3.78042 3.72087
# Velocity P-wave (km/s) = 6.30703 6.62362 6.46726
#
# Compressibility (1/GPa) = 0.02296412
#
# Stress axis : x y z
#
# Youngs Moduli (GPa) = 47.38442 76.78609 56.80632
#
# Poissons Ratio (x) = 0.46421 0.16451
# Poissons Ratio (y) = 0.28646 0.30914
# Poissons Ratio (z) = 0.13722 0.41787
#
# Static dielectric constant tensor:
#      x y z
#    x 3.503450 0.000000 0.000000 
#    y 0.000000 3.837280 0.000000 
#    z 0.000000 0.000000 3.516660 
# 
# 
# High freq. dielectric constant tensor:
#      x y z
#    x 1.759890 0.000000 0.000000 
#    y 0.000000 1.793640 0.000000 
#    z 0.000000 0.000000 1.771510 
# 
# From -- ./inp_files/11063.got.cif
#   From: 2010.06.25/outbox.cif.g09.slc.cpg/sg58_6_cif.got.tgz:11063.got - 2010.06.26 21:38:00.
