data_PCOD8237706
_publ_section_title
;
Structure prediction by ZEFSAII (Michael W. Deem and Ramdas Pophale) SiO2 
 PCOD8237706
Probable space group: P N N M
;
_chemical_formula_sum "Si O2"
_cell_formula_units_Z 48
_cell_length_a 13.359383
_cell_length_b 17.534323
_cell_length_c 10.440991
_cell_angle_alpha 90.000000
_cell_angle_beta 90.000000
_cell_angle_gamma 90.000000
_cell_volume 2445.778510
_symmetry_space_group_name_H-M "P N N M"
_symmetry_group_IT_number 58
_symmetry_cell_setting 'orthorhombic'
loop_
_space_group_symop_operation_xyz
x,y,z
-x,-y,z
1/2+x,1/2-y,1/2-z
1/2-x,1/2+y,1/2-z
-x,-y,-z
x,y,-z
1/2-x,1/2+y,1/2+z
1/2+x,1/2-y,1/2+z
loop_
_atom_site_type_symbol
_atom_site_label
_atom_site_fract_x
_atom_site_fract_y
_atom_site_fract_z
Si Si1 0.277802 0.037769 0.149459
Si Si2 0.671720 0.732131 0.862088
Si Si3 0.137965 0.162690 0.140205
Si Si4 0.967797 0.710734 0.721227
Si Si5 0.437997 0.076672 0.644301
Si Si6 0.265042 0.861470 0.856594
O O1 0.167587 0.075233 0.175457
O O2 0.353811 0.078232 0.247075
O O3 0.273702 0.949206 0.182475
O O4 0.310064 0.050697 0.000000
O O5 0.755717 0.795690 0.854924
O O6 0.565814 0.775733 0.862768
O O7 0.687039 0.674866 0.743551
O O8 0.680271 0.688953 0.000000
O O9 0.059718 0.204048 0.231655
O O10 0.089358 0.165632 0.000000
O O11 0.874711 0.676800 0.642675
O O12 0.991223 0.650776 0.835430
O O13 0.393057 0.081338 0.500000
O O14 0.500000 0.000000 0.661535
O O15 0.220919 0.852263 0.000000
#
# Coordination Sequence:
#
# PCOD8237706 Si02
#       6
#     8   8   8   8   8   8
#     4  10  20  38  59  82 113 151 193 239 286 338
#     4  10  21  37  58  82 116 153 187 232 290 347
#     4   9  19  35  56  82 112 149 190 233 284 339
#     4  11  20  36  57  86 116 151 190 238 287 342
#     4  11  22  34  53  86 121 151 185 235 295 348
#     4  10  22  37  59  86 114 147 192 241 285 336
#
# _framework density 19.625653
#
# number of rings (size 3 to 8) (size 9 to 14) (size 15 to 20)
#    0.000    1.833    3.333    1.000    0.000    3.667 
#    0.000    1.667    0.000    4.000    0.000    0.000 
#    0.000    0.000    0.000    0.000    0.000    0.000 
#
# Total GULP energy -594778.764593 kJ/mol
# GULP energy per Si atom -12391.224262 kJ/mol
# Density = 1.958098 g / cm^3
# Si number density = 19.625653 Si / 1000 Ang^3
#
#
#
# Elastic Constant Matrix: (Units=GPa)
#
#
# Indices 1 2 3 4 5 6 
#
# 1 51.8123 20.9636 24.4192 0.0000 0.0000 0.0000
# 2 20.9636 60.2814 34.0423 0.0000 0.0000 0.0000
# 3 24.4192 34.0423 112.3886 0.0000 0.0000 0.0000
# 4 0.0000 0.0000 0.0000 26.8997 0.0000 0.0000
# 5 0.0000 0.0000 0.0000 0.0000 11.0167 0.0000
# 6 0.0000 0.0000 0.0000 0.0000 0.0000 28.5799
#
#
#
# Elastic Compliance Matrix: (Units=1/GPa)
#
#
# Indices 1 2 3 4 5 6 
#
# 1 0.023352 -0.006340 -0.003153 0.000000 0.000000 0.000000
# 2 -0.006340 0.021733 -0.005205 0.000000 0.000000 0.000000
# 3 -0.003153 -0.005205 0.011160 0.000000 0.000000 0.000000
# 4 0.000000 0.000000 0.000000 0.037175 0.000000 0.000000
# 5 0.000000 0.000000 0.000000 0.000000 0.090771 0.000000
# 6 0.000000 0.000000 0.000000 0.000000 0.000000 0.034990
#
#
# Mechanical properties :
#
#
# Convention : Reuss Voigt Hill
#
# Bulk Modulus (GPa) = 37.24822 42.59251 39.92036
# Shear Modulus (GPa) = 19.41539 22.96974 21.19257
#
# Velocity S-wave (km/s) = 3.14870 3.42481 3.28966
# Velocity P-wave (km/s) = 5.67800 6.11463 5.90036
#
# Compressibility (1/GPa) = 0.02684692
#
# Stress axis : x y z
#
# Youngs Moduli (GPa) = 42.82312 46.01225 89.60923
#
# Poissons Ratio (x) = 0.29172 0.28257
# Poissons Ratio (y) = 0.27150 0.46646
# Poissons Ratio (z) = 0.13504 0.23951
#
# Static dielectric constant tensor:
#      x y z
#    x 3.398490 0.000000 0.000000 
#    y 0.000000 3.755730 0.000000 
#    z 0.000000 0.000000 3.676860 
# 
# 
# High freq. dielectric constant tensor:
#      x y z
#    x 1.741470 0.000000 0.000000 
#    y 0.000000 1.766380 0.000000 
#    z 0.000000 0.000000 1.765850 
# 
# From -- ./inp_files/5913.got.cif
#   From: 2010.06.25/outbox.cif.g09.slc.cpg/sg58_3_cif.got.tgz:5913.got - 2010.06.26 21:38:00.
