data_PCOD8237813
_publ_section_title
;
Structure prediction by ZEFSAII (Michael W. Deem and Ramdas Pophale) SiO2 
 PCOD8237813
Probable space group: P N N M
;
_chemical_formula_sum "Si O2"
_cell_formula_units_Z 48
_cell_length_a 14.428445
_cell_length_b 20.226531
_cell_length_c 8.903790
_cell_angle_alpha 90.000000
_cell_angle_beta 90.000000
_cell_angle_gamma 90.000000
_cell_volume 2598.458835
_symmetry_space_group_name_H-M "P N N M"
_symmetry_group_IT_number 58
_symmetry_cell_setting 'orthorhombic'
loop_
_space_group_symop_operation_xyz
x,y,z
-x,-y,z
1/2+x,1/2-y,1/2-z
1/2-x,1/2+y,1/2-z
-x,-y,-z
x,y,-z
1/2-x,1/2+y,1/2+z
1/2+x,1/2-y,1/2+z
loop_
_atom_site_type_symbol
_atom_site_label
_atom_site_fract_x
_atom_site_fract_y
_atom_site_fract_z
Si Si1 0.793266 0.694591 0.321754
Si Si2 0.508478 0.368154 0.326531
Si Si3 0.826443 0.317023 0.825363
Si Si4 0.184983 0.933493 0.826066
Si Si5 0.996286 0.728177 0.322158
Si Si6 0.815028 0.930814 0.674265
O O1 0.790619 0.697588 0.500000
O O2 0.735515 0.757052 0.259663
O O3 0.747465 0.626837 0.264640
O O4 0.898354 0.699862 0.262499
O O5 0.520745 0.349243 0.500000
O O6 0.422958 0.417592 0.303590
O O7 0.487730 0.301952 0.235951
O O8 0.599214 0.404756 0.269560
O O9 0.923571 0.319881 0.738132
O O10 0.774102 0.385475 0.795819
O O11 0.847376 0.305616 0.000000
O O12 0.212266 0.996154 0.726390
O O13 0.206792 0.948426 0.000000
O O14 0.998236 0.729785 0.500000
O O15 0.843252 0.929778 0.500000
#
# Coordination Sequence:
#
# PCOD8237813 Si02
#       6
#     8   8   8   8   8   8
#     4   9  18  37  59  79 111 151 186 228 282 333
#     4  11  21  35  58  86 117 153 187 228 286 347
#     4  10  20  39  59  79 114 154 186 228 286 338
#     4  10  21  38  58  80 112 153 190 226 281 349
#     4  11  21  35  59  90 115 143 191 242 280 328
#     4  11  23  38  57  83 118 152 186 237 288 332
#
# _framework density 18.472487999999998
#
# number of rings (size 3 to 8) (size 9 to 14) (size 15 to 20)
#    0.000    1.667    3.333    2.000    0.000    4.667 
#    0.000    2.500    0.000    5.000    0.000    0.000 
#    0.000    0.000    0.000    0.000    0.000    0.000 
#
# Total GULP energy -595386.262211 kJ/mol
# GULP energy per Si atom -12403.880463 kJ/mol
# Density = 1.843044 g / cm^3
# Si number density = 18.472488 Si / 1000 Ang^3
#
#
#
# Elastic Constant Matrix: (Units=GPa)
#
#
# Indices 1 2 3 4 5 6 
#
# 1 106.8802 28.3442 42.2218 0.0000 0.0000 0.0000
# 2 28.3442 82.1400 28.0268 0.0000 0.0000 0.0000
# 3 42.2218 28.0268 53.6322 0.0000 0.0000 0.0000
# 4 0.0000 0.0000 0.0000 29.2532 0.0000 0.0000
# 5 0.0000 0.0000 0.0000 0.0000 28.0930 0.0000
# 6 0.0000 0.0000 0.0000 0.0000 0.0000 29.0032
#
#
#
# Elastic Compliance Matrix: (Units=1/GPa)
#
#
# Indices 1 2 3 4 5 6 
#
# 1 0.013688 -0.001274 -0.010110 0.000000 0.000000 0.000000
# 2 -0.001274 0.014935 -0.006802 0.000000 0.000000 0.000000
# 3 -0.010110 -0.006802 0.030159 0.000000 0.000000 0.000000
# 4 0.000000 0.000000 0.000000 0.034184 0.000000 0.000000
# 5 0.000000 0.000000 0.000000 0.000000 0.035596 0.000000
# 6 0.000000 0.000000 0.000000 0.000000 0.000000 0.034479
#
#
# Mechanical properties :
#
#
# Convention : Reuss Voigt Hill
#
# Bulk Modulus (GPa) = 44.62197 48.87088 46.74642
# Shear Modulus (GPa) = 24.16829 26.87386 25.52107
#
# Velocity S-wave (km/s) = 3.62102 3.81833 3.72098
# Velocity P-wave (km/s) = 6.45684 6.77886 6.61981
#
# Compressibility (1/GPa) = 0.02241048
#
# Stress axis : x y z
#
# Youngs Moduli (GPa) = 73.05691 66.95829 33.15738
#
# Poissons Ratio (x) = 0.08528 0.33523
# Poissons Ratio (y) = 0.09305 0.22553
# Poissons Ratio (z) = 0.73862 0.45544
#
# Static dielectric constant tensor:
#      x y z
#    x 3.556530 0.000000 0.000000 
#    y 0.000000 3.464240 0.000000 
#    z 0.000000 0.000000 3.287970 
# 
# 
# High freq. dielectric constant tensor:
#      x y z
#    x 1.721020 0.000000 0.000000 
#    y 0.000000 1.714890 0.000000 
#    z 0.000000 0.000000 1.705910 
# 
# From -- ./inp_files/5742.got.cif
#   From: 2010.06.25/outbox.cif.g09.slc.cpg/sg58_3_cif.got.tgz:5742.got - 2010.06.26 21:38:00.
