data_PCOD8237760
_publ_section_title
;
Structure prediction by ZEFSAII (Michael W. Deem and Ramdas Pophale) SiO2 
 PCOD8237760
Probable space group: P N N M
;
_chemical_formula_sum "Si O2"
_cell_formula_units_Z 40
_cell_length_a 12.449616
_cell_length_b 9.637981
_cell_length_c 16.378732
_cell_angle_alpha 90.000000
_cell_angle_beta 90.000000
_cell_angle_gamma 90.000000
_cell_volume 1965.270335
_symmetry_space_group_name_H-M "P N N M"
_symmetry_group_IT_number 58
_symmetry_cell_setting 'orthorhombic'
loop_
_space_group_symop_operation_xyz
x,y,z
-x,-y,z
1/2+x,1/2-y,1/2-z
1/2-x,1/2+y,1/2-z
-x,-y,-z
x,y,-z
1/2-x,1/2+y,1/2+z
1/2+x,1/2-y,1/2+z
loop_
_atom_site_type_symbol
_atom_site_label
_atom_site_fract_x
_atom_site_fract_y
_atom_site_fract_z
Si Si1 0.229426 0.888823 0.408136
Si Si2 0.003568 0.834717 0.589397
Si Si3 0.379295 0.660046 0.638405
Si Si4 0.879366 0.147546 0.094793
Si Si5 0.703679 0.329906 0.819368
O O1 0.208905 0.946060 0.500000
O O2 0.333293 0.791055 0.410819
O O3 0.124515 0.797918 0.380408
O O4 0.243949 0.020002 0.349327
O O5 0.982193 0.771920 0.500000
O O6 0.910668 0.776371 0.646568
O O7 0.000000 0.000000 0.589565
O O8 0.507954 0.678020 0.640684
O O9 0.353877 0.516049 0.593146
O O10 0.315661 0.663820 0.723488
O O11 0.791788 0.220468 0.151586
O O12 0.879871 0.199907 0.000000
#
# Coordination Sequence:
#
# PCOD8237760 Si02
#       5
#     8   8   8   8   8
#     4  10  20  38  62  88 117 155 201 246 295 359
#     4   8  16  31  56  84 113 146 188 240 297 351
#     4  11  24  38  62  89 125 159 200 249 304 357
#     4  11  24  43  62  87 126 170 200 237 306 379
#     4  11  22  36  64  90 121 151 207 255 296 342
#
# _framework density 20.353434
#
# number of rings (size 3 to 8) (size 9 to 14) (size 15 to 20)
#    0.000    1.800    0.000    6.600   11.200    0.800 
#    0.000    3.000    0.000    3.600    0.000    0.000 
#    0.000    0.000    0.000    0.000    0.000    0.000 
#
# Total GULP energy -495720.200919 kJ/mol
# GULP energy per Si atom -12393.005023 kJ/mol
# Density = 2.030711 g / cm^3
# Si number density = 20.353434 Si / 1000 Ang^3
#
#
#
# Elastic Constant Matrix: (Units=GPa)
#
#
# Indices 1 2 3 4 5 6 
#
# 1 87.3723 22.9761 30.1838 0.0000 0.0000 0.0000
# 2 22.9761 34.8973 14.5115 0.0000 0.0000 0.0000
# 3 30.1838 14.5115 97.3952 0.0000 0.0000 0.0000
# 4 0.0000 0.0000 0.0000 21.7972 0.0000 0.0000
# 5 0.0000 0.0000 0.0000 0.0000 29.3359 0.0000
# 6 0.0000 0.0000 0.0000 0.0000 0.0000 37.5999
#
#
#
# Elastic Compliance Matrix: (Units=1/GPa)
#
#
# Indices 1 2 3 4 5 6 
#
# 1 0.014796 -0.008352 -0.003341 0.000000 0.000000 0.000000
# 2 -0.008352 0.035263 -0.002666 0.000000 0.000000 0.000000
# 3 -0.003341 -0.002666 0.011700 0.000000 0.000000 0.000000
# 4 0.000000 0.000000 0.000000 0.045877 0.000000 0.000000
# 5 0.000000 0.000000 0.000000 0.000000 0.034088 0.000000
# 6 0.000000 0.000000 0.000000 0.000000 0.000000 0.026596
#
#
# Mechanical properties :
#
#
# Convention : Reuss Voigt Hill
#
# Bulk Modulus (GPa) = 30.26509 39.44529 34.85519
# Shear Modulus (GPa) = 24.03256 27.87950 25.95603
#
# Velocity S-wave (km/s) = 3.43995 3.70505 3.57496
# Velocity P-wave (km/s) = 5.53893 6.14211 5.84830
#
# Compressibility (1/GPa) = 0.03304137
#
# Stress axis : x y z
#
# Youngs Moduli (GPa) = 67.58683 28.35835 85.47008
#
# Poissons Ratio (x) = 0.23685 0.28555
# Poissons Ratio (y) = 0.56450 0.22783
# Poissons Ratio (z) = 0.22580 0.07559
#
# Static dielectric constant tensor:
#      x y z
#    x 4.230220 0.000000 0.000000 
#    y 0.000000 3.347050 0.000000 
#    z 0.000000 0.000000 3.818150 
# 
# 
# High freq. dielectric constant tensor:
#      x y z
#    x 1.809330 0.000000 0.000000 
#    y 0.000000 1.759160 0.000000 
#    z 0.000000 0.000000 1.802740 
# 
# From -- ./inp_files/20899.got.cif
#   From: 2010.06.25/outbox.cif.g09.slc.cpg/sg58_11_cif.got.tgz:20899.got - 2010.06.26 21:38:00.
