data_PCOD8237884
_publ_section_title
;
Structure prediction by ZEFSAII (Michael W. Deem and Ramdas Pophale) SiO2 
 PCOD8237884
Probable space group: P N N M
;
_chemical_formula_sum "Si O2"
_cell_formula_units_Z 40
_cell_length_a 8.591814
_cell_length_b 9.078162
_cell_length_c 25.779913
_cell_angle_alpha 90.000000
_cell_angle_beta 90.000000
_cell_angle_gamma 90.000000
_cell_volume 2010.778544
_symmetry_space_group_name_H-M "P N N M"
_symmetry_group_IT_number 58
_symmetry_cell_setting 'orthorhombic'
loop_
_space_group_symop_operation_xyz
x,y,z
-x,-y,z
1/2+x,1/2-y,1/2-z
1/2-x,1/2+y,1/2-z
-x,-y,-z
x,y,-z
1/2-x,1/2+y,1/2+z
1/2+x,1/2-y,1/2+z
loop_
_atom_site_type_symbol
_atom_site_label
_atom_site_fract_x
_atom_site_fract_y
_atom_site_fract_z
Si Si1 0.220691 0.888721 0.836624
Si Si2 0.165719 0.437942 0.225874
Si Si3 0.847917 0.903897 0.358942
Si Si4 0.329394 0.934503 0.558421
Si Si5 0.127355 0.197799 0.142420
O O1 0.222888 0.907756 0.774496
O O2 0.358161 0.775946 0.856208
O O3 0.056033 0.830475 0.857169
O O4 0.236088 0.052632 0.860066
O O5 0.227012 0.562855 0.186955
O O6 0.163712 0.285315 0.194864
O O7 0.000000 0.500000 0.245466
O O8 0.786649 0.947637 0.415715
O O9 0.000000 0.000000 0.346414
O O10 0.272861 0.902569 0.500000
O O11 0.324285 0.784826 0.590908
O O12 0.500000 0.000000 0.559264
#
# Coordination Sequence:
#
# PCOD8237884 Si02
#       5
#     8   8   8   8   8
#     4  11  22  35  58  88 124 159 199 255 303 353
#     4  11  22  37  55  81 123 170 204 231 296 376
#     4  11  23  38  59  88 122 155 204 252 306 373
#     4  10  20  42  67  84 113 160 204 255 314 377
#     4  10  21  38  58  88 122 152 208 257 294 368
#
# _framework density 19.892792
#
# number of rings (size 3 to 8) (size 9 to 14) (size 15 to 20)
#    0.000    1.400    4.000    2.400    5.600    2.000 
#    0.000    3.000    0.000    1.200    0.000    0.000 
#    0.000    0.000    0.000    0.000    0.000    0.000 
#
# Total GULP energy -495792.502382 kJ/mol
# GULP energy per Si atom -12394.812560 kJ/mol
# Density = 1.984751 g / cm^3
# Si number density = 19.892792 Si / 1000 Ang^3
#
#
#
# Elastic Constant Matrix: (Units=GPa)
#
#
# Indices 1 2 3 4 5 6 
#
# 1 44.1372 23.9934 8.0133 0.0000 0.0000 0.0000
# 2 23.9934 164.2887 53.0933 0.0000 0.0000 0.0000
# 3 8.0133 53.0933 130.8154 0.0000 0.0000 0.0000
# 4 0.0000 0.0000 0.0000 -4.9066 0.0000 0.0000
# 5 0.0000 0.0000 0.0000 0.0000 36.0813 0.0000
# 6 0.0000 0.0000 0.0000 0.0000 0.0000 35.0840
#
#
#
# Elastic Compliance Matrix: (Units=1/GPa)
#
#
# Indices 1 2 3 4 5 6 
#
# 1 0.024611 -0.003576 -0.000056 0.000000 0.000000 0.000000
# 2 -0.003576 0.007525 -0.002835 0.000000 0.000000 0.000000
# 3 -0.000056 -0.002835 0.008799 0.000000 0.000000 0.000000
# 4 0.000000 0.000000 0.000000 -0.203808 0.000000 0.000000
# 5 0.000000 0.000000 0.000000 0.000000 0.027715 0.000000
# 6 0.000000 0.000000 0.000000 0.000000 0.000000 0.028503
#
#
# Mechanical properties :
#
#
# Convention : Reuss Voigt Hill
#
# Bulk Modulus (GPa) = 35.71465 56.60460 46.15962
# Shear Modulus (GPa) = -59.25075 30.19449 -14.52813
#
# Velocity S-wave (km/s) = -5.46349 3.90020 -2.70538
# Velocity P-wave (km/s) = 4.66980 6.98561 3.67366
#
# Compressibility (1/GPa) = 0.02799971
#
# Stress axis : x y z
#
# Youngs Moduli (GPa) = 40.63254 132.88363 113.65555
#
# Poissons Ratio (x) = 0.47521 0.00638
# Poissons Ratio (y) = 0.14531 0.32224
# Poissons Ratio (z) = 0.00228 0.37675
#
# Static dielectric constant tensor:
#      x y z
#    x 3.536890 0.000000 0.000000 
#    y 0.000000 4.030880 0.000000 
#    z 0.000000 0.000000 3.607680 
# 
# 
# High freq. dielectric constant tensor:
#      x y z
#    x 1.758810 0.000000 0.000000 
#    y 0.000000 1.792210 0.000000 
#    z 0.000000 0.000000 1.755300 
# 
# From -- ./inp_files/31254.got.cif
#   From: 2010.06.25/outbox.cif.g09.slc.cpg/sg58_16_cif.got.tgz:31254.got - 2010.06.26 21:38:00.
