data_PCOD8237578
_publ_section_title
;
Structure prediction by ZEFSAII (Michael W. Deem and Ramdas Pophale) SiO2 
 PCOD8237578
Probable space group: P N N M
;
_chemical_formula_sum "Si O2"
_cell_formula_units_Z 64
_cell_length_a 30.185196
_cell_length_b 11.857598
_cell_length_c 9.527477
_cell_angle_alpha 90.000000
_cell_angle_beta 90.000000
_cell_angle_gamma 90.000000
_cell_volume 3410.111913
_symmetry_space_group_name_H-M "P N N M"
_symmetry_group_IT_number 58
_symmetry_cell_setting 'orthorhombic'
loop_
_space_group_symop_operation_xyz
x,y,z
-x,-y,z
1/2+x,1/2-y,1/2-z
1/2-x,1/2+y,1/2-z
-x,-y,-z
x,y,-z
1/2-x,1/2+y,1/2+z
1/2+x,1/2-y,1/2+z
loop_
_atom_site_type_symbol
_atom_site_label
_atom_site_fract_x
_atom_site_fract_y
_atom_site_fract_z
Si Si1 0.792762 0.472490 0.664681
Si Si2 0.573256 0.744767 0.843402
Si Si3 0.617638 0.351821 0.664379
Si Si4 0.369426 0.908199 0.664941
Si Si5 0.673026 0.735332 0.155853
Si Si6 0.051445 0.004007 0.663694
Si Si7 0.546173 0.944181 0.663464
Si Si8 0.306471 0.477108 0.664480
O O1 0.800753 0.495673 0.500000
O O2 0.827045 0.546414 0.752505
O O3 0.796269 0.339828 0.698992
O O4 0.743503 0.502642 0.714572
O O5 0.623713 0.785597 0.842527
O O6 0.571744 0.615981 0.791185
O O7 0.545851 0.824859 0.741588
O O8 0.552706 0.752946 0.000000
O O9 0.607627 0.365345 0.500000
O O10 0.624072 0.221956 0.705742
O O11 0.575364 0.398781 0.747881
O O12 0.662185 0.418692 0.708737
O O13 0.360216 0.922484 0.500000
O O14 0.413499 0.975522 0.711101
O O15 0.676618 0.636275 0.265742
O O16 0.685125 0.690235 0.000000
O O17 0.059422 0.029610 0.500000
O O18 0.000000 0.000000 0.702099
O O19 0.549219 0.917765 0.500000
O O20 0.500000 0.000000 0.704778
O O21 0.308741 0.457860 0.500000
#
# Coordination Sequence:
#
# PCOD8237578 Si02
#       8
#     8   8   8   8   8   8   8   8
#     4  10  22  39  58  83 113 146 185 231 281 331
#     4  10  20  37  59  83 110 146 190 232 280 334
#     4  10  22  39  58  82 114 150 188 230 278 335
#     4  10  22  39  58  82 114 151 189 229 280 336
#     4  10  20  37  61  83 110 147 189 234 279 331
#     4  10  22  39  58  84 116 148 187 235 282 332
#     4  10  22  38  57  84 116 149 188 235 281 331
#     4  10  22  38  57  83 113 145 184 230 279 330
#
# _framework density 18.767713000000001
#
# number of rings (size 3 to 8) (size 9 to 14) (size 15 to 20)
#    0.000    2.000    2.500    0.000    3.500    3.000 
#    0.000    0.000    0.000    0.000    0.000    0.000 
#    0.000    0.000    0.000    0.000    0.000    0.000 
#
# Total GULP energy -793750.930892 kJ/mol
# GULP energy per Si atom -12402.358295 kJ/mol
# Density = 1.872500 g / cm^3
# Si number density = 18.767713 Si / 1000 Ang^3
#
#
#
# Elastic Constant Matrix: (Units=GPa)
#
#
# Indices 1 2 3 4 5 6 
#
# 1 106.6999 37.7390 38.4593 0.0000 0.0000 0.0000
# 2 37.7390 93.4704 35.8000 0.0000 0.0000 0.0000
# 3 38.4593 35.8000 39.4386 0.0000 0.0000 0.0000
# 4 0.0000 0.0000 0.0000 30.5784 0.0000 0.0000
# 5 0.0000 0.0000 0.0000 0.0000 29.3126 0.0000
# 6 0.0000 0.0000 0.0000 0.0000 0.0000 28.9594
#
#
#
# Elastic Compliance Matrix: (Units=1/GPa)
#
#
# Indices 1 2 3 4 5 6 
#
# 1 0.014479 -0.000672 -0.013510 0.000000 0.000000 0.000000
# 2 -0.000672 0.016432 -0.014261 0.000000 0.000000 0.000000
# 3 -0.013510 -0.014261 0.051476 0.000000 0.000000 0.000000
# 4 0.000000 0.000000 0.000000 0.032703 0.000000 0.000000
# 5 0.000000 0.000000 0.000000 0.000000 0.034115 0.000000
# 6 0.000000 0.000000 0.000000 0.000000 0.000000 0.034531
#
#
# Mechanical properties :
#
#
# Convention : Reuss Voigt Hill
#
# Bulk Modulus (GPa) = 39.21324 51.51171 45.36247
# Shear Modulus (GPa) = 20.07054 26.27745 23.17400
#
# Velocity S-wave (km/s) = 3.27374 3.74591 3.51776
# Velocity P-wave (km/s) = 5.93542 6.79821 6.38141
#
# Compressibility (1/GPa) = 0.02550159
#
# Stress axis : x y z
#
# Youngs Moduli (GPa) = 69.06450 60.85769 19.42663
#
# Poissons Ratio (x) = 0.04087 0.26246
# Poissons Ratio (y) = 0.04638 0.27704
# Poissons Ratio (z) = 0.93307 0.86789
#
# Static dielectric constant tensor:
#      x y z
#    x 3.613630 0.000000 0.000000 
#    y 0.000000 3.408280 0.000000 
#    z 0.000000 0.000000 3.355280 
# 
# 
# High freq. dielectric constant tensor:
#      x y z
#    x 1.736280 0.000000 0.000000 
#    y 0.000000 1.735100 0.000000 
#    z 0.000000 0.000000 1.721020 
# 
# From -- ./inp_files/10989.got.cif
#   From: 2010.06.25/outbox.cif.g09.slc.cpg/sg58_6_cif.got.tgz:10989.got - 2010.06.26 21:38:00.
