data_PCOD8237654
_publ_section_title
;
Structure prediction by ZEFSAII (Michael W. Deem and Ramdas Pophale) SiO2 
 PCOD8237654
Probable space group: P N N M
;
_chemical_formula_sum "Si O2"
_cell_formula_units_Z 64
_cell_length_a 11.023983
_cell_length_b 32.615687
_cell_length_c 9.043269
_cell_angle_alpha 90.000000
_cell_angle_beta 90.000000
_cell_angle_gamma 90.000000
_cell_volume 3251.550587
_symmetry_space_group_name_H-M "P N N M"
_symmetry_group_IT_number 58
_symmetry_cell_setting 'orthorhombic'
loop_
_space_group_symop_operation_xyz
x,y,z
-x,-y,z
1/2+x,1/2-y,1/2-z
1/2-x,1/2+y,1/2-z
-x,-y,-z
x,y,-z
1/2-x,1/2+y,1/2+z
1/2+x,1/2-y,1/2+z
loop_
_atom_site_type_symbol
_atom_site_label
_atom_site_fract_x
_atom_site_fract_y
_atom_site_fract_z
Si Si1 0.156841 0.341692 0.333774
Si Si2 0.707550 0.722278 0.169242
Si Si3 0.744177 0.313176 0.670001
Si Si4 0.635752 0.515201 0.175557
Si Si5 0.124903 0.523770 0.323951
Si Si6 0.615163 0.599297 0.667440
Si Si7 0.574816 0.885260 0.173086
Si Si8 0.987940 0.833981 0.671922
O O1 0.118061 0.330434 0.500000
O O2 0.179393 0.298071 0.255329
O O3 0.272979 0.370236 0.328611
O O4 0.048977 0.367433 0.256064
O O5 0.687179 0.770387 0.200527
O O6 0.586417 0.699502 0.219638
O O7 0.736763 0.713937 0.000000
O O8 0.699497 0.315474 0.500000
O O9 0.823604 0.352257 0.710921
O O10 0.636228 0.312947 0.785244
O O11 0.500000 0.500000 0.223449
O O12 0.749972 0.491779 0.249456
O O13 0.646973 0.561506 0.229193
O O14 0.650868 0.512176 0.000000
O O15 0.144004 0.520733 0.500000
O O16 0.108854 0.570174 0.263320
O O17 0.000000 0.500000 0.278852
O O18 0.584952 0.585141 0.500000
O O19 0.501491 0.623745 0.736229
O O20 0.554482 0.891321 0.000000
O O21 0.993458 0.844986 0.500000
#
# Coordination Sequence:
#
# PCOD8237654 Si02
#       8
#     8   8   8   8   8   8   8   8
#     4   9  18  35  61  87 111 144 190 238 282 338
#     4   9  20  36  54  79 112 149 189 234 283 336
#     4  10  21  36  54  79 112 150 192 233 279 342
#     4  11  25  41  59  88 125 160 198 247 301 363
#     4  10  21  40  65  92 120 153 201 254 305 368
#     4  10  20  37  62  88 113 148 194 239 288 348
#     4   9  19  35  58  85 113 146 186 236 289 342
#     4  10  21  37  57  82 114 150 188 237 293 342
#
# _framework density 19.682917
#
# number of rings (size 3 to 8) (size 9 to 14) (size 15 to 20)
#    0.000    2.250    0.000    1.875    3.500    4.750 
#    0.000    1.250    0.000    0.000    0.000    0.000 
#    0.000    0.000    0.000    0.000    0.000    0.000 
#
# Total GULP energy -793272.573517 kJ/mol
# GULP energy per Si atom -12394.883961 kJ/mol
# Density = 1.963812 g / cm^3
# Si number density = 19.682917 Si / 1000 Ang^3
#
#
#
# Elastic Constant Matrix: (Units=GPa)
#
#
# Indices 1 2 3 4 5 6 
#
# 1 102.8980 47.4130 42.7623 0.0000 0.0000 0.0000
# 2 47.4130 147.9676 38.1615 0.0000 0.0000 0.0000
# 3 42.7623 38.1615 52.0057 0.0000 0.0000 0.0000
# 4 0.0000 0.0000 0.0000 28.8222 0.0000 0.0000
# 5 0.0000 0.0000 0.0000 0.0000 24.7939 0.0000
# 6 0.0000 0.0000 0.0000 0.0000 0.0000 25.0746
#
#
#
# Elastic Compliance Matrix: (Units=1/GPa)
#
#
# Indices 1 2 3 4 5 6 
#
# 1 0.015246 -0.002038 -0.011041 0.000000 0.000000 0.000000
# 2 -0.002038 0.008608 -0.004641 0.000000 0.000000 0.000000
# 3 -0.011041 -0.004641 0.031713 0.000000 0.000000 0.000000
# 4 0.000000 0.000000 0.000000 0.034695 0.000000 0.000000
# 5 0.000000 0.000000 0.000000 0.000000 0.040333 0.000000
# 6 0.000000 0.000000 0.000000 0.000000 0.000000 0.039881
#
#
# Mechanical properties :
#
#
# Convention : Reuss Voigt Hill
#
# Bulk Modulus (GPa) = 49.68332 62.17165 55.92749
# Shear Modulus (GPa) = 23.51579 27.37377 25.44478
#
# Velocity S-wave (km/s) = 3.46024 3.73330 3.59936
# Velocity P-wave (km/s) = 6.42347 7.08792 6.76386
#
# Compressibility (1/GPa) = 0.02012748
#
# Stress axis : x y z
#
# Youngs Moduli (GPa) = 65.59301 116.16934 31.53325
#
# Poissons Ratio (x) = 0.23672 0.34815
# Poissons Ratio (y) = 0.13366 0.14635
# Poissons Ratio (z) = 0.72419 0.53915
#
# Static dielectric constant tensor:
#      x y z
#    x 3.658630 0.000000 0.000000 
#    y 0.000000 3.796220 0.000000 
#    z 0.000000 0.000000 3.506310 
# 
# 
# High freq. dielectric constant tensor:
#      x y z
#    x 1.768820 0.000000 0.000000 
#    y 0.000000 1.779640 0.000000 
#    z 0.000000 0.000000 1.748270 
# 
# From -- ./inp_files/4678.got.cif
#   From: 2010.06.25/outbox.cif.g09.slc.cpg/sg58_3_cif.got.tgz:4678.got - 2010.06.26 21:38:00.
