data_PCOD8237627
_publ_section_title
;
Structure prediction by ZEFSAII (Michael W. Deem and Ramdas Pophale) SiO2 
 PCOD8237627
Probable space group: P N N M
;
_chemical_formula_sum "Si O2"
_cell_formula_units_Z 48
_cell_length_a 19.982048
_cell_length_b 13.987462
_cell_length_c 9.062246
_cell_angle_alpha 90.000000
_cell_angle_beta 90.000000
_cell_angle_gamma 90.000000
_cell_volume 2532.880875
_symmetry_space_group_name_H-M "P N N M"
_symmetry_group_IT_number 58
_symmetry_cell_setting 'orthorhombic'
loop_
_space_group_symop_operation_xyz
x,y,z
-x,-y,z
1/2+x,1/2-y,1/2-z
1/2-x,1/2+y,1/2-z
-x,-y,-z
x,y,-z
1/2-x,1/2+y,1/2+z
1/2+x,1/2-y,1/2+z
loop_
_atom_site_type_symbol
_atom_site_label
_atom_site_fract_x
_atom_site_fract_y
_atom_site_fract_z
Si Si1 0.608680 0.258826 0.825360
Si Si2 0.570553 0.451668 0.673332
Si Si3 0.762679 0.251727 0.171679
Si Si4 0.680722 0.577761 0.169069
Si Si5 0.814311 0.460237 0.834375
Si Si6 0.565392 0.051684 0.825926
O O1 0.572916 0.346598 0.744494
O O2 0.685747 0.248183 0.774846
O O3 0.569919 0.162441 0.775665
O O4 0.605009 0.277409 0.000000
O O5 0.500000 0.500000 0.710324
O O6 0.582468 0.441346 0.500000
O O7 0.627222 0.518521 0.739881
O O8 0.810907 0.182541 0.263308
O O9 0.791147 0.355075 0.206974
O O10 0.766894 0.224370 0.000000
O O11 0.751792 0.528604 0.183620
O O12 0.656712 0.584509 0.000000
O O13 0.870593 0.492231 0.722253
O O14 0.843025 0.464910 0.000000
O O15 0.500000 0.000000 0.757884
O O16 0.563297 0.047889 0.000000
#
# Coordination Sequence:
#
# PCOD8237627 Si02
#       6
#     8   8   8   8   8   8
#     4  10  20  38  62  87 120 160 198 247 304 355
#     4  11  25  42  61  88 122 160 203 250 304 364
#     4  10  20  37  60  89 123 158 196 246 301 349
#     4  11  22  38  61  91 119 152 202 248 295 358
#     4  10  21  37  58  86 118 151 197 244 291 352
#     4  10  22  39  60  88 121 156 198 242 293 355
#
# _framework density 18.950752999999999
#
# number of rings (size 3 to 8) (size 9 to 14) (size 15 to 20)
#    0.000    1.667    3.333    1.000    0.000    5.667 
#    0.000    3.333    0.000    0.000    0.000    0.000 
#    0.000    0.000    0.000    0.000    0.000    0.000 
#
# Total GULP energy -595329.754788 kJ/mol
# GULP energy per Si atom -12402.703225 kJ/mol
# Density = 1.890762 g / cm^3
# Si number density = 18.950753 Si / 1000 Ang^3
#
#
#
# Elastic Constant Matrix: (Units=GPa)
#
#
# Indices 1 2 3 4 5 6 
#
# 1 1749.7971 1037.4941 321.7201 0.0000 0.0000 0.0000
# 2 1037.4941 692.0888 208.5018 0.0000 0.0000 0.0000
# 3 321.7201 208.5018 91.4727 0.0000 0.0000 0.0000
# 4 0.0000 0.0000 0.0000 32.8235 0.0000 0.0000
# 5 0.0000 0.0000 0.0000 0.0000 33.9148 0.0000
# 6 0.0000 0.0000 0.0000 0.0000 0.0000 22.6597
#
#
#
# Elastic Compliance Matrix: (Units=1/GPa)
#
#
# Indices 1 2 3 4 5 6 
#
# 1 0.005220 -0.007322 -0.001668 0.000000 0.000000 0.000000
# 2 -0.007322 0.014883 -0.008172 0.000000 0.000000 0.000000
# 3 -0.001668 -0.008172 0.035427 0.000000 0.000000 0.000000
# 4 0.000000 0.000000 0.000000 0.030466 0.000000 0.000000
# 5 0.000000 0.000000 0.000000 0.000000 0.029486 0.000000
# 6 0.000000 0.000000 0.000000 0.000000 0.000000 0.044131
#
#
# Mechanical properties :
#
#
# Convention : Reuss Voigt Hill
#
# Bulk Modulus (GPa) = 47.15860 629.86563 338.51212
# Shear Modulus (GPa) = 24.87500 82.25578 53.56539
#
# Velocity S-wave (km/s) = 3.62693 6.59540 5.32231
# Velocity P-wave (km/s) = 6.51754 19.77600 14.72360
#
# Compressibility (1/GPa) = 0.02120504
#
# Stress axis : x y z
#
# Youngs Moduli (GPa) = 191.58640 67.19083 28.22715
#
# Poissons Ratio (x) = 0.49197 0.04709
# Poissons Ratio (y) = 1.40279 0.23067
# Poissons Ratio (z) = 0.31962 0.54908
#
# Static dielectric constant tensor:
#      x y z
#    x 3.492180 0.000000 0.000000 
#    y 0.000000 3.678900 0.000000 
#    z 0.000000 0.000000 3.458540 
# 
# 
# High freq. dielectric constant tensor:
#      x y z
#    x 1.733270 0.000000 0.000000 
#    y 0.000000 1.754620 0.000000 
#    z 0.000000 0.000000 1.733310 
# 
# From -- ./inp_files/5912.got.cif
#   From: 2010.06.25/outbox.cif.g09.slc.cpg/sg58_3_cif.got.tgz:5912.got - 2010.06.26 21:38:00.
