data_PCOD8237859
_publ_section_title
;
Structure prediction by ZEFSAII (Michael W. Deem and Ramdas Pophale) SiO2 
 PCOD8237859
Probable space group: P N N M
;
_chemical_formula_sum "Si O2"
_cell_formula_units_Z 48
_cell_length_a 9.543579
_cell_length_b 9.152574
_cell_length_c 26.516755
_cell_angle_alpha 90.000000
_cell_angle_beta 90.000000
_cell_angle_gamma 90.000000
_cell_volume 2316.193816
_symmetry_space_group_name_H-M "P N N M"
_symmetry_group_IT_number 58
_symmetry_cell_setting 'orthorhombic'
loop_
_space_group_symop_operation_xyz
x,y,z
-x,-y,z
1/2+x,1/2-y,1/2-z
1/2-x,1/2+y,1/2-z
-x,-y,-z
x,y,-z
1/2-x,1/2+y,1/2+z
1/2+x,1/2-y,1/2+z
loop_
_atom_site_type_symbol
_atom_site_label
_atom_site_fract_x
_atom_site_fract_y
_atom_site_fract_z
Si Si1 0.358465 0.918486 0.208336
Si Si2 0.319029 0.751005 0.557922
Si Si3 0.656000 0.000105 0.093706
Si Si4 0.133174 0.780890 0.055306
Si Si5 0.848653 0.928804 0.719598
Si Si6 0.155868 0.522902 0.126350
O O1 0.358280 0.747333 0.223934
O O2 0.500000 0.000000 0.226568
O O3 0.343407 0.928167 0.148534
O O4 0.227724 0.005730 0.231478
O O5 0.268210 0.759420 0.500000
O O6 0.208717 0.666340 0.593261
O O7 0.471014 0.673851 0.562271
O O8 0.321228 0.911786 0.580764
O O9 0.500000 0.000000 0.070896
O O10 0.763786 0.081281 0.056657
O O11 0.178316 0.678814 0.101037
O O12 0.148898 0.706376 0.000000
O O13 0.765807 0.988502 0.671174
O O14 0.000000 0.000000 0.716711
O O15 0.000000 0.500000 0.149155
#
# Coordination Sequence:
#
# PCOD8237859 Si02
#       6
#     8   8   8   8   8   8
#     4  11  26  47  67  97 132 170 217 267 327 395
#     4  10  22  38  63  94 127 172 218 266 316 377
#     4  11  24  40  62  91 131 167 211 263 324 381
#     4  10  20  40  63  90 126 167 215 266 314 378
#     4  12  26  44  72  98 129 170 214 271 330 390
#     4  10  22  40  65  94 129 166 215 263 323 382
#
# _framework density 20.723655000000001
#
# number of rings (size 3 to 8) (size 9 to 14) (size 15 to 20)
#    0.000    1.333    1.667    3.000    7.000    6.000 
#    0.000    0.000    0.000    3.000    0.000    0.000 
#    0.000    0.000    0.000    0.000    0.000    0.000 
#
# Total GULP energy -595162.386101 kJ/mol
# GULP energy per Si atom -12399.216377 kJ/mol
# Density = 2.067649 g / cm^3
# Si number density = 20.723655 Si / 1000 Ang^3
#
#
#
# Elastic Constant Matrix: (Units=GPa)
#
#
# Indices 1 2 3 4 5 6 
#
# 1 146.9154 56.5992 43.9315 0.0000 0.0000 0.0000
# 2 56.5992 110.7965 22.3915 0.0000 0.0000 0.0000
# 3 43.9315 22.3915 52.6385 0.0000 0.0000 0.0000
# 4 0.0000 0.0000 0.0000 8.9200 0.0000 0.0000
# 5 0.0000 0.0000 0.0000 0.0000 23.7794 0.0000
# 6 0.0000 0.0000 0.0000 0.0000 0.0000 35.6114
#
#
#
# Elastic Compliance Matrix: (Units=1/GPa)
#
#
# Indices 1 2 3 4 5 6 
#
# 1 0.010410 -0.003897 -0.007031 0.000000 0.000000 0.000000
# 2 -0.003897 0.011333 -0.001568 0.000000 0.000000 0.000000
# 3 -0.007031 -0.001568 0.025532 0.000000 0.000000 0.000000
# 4 0.000000 0.000000 0.000000 0.112107 0.000000 0.000000
# 5 0.000000 0.000000 0.000000 0.000000 0.042053 0.000000
# 6 0.000000 0.000000 0.000000 0.000000 0.000000 0.028081
#
#
# Mechanical properties :
#
#
# Convention : Reuss Voigt Hill
#
# Bulk Modulus (GPa) = 44.87602 61.79942 53.33772
# Shear Modulus (GPa) = 19.08848 26.15737 22.62293
#
# Velocity S-wave (km/s) = 3.03825 3.55660 3.30759
# Velocity P-wave (km/s) = 5.83176 6.83749 6.35456
#
# Compressibility (1/GPa) = 0.02228362
#
# Stress axis : x y z
#
# Youngs Moduli (GPa) = 96.05825 88.23504 39.16599
#
# Poissons Ratio (x) = 0.34387 0.27536
# Poissons Ratio (y) = 0.37436 0.06143
# Poissons Ratio (z) = 0.67535 0.13839
#
# Static dielectric constant tensor:
#      x y z
#    x 3.958570 0.000000 0.000000 
#    y 0.000000 3.708070 0.000000 
#    z 0.000000 0.000000 3.598970 
# 
# 
# High freq. dielectric constant tensor:
#      x y z
#    x 1.815520 0.000000 0.000000 
#    y 0.000000 1.815600 0.000000 
#    z 0.000000 0.000000 1.815290 
# 
# From -- ./inp_files/34567.got.cif
#   From: 2010.06.25/outbox.cif.g09.slc.cpg/sg58_18_cif.got.tgz:34567.got - 2010.06.26 21:38:00.
