data_PCOD8237210
_publ_section_title
;
Structure prediction by ZEFSAII (Michael W. Deem and Ramdas Pophale) SiO2 
 PCOD8237210
Probable space group: P N N M
;
_chemical_formula_sum "Si O2"
_cell_formula_units_Z 48
_cell_length_a 9.030503
_cell_length_b 30.529259
_cell_length_c 9.172960
_cell_angle_alpha 90.000000
_cell_angle_beta 90.000000
_cell_angle_gamma 90.000000
_cell_volume 2528.935217
_symmetry_space_group_name_H-M "P N N M"
_symmetry_group_IT_number 58
_symmetry_cell_setting 'orthorhombic'
loop_
_space_group_symop_operation_xyz
x,y,z
-x,-y,z
1/2+x,1/2-y,1/2-z
1/2-x,1/2+y,1/2-z
-x,-y,-z
x,y,-z
1/2-x,1/2+y,1/2+z
1/2+x,1/2-y,1/2+z
loop_
_atom_site_type_symbol
_atom_site_label
_atom_site_fract_x
_atom_site_fract_y
_atom_site_fract_z
Si Si1 0.840990 0.295374 0.330051
Si Si2 0.651526 0.630974 0.170867
Si Si3 0.650761 0.379197 0.670903
Si Si4 0.848227 0.551693 0.828390
Si Si5 0.319736 0.046780 0.327732
Si Si6 0.351722 0.785604 0.669464
O O1 0.869498 0.288419 0.500000
O O2 0.773100 0.342618 0.294592
O O3 0.729273 0.258010 0.272733
O O4 0.995798 0.291454 0.251369
O O5 0.501665 0.636554 0.259367
O O6 0.739329 0.588734 0.233934
O O7 0.748129 0.673397 0.203578
O O8 0.615726 0.625755 0.000000
O O9 0.627798 0.385995 0.500000
O O10 0.700450 0.424625 0.742572
O O11 0.785567 0.503817 0.788310
O O12 0.015437 0.558360 0.769558
O O13 0.859907 0.556570 0.000000
O O14 0.303595 0.055204 0.500000
O O15 0.389194 0.781906 0.500000
#
# Coordination Sequence:
#
# PCOD8237210 Si02
#       6
#     8   8   8   8   8   8
#     4  10  22  38  55  79 111 141 170 212 264 311
#     4  10  20  35  55  79 105 135 177 222 260 305
#     4  11  23  36  50  75 111 145 176 211 259 316
#     4   8  16  32  56  82 103 129 172 224 270 309
#     4   9  17  34  58  79 102 135 175 219 266 312
#     4  10  21  37  59  84 106 135 179 220 255 309
#
# _framework density 18.980319999999999
#
# number of rings (size 3 to 8) (size 9 to 14) (size 15 to 20)
#    0.000    2.333    0.000    3.500    0.000    4.667 
#    0.000    6.667    0.000    0.000    0.000    0.000 
#    0.000    0.000    0.000    0.000    0.000    0.000 
#
# Total GULP energy -595284.282450 kJ/mol
# GULP energy per Si atom -12401.755884 kJ/mol
# Density = 1.893712 g / cm^3
# Si number density = 18.980320 Si / 1000 Ang^3
#
#
#
# Elastic Constant Matrix: (Units=GPa)
#
#
# Indices 1 2 3 4 5 6 
#
# 1 90.3155 19.2258 43.5531 0.0000 0.0000 0.0000
# 2 19.2258 85.4006 31.9945 0.0000 0.0000 0.0000
# 3 43.5531 31.9945 53.2135 0.0000 0.0000 0.0000
# 4 0.0000 0.0000 0.0000 15.1140 0.0000 0.0000
# 5 0.0000 0.0000 0.0000 0.0000 31.9594 0.0000
# 6 0.0000 0.0000 0.0000 0.0000 0.0000 27.8960
#
#
#
# Elastic Compliance Matrix: (Units=1/GPa)
#
#
# Indices 1 2 3 4 5 6 
#
# 1 0.018540 0.001950 -0.016347 0.000000 0.000000 0.000000
# 2 0.001950 0.015319 -0.010807 0.000000 0.000000 0.000000
# 3 -0.016347 -0.010807 0.038669 0.000000 0.000000 0.000000
# 4 0.000000 0.000000 0.000000 0.066164 0.000000 0.000000
# 5 0.000000 0.000000 0.000000 0.000000 0.031290 0.000000
# 6 0.000000 0.000000 0.000000 0.000000 0.000000 0.035847
#
#
# Mechanical properties :
#
#
# Convention : Reuss Voigt Hill
#
# Bulk Modulus (GPa) = 45.20505 46.49739 45.85122
# Shear Modulus (GPa) = 18.96736 23.93763 21.45250
#
# Velocity S-wave (km/s) = 3.16463 3.55516 3.36557
# Velocity P-wave (km/s) = 6.10096 6.43453 6.26996
#
# Compressibility (1/GPa) = 0.02212142
#
# Stress axis : x y z
#
# Youngs Moduli (GPa) = 53.93678 65.27785 25.86031
#
# Poissons Ratio (x) = -0.12732 0.42274
# Poissons Ratio (y) = -0.10520 0.27947
# Poissons Ratio (z) = 0.88171 0.70545
#
# Static dielectric constant tensor:
#      x y z
#    x 3.503280 0.000000 0.000000 
#    y 0.000000 3.799650 0.000000 
#    z 0.000000 0.000000 3.206260 
# 
# 
# High freq. dielectric constant tensor:
#      x y z
#    x 1.743620 0.000000 0.000000 
#    y 0.000000 1.755560 0.000000 
#    z 0.000000 0.000000 1.711030 
# 
# From -- ./inp_files/2859.got.cif
#   From: 2010.06.25/outbox.cif.g09.slc.cpg/sg58_2_cif.got.tgz:2859.got - 2010.06.26 21:38:00.
