data_PCOD8237421
_publ_section_title
;
Structure prediction by ZEFSAII (Michael W. Deem and Ramdas Pophale) SiO2 
 PCOD8237421
Probable space group: P N N M
;
_chemical_formula_sum "Si O2"
_cell_formula_units_Z 64
_cell_length_a 12.896109
_cell_length_b 27.943468
_cell_length_c 8.939638
_cell_angle_alpha 90.000000
_cell_angle_beta 90.000000
_cell_angle_gamma 90.000000
_cell_volume 3221.505911
_symmetry_space_group_name_H-M "P N N M"
_symmetry_group_IT_number 58
_symmetry_cell_setting 'orthorhombic'
loop_
_space_group_symop_operation_xyz
x,y,z
-x,-y,z
1/2+x,1/2-y,1/2-z
1/2-x,1/2+y,1/2-z
-x,-y,-z
x,y,-z
1/2-x,1/2+y,1/2+z
1/2+x,1/2-y,1/2+z
loop_
_atom_site_type_symbol
_atom_site_label
_atom_site_fract_x
_atom_site_fract_y
_atom_site_fract_z
Si Si1 0.617451 0.486912 0.672961
Si Si2 0.635941 0.119125 0.169479
Si Si3 0.936698 0.160146 0.821914
Si Si4 0.765529 0.714742 0.328827
Si Si5 0.050608 0.550423 0.672908
Si Si6 0.151373 0.186509 0.324624
Si Si7 0.256641 0.587043 0.173853
Si Si8 0.824435 0.078109 0.674032
O O1 0.500000 0.500000 0.703898
O O2 0.647109 0.488020 0.500000
O O3 0.644494 0.435329 0.740996
O O4 0.686149 0.524947 0.761999
O O5 0.638777 0.176905 0.188376
O O6 0.524619 0.095793 0.198221
O O7 0.712345 0.099938 0.295434
O O8 0.674407 0.106354 0.000000
O O9 0.842121 0.193780 0.761933
O O10 0.915332 0.106908 0.759490
O O11 0.044420 0.179388 0.761584
O O12 0.939554 0.157014 0.000000
O O13 0.742214 0.725908 0.500000
O O14 0.797890 0.765229 0.255189
O O15 0.082108 0.545029 0.500000
O O16 0.151840 0.563349 0.765992
O O17 0.000000 0.500000 0.727911
O O18 0.125233 0.191265 0.500000
O O19 0.233959 0.143870 0.296081
O O20 0.264591 0.575181 0.000000
O O21 0.850403 0.078011 0.500000
#
# Coordination Sequence:
#
# PCOD8237421 Si02
#       8
#     8   8   8   8   8   8   8   8
#     4  11  23  38  57  79 106 142 182 224 271 330
#     4   9  18  35  58  82 110 149 193 233 278 334
#     4  10  20  36  58  83 112 149 192 235 282 338
#     4   8  17  35  57  80 110 149 192 237 286 340
#     4  10  21  37  58  83 114 152 191 234 284 339
#     4  10  21  38  57  80 114 151 187 236 293 338
#     4  11  24  38  55  82 115 149 185 230 286 344
#     4  11  21  34  56  84 112 141 177 225 277 330
#
# _framework density 19.866485000000001
#
# number of rings (size 3 to 8) (size 9 to 14) (size 15 to 20)
#    0.000    2.000    0.000    4.500    0.000    6.750 
#    0.000    3.125    0.000    0.000    0.000    0.000 
#    0.000    0.000    0.000    0.000    0.000    0.000 
#
# Total GULP energy -793437.174361 kJ/mol
# GULP energy per Si atom -12397.455849 kJ/mol
# Density = 1.982127 g / cm^3
# Si number density = 19.866485 Si / 1000 Ang^3
#
#
#
# Elastic Constant Matrix: (Units=GPa)
#
#
# Indices 1 2 3 4 5 6 
#
# 1 92.6231 48.4615 43.9678 0.0000 0.0000 0.0000
# 2 48.4615 128.0236 39.2396 0.0000 0.0000 0.0000
# 3 43.9678 39.2396 83.2619 0.0000 0.0000 0.0000
# 4 0.0000 0.0000 0.0000 19.3981 0.0000 0.0000
# 5 0.0000 0.0000 0.0000 0.0000 31.6761 0.0000
# 6 0.0000 0.0000 0.0000 0.0000 0.0000 29.9946
#
#
#
# Elastic Compliance Matrix: (Units=1/GPa)
#
#
# Indices 1 2 3 4 5 6 
#
# 1 0.016031 -0.004060 -0.006552 0.000000 0.000000 0.000000
# 2 -0.004060 0.010158 -0.002643 0.000000 0.000000 0.000000
# 3 -0.006552 -0.002643 0.016716 0.000000 0.000000 0.000000
# 4 0.000000 0.000000 0.000000 0.051551 0.000000 0.000000
# 5 0.000000 0.000000 0.000000 0.000000 0.031570 0.000000
# 6 0.000000 0.000000 0.000000 0.000000 0.000000 0.033339
#
#
# Mechanical properties :
#
#
# Convention : Reuss Voigt Hill
#
# Bulk Modulus (GPa) = 60.99705 63.02737 62.01221
# Shear Modulus (GPa) = 26.13140 27.69641 26.91391
#
# Velocity S-wave (km/s) = 3.63071 3.73785 3.68467
# Velocity P-wave (km/s) = 6.95315 7.10092 7.02742
#
# Compressibility (1/GPa) = 0.01639423
#
# Stress axis : x y z
#
# Youngs Moduli (GPa) = 62.37952 98.44338 59.82332
#
# Poissons Ratio (x) = 0.39969 0.39196
# Poissons Ratio (y) = 0.25327 0.15813
# Poissons Ratio (z) = 0.40871 0.26022
#
# Static dielectric constant tensor:
#      x y z
#    x 3.513290 0.000000 0.000000 
#    y 0.000000 4.150500 0.000000 
#    z 0.000000 0.000000 3.454270 
# 
# 
# High freq. dielectric constant tensor:
#      x y z
#    x 1.768050 0.000000 0.000000 
#    y 0.000000 1.785930 0.000000 
#    z 0.000000 0.000000 1.761100 
# 
# From -- ./inp_files/4705.got.cif
#   From: 2010.06.25/outbox.cif.g09.slc.cpg/sg58_3_cif.got.tgz:4705.got - 2010.06.26 21:38:00.
