data_PCOD8237515
_publ_section_title
;
Structure prediction by ZEFSAII (Michael W. Deem and Ramdas Pophale) SiO2 
 PCOD8237515
Probable space group: P N N M
;
_chemical_formula_sum "Si O2"
_cell_formula_units_Z 40
_cell_length_a 20.087757
_cell_length_b 7.662951
_cell_length_c 13.442108
_cell_angle_alpha 90.000000
_cell_angle_beta 90.000000
_cell_angle_gamma 90.000000
_cell_volume 2069.163815
_symmetry_space_group_name_H-M "P N N M"
_symmetry_group_IT_number 58
_symmetry_cell_setting 'orthorhombic'
loop_
_space_group_symop_operation_xyz
x,y,z
-x,-y,z
1/2+x,1/2-y,1/2-z
1/2-x,1/2+y,1/2-z
-x,-y,-z
x,y,-z
1/2-x,1/2+y,1/2+z
1/2+x,1/2-y,1/2+z
loop_
_atom_site_type_symbol
_atom_site_label
_atom_site_fract_x
_atom_site_fract_y
_atom_site_fract_z
Si Si1 0.574833 0.455952 0.112684
Si Si2 0.814955 0.435239 0.787581
Si Si3 0.613413 0.224643 0.388511
Si Si4 0.328089 0.457015 0.716431
Si Si5 0.933626 0.595884 0.696140
O O1 0.500000 0.500000 0.146409
O O2 0.626415 0.551915 0.185001
O O3 0.584092 0.247098 0.118336
O O4 0.588768 0.518096 0.000000
O O5 0.828537 0.577052 0.875248
O O6 0.742469 0.461258 0.743677
O O7 0.821121 0.237489 0.827899
O O8 0.870462 0.465111 0.700514
O O9 0.584503 0.217593 0.500000
O O10 0.641123 0.418575 0.367995
O O11 0.555711 0.181741 0.307237
O O12 0.000000 0.500000 0.660743
#
# Coordination Sequence:
#
# PCOD8237515 Si02
#       5
#     8   8   8   8   8
#     4  10  21  36  58  87 117 152 195 236 284 346
#     4  10  20  36  61  83 112 155 188 233 281 348
#     4   9  21  36  57  86 112 145 190 232 279 344
#     4  11  19  39  60  79 122 150 188 236 294 330
#     4   9  19  37  59  80 118 153 183 242 285 333
#
# _framework density 19.331479999999999
#
# number of rings (size 3 to 8) (size 9 to 14) (size 15 to 20)
#    1.200    1.000    2.000    1.200    0.000    2.400 
#    0.000    4.000    0.000    3.600    0.000    0.000 
#    0.000    0.000    0.000    0.000    0.000    0.000 
#
# Total GULP energy -495649.606472 kJ/mol
# GULP energy per Si atom -12391.240162 kJ/mol
# Density = 1.928748 g / cm^3
# Si number density = 19.331480 Si / 1000 Ang^3
#
#
#
# Elastic Constant Matrix: (Units=GPa)
#
#
# Indices 1 2 3 4 5 6 
#
# 1 82.5890 3.5217 7.6982 0.0000 0.0000 0.0000
# 2 3.5217 132.3722 5.6244 0.0000 0.0000 0.0000
# 3 7.6982 5.6244 65.2262 0.0000 0.0000 0.0000
# 4 0.0000 0.0000 0.0000 17.0569 0.0000 0.0000
# 5 0.0000 0.0000 0.0000 0.0000 34.2533 0.0000
# 6 0.0000 0.0000 0.0000 0.0000 0.0000 30.3446
#
#
#
# Elastic Compliance Matrix: (Units=1/GPa)
#
#
# Indices 1 2 3 4 5 6 
#
# 1 0.012252 -0.000265 -0.001423 0.000000 0.000000 0.000000
# 2 -0.000265 0.007588 -0.000623 0.000000 0.000000 0.000000
# 3 -0.001423 -0.000623 0.015553 0.000000 0.000000 0.000000
# 4 0.000000 0.000000 0.000000 0.058627 0.000000 0.000000
# 5 0.000000 0.000000 0.000000 0.000000 0.029194 0.000000
# 6 0.000000 0.000000 0.000000 0.000000 0.000000 0.032955
#
#
# Mechanical properties :
#
#
# Convention : Reuss Voigt Hill
#
# Bulk Modulus (GPa) = 32.49934 34.87510 33.68722
# Shear Modulus (GPa) = 29.23135 33.88718 31.55926
#
# Velocity S-wave (km/s) = 3.89281 4.19137 4.04484
# Velocity P-wave (km/s) = 6.08715 6.44230 6.26724
#
# Compressibility (1/GPa) = 0.03076986
#
# Stress axis : x y z
#
# Youngs Moduli (GPa) = 81.61853 131.78720 64.29648
#
# Poissons Ratio (x) = 0.03499 0.09150
# Poissons Ratio (y) = 0.02167 0.04005
# Poissons Ratio (z) = 0.11615 0.08210
#
# Static dielectric constant tensor:
#      x y z
#    x 3.354510 0.000000 0.000000 
#    y 0.000000 3.378030 0.000000 
#    z 0.000000 0.000000 3.080060 
# 
# 
# High freq. dielectric constant tensor:
#      x y z
#    x 1.742080 0.000000 0.000000 
#    y 0.000000 1.767270 0.000000 
#    z 0.000000 0.000000 1.714480 
# 
# From -- ./inp_files/22636.got.cif
#   From: 2010.06.25/outbox.cif.g09.slc.cpg/sg58_12_cif.got.tgz:22636.got - 2010.06.26 21:38:00.
