data_PCOD8237319
_publ_section_title
;
Structure prediction by ZEFSAII (Michael W. Deem and Ramdas Pophale) SiO2 
 PCOD8237319
Probable space group: P N N M
;
_chemical_formula_sum "Si O2"
_cell_formula_units_Z 48
_cell_length_a 18.737955
_cell_length_b 15.213453
_cell_length_c 8.873765
_cell_angle_alpha 90.000000
_cell_angle_beta 90.000000
_cell_angle_gamma 90.000000
_cell_volume 2529.635294
_symmetry_space_group_name_H-M "P N N M"
_symmetry_group_IT_number 58
_symmetry_cell_setting 'orthorhombic'
loop_
_space_group_symop_operation_xyz
x,y,z
-x,-y,z
1/2+x,1/2-y,1/2-z
1/2-x,1/2+y,1/2-z
-x,-y,-z
x,y,-z
1/2-x,1/2+y,1/2+z
1/2+x,1/2-y,1/2+z
loop_
_atom_site_type_symbol
_atom_site_label
_atom_site_fract_x
_atom_site_fract_y
_atom_site_fract_z
Si Si1 0.427449 0.253115 0.175348
Si Si2 0.423153 0.744484 0.322348
Si Si3 0.185376 0.905917 0.325411
Si Si4 0.335406 0.895159 0.822692
Si Si5 0.177272 0.085985 0.178580
Si Si6 0.836566 0.406514 0.676383
O O1 0.496748 0.274627 0.272272
O O2 0.372414 0.331195 0.201309
O O3 0.392461 0.163652 0.243097
O O4 0.448486 0.243439 0.000000
O O5 0.418342 0.757006 0.500000
O O6 0.395492 0.832529 0.244081
O O7 0.375785 0.662179 0.268642
O O8 0.201560 0.921107 0.500000
O O9 0.258524 0.874915 0.247954
O O10 0.153499 0.994773 0.254257
O O11 0.360389 0.994480 0.784037
O O12 0.329110 0.881041 0.000000
O O13 0.256533 0.110577 0.237623
O O14 0.176428 0.071701 0.000000
O O15 0.834456 0.389365 0.500000
#
# Coordination Sequence:
#
# PCOD8237319 Si02
#       6
#     8   8   8   8   8   8
#     4  10  21  37  55  77 110 148 182 219 270 330
#     4  11  23  37  54  79 112 147 184 227 274 323
#     4  10  20  35  58  85 110 139 180 229 274 321
#     4  10  20  36  59  83 108 142 183 224 272 329
#     4   9  19  37  58  78 105 143 183 224 274 328
#     4   8  16  34  58  78  99 137 182 217 260 323
#
# _framework density 18.975066999999999
#
# number of rings (size 3 to 8) (size 9 to 14) (size 15 to 20)
#    0.000    2.333    0.000    3.500    0.000    6.667 
#    0.000   10.833    0.000    0.000    0.000    0.000 
#    0.000    0.000    0.000    0.000    0.000    0.000 
#
# Total GULP energy -595262.817320 kJ/mol
# GULP energy per Si atom -12401.308694 kJ/mol
# Density = 1.893188 g / cm^3
# Si number density = 18.975067 Si / 1000 Ang^3
#
#
#
# Elastic Constant Matrix: (Units=GPa)
#
#
# Indices 1 2 3 4 5 6 
#
# 1 63.0931 34.1133 23.0649 0.0000 0.0000 0.0000
# 2 34.1133 98.5359 32.7864 0.0000 0.0000 0.0000
# 3 23.0649 32.7864 54.9530 0.0000 0.0000 0.0000
# 4 0.0000 0.0000 0.0000 26.3175 0.0000 0.0000
# 5 0.0000 0.0000 0.0000 0.0000 33.1434 0.0000
# 6 0.0000 0.0000 0.0000 0.0000 0.0000 13.7999
#
#
#
# Elastic Compliance Matrix: (Units=1/GPa)
#
#
# Indices 1 2 3 4 5 6 
#
# 1 0.020761 -0.005350 -0.005522 0.000000 0.000000 0.000000
# 2 -0.005350 0.014041 -0.006132 0.000000 0.000000 0.000000
# 3 -0.005522 -0.006132 0.024173 0.000000 0.000000 0.000000
# 4 0.000000 0.000000 0.000000 0.037998 0.000000 0.000000
# 5 0.000000 0.000000 0.000000 0.000000 0.030172 0.000000
# 6 0.000000 0.000000 0.000000 0.000000 0.000000 0.072464
#
#
# Mechanical properties :
#
#
# Convention : Reuss Voigt Hill
#
# Bulk Modulus (GPa) = 40.05115 44.05679 42.05397
# Shear Modulus (GPa) = 20.66637 23.09332 21.87985
#
# Velocity S-wave (km/s) = 3.30378 3.49239 3.39939
# Velocity P-wave (km/s) = 5.97548 6.28737 6.13341
#
# Compressibility (1/GPa) = 0.02496807
#
# Stress axis : x y z
#
# Youngs Moduli (GPa) = 48.16747 71.21970 41.36801
#
# Poissons Ratio (x) = 0.38104 0.22842
# Poissons Ratio (y) = 0.25770 0.25366
# Poissons Ratio (z) = 0.26597 0.43670
#
# Static dielectric constant tensor:
#      x y z
#    x 3.487210 0.000000 0.000000 
#    y 0.000000 3.661440 0.000000 
#    z 0.000000 0.000000 3.362710 
# 
# 
# High freq. dielectric constant tensor:
#      x y z
#    x 1.734520 0.000000 0.000000 
#    y 0.000000 1.750830 0.000000 
#    z 0.000000 0.000000 1.725260 
# 
# From -- ./inp_files/5790.got.cif
#   From: 2010.06.25/outbox.cif.g09.slc.cpg/sg58_3_cif.got.tgz:5790.got - 2010.06.26 21:38:00.
