data_PCOD8237306
_publ_section_title
;
Structure prediction by ZEFSAII (Michael W. Deem and Ramdas Pophale) SiO2 
 PCOD8237306
Probable space group: P N N M
;
_chemical_formula_sum "Si O2"
_cell_formula_units_Z 64
_cell_length_a 12.215446
_cell_length_b 18.750138
_cell_length_c 14.350170
_cell_angle_alpha 90.000000
_cell_angle_beta 90.000000
_cell_angle_gamma 90.000000
_cell_volume 3286.781567
_symmetry_space_group_name_H-M "P N N M"
_symmetry_group_IT_number 58
_symmetry_cell_setting 'orthorhombic'
loop_
_space_group_symop_operation_xyz
x,y,z
-x,-y,z
1/2+x,1/2-y,1/2-z
1/2-x,1/2+y,1/2-z
-x,-y,-z
x,y,-z
1/2-x,1/2+y,1/2+z
1/2+x,1/2-y,1/2+z
loop_
_atom_site_type_symbol
_atom_site_label
_atom_site_fract_x
_atom_site_fract_y
_atom_site_fract_z
Si Si1 0.986123 0.078210 0.824084
Si Si2 0.739274 0.212888 0.606789
Si Si3 0.125478 0.646039 0.110250
Si Si4 0.517875 0.270665 0.605003
Si Si5 0.341300 0.138316 0.891518
Si Si6 0.203537 0.077556 0.271773
Si Si7 0.482095 0.918306 0.233824
Si Si8 0.737563 0.581639 0.226672
O O1 0.859958 0.088035 0.799792
O O2 0.012109 0.144223 0.890251
O O3 0.071152 0.082224 0.735941
O O4 0.000000 0.000000 0.872362
O O5 0.721097 0.194807 0.500000
O O6 0.624807 0.237990 0.656949
O O7 0.823839 0.277359 0.620356
O O8 0.787452 0.140050 0.648197
O O9 0.246743 0.633248 0.153039
O O10 0.093028 0.728599 0.133722
O O11 0.036311 0.597451 0.164628
O O12 0.123889 0.628620 0.000000
O O13 0.542708 0.251300 0.500000
O O14 0.253681 0.092133 0.831419
O O15 0.461544 0.125748 0.849611
O O16 0.332130 0.115029 0.000000
O O17 0.238806 0.999673 0.310528
O O18 0.354419 0.899254 0.228784
O O19 0.500000 0.000000 0.210317
#
# Coordination Sequence:
#
# PCOD8237306 Si02
#       8
#     8   8   8   8   8   8   8   8
#     4  10  23  38  58  81 116 160 199 243 294 353
#     4  10  21  36  59  87 116 157 203 247 293 353
#     4  10  21  36  61  91 121 150 192 252 302 351
#     4  10  20  35  57  88 115 150 201 246 299 354
#     4  10  21  38  62  87 119 159 197 240 298 362
#     4  10  21  41  59  89 119 160 200 238 306 361
#     4  11  21  38  59  92 120 152 197 240 307 363
#     4  11  22  37  57  90 119 150 203 242 291 364
#
# _framework density 19.471935999999999
#
# number of rings (size 3 to 8) (size 9 to 14) (size 15 to 20)
#    0.000    1.750    5.000    0.000    3.500    1.250 
#    0.000    3.125    0.000    5.250    0.000    0.000 
#    0.000    0.000    0.000    0.000    0.000    0.000 
#
# Total GULP energy -792911.271878 kJ/mol
# GULP energy per Si atom -12389.238623 kJ/mol
# Density = 1.942762 g / cm^3
# Si number density = 19.471936 Si / 1000 Ang^3
#
#
#
# Elastic Constant Matrix: (Units=GPa)
#
#
# Indices 1 2 3 4 5 6 
#
# 1 102.0217 19.3609 25.2768 0.0000 0.0000 0.0000
# 2 19.3609 132.4030 39.8116 0.0000 0.0000 0.0000
# 3 25.2768 39.8116 86.0671 0.0000 0.0000 0.0000
# 4 0.0000 0.0000 0.0000 25.1798 0.0000 0.0000
# 5 0.0000 0.0000 0.0000 0.0000 14.7244 0.0000
# 6 0.0000 0.0000 0.0000 0.0000 0.0000 26.6666
#
#
#
# Elastic Compliance Matrix: (Units=1/GPa)
#
#
# Indices 1 2 3 4 5 6 
#
# 1 0.010629 -0.000715 -0.002791 0.000000 0.000000 0.000000
# 2 -0.000715 0.008821 -0.003870 0.000000 0.000000 0.000000
# 3 -0.002791 -0.003870 0.014229 0.000000 0.000000 0.000000
# 4 0.000000 0.000000 0.000000 0.039714 0.000000 0.000000
# 5 0.000000 0.000000 0.000000 0.000000 0.067914 0.000000
# 6 0.000000 0.000000 0.000000 0.000000 0.000000 0.037500
#
#
# Mechanical properties :
#
#
# Convention : Reuss Voigt Hill
#
# Bulk Modulus (GPa) = 52.83640 54.37672 53.60656
# Shear Modulus (GPa) = 25.01641 29.05032 27.03336
#
# Velocity S-wave (km/s) = 3.58822 3.86671 3.73006
# Velocity P-wave (km/s) = 6.66038 6.92254 6.79272
#
# Compressibility (1/GPa) = 0.01892635
#
# Stress axis : x y z
#
# Youngs Moduli (GPa) = 94.08228 113.36588 70.28040
#
# Poissons Ratio (x) = 0.08107 0.19614
# Poissons Ratio (y) = 0.06728 0.27200
# Poissons Ratio (z) = 0.26257 0.43876
#
# Static dielectric constant tensor:
#      x y z
#    x 3.795190 0.000000 0.000000 
#    y 0.000000 3.824890 0.000000 
#    z 0.000000 0.000000 3.241780 
# 
# 
# High freq. dielectric constant tensor:
#      x y z
#    x 1.761910 0.000000 0.000000 
#    y 0.000000 1.772290 0.000000 
#    z 0.000000 0.000000 1.719460 
# 
# From -- ./inp_files/21529.got.cif
#   From: 2010.06.25/outbox.cif.g09.slc.cpg/sg58_11_cif.got.tgz:21529.got - 2010.06.26 21:38:00.
