data_PCOD8237984
_publ_section_title
;
Structure prediction by ZEFSAII (Michael W. Deem and Ramdas Pophale) SiO2 
 PCOD8237984
Probable space group: P N N M
;
_chemical_formula_sum "Si O2"
_cell_formula_units_Z 56
_cell_length_a 16.810172
_cell_length_b 4.986085
_cell_length_c 32.695101
_cell_angle_alpha 90.000000
_cell_angle_beta 90.000000
_cell_angle_gamma 90.000000
_cell_volume 2740.403530
_symmetry_space_group_name_H-M "P N N M"
_symmetry_group_IT_number 58
_symmetry_cell_setting 'orthorhombic'
loop_
_space_group_symop_operation_xyz
x,y,z
-x,-y,z
1/2+x,1/2-y,1/2-z
1/2-x,1/2+y,1/2-z
-x,-y,-z
x,y,-z
1/2-x,1/2+y,1/2+z
1/2+x,1/2-y,1/2+z
loop_
_atom_site_type_symbol
_atom_site_label
_atom_site_fract_x
_atom_site_fract_y
_atom_site_fract_z
Si Si1 0.447277 0.757694 0.395360
Si Si2 0.909715 0.018960 0.383465
Si Si3 0.209452 0.074967 0.454419
Si Si4 0.311911 0.569911 0.454708
Si Si5 0.091724 0.476042 0.670079
Si Si6 0.197706 0.384677 0.746130
Si Si7 0.445995 0.761720 0.302556
O O1 0.500000 0.500000 0.394629
O O2 0.372667 0.699660 0.423395
O O3 0.419548 0.821548 0.349249
O O4 0.500000 0.000000 0.413642
O O5 0.888501 0.313450 0.366229
O O6 0.861758 0.922236 0.422732
O O7 0.892943 0.820947 0.346129
O O8 0.000000 0.000000 0.398157
O O9 0.180651 0.164244 0.500000
O O10 0.279327 0.280196 0.440007
O O11 0.238618 0.771579 0.456335
O O12 0.351032 0.542890 0.500000
O O13 0.152189 0.511620 0.707384
O O14 0.000000 0.500000 0.684911
O O15 0.243625 0.639048 0.766107
O O16 0.135465 0.249764 0.777424
O O17 0.500000 0.500000 0.297330
O O18 0.500000 0.000000 0.285298
#
# Coordination Sequence:
#
# PCOD8237984 Si02
#       7
#     8   8   8   8   8   8   8
#     4  10  21  37  58  83 109 146 195 238 279 334
#     4  10  21  38  61  87 113 149 197 239 280 338
#     4  10  21  37  57  83 117 154 187 227 287 346
#     4  10  21  36  56  84 118 154 188 230 289 344
#     4  10  22  40  60  83 116 155 191 235 295 349
#     4  12  25  39  60  91 118 147 196 245 286 339
#     4  10  22  41  61  81 114 157 193 232 291 350
#
# _framework density 20.434947999999999
#
# number of rings (size 3 to 8) (size 9 to 14) (size 15 to 20)
#    0.000    1.714    0.000    3.857    0.000    6.000 
#    0.000    0.000    0.000    5.143    0.000    0.000 
#    0.000    0.000    0.000    0.000    0.000    0.000 
#
# Total GULP energy -694366.424855 kJ/mol
# GULP energy per Si atom -12399.400444 kJ/mol
# Density = 2.038844 g / cm^3
# Si number density = 20.434948 Si / 1000 Ang^3
#
#
#
# Elastic Constant Matrix: (Units=GPa)
#
#
# Indices 1 2 3 4 5 6 
#
# 1 99.3441 26.0856 68.9132 0.0000 0.0000 0.0000
# 2 26.0856 94.3799 18.3208 0.0000 0.0000 0.0000
# 3 68.9132 18.3208 98.3364 0.0000 0.0000 0.0000
# 4 0.0000 0.0000 0.0000 31.5421 0.0000 0.0000
# 5 0.0000 0.0000 0.0000 0.0000 162.8884 0.0000
# 6 0.0000 0.0000 0.0000 0.0000 0.0000 32.2098
#
#
#
# Elastic Compliance Matrix: (Units=1/GPa)
#
#
# Indices 1 2 3 4 5 6 
#
# 1 0.020358 -0.002964 -0.013714 0.000000 0.000000 0.000000
# 2 -0.002964 0.011425 -0.000051 0.000000 0.000000 0.000000
# 3 -0.013714 -0.000051 0.019789 0.000000 0.000000 0.000000
# 4 0.000000 0.000000 0.000000 0.031704 0.000000 0.000000
# 5 0.000000 0.000000 0.000000 0.000000 0.006139 0.000000
# 6 0.000000 0.000000 0.000000 0.000000 0.000000 0.031046
#
#
# Mechanical properties :
#
#
# Convention : Reuss Voigt Hill
#
# Bulk Modulus (GPa) = 55.21048 57.63327 56.42188
# Shear Modulus (GPa) = 31.25820 57.24412 44.25116
#
# Velocity S-wave (km/s) = 3.91531 5.29846 4.65850
# Velocity P-wave (km/s) = 6.89318 8.10531 7.52369
#
# Compressibility (1/GPa) = 0.01811250
#
# Stress axis : x y z
#
# Youngs Moduli (GPa) = 49.12149 87.52944 50.53207
#
# Poissons Ratio (x) = 0.25948 0.69300
# Poissons Ratio (y) = 0.14562 0.00258
# Poissons Ratio (z) = 0.67366 0.00447
#
# Static dielectric constant tensor:
#      x y z
#    x 3.552680 0.000000 0.000000 
#    y 0.000000 3.864400 0.000000 
#    z 0.000000 0.000000 3.863280 
# 
# 
# High freq. dielectric constant tensor:
#      x y z
#    x 1.788370 0.000000 0.000000 
#    y 0.000000 1.821000 0.000000 
#    z 0.000000 0.000000 1.794100 
# 
# From -- ./inp_files/35018.got.cif
#   From: 2010.06.25/outbox.cif.g09.slc.cpg/sg58_18_cif.got.tgz:35018.got - 2010.06.26 21:38:00.
