data_PCOD8237136
_publ_section_title
;
Structure prediction by ZEFSAII (Michael W. Deem and Ramdas Pophale) SiO2 
 PCOD8237136
Probable space group: P N N M
;
_chemical_formula_sum "Si O2"
_cell_formula_units_Z 48
_cell_length_a 30.679584
_cell_length_b 10.455454
_cell_length_c 7.789988
_cell_angle_alpha 90.000000
_cell_angle_beta 90.000000
_cell_angle_gamma 90.000000
_cell_volume 2498.786499
_symmetry_space_group_name_H-M "P N N M"
_symmetry_group_IT_number 58
_symmetry_cell_setting 'orthorhombic'
loop_
_space_group_symop_operation_xyz
x,y,z
-x,-y,z
1/2+x,1/2-y,1/2-z
1/2-x,1/2+y,1/2-z
-x,-y,-z
x,y,-z
1/2-x,1/2+y,1/2+z
1/2+x,1/2-y,1/2+z
loop_
_atom_site_type_symbol
_atom_site_label
_atom_site_fract_x
_atom_site_fract_y
_atom_site_fract_z
Si Si1 0.479769 0.798833 0.500000
Si Si2 0.376778 0.168073 0.200975
Si Si3 0.278605 0.188517 0.801781
Si Si4 0.036421 0.106505 0.301952
Si Si5 0.069221 0.555269 0.000000
Si Si6 0.622420 0.541811 0.197447
Si Si7 0.282023 0.470611 0.305167
O O1 0.473810 0.721407 0.324649
O O2 0.528047 0.852813 0.500000
O O3 0.443646 0.908038 0.500000
O O4 0.326984 0.158923 0.266736
O O5 0.404157 0.076569 0.324345
O O6 0.392819 0.313120 0.231954
O O7 0.382662 0.128836 0.000000
O O8 0.266694 0.337103 0.777205
O O9 0.243732 0.090166 0.716151
O O10 0.278440 0.160361 0.000000
O O11 0.036850 0.154398 0.500000
O O12 0.083200 0.049877 0.246988
O O13 0.000000 0.000000 0.276767
O O14 0.666196 0.504807 0.297528
O O15 0.634759 0.525970 0.000000
O O16 0.267773 0.460291 0.500000
#
# Coordination Sequence:
#
# PCOD8237136 Si02
#       7
#     4   8   8   8   4   8   8
#     4  11  25  40  56  86 127 143 196 252 282 353
#     4   9  19  38  61  82 112 150 197 238 278 349
#     4   9  20  38  54  81 116 149 194 242 289 351
#     4  10  21  39  62  87 115 152 191 238 301 350
#     4  11  24  40  58  86 112 162 198 230 297 344
#     4   9  19  35  57  85 112 141 185 238 293 346
#     4  10  20  34  56  83 111 150 191 236 294 345
#
# _framework density 19.209323999999999
#
# number of rings (size 3 to 8) (size 9 to 14) (size 15 to 20)
#    0.000    2.333    0.000    2.750    5.833    4.000 
#    3.000    1.667    0.000    0.000    0.000    0.000 
#    0.000    0.000    0.000    0.000    0.000    0.000 
#
# Total GULP energy -595015.696906 kJ/mol
# GULP energy per Si atom -12396.160352 kJ/mol
# Density = 1.916560 g / cm^3
# Si number density = 19.209324 Si / 1000 Ang^3
#
#
#
# Elastic Constant Matrix: (Units=GPa)
#
#
# Indices 1 2 3 4 5 6 
#
# 1 93.5154 70.9287 36.5187 0.0000 0.0000 0.0000
# 2 70.9287 118.6794 45.1866 0.0000 0.0000 0.0000
# 3 36.5187 45.1866 79.9702 0.0000 0.0000 0.0000
# 4 0.0000 0.0000 0.0000 18.6793 0.0000 0.0000
# 5 0.0000 0.0000 0.0000 0.0000 75.1686 0.0000
# 6 0.0000 0.0000 0.0000 0.0000 0.0000 29.4195
#
#
#
# Elastic Compliance Matrix: (Units=1/GPa)
#
#
# Indices 1 2 3 4 5 6 
#
# 1 0.020128 -0.010868 -0.003051 0.000000 0.000000 0.000000
# 2 -0.010868 0.016604 -0.004419 0.000000 0.000000 0.000000
# 3 -0.003051 -0.004419 0.016395 0.000000 0.000000 0.000000
# 4 0.000000 0.000000 0.000000 0.053535 0.000000 0.000000
# 5 0.000000 0.000000 0.000000 0.000000 0.013303 0.000000
# 6 0.000000 0.000000 0.000000 0.000000 0.000000 0.033991
#
#
# Mechanical properties :
#
#
# Convention : Reuss Voigt Hill
#
# Bulk Modulus (GPa) = 60.78571 66.38145 63.58358
# Shear Modulus (GPa) = 25.49537 33.95554 29.72546
#
# Velocity S-wave (km/s) = 3.64708 4.20892 3.93803
# Velocity P-wave (km/s) = 7.03189 7.63229 7.33823
#
# Compressibility (1/GPa) = 0.01645123
#
# Stress axis : x y z
#
# Youngs Moduli (GPa) = 49.68312 60.22769 60.99550
#
# Poissons Ratio (x) = 0.65454 0.18607
# Poissons Ratio (y) = 0.53994 0.26954
# Poissons Ratio (z) = 0.15156 0.26615
#
# Static dielectric constant tensor:
#      x y z
#    x 3.921440 0.000000 0.000000 
#    y 0.000000 3.689510 0.000000 
#    z 0.000000 0.000000 3.465200 
# 
# 
# High freq. dielectric constant tensor:
#      x y z
#    x 1.753620 0.000000 0.000000 
#    y 0.000000 1.733370 0.000000 
#    z 0.000000 0.000000 1.750920 
# 
# From -- ./inp_files/3043.got.cif
#   From: 2010.06.25/outbox.cif.g09.slc.cpg/sg58_2_cif.got.tgz:3043.got - 2010.06.26 21:38:00.
