data_PCOD8237494
_publ_section_title
;
Structure prediction by ZEFSAII (Michael W. Deem and Ramdas Pophale) SiO2 
 PCOD8237494
Probable space group: P N N M
;
_chemical_formula_sum "Si O2"
_cell_formula_units_Z 56
_cell_length_a 18.752515
_cell_length_b 16.822098
_cell_length_c 9.597844
_cell_angle_alpha 90.000000
_cell_angle_beta 90.000000
_cell_angle_gamma 90.000000
_cell_volume 3027.703668
_symmetry_space_group_name_H-M "P N N M"
_symmetry_group_IT_number 58
_symmetry_cell_setting 'orthorhombic'
loop_
_space_group_symop_operation_xyz
x,y,z
-x,-y,z
1/2+x,1/2-y,1/2-z
1/2-x,1/2+y,1/2-z
-x,-y,-z
x,y,-z
1/2-x,1/2+y,1/2+z
1/2+x,1/2-y,1/2+z
loop_
_atom_site_type_symbol
_atom_site_label
_atom_site_fract_x
_atom_site_fract_y
_atom_site_fract_z
Si Si1 0.198634 0.169169 0.837788
Si Si2 0.076127 0.466640 0.659203
Si Si3 0.447917 0.241618 0.340195
Si Si4 0.858952 0.369695 0.658196
Si Si5 0.896536 0.940956 0.658587
Si Si6 0.604743 0.185531 0.658827
Si Si7 0.444561 0.387889 0.158909
O O1 0.281724 0.163758 0.801230
O O2 0.160886 0.097877 0.758088
O O3 0.168664 0.255772 0.792798
O O4 0.183843 0.155052 0.000000
O O5 0.066848 0.438005 0.500000
O O6 0.136306 0.534859 0.672368
O O7 0.103846 0.392380 0.747082
O O8 0.000000 0.500000 0.714215
O O9 0.422989 0.244005 0.500000
O O10 0.415875 0.164881 0.265448
O O11 0.532898 0.236686 0.326303
O O12 0.418261 0.319711 0.263134
O O13 0.878708 0.344766 0.500000
O O14 0.877037 0.919685 0.500000
O O15 0.974597 0.909483 0.695400
O O16 0.894256 0.035866 0.681353
O O17 0.615710 0.157340 0.500000
O O18 0.438436 0.357448 0.000000
#
# Coordination Sequence:
#
# PCOD8237494 Si02
#       7
#     8   8   8   8   8   8   8
#     4  10  21  39  58  79 114 154 187 228 290 348
#     4  10  20  36  60  86 107 140 190 235 277 330
#     4  11  21  34  56  85 112 141 186 236 278 329
#     4  10  22  40  59  79 112 152 187 230 287 342
#     4   9  18  33  55  81 108 143 186 228 271 328
#     4  10  21  36  57  85 113 146 184 228 286 339
#     4   9  18  33  54  81 111 143 182 227 277 329
#
# _framework density 18.495865999999999
#
# number of rings (size 3 to 8) (size 9 to 14) (size 15 to 20)
#    0.000    2.143    2.857    1.286    0.000    3.143 
#    2.571    1.429    0.000    0.000    0.000    0.000 
#    0.000    0.000    0.000    0.000    0.000    0.000 
#
# Total GULP energy -694470.721120 kJ/mol
# GULP energy per Si atom -12401.262877 kJ/mol
# Density = 1.845377 g / cm^3
# Si number density = 18.495866 Si / 1000 Ang^3
#
#
#
# Elastic Constant Matrix: (Units=GPa)
#
#
# Indices 1 2 3 4 5 6 
#
# 1 75.3915 34.9866 31.7274 0.0000 0.0000 0.0000
# 2 34.9866 106.1748 52.7260 0.0000 0.0000 0.0000
# 3 31.7274 52.7260 81.2029 0.0000 0.0000 0.0000
# 4 0.0000 0.0000 0.0000 40.5361 0.0000 0.0000
# 5 0.0000 0.0000 0.0000 0.0000 17.9463 0.0000
# 6 0.0000 0.0000 0.0000 0.0000 0.0000 29.7315
#
#
#
# Elastic Compliance Matrix: (Units=1/GPa)
#
#
# Indices 1 2 3 4 5 6 
#
# 1 0.016634 -0.003326 -0.004339 0.000000 0.000000 0.000000
# 2 -0.003326 0.014566 -0.008158 0.000000 0.000000 0.000000
# 3 -0.004339 -0.008158 0.019307 0.000000 0.000000 0.000000
# 4 0.000000 0.000000 0.000000 0.024669 0.000000 0.000000
# 5 0.000000 0.000000 0.000000 0.000000 0.055722 0.000000
# 6 0.000000 0.000000 0.000000 0.000000 0.000000 0.033634
#
#
# Mechanical properties :
#
#
# Convention : Reuss Voigt Hill
#
# Bulk Modulus (GPa) = 53.02331 55.73881 54.38106
# Shear Modulus (GPa) = 24.69543 27.19806 25.94674
#
# Velocity S-wave (km/s) = 3.65798 3.83886 3.74951
# Velocity P-wave (km/s) = 6.82430 7.06048 6.94339
#
# Compressibility (1/GPa) = 0.01885963
#
# Stress axis : x y z
#
# Youngs Moduli (GPa) = 60.11835 68.65413 51.79352
#
# Poissons Ratio (x) = 0.22836 0.22475
# Poissons Ratio (y) = 0.19997 0.42254
# Poissons Ratio (z) = 0.26088 0.56009
#
# Static dielectric constant tensor:
#      x y z
#    x 3.259110 0.000000 0.000000 
#    y 0.000000 3.373460 0.000000 
#    z 0.000000 0.000000 3.375900 
# 
# 
# High freq. dielectric constant tensor:
#      x y z
#    x 1.697110 0.000000 0.000000 
#    y 0.000000 1.722220 0.000000 
#    z 0.000000 0.000000 1.716570 
# 
# From -- ./inp_files/9076.got.cif
#   From: 2010.06.25/outbox.cif.g09.slc.cpg/sg58_5_cif.got.tgz:9076.got - 2010.06.26 21:38:00.
