data_PCOD8237732
_publ_section_title
;
Structure prediction by ZEFSAII (Michael W. Deem and Ramdas Pophale) SiO2 
 PCOD8237732
Probable space group: P N N M
;
_chemical_formula_sum "Si O2"
_cell_formula_units_Z 56
_cell_length_a 21.456235
_cell_length_b 15.053362
_cell_length_c 8.299814
_cell_angle_alpha 90.000000
_cell_angle_beta 90.000000
_cell_angle_gamma 90.000000
_cell_volume 2680.744247
_symmetry_space_group_name_H-M "P N N M"
_symmetry_group_IT_number 58
_symmetry_cell_setting 'orthorhombic'
loop_
_space_group_symop_operation_xyz
x,y,z
-x,-y,z
1/2+x,1/2-y,1/2-z
1/2-x,1/2+y,1/2-z
-x,-y,-z
x,y,-z
1/2-x,1/2+y,1/2+z
1/2+x,1/2-y,1/2+z
loop_
_atom_site_type_symbol
_atom_site_label
_atom_site_fract_x
_atom_site_fract_y
_atom_site_fract_z
Si Si1 0.900195 0.279275 0.188959
Si Si2 0.237719 0.762969 0.809618
Si Si3 0.522564 0.625957 0.186660
Si Si4 0.569068 0.972690 0.191367
Si Si5 0.776327 0.928731 0.685278
Si Si6 0.092255 0.039238 0.813588
Si Si7 0.311946 0.928872 0.185297
O O1 0.833300 0.244145 0.255015
O O2 0.954089 0.225314 0.280977
O O3 0.909583 0.382521 0.223963
O O4 0.906000 0.262430 0.000000
O O5 0.274077 0.673786 0.761435
O O6 0.276589 0.845159 0.729708
O O7 0.234132 0.775382 0.000000
O O8 0.450661 0.617703 0.240999
O O9 0.561054 0.556890 0.294774
O O10 0.529101 0.600887 0.000000
O O11 0.500000 0.000000 0.249000
O O12 0.617773 0.050033 0.248020
O O13 0.571645 0.958789 0.000000
O O14 0.756306 0.940459 0.500000
O O15 0.845054 0.964729 0.712020
O O16 0.728392 0.982756 0.793887
O O17 0.106417 0.057740 0.000000
O O18 0.317487 0.904157 0.000000
#
# Coordination Sequence:
#
# PCOD8237732 Si02
#       7
#     8   8   8   8   8   8   8
#     4  11  21  38  61  87 121 162 206 254 313 378
#     4   9  20  36  58  85 116 157 203 250 308 368
#     4  11  22  38  60  88 119 158 203 250 299 362
#     4  10  22  39  60  87 120 161 211 263 316 374
#     4  11  21  37  59  87 119 156 199 251 304 363
#     4  11  22  38  58  87 123 160 198 247 307 366
#     4  10  20  38  61  85 117 159 206 259 316 371
#
# _framework density 20.889723
#
# number of rings (size 3 to 8) (size 9 to 14) (size 15 to 20)
#    0.000    1.571    1.429    5.143    0.000    2.571 
#    0.000    5.000    0.000    0.000    0.000    0.000 
#    0.000    0.000    0.000    0.000    0.000    0.000 
#
# Total GULP energy -694408.257898 kJ/mol
# GULP energy per Si atom -12400.147462 kJ/mol
# Density = 2.084218 g / cm^3
# Si number density = 20.889723 Si / 1000 Ang^3
#
#
#
# Elastic Constant Matrix: (Units=GPa)
#
#
# Indices 1 2 3 4 5 6 
#
# 1 146.3092 47.9941 5.6376 0.0000 0.0000 0.0000
# 2 47.9941 109.1814 12.2832 0.0000 0.0000 0.0000
# 3 5.6376 12.2832 38.0886 0.0000 0.0000 0.0000
# 4 0.0000 0.0000 0.0000 29.2272 0.0000 0.0000
# 5 0.0000 0.0000 0.0000 0.0000 15.1917 0.0000
# 6 0.0000 0.0000 0.0000 0.0000 0.0000 35.8770
#
#
#
# Elastic Compliance Matrix: (Units=1/GPa)
#
#
# Indices 1 2 3 4 5 6 
#
# 1 0.007987 -0.003505 -0.000052 0.000000 0.000000 0.000000
# 2 -0.003505 0.011042 -0.003042 0.000000 0.000000 0.000000
# 3 -0.000052 -0.003042 0.027243 0.000000 0.000000 0.000000
# 4 0.000000 0.000000 0.000000 0.034215 0.000000 0.000000
# 5 0.000000 0.000000 0.000000 0.000000 0.065826 0.000000
# 6 0.000000 0.000000 0.000000 0.000000 0.000000 0.027873
#
#
# Mechanical properties :
#
#
# Convention : Reuss Voigt Hill
#
# Bulk Modulus (GPa) = 30.23512 47.26766 38.75139
# Shear Modulus (GPa) = 25.20064 31.23680 28.21872
#
# Velocity S-wave (km/s) = 3.47705 3.87113 3.67937
# Velocity P-wave (km/s) = 5.53398 6.53125 6.05319
#
# Compressibility (1/GPa) = 0.03307412
#
# Stress axis : x y z
#
# Youngs Moduli (GPa) = 125.21031 90.56313 36.70622
#
# Poissons Ratio (x) = 0.31742 0.00190
# Poissons Ratio (y) = 0.43885 0.11167
# Poissons Ratio (z) = 0.00649 0.27551
#
# Static dielectric constant tensor:
#      x y z
#    x 4.112360 0.000000 0.000000 
#    y 0.000000 3.816380 0.000000 
#    z 0.000000 0.000000 3.495500 
# 
# 
# High freq. dielectric constant tensor:
#      x y z
#    x 1.828090 0.000000 0.000000 
#    y 0.000000 1.815730 0.000000 
#    z 0.000000 0.000000 1.799500 
# 
# From -- ./inp_files/9021.got.cif
#   From: 2010.06.25/outbox.cif.g09.slc.cpg/sg58_5_cif.got.tgz:9021.got - 2010.06.26 21:38:00.
