data_PCOD8237626
_publ_section_title
;
Structure prediction by ZEFSAII (Michael W. Deem and Ramdas Pophale) SiO2 
 PCOD8237626
Probable space group: P N N M
;
_chemical_formula_sum "Si O2"
_cell_formula_units_Z 48
_cell_length_a 27.478686
_cell_length_b 9.114118
_cell_length_c 10.029126
_cell_angle_alpha 90.000000
_cell_angle_beta 90.000000
_cell_angle_gamma 90.000000
_cell_volume 2511.734298
_symmetry_space_group_name_H-M "P N N M"
_symmetry_group_IT_number 58
_symmetry_cell_setting 'orthorhombic'
loop_
_space_group_symop_operation_xyz
x,y,z
-x,-y,z
1/2+x,1/2-y,1/2-z
1/2-x,1/2+y,1/2-z
-x,-y,-z
x,y,-z
1/2-x,1/2+y,1/2+z
1/2+x,1/2-y,1/2+z
loop_
_atom_site_type_symbol
_atom_site_label
_atom_site_fract_x
_atom_site_fract_y
_atom_site_fract_z
Si Si1 0.455683 0.196786 0.500000
Si Si2 0.563304 0.147188 0.500000
Si Si3 0.208090 0.383088 0.650227
Si Si4 0.605200 0.789371 0.251186
Si Si5 0.432020 0.370036 0.000000
Si Si6 0.100857 0.368806 0.281455
Si Si7 0.290502 0.147975 0.653439
Si Si8 0.543093 0.294102 0.000000
O O1 0.512716 0.237192 0.500000
O O2 0.431172 0.263290 0.367791
O O3 0.447822 0.023849 0.500000
O O4 0.594671 0.187005 0.370081
O O5 0.213737 0.445805 0.500000
O O6 0.153808 0.319372 0.668468
O O7 0.245232 0.252926 0.675812
O O8 0.219436 0.507121 0.756968
O O9 0.597880 0.680706 0.128587
O O10 0.660231 0.771215 0.302316
O O11 0.594749 0.956074 0.206128
O O12 0.485043 0.297309 0.000000
O O13 0.433972 0.544912 0.000000
O O14 0.059403 0.293377 0.369115
O O15 0.295659 0.097668 0.500000
#
# Coordination Sequence:
#
# PCOD8237626 Si02
#       8
#     4   4   8   8   4   8   8   4
#     4   9  16  32  56  85 116 138 183 237 286 333
#     4   9  18  30  56  89 110 142 185 231 288 341
#     4  10  22  39  60  88 117 155 192 237 291 345
#     4  10  20  37  60  89 111 153 192 244 286 340
#     4  11  25  37  58  83 120 158 199 233 296 349
#     4  10  20  37  61  85 117 148 192 243 288 338
#     4  10  22  40  61  88 120 152 191 240 291 344
#     4  11  23  41  54  83 122 158 193 245 288 349
#
# _framework density 19.110299999999999
#
# number of rings (size 3 to 8) (size 9 to 14) (size 15 to 20)
#    0.000    2.000    1.667    1.500    7.000    4.667 
#    0.000    0.833    0.000    3.000    0.000    0.000 
#    0.000    0.000    0.000    0.000    0.000    0.000 
#
# Total GULP energy -595347.159958 kJ/mol
# GULP energy per Si atom -12403.065832 kJ/mol
# Density = 1.906680 g / cm^3
# Si number density = 19.110300 Si / 1000 Ang^3
#
#
#
# Elastic Constant Matrix: (Units=GPa)
#
#
# Indices 1 2 3 4 5 6 
#
# 1 81.9379 26.8018 35.3464 0.0000 0.0000 0.0000
# 2 26.8018 38.1139 30.9071 0.0000 0.0000 0.0000
# 3 35.3464 30.9071 139.3999 0.0000 0.0000 0.0000
# 4 0.0000 0.0000 0.0000 15.2171 0.0000 0.0000
# 5 0.0000 0.0000 0.0000 0.0000 28.4013 0.0000
# 6 0.0000 0.0000 0.0000 0.0000 0.0000 27.9363
#
#
#
# Elastic Compliance Matrix: (Units=1/GPa)
#
#
# Indices 1 2 3 4 5 6 
#
# 1 0.016268 -0.009869 -0.001937 0.000000 0.000000 0.000000
# 2 -0.009869 0.037976 -0.005917 0.000000 0.000000 0.000000
# 3 -0.001937 -0.005917 0.008977 0.000000 0.000000 0.000000
# 4 0.000000 0.000000 0.000000 0.065716 0.000000 0.000000
# 5 0.000000 0.000000 0.000000 0.000000 0.035210 0.000000
# 6 0.000000 0.000000 0.000000 0.000000 0.000000 0.035796
#
#
# Mechanical properties :
#
#
# Convention : Reuss Voigt Hill
#
# Bulk Modulus (GPa) = 36.00526 49.50693 42.75610
# Shear Modulus (GPa) = 20.43771 25.40402 22.92087
#
# Velocity S-wave (km/s) = 3.27381 3.64996 3.46699
# Velocity P-wave (km/s) = 5.75952 6.61250 6.20069
#
# Compressibility (1/GPa) = 0.02777372
#
# Stress axis : x y z
#
# Youngs Moduli (GPa) = 61.47021 26.33274 111.39994
#
# Poissons Ratio (x) = 0.25988 0.21576
# Poissons Ratio (y) = 0.60666 0.65919
# Poissons Ratio (z) = 0.11906 0.15582
#
# Static dielectric constant tensor:
#      x y z
#    x 3.654380 0.000000 0.000000 
#    y 0.000000 3.109360 0.000000 
#    z 0.000000 0.000000 3.735230 
# 
# 
# High freq. dielectric constant tensor:
#      x y z
#    x 1.755750 0.000000 0.000000 
#    y 0.000000 1.706410 0.000000 
#    z 0.000000 0.000000 1.764640 
# 
# From -- ./inp_files/3109.got.cif
#   From: 2010.06.25/outbox.cif.g09.slc.cpg/sg58_2_cif.got.tgz:3109.got - 2010.06.26 21:38:00.
