data_PCOD8237005
_publ_section_title
;
Structure prediction by ZEFSAII (Michael W. Deem and Ramdas Pophale) SiO2 
 PCOD8237005
Probable space group: P N N M
;
_chemical_formula_sum "Si O2"
_cell_formula_units_Z 48
_cell_length_a 8.020119
_cell_length_b 10.392887
_cell_length_c 29.474233
_cell_angle_alpha 90.000000
_cell_angle_beta 90.000000
_cell_angle_gamma 90.000000
_cell_volume 2456.741884
_symmetry_space_group_name_H-M "P N N M"
_symmetry_group_IT_number 58
_symmetry_cell_setting 'orthorhombic'
loop_
_space_group_symop_operation_xyz
x,y,z
-x,-y,z
1/2+x,1/2-y,1/2-z
1/2-x,1/2+y,1/2-z
-x,-y,-z
x,y,-z
1/2-x,1/2+y,1/2+z
1/2+x,1/2-y,1/2+z
loop_
_atom_site_type_symbol
_atom_site_label
_atom_site_fract_x
_atom_site_fract_y
_atom_site_fract_z
Si Si1 0.462493 0.139399 0.604214
Si Si2 0.386666 0.624022 0.551810
Si Si3 0.656678 0.233536 0.688642
Si Si4 0.520799 0.638984 0.766618
Si Si5 0.410327 0.635522 0.863231
Si Si6 0.620594 0.881085 0.874803
O O1 0.515314 0.251488 0.570050
O O2 0.570523 0.148121 0.650187
O O3 0.267564 0.148901 0.613754
O O4 0.500000 0.000000 0.582239
O O5 0.500000 0.500000 0.557197
O O6 0.337376 0.650134 0.500000
O O7 0.218476 0.591749 0.578914
O O8 0.516464 0.264599 0.725787
O O9 0.747257 0.359369 0.666569
O O10 0.793141 0.149229 0.714360
O O11 0.500000 0.500000 0.744458
O O12 0.393352 0.655589 0.808901
O O13 0.500000 0.500000 0.874684
O O14 0.520995 0.749878 0.883622
O O15 0.500000 0.000000 0.862346
#
# Coordination Sequence:
#
# PCOD8237005 Si02
#       6
#     8   8   8   8   8   8
#     4  11  21  38  62  83 111 150 190 233 284 341
#     4  10  22  40  62  89 117 146 183 229 285 348
#     4  10  22  34  52  81 111 150 195 239 282 329
#     4  10  20  34  50  75 111 149 192 236 279 326
#     4  10  20  37  57  81 113 150 191 235 283 332
#     4  10  21  37  57  84 114 150 191 234 286 342
#
# _framework density 19.538070999999999
#
# number of rings (size 3 to 8) (size 9 to 14) (size 15 to 20)
#    0.000    1.833    0.000    6.000    0.000    7.333 
#    0.000    2.500    0.000    2.000    0.000    0.000 
#    0.000    0.000    0.000    0.000    0.000    0.000 
#
# Total GULP energy -595136.217674 kJ/mol
# GULP energy per Si atom -12398.671202 kJ/mol
# Density = 1.949360 g / cm^3
# Si number density = 19.538071 Si / 1000 Ang^3
#
#
#
# Elastic Constant Matrix: (Units=GPa)
#
#
# Indices 1 2 3 4 5 6 
#
# 1 90.2942 22.9867 33.1179 0.0000 0.0000 0.0000
# 2 22.9867 109.7591 33.8999 0.0000 0.0000 0.0000
# 3 33.1179 33.8999 80.6648 0.0000 0.0000 0.0000
# 4 0.0000 0.0000 0.0000 17.6504 0.0000 0.0000
# 5 0.0000 0.0000 0.0000 0.0000 22.6358 0.0000
# 6 0.0000 0.0000 0.0000 0.0000 0.0000 33.6504
#
#
#
# Elastic Compliance Matrix: (Units=1/GPa)
#
#
# Indices 1 2 3 4 5 6 
#
# 1 0.013186 -0.001252 -0.004888 0.000000 0.000000 0.000000
# 2 -0.001252 0.010589 -0.003936 0.000000 0.000000 0.000000
# 3 -0.004888 -0.003936 0.016058 0.000000 0.000000 0.000000
# 4 0.000000 0.000000 0.000000 0.056656 0.000000 0.000000
# 5 0.000000 0.000000 0.000000 0.000000 0.044178 0.000000
# 6 0.000000 0.000000 0.000000 0.000000 0.000000 0.029717
#
#
# Mechanical properties :
#
#
# Convention : Reuss Voigt Hill
#
# Bulk Modulus (GPa) = 50.80887 51.19192 51.00039
# Shear Modulus (GPa) = 25.36841 27.50156 26.43498
#
# Velocity S-wave (km/s) = 3.60725 3.75585 3.68230
# Velocity P-wave (km/s) = 6.58872 6.71316 6.65123
#
# Compressibility (1/GPa) = 0.01968160
#
# Stress axis : x y z
#
# Youngs Moduli (GPa) = 75.83619 94.44018 62.27511
#
# Poissons Ratio (x) = 0.11824 0.30438
# Poissons Ratio (y) = 0.09495 0.24511
# Poissons Ratio (z) = 0.37066 0.37171
#
# Static dielectric constant tensor:
#      x y z
#    x 3.668870 0.000000 0.000000 
#    y 0.000000 3.701260 0.000000 
#    z 0.000000 0.000000 3.466090 
# 
# 
# High freq. dielectric constant tensor:
#      x y z
#    x 1.769650 0.000000 0.000000 
#    y 0.000000 1.769160 0.000000 
#    z 0.000000 0.000000 1.741330 
# 
# From -- ./inp_files/34606.got.cif
#   From: 2010.06.25/outbox.cif.g09.slc.cpg/sg58_18_cif.got.tgz:34606.got - 2010.06.26 21:38:00.
