data_PCOD8237928
_publ_section_title
;
Structure prediction by ZEFSAII (Michael W. Deem and Ramdas Pophale) SiO2 
 PCOD8237928
Probable space group: P N N M
;
_chemical_formula_sum "Si O2"
_cell_formula_units_Z 64
_cell_length_a 26.062266
_cell_length_b 14.596920
_cell_length_c 8.936871
_cell_angle_alpha 90.000000
_cell_angle_beta 90.000000
_cell_angle_gamma 90.000000
_cell_volume 3399.843216
_symmetry_space_group_name_H-M "P N N M"
_symmetry_group_IT_number 58
_symmetry_cell_setting 'orthorhombic'
loop_
_space_group_symop_operation_xyz
x,y,z
-x,-y,z
1/2+x,1/2-y,1/2-z
1/2-x,1/2+y,1/2-z
-x,-y,-z
x,y,-z
1/2-x,1/2+y,1/2+z
1/2+x,1/2-y,1/2+z
loop_
_atom_site_type_symbol
_atom_site_label
_atom_site_fract_x
_atom_site_fract_y
_atom_site_fract_z
Si Si1 0.897915 0.164972 0.675618
Si Si2 0.396094 0.670165 0.823614
Si Si3 0.363782 0.133508 0.173919
Si Si4 0.442465 0.008928 0.328925
Si Si5 0.671450 0.499700 0.822932
Si Si6 0.135102 0.350861 0.829633
Si Si7 0.213513 0.504878 0.177171
Si Si8 0.999190 0.894301 0.822654
O O1 0.909486 0.153332 0.500000
O O2 0.869634 0.259769 0.711417
O O3 0.860011 0.086612 0.737434
O O4 0.951290 0.158707 0.762675
O O5 0.357392 0.591311 0.769198
O O6 0.369449 0.765212 0.780010
O O7 0.449998 0.657746 0.741531
O O8 0.405645 0.666303 0.000000
O O9 0.415180 0.083318 0.226325
O O10 0.313754 0.094711 0.256711
O O11 0.356199 0.115800 0.000000
O O12 0.440578 0.043896 0.500000
O O13 0.416424 0.910031 0.315200
O O14 0.500000 0.000000 0.269373
O O15 0.729050 0.501006 0.757047
O O16 0.675094 0.504454 0.000000
O O17 0.183335 0.412501 0.776826
O O18 0.142753 0.316864 0.000000
O O19 0.212206 0.516566 0.000000
O O20 0.997738 0.887549 0.000000
O O21 0.000000 0.000000 0.768307
#
# Coordination Sequence:
#
# PCOD8237928 Si02
#       8
#     8   8   8   8   8   8   8   8
#     4  10  21  38  58  83 115 150 187 225 278 338
#     4  11  22  36  58  84 114 151 186 226 277 334
#     4  10  21  35  55  85 114 142 181 234 283 323
#     4   9  19  36  56  77 106 149 189 225 277 337
#     4   9  19  37  60  82 108 148 193 227 270 338
#     4   9  19  35  55  81 112 145 184 231 276 327
#     4   9  19  39  62  80 107 151 191 228 278 332
#     4  11  23  38  57  82 114 148 186 233 278 324
#
# _framework density 18.824396
#
# number of rings (size 3 to 8) (size 9 to 14) (size 15 to 20)
#    0.000    2.250    1.250    1.875    1.750    4.750 
#    0.000    3.125    0.000    0.000    0.000    0.000 
#    0.000    0.000    0.000    0.000    0.000    0.000 
#
# Total GULP energy -793782.876535 kJ/mol
# GULP energy per Si atom -12402.857446 kJ/mol
# Density = 1.878155 g / cm^3
# Si number density = 18.824396 Si / 1000 Ang^3
#
#
#
# Elastic Constant Matrix: (Units=GPa)
#
#
# Indices 1 2 3 4 5 6 
#
# 1 171.5933 64.7987 35.9337 0.0000 0.0000 0.0000
# 2 64.7987 126.3174 45.9851 0.0000 0.0000 0.0000
# 3 35.9337 45.9851 51.4593 0.0000 0.0000 0.0000
# 4 0.0000 0.0000 0.0000 29.1826 0.0000 0.0000
# 5 0.0000 0.0000 0.0000 0.0000 15.4027 0.0000
# 6 0.0000 0.0000 0.0000 0.0000 0.0000 12.6108
#
#
#
# Elastic Compliance Matrix: (Units=1/GPa)
#
#
# Indices 1 2 3 4 5 6 
#
# 1 0.007465 -0.002863 -0.002654 0.000000 0.000000 0.000000
# 2 -0.002863 0.012832 -0.009468 0.000000 0.000000 0.000000
# 3 -0.002654 -0.009468 0.029747 0.000000 0.000000 0.000000
# 4 0.000000 0.000000 0.000000 0.034267 0.000000 0.000000
# 5 0.000000 0.000000 0.000000 0.000000 0.064924 0.000000
# 6 0.000000 0.000000 0.000000 0.000000 0.000000 0.079297
#
#
# Mechanical properties :
#
#
# Convention : Reuss Voigt Hill
#
# Bulk Modulus (GPa) = 49.81628 71.42276 60.61952
# Shear Modulus (GPa) = 18.85428 24.94939 21.90183
#
# Velocity S-wave (km/s) = 3.16822 3.64452 3.41468
# Velocity P-wave (km/s) = 6.31701 7.46552 6.91515
#
# Compressibility (1/GPa) = 0.02007376
#
# Stress axis : x y z
#
# Youngs Moduli (GPa) = 133.96379 77.93089 33.61733
#
# Poissons Ratio (x) = 0.22312 0.08922
# Poissons Ratio (y) = 0.38355 0.31827
# Poissons Ratio (z) = 0.35555 0.73782
#
# Static dielectric constant tensor:
#      x y z
#    x 3.645690 0.000000 0.000000 
#    y 0.000000 3.457310 0.000000 
#    z 0.000000 0.000000 3.275250 
# 
# 
# High freq. dielectric constant tensor:
#      x y z
#    x 1.738750 0.000000 0.000000 
#    y 0.000000 1.734570 0.000000 
#    z 0.000000 0.000000 1.716920 
# 
# From -- ./inp_files/10060.got.cif
#   From: 2010.06.25/outbox.cif.g09.slc.cpg/sg58_6_cif.got.tgz:10060.got - 2010.06.26 21:38:00.
