data_PCOD8237095
_publ_section_title
;
Structure prediction by ZEFSAII (Michael W. Deem and Ramdas Pophale) SiO2 
 PCOD8237095
Probable space group: P N N M
;
_chemical_formula_sum "Si O2"
_cell_formula_units_Z 56
_cell_length_a 14.724182
_cell_length_b 21.376369
_cell_length_c 9.042050
_cell_angle_alpha 90.000000
_cell_angle_beta 90.000000
_cell_angle_gamma 90.000000
_cell_volume 2845.981147
_symmetry_space_group_name_H-M "P N N M"
_symmetry_group_IT_number 58
_symmetry_cell_setting 'orthorhombic'
loop_
_space_group_symop_operation_xyz
x,y,z
-x,-y,z
1/2+x,1/2-y,1/2-z
1/2-x,1/2+y,1/2-z
-x,-y,-z
x,y,-z
1/2-x,1/2+y,1/2+z
1/2+x,1/2-y,1/2+z
loop_
_atom_site_type_symbol
_atom_site_label
_atom_site_fract_x
_atom_site_fract_y
_atom_site_fract_z
Si Si1 0.672226 0.225611 0.831669
Si Si2 0.658768 0.897468 0.332952
Si Si3 0.008154 0.929458 0.824953
Si Si4 0.666724 0.355142 0.675051
Si Si5 0.206602 0.890545 0.826718
Si Si6 0.140317 0.458328 0.167510
Si Si7 0.511963 0.132378 0.829525
O O1 0.675144 0.283330 0.721590
O O2 0.754559 0.178490 0.790617
O O3 0.575595 0.192430 0.809168
O O4 0.683248 0.248977 0.000000
O O5 0.672522 0.873126 0.500000
O O6 0.752316 0.894381 0.245423
O O7 0.582501 0.854536 0.254724
O O8 0.624084 0.968112 0.330019
O O9 0.926525 0.886076 0.765170
O O10 0.102135 0.896509 0.776077
O O11 0.002719 0.933372 0.000000
O O12 0.000000 0.000000 0.759457
O O13 0.673481 0.359616 0.500000
O O14 0.261895 0.942420 0.736498
O O15 0.219305 0.905242 0.000000
O O16 0.060706 0.428087 0.262722
O O17 0.135925 0.432523 0.000000
O O18 0.491165 0.118705 0.000000
#
# Coordination Sequence:
#
# PCOD8237095 Si02
#       7
#     8   8   8   8   8   8   8
#     4   9  20  38  56  79 112 145 179 224 281 337
#     4  11  23  37  54  79 114 150 181 224 280 330
#     4   9  18  34  57  84 110 138 181 236 285 329
#     4  11  23  37  57  83 109 144 191 236 278 333
#     4   9  18  35  59  82 108 147 187 226 279 338
#     4  10  20  34  54  84 117 146 179 222 277 334
#     4  10  21  37  59  84 110 145 186 226 272 332
#
# _framework density 19.676867999999999
#
# number of rings (size 3 to 8) (size 9 to 14) (size 15 to 20)
#    0.000    2.143    0.000    3.857    0.000    9.143 
#    0.000    2.857    0.000    3.857    0.000    0.000 
#    0.000    0.000    0.000    0.000    0.000    0.000 
#
# Total GULP energy -694513.870844 kJ/mol
# GULP energy per Si atom -12402.033408 kJ/mol
# Density = 1.963208 g / cm^3
# Si number density = 19.676868 Si / 1000 Ang^3
#
#
#
# Elastic Constant Matrix: (Units=GPa)
#
#
# Indices 1 2 3 4 5 6 
#
# 1 133.1647 27.4697 35.0685 0.0000 0.0000 0.0000
# 2 27.4697 75.6739 27.7014 0.0000 0.0000 0.0000
# 3 35.0685 27.7014 89.8434 0.0000 0.0000 0.0000
# 4 0.0000 0.0000 0.0000 30.5304 0.0000 0.0000
# 5 0.0000 0.0000 0.0000 0.0000 20.8374 0.0000
# 6 0.0000 0.0000 0.0000 0.0000 0.0000 20.9589
#
#
#
# Elastic Compliance Matrix: (Units=1/GPa)
#
#
# Indices 1 2 3 4 5 6 
#
# 1 0.008670 -0.002151 -0.002721 0.000000 0.000000 0.000000
# 2 -0.002151 0.015430 -0.003918 0.000000 0.000000 0.000000
# 3 -0.002721 -0.003918 0.013400 0.000000 0.000000 0.000000
# 4 0.000000 0.000000 0.000000 0.032754 0.000000 0.000000
# 5 0.000000 0.000000 0.000000 0.000000 0.047991 0.000000
# 6 0.000000 0.000000 0.000000 0.000000 0.000000 0.047712
#
#
# Mechanical properties :
#
#
# Convention : Reuss Voigt Hill
#
# Bulk Modulus (GPa) = 50.19977 53.24015 51.71996
# Shear Modulus (GPa) = 26.29135 28.36150 27.32642
#
# Velocity S-wave (km/s) = 3.65931 3.80065 3.73065
# Velocity P-wave (km/s) = 6.58950 6.80998 6.70065
#
# Compressibility (1/GPa) = 0.01992041
#
# Stress axis : x y z
#
# Youngs Moduli (GPa) = 115.34345 64.81039 74.62436
#
# Poissons Ratio (x) = 0.13942 0.20304
# Poissons Ratio (y) = 0.24812 0.29236
# Poissons Ratio (z) = 0.31383 0.25391
#
# Static dielectric constant tensor:
#      x y z
#    x 3.834240 0.000000 0.000000 
#    y 0.000000 3.416550 0.000000 
#    z 0.000000 0.000000 3.563710 
# 
# 
# High freq. dielectric constant tensor:
#      x y z
#    x 1.778820 0.000000 0.000000 
#    y 0.000000 1.757330 0.000000 
#    z 0.000000 0.000000 1.758280 
# 
# From -- ./inp_files/6240.got.cif
#   From: 2010.06.25/outbox.cif.g09.slc.cpg/sg58_4_cif.got.tgz:6240.got - 2010.06.26 21:38:00.
