data_PCOD8237474
_publ_section_title
;
Structure prediction by ZEFSAII (Michael W. Deem and Ramdas Pophale) SiO2 
 PCOD8237474
Probable space group: P N N M
;
_chemical_formula_sum "Si O2"
_cell_formula_units_Z 56
_cell_length_a 17.904848
_cell_length_b 12.041819
_cell_length_c 13.496067
_cell_angle_alpha 90.000000
_cell_angle_beta 90.000000
_cell_angle_gamma 90.000000
_cell_volume 2909.845692
_symmetry_space_group_name_H-M "P N N M"
_symmetry_group_IT_number 58
_symmetry_cell_setting 'orthorhombic'
loop_
_space_group_symop_operation_xyz
x,y,z
-x,-y,z
1/2+x,1/2-y,1/2-z
1/2-x,1/2+y,1/2-z
-x,-y,-z
x,y,-z
1/2-x,1/2+y,1/2+z
1/2+x,1/2-y,1/2+z
loop_
_atom_site_type_symbol
_atom_site_label
_atom_site_fract_x
_atom_site_fract_y
_atom_site_fract_z
Si Si1 0.580083 0.298809 0.382376
Si Si2 0.916666 0.470776 0.885214
Si Si3 0.608025 0.540231 0.392070
Si Si4 0.335732 0.232870 0.885457
Si Si5 0.780219 0.513884 0.390234
Si Si6 0.932835 0.255288 0.214299
Si Si7 0.695480 0.149389 0.303471
O O1 0.584406 0.267457 0.500000
O O2 0.560388 0.428922 0.368098
O O3 0.517009 0.229935 0.323835
O O4 0.655074 0.267563 0.322689
O O5 0.887269 0.357767 0.833516
O O6 0.853069 0.563202 0.868478
O O7 0.000000 0.500000 0.843230
O O8 0.923563 0.445837 0.000000
O O9 0.584103 0.586516 0.500000
O O10 0.692213 0.498170 0.392823
O O11 0.599443 0.636746 0.314978
O O12 0.310537 0.107393 0.864134
O O13 0.416976 0.243129 0.832216
O O14 0.279550 0.327144 0.841327
O O15 0.346939 0.258548 0.000000
O O16 0.808675 0.551747 0.500000
O O17 0.805111 0.607007 0.310273
#
# Coordination Sequence:
#
# PCOD8237474 Si02
#       7
#     8   8   8   8   8   8   8
#     4  11  22  37  62  91 121 157 196 248 309 359
#     4  11  22  35  56  90 124 149 185 249 313 355
#     4  10  20  36  59  87 117 150 192 243 297 354
#     4  11  23  40  59  83 119 167 204 235 293 368
#     4  10  21  38  59  87 120 154 198 243 291 352
#     4  12  22  36  58  88 121 154 197 250 295 358
#     4  12  21  38  63  88 118 155 197 244 302 356
#
# _framework density 19.245007999999999
#
# number of rings (size 3 to 8) (size 9 to 14) (size 15 to 20)
#    0.000    1.000    5.714    3.000    0.000    1.143 
#    0.000    0.714    0.000    5.143    0.000    0.000 
#    0.000    0.000    0.000    0.000    0.000    0.000 
#
# Total GULP energy -693873.578156 kJ/mol
# GULP energy per Si atom -12390.599610 kJ/mol
# Density = 1.920121 g / cm^3
# Si number density = 19.245008 Si / 1000 Ang^3
#
#
#
# Elastic Constant Matrix: (Units=GPa)
#
#
# Indices 1 2 3 4 5 6 
#
# 1 39.7788 5.8377 36.5771 0.0000 0.0000 0.0000
# 2 5.8377 83.1048 49.0557 0.0000 0.0000 0.0000
# 3 36.5771 49.0557 138.3480 0.0000 0.0000 0.0000
# 4 0.0000 0.0000 0.0000 25.7492 0.0000 0.0000
# 5 0.0000 0.0000 0.0000 0.0000 25.8426 0.0000
# 6 0.0000 0.0000 0.0000 0.0000 0.0000 24.4479
#
#
#
# Elastic Compliance Matrix: (Units=1/GPa)
#
#
# Indices 1 2 3 4 5 6 
#
# 1 0.034090 0.003700 -0.010325 0.000000 0.000000 0.000000
# 2 0.003700 0.015620 -0.006517 0.000000 0.000000 0.000000
# 3 -0.010325 -0.006517 0.012269 0.000000 0.000000 0.000000
# 4 0.000000 0.000000 0.000000 0.038836 0.000000 0.000000
# 5 0.000000 0.000000 0.000000 0.000000 0.038696 0.000000
# 6 0.000000 0.000000 0.000000 0.000000 0.000000 0.040903
#
#
# Mechanical properties :
#
#
# Convention : Reuss Voigt Hill
#
# Bulk Modulus (GPa) = 28.01507 49.35254 38.68381
# Shear Modulus (GPa) = 22.87337 26.52534 24.69936
#
# Velocity S-wave (km/s) = 3.45125 3.71657 3.58637
# Velocity P-wave (km/s) = 5.51998 6.64208 6.10686
#
# Compressibility (1/GPa) = 0.03569507
#
# Stress axis : x y z
#
# Youngs Moduli (GPa) = 29.33434 64.02117 81.50912
#
# Poissons Ratio (x) = -0.23687 0.84156
# Poissons Ratio (y) = -0.10853 0.53117
# Poissons Ratio (z) = 0.30287 0.41721
#
# Static dielectric constant tensor:
#      x y z
#    x 3.534520 0.000000 0.000000 
#    y 0.000000 3.585850 0.000000 
#    z 0.000000 0.000000 3.520170 
# 
# 
# High freq. dielectric constant tensor:
#      x y z
#    x 1.738810 0.000000 0.000000 
#    y 0.000000 1.761390 0.000000 
#    z 0.000000 0.000000 1.734490 
# 
# From -- ./inp_files/17035.got.cif
#   From: 2010.06.25/outbox.cif.g09.slc.cpg/sg58_9_cif.got.tgz:17035.got - 2010.06.26 21:38:00.
