data_PCOD8237115
_publ_section_title
;
Structure prediction by ZEFSAII (Michael W. Deem and Ramdas Pophale) SiO2 
 PCOD8237115
Probable space group: P N N M
;
_chemical_formula_sum "Si O2"
_cell_formula_units_Z 48
_cell_length_a 18.820463
_cell_length_b 15.231584
_cell_length_c 8.793625
_cell_angle_alpha 90.000000
_cell_angle_beta 90.000000
_cell_angle_gamma 90.000000
_cell_volume 2520.828583
_symmetry_space_group_name_H-M "P N N M"
_symmetry_group_IT_number 58
_symmetry_cell_setting 'orthorhombic'
loop_
_space_group_symop_operation_xyz
x,y,z
-x,-y,z
1/2+x,1/2-y,1/2-z
1/2-x,1/2+y,1/2-z
-x,-y,-z
x,y,-z
1/2-x,1/2+y,1/2+z
1/2+x,1/2-y,1/2+z
loop_
_atom_site_type_symbol
_atom_site_label
_atom_site_fract_x
_atom_site_fract_y
_atom_site_fract_z
Si Si1 0.329494 0.490732 0.179329
Si Si2 0.922742 0.343042 0.677941
Si Si3 0.081485 0.341487 0.678663
Si Si4 0.932609 0.854311 0.320954
Si Si5 0.916671 0.160303 0.179384
Si Si6 0.178582 0.495480 0.320914
O O1 0.377088 0.572914 0.233418
O O2 0.355141 0.403444 0.262403
O O3 0.249689 0.511065 0.227709
O O4 0.334614 0.477390 0.000000
O O5 0.923932 0.320138 0.500000
O O6 0.895604 0.257284 0.765636
O O7 0.872037 0.423169 0.716606
O O8 0.002311 0.366798 0.734774
O O9 0.084443 0.354462 0.500000
O O10 0.098496 0.241140 0.726476
O O11 0.140150 0.407988 0.745662
O O12 0.946616 0.857877 0.500000
O O13 0.007736 0.872305 0.242185
O O14 0.918993 0.158040 0.000000
O O15 0.195240 0.488793 0.500000
#
# Coordination Sequence:
#
# PCOD8237115 Si02
#       6
#     8   8   8   8   8   8
#     4  11  23  37  53  77 112 150 182 217 269 328
#     4   9  18  35  58  82 109 142 180 220 266 321
#     4   8  15  32  58  83 105 136 178 218 261 318
#     4   9  19  37  59  79 103 139 180 220 268 327
#     4  11  22  36  57  82 106 136 180 231 275 316
#     4  10  20  34  55  83 113 145 180 219 263 317
#
# _framework density 19.041357999999999
#
# number of rings (size 3 to 8) (size 9 to 14) (size 15 to 20)
#    0.000    2.333    0.000    4.000    0.000    7.333 
#    0.000    5.000    0.000    5.000    0.000    0.000 
#    0.000    0.000    0.000    0.000    0.000    0.000 
#
# Total GULP energy -595238.597511 kJ/mol
# GULP energy per Si atom -12400.804115 kJ/mol
# Density = 1.899802 g / cm^3
# Si number density = 19.041358 Si / 1000 Ang^3
#
#
#
# Elastic Constant Matrix: (Units=GPa)
#
#
# Indices 1 2 3 4 5 6 
#
# 1 74.9307 47.3904 24.9734 0.0000 0.0000 0.0000
# 2 47.3904 98.8087 26.3466 0.0000 0.0000 0.0000
# 3 24.9734 26.3466 49.8251 0.0000 0.0000 0.0000
# 4 0.0000 0.0000 0.0000 18.6852 0.0000 0.0000
# 5 0.0000 0.0000 0.0000 0.0000 30.7178 0.0000
# 6 0.0000 0.0000 0.0000 0.0000 0.0000 15.9510
#
#
#
# Elastic Compliance Matrix: (Units=1/GPa)
#
#
# Indices 1 2 3 4 5 6 
#
# 1 0.020557 -0.008279 -0.005926 0.000000 0.000000 0.000000
# 2 -0.008279 0.015116 -0.003843 0.000000 0.000000 0.000000
# 3 -0.005926 -0.003843 0.025073 0.000000 0.000000 0.000000
# 4 0.000000 0.000000 0.000000 0.053518 0.000000 0.000000
# 5 0.000000 0.000000 0.000000 0.000000 0.032554 0.000000
# 6 0.000000 0.000000 0.000000 0.000000 0.000000 0.062692
#
#
# Mechanical properties :
#
#
# Convention : Reuss Voigt Hill
#
# Bulk Modulus (GPa) = 40.56959 46.77614 43.67287
# Shear Modulus (GPa) = 19.69869 21.39439 20.54654
#
# Velocity S-wave (km/s) = 3.21989 3.35561 3.28845
# Velocity P-wave (km/s) = 5.93092 6.29543 6.11589
#
# Compressibility (1/GPa) = 0.02464900
#
# Stress axis : x y z
#
# Youngs Moduli (GPa) = 48.64529 66.15354 39.88423
#
# Poissons Ratio (x) = 0.54772 0.23634
# Poissons Ratio (y) = 0.40276 0.15329
# Poissons Ratio (z) = 0.28825 0.25425
#
# Static dielectric constant tensor:
#      x y z
#    x 3.485650 0.000000 0.000000 
#    y 0.000000 3.750920 0.000000 
#    z 0.000000 0.000000 3.228740 
# 
# 
# High freq. dielectric constant tensor:
#      x y z
#    x 1.737970 0.000000 0.000000 
#    y 0.000000 1.755140 0.000000 
#    z 0.000000 0.000000 1.716760 
# 
# From -- ./inp_files/5879.got.cif
#   From: 2010.06.25/outbox.cif.g09.slc.cpg/sg58_3_cif.got.tgz:5879.got - 2010.06.26 21:38:00.
