data_PCOD8237917
_publ_section_title
;
Structure prediction by ZEFSAII (Michael W. Deem and Ramdas Pophale) SiO2 
 PCOD8237917
Probable space group: P N N M
;
_chemical_formula_sum "Si O2"
_cell_formula_units_Z 48
_cell_length_a 5.104094
_cell_length_b 33.542589
_cell_length_c 13.828744
_cell_angle_alpha 90.000000
_cell_angle_beta 90.000000
_cell_angle_gamma 90.000000
_cell_volume 2367.543579
_symmetry_space_group_name_H-M "P N N M"
_symmetry_group_IT_number 58
_symmetry_cell_setting 'orthorhombic'
loop_
_space_group_symop_operation_xyz
x,y,z
-x,-y,z
1/2+x,1/2-y,1/2-z
1/2-x,1/2+y,1/2-z
-x,-y,-z
x,y,-z
1/2-x,1/2+y,1/2+z
1/2+x,1/2-y,1/2+z
loop_
_atom_site_type_symbol
_atom_site_label
_atom_site_fract_x
_atom_site_fract_y
_atom_site_fract_z
Si Si1 0.030187 0.624259 0.293836
Si Si2 0.053082 0.067885 0.391978
Si Si3 0.036585 0.223510 0.253775
Si Si4 0.443802 0.956434 0.285390
Si Si5 0.520429 0.656603 0.386681
Si Si6 0.283247 0.654557 0.112806
O O1 0.961489 0.577490 0.296010
O O2 0.816336 0.647502 0.355644
O O3 0.315514 0.625008 0.343526
O O4 0.040161 0.644044 0.185388
O O5 0.989766 0.055145 0.500000
O O6 0.346803 0.053749 0.368741
O O7 0.024825 0.116031 0.379485
O O8 0.849110 0.044392 0.326235
O O9 0.247410 0.258393 0.245163
O O10 0.074991 0.194610 0.347583
O O11 0.065741 0.199187 0.154742
O O12 0.500000 0.000000 0.240423
O O13 0.500253 0.657875 0.500000
O O14 0.193754 0.660597 0.000000
#
# Coordination Sequence:
#
# PCOD8237917 Si02
#       6
#     8   8   8   8   8   8
#     4  10  21  40  61  88 116 148 201 243 275 344
#     4  10  21  35  53  80 113 155 203 233 267 342
#     4  11  23  38  57  87 122 148 186 240 288 344
#     4  11  21  34  55  82 117 155 185 235 300 337
#     4  11  23  42  66  85 111 154 199 243 291 338
#     4   9  20  39  61  83 115 158 192 228 281 342
#
# _framework density 20.274179
#
# number of rings (size 3 to 8) (size 9 to 14) (size 15 to 20)
#    0.000    1.667    0.000    6.500    0.000    5.333 
#    0.000   10.000    0.000    3.000    0.000    0.000 
#    0.000    0.000    0.000    0.000    0.000    0.000 
#
# Total GULP energy -594997.679699 kJ/mol
# GULP energy per Si atom -12395.784994 kJ/mol
# Density = 2.022803 g / cm^3
# Si number density = 20.274179 Si / 1000 Ang^3
#
#
#
# Elastic Constant Matrix: (Units=GPa)
#
#
# Indices 1 2 3 4 5 6 
#
# 1 77.6047 -2.7630 20.6838 0.0000 0.0000 0.0000
# 2 -2.7630 82.7194 32.5865 0.0000 0.0000 0.0000
# 3 20.6838 32.5865 128.6249 0.0000 0.0000 0.0000
# 4 0.0000 0.0000 0.0000 14.7610 0.0000 0.0000
# 5 0.0000 0.0000 0.0000 0.0000 25.4515 0.0000
# 6 0.0000 0.0000 0.0000 0.0000 0.0000 30.7307
#
#
#
# Elastic Compliance Matrix: (Units=1/GPa)
#
#
# Indices 1 2 3 4 5 6 
#
# 1 0.013621 0.001464 -0.002561 0.000000 0.000000 0.000000
# 2 0.001464 0.013587 -0.003678 0.000000 0.000000 0.000000
# 3 -0.002561 -0.003678 0.009118 0.000000 0.000000 0.000000
# 4 0.000000 0.000000 0.000000 0.067746 0.000000 0.000000
# 5 0.000000 0.000000 0.000000 0.000000 0.039290 0.000000
# 6 0.000000 0.000000 0.000000 0.000000 0.000000 0.032541
#
#
# Mechanical properties :
#
#
# Convention : Reuss Voigt Hill
#
# Bulk Modulus (GPa) = 37.34721 43.32929 40.33825
# Shear Modulus (GPa) = 25.72315 30.08475 27.90395
#
# Velocity S-wave (km/s) = 3.56584 3.85631 3.71392
# Velocity P-wave (km/s) = 5.95102 6.42233 6.19116
#
# Compressibility (1/GPa) = 0.02677576
#
# Stress axis : x y z
#
# Youngs Moduli (GPa) = 73.41839 73.60142 109.67218
#
# Poissons Ratio (x) = -0.10775 0.28089
# Poissons Ratio (y) = -0.10748 0.40332
# Poissons Ratio (z) = 0.18804 0.27067
#
# Static dielectric constant tensor:
#      x y z
#    x 3.703130 0.000000 0.000000 
#    y 0.000000 3.865080 0.000000 
#    z 0.000000 0.000000 3.530280 
# 
# 
# High freq. dielectric constant tensor:
#      x y z
#    x 1.799560 0.000000 0.000000 
#    y 0.000000 1.797400 0.000000 
#    z 0.000000 0.000000 1.763120 
# 
# From -- ./inp_files/18709.got.cif
#   From: 2010.06.25/outbox.cif.g09.slc.cpg/sg58_10_cif.got.tgz:18709.got - 2010.06.26 21:38:00.
