data_PCOD8237847
_publ_section_title
;
Structure prediction by ZEFSAII (Michael W. Deem and Ramdas Pophale) SiO2 
 PCOD8237847
Probable space group: P N N M
;
_chemical_formula_sum "Si O2"
_cell_formula_units_Z 48
_cell_length_a 9.521467
_cell_length_b 13.206042
_cell_length_c 17.590067
_cell_angle_alpha 90.000000
_cell_angle_beta 90.000000
_cell_angle_gamma 90.000000
_cell_volume 2211.790734
_symmetry_space_group_name_H-M "P N N M"
_symmetry_group_IT_number 58
_symmetry_cell_setting 'orthorhombic'
loop_
_space_group_symop_operation_xyz
x,y,z
-x,-y,z
1/2+x,1/2-y,1/2-z
1/2-x,1/2+y,1/2-z
-x,-y,-z
x,y,-z
1/2-x,1/2+y,1/2+z
1/2+x,1/2-y,1/2+z
loop_
_atom_site_type_symbol
_atom_site_label
_atom_site_fract_x
_atom_site_fract_y
_atom_site_fract_z
Si Si1 0.793621 0.122217 0.667186
Si Si2 0.112303 0.421224 0.590136
Si Si3 0.949435 0.725047 0.910779
Si Si4 0.052044 0.200754 0.414538
Si Si5 0.607523 0.590385 0.668093
Si Si6 0.182474 0.566633 0.915409
O O1 0.697798 0.213197 0.633981
O O2 0.815079 0.132056 0.756865
O O3 0.947920 0.128519 0.631214
O O4 0.720731 0.015754 0.647457
O O5 0.111589 0.419333 0.500000
O O6 0.064444 0.312058 0.622267
O O7 0.268602 0.452623 0.615180
O O8 0.000000 0.500000 0.623423
O O9 0.030166 0.818766 0.874434
O O10 0.032034 0.618509 0.899494
O O11 0.924432 0.747132 0.000000
O O12 0.993830 0.206615 0.500000
O O13 0.207576 0.157279 0.412061
O O14 0.500000 0.500000 0.687047
O O15 0.183703 0.516478 0.000000
#
# Coordination Sequence:
#
# PCOD8237847 Si02
#       6
#     8   8   8   8   8   8
#     4  12  26  40  67 100 139 175 225 277 352 416
#     4  10  23  44  68  95 131 179 233 286 336 402
#     4  11  25  46  72 101 137 185 236 286 341 412
#     4  10  20  39  67  97 129 169 222 280 336 399
#     4  12  28  45  67 100 141 184 227 286 349 417
#     4  10  20  41  69  97 133 172 224 284 338 404
#
# _framework density 21.701874
#
# number of rings (size 3 to 8) (size 9 to 14) (size 15 to 20)
#    0.000    1.167    1.667    4.000    4.667    6.667 
#    0.000    0.000    0.000    0.000    0.000    0.000 
#    0.000    0.000    0.000    0.000    0.000    0.000 
#
# Total GULP energy -595367.493590 kJ/mol
# GULP energy per Si atom -12403.489450 kJ/mol
# Density = 2.165248 g / cm^3
# Si number density = 21.701874 Si / 1000 Ang^3
#
#
#
# Elastic Constant Matrix: (Units=GPa)
#
#
# Indices 1 2 3 4 5 6 
#
# 1 94.1126 26.5878 32.6043 0.0000 0.0000 0.0000
# 2 26.5878 79.6223 44.8712 0.0000 0.0000 0.0000
# 3 32.6043 44.8712 93.1711 0.0000 0.0000 0.0000
# 4 0.0000 0.0000 0.0000 27.0999 0.0000 0.0000
# 5 0.0000 0.0000 0.0000 0.0000 34.8158 0.0000
# 6 0.0000 0.0000 0.0000 0.0000 0.0000 38.9697
#
#
#
# Elastic Compliance Matrix: (Units=1/GPa)
#
#
# Indices 1 2 3 4 5 6 
#
# 1 0.012398 -0.002326 -0.003218 0.000000 0.000000 0.000000
# 2 -0.002326 0.017674 -0.007698 0.000000 0.000000 0.000000
# 3 -0.003218 -0.007698 0.015566 0.000000 0.000000 0.000000
# 4 0.000000 0.000000 0.000000 0.036901 0.000000 0.000000
# 5 0.000000 0.000000 0.000000 0.000000 0.028723 0.000000
# 6 0.000000 0.000000 0.000000 0.000000 0.000000 0.025661
#
#
# Mechanical properties :
#
#
# Convention : Reuss Voigt Hill
#
# Bulk Modulus (GPa) = 52.20904 52.78137 52.49521
# Shear Modulus (GPa) = 29.44790 31.03326 30.24058
#
# Velocity S-wave (km/s) = 3.68765 3.78561 3.73695
# Velocity P-wave (km/s) = 6.49933 6.59407 6.54687
#
# Compressibility (1/GPa) = 0.01915377
#
# Stress axis : x y z
#
# Youngs Moduli (GPa) = 80.66044 56.57954 64.24109
#
# Poissons Ratio (x) = 0.13162 0.20673
# Poissons Ratio (y) = 0.18764 0.49452
# Poissons Ratio (z) = 0.25957 0.43554
#
# Static dielectric constant tensor:
#      x y z
#    x 4.082530 0.000000 0.000000 
#    y 0.000000 3.886540 0.000000 
#    z 0.000000 0.000000 3.805530 
# 
# 
# High freq. dielectric constant tensor:
#      x y z
#    x 1.870000 0.000000 0.000000 
#    y 0.000000 1.851990 0.000000 
#    z 0.000000 0.000000 1.840710 
# 
# From -- ./inp_files/25296.got.cif
#   From: 2010.06.25/outbox.cif.g09.slc.cpg/sg58_13_cif.got.tgz:25296.got - 2010.06.26 21:38:00.
