data_PCOD8237634
_publ_section_title
;
Structure prediction by ZEFSAII (Michael W. Deem and Ramdas Pophale) SiO2 
 PCOD8237634
Probable space group: P N N M
;
_chemical_formula_sum "Si O2"
_cell_formula_units_Z 64
_cell_length_a 18.524320
_cell_length_b 19.814377
_cell_length_c 9.129976
_cell_angle_alpha 90.000000
_cell_angle_beta 90.000000
_cell_angle_gamma 90.000000
_cell_volume 3351.138154
_symmetry_space_group_name_H-M "P N N M"
_symmetry_group_IT_number 58
_symmetry_cell_setting 'orthorhombic'
loop_
_space_group_symop_operation_xyz
x,y,z
-x,-y,z
1/2+x,1/2-y,1/2-z
1/2-x,1/2+y,1/2-z
-x,-y,-z
x,y,-z
1/2-x,1/2+y,1/2+z
1/2+x,1/2-y,1/2+z
loop_
_atom_site_type_symbol
_atom_site_label
_atom_site_fract_x
_atom_site_fract_y
_atom_site_fract_z
Si Si1 0.706503 0.841321 0.329320
Si Si2 0.558191 0.811031 0.826387
Si Si3 0.311357 0.755529 0.332531
Si Si4 0.206792 0.026045 0.668087
Si Si5 0.813614 0.590154 0.832197
Si Si6 0.940589 0.947179 0.173372
Si Si7 0.030386 0.203938 0.830311
Si Si8 0.540782 0.065795 0.826946
O O1 0.689167 0.831155 0.500000
O O2 0.635686 0.830053 0.234977
O O3 0.766803 0.788209 0.281448
O O4 0.735539 0.915883 0.295080
O O5 0.532577 0.739428 0.762232
O O6 0.502067 0.868100 0.774343
O O7 0.563502 0.805427 0.000000
O O8 0.291899 0.735598 0.500000
O O9 0.292466 0.832940 0.299433
O O10 0.395513 0.743589 0.302693
O O11 0.182211 0.031088 0.500000
O O12 0.136888 0.032314 0.767037
O O13 0.243599 0.954525 0.704107
O O14 0.878958 0.565542 0.733521
O O15 0.837761 0.580899 0.000000
O O16 0.962397 0.872599 0.227461
O O17 0.934551 0.948476 0.000000
O O18 0.000000 0.000000 0.231282
O O19 0.008077 0.205610 0.000000
O O20 0.500000 0.000000 0.765548
O O21 0.545939 0.063220 0.000000
#
# Coordination Sequence:
#
# PCOD8237634 Si02
#       8
#     8   8   8   8   8   8   8   8
#     4  11  23  38  59  86 117 154 197 240 289 349
#     4  11  23  37  58  87 119 153 195 242 291 347
#     4  10  20  37  61  85 113 153 195 239 292 347
#     4  10  22  39  59  86 119 155 195 241 291 348
#     4  10  21  37  58  85 116 150 191 236 287 346
#     4  10  22  40  63  89 117 153 198 244 295 352
#     4  10  20  38  62  86 116 154 195 242 295 351
#     4  10  21  36  54  81 116 153 192 235 283 339
#
# _framework density 19.097988000000001
#
# number of rings (size 3 to 8) (size 9 to 14) (size 15 to 20)
#    0.000    1.750    2.500    1.500    0.000    4.500 
#    0.000    2.500    0.000    0.000    0.000    0.000 
#    0.000    0.000    0.000    0.000    0.000    0.000 
#
# Total GULP energy -793919.044714 kJ/mol
# GULP energy per Si atom -12404.985074 kJ/mol
# Density = 1.905452 g / cm^3
# Si number density = 19.097988 Si / 1000 Ang^3
#
#
#
# Elastic Constant Matrix: (Units=GPa)
#
#
# Indices 1 2 3 4 5 6 
#
# 1 63.1998 27.4150 25.5876 0.0000 0.0000 0.0000
# 2 27.4150 119.9369 25.6153 0.0000 0.0000 0.0000
# 3 25.5876 25.6153 36.3168 0.0000 0.0000 0.0000
# 4 0.0000 0.0000 0.0000 22.0120 0.0000 0.0000
# 5 0.0000 0.0000 0.0000 0.0000 39.5731 0.0000
# 6 0.0000 0.0000 0.0000 0.0000 0.0000 31.5269
#
#
#
# Elastic Compliance Matrix: (Units=1/GPa)
#
#
# Indices 1 2 3 4 5 6 
#
# 1 0.022568 -0.002075 -0.014437 0.000000 0.000000 0.000000
# 2 -0.002075 0.010007 -0.005596 0.000000 0.000000 0.000000
# 3 -0.014437 -0.005596 0.041655 0.000000 0.000000 0.000000
# 4 0.000000 0.000000 0.000000 0.045430 0.000000 0.000000
# 5 0.000000 0.000000 0.000000 0.000000 0.025270 0.000000
# 6 0.000000 0.000000 0.000000 0.000000 0.000000 0.031719
#
#
# Mechanical properties :
#
#
# Convention : Reuss Voigt Hill
#
# Bulk Modulus (GPa) = 33.31907 41.85438 37.58673
# Shear Modulus (GPa) = 21.65723 28.01144 24.83433
#
# Velocity S-wave (km/s) = 3.37115 3.83394 3.60997
# Velocity P-wave (km/s) = 5.71289 6.44685 6.09094
#
# Compressibility (1/GPa) = 0.03001284
#
# Stress axis : x y z
#
# Youngs Moduli (GPa) = 44.31025 99.92717 24.00695
#
# Poissons Ratio (x) = 0.20737 0.34659
# Poissons Ratio (y) = 0.09195 0.13435
# Poissons Ratio (z) = 0.63971 0.55922
#
# Static dielectric constant tensor:
#      x y z
#    x 3.378680 0.000000 0.000000 
#    y 0.000000 3.843750 0.000000 
#    z 0.000000 0.000000 3.402490 
# 
# 
# High freq. dielectric constant tensor:
#      x y z
#    x 1.741780 0.000000 0.000000 
#    y 0.000000 1.757870 0.000000 
#    z 0.000000 0.000000 1.737740 
# 
# From -- ./inp_files/8282.got.cif
#   From: 2010.06.25/outbox.cif.g09.slc.cpg/sg58_5_cif.got.tgz:8282.got - 2010.06.26 21:38:00.
