data_PCOD8237844
_publ_section_title
;
Structure prediction by ZEFSAII (Michael W. Deem and Ramdas Pophale) SiO2 
 PCOD8237844
Probable space group: P N N M
;
_chemical_formula_sum "Si O2"
_cell_formula_units_Z 48
_cell_length_a 14.423458
_cell_length_b 8.355667
_cell_length_c 18.529932
_cell_angle_alpha 90.000000
_cell_angle_beta 90.000000
_cell_angle_gamma 90.000000
_cell_volume 2233.183156
_symmetry_space_group_name_H-M "P N N M"
_symmetry_group_IT_number 58
_symmetry_cell_setting 'orthorhombic'
loop_
_space_group_symop_operation_xyz
x,y,z
-x,-y,z
1/2+x,1/2-y,1/2-z
1/2-x,1/2+y,1/2-z
-x,-y,-z
x,y,-z
1/2-x,1/2+y,1/2+z
1/2+x,1/2-y,1/2+z
loop_
_atom_site_type_symbol
_atom_site_label
_atom_site_fract_x
_atom_site_fract_y
_atom_site_fract_z
Si Si1 0.972895 0.679950 0.168005
Si Si2 0.159248 0.846325 0.827464
Si Si3 0.202808 0.186122 0.417195
Si Si4 0.927157 0.626005 0.325246
Si Si5 0.782335 0.660318 0.914412
Si Si6 0.272916 0.120543 0.200429
O O1 0.967524 0.707737 0.253812
O O2 0.880746 0.707598 0.121416
O O3 0.000000 0.500000 0.148557
O O4 0.054679 0.805076 0.148679
O O5 0.220711 0.821756 0.899935
O O6 0.208344 0.727069 0.770012
O O7 0.170594 0.031264 0.799980
O O8 0.177375 0.184852 0.500000
O O9 0.105157 0.231908 0.378520
O O10 0.246855 0.016053 0.394118
O O11 0.840729 0.527883 0.295875
O O12 0.000000 0.500000 0.361251
O O13 0.711427 0.779451 0.873622
O O14 0.785239 0.690655 0.000000
#
# Coordination Sequence:
#
# PCOD8237844 Si02
#       6
#     8   8   8   8   8   8
#     4  11  20  38  64  95 124 157 209 257 316 379
#     4  11  21  38  65  93 121 161 206 259 315 381
#     4  10  21  37  60  87 121 166 208 244 306 379
#     4  10  20  39  66  94 123 156 208 262 315 373
#     4  11  24  41  60  88 127 167 208 261 315 377
#     4  11  22  38  63  88 122 161 205 259 318 382
#
# _framework density 21.493983
#
# number of rings (size 3 to 8) (size 9 to 14) (size 15 to 20)
#    0.000    1.333    5.000    3.000    0.000    4.667 
#    0.000    1.667    0.000    2.000    0.000    0.000 
#    0.000    0.000    0.000    0.000    0.000    0.000 
#
# Total GULP energy -594695.237654 kJ/mol
# GULP energy per Si atom -12389.484118 kJ/mol
# Density = 2.144506 g / cm^3
# Si number density = 21.493983 Si / 1000 Ang^3
#
#
#
# Elastic Constant Matrix: (Units=GPa)
#
#
# Indices 1 2 3 4 5 6 
#
# 1 68.7017 12.2799 5.7923 0.0000 0.0000 0.0000
# 2 12.2799 61.1275 27.9721 0.0000 0.0000 0.0000
# 3 5.7923 27.9721 51.4275 0.0000 0.0000 0.0000
# 4 0.0000 0.0000 0.0000 28.9128 0.0000 0.0000
# 5 0.0000 0.0000 0.0000 0.0000 26.9255 0.0000
# 6 0.0000 0.0000 0.0000 0.0000 0.0000 43.0516
#
#
#
# Elastic Compliance Matrix: (Units=1/GPa)
#
#
# Indices 1 2 3 4 5 6 
#
# 1 0.015098 -0.003002 -0.000068 0.000000 0.000000 0.000000
# 2 -0.003002 0.022377 -0.011833 0.000000 0.000000 0.000000
# 3 -0.000068 -0.011833 0.025889 0.000000 0.000000 0.000000
# 4 0.000000 0.000000 0.000000 0.034587 0.000000 0.000000
# 5 0.000000 0.000000 0.000000 0.000000 0.037139 0.000000
# 6 0.000000 0.000000 0.000000 0.000000 0.000000 0.023228
#
#
# Mechanical properties :
#
#
# Convention : Reuss Voigt Hill
#
# Bulk Modulus (GPa) = 29.79899 30.37169 30.08534
# Shear Modulus (GPa) = 25.08659 28.79216 26.93937
#
# Velocity S-wave (km/s) = 3.42006 3.66395 3.54410
# Velocity P-wave (km/s) = 5.43044 5.66219 5.54752
#
# Compressibility (1/GPa) = 0.03355818
#
# Stress axis : x y z
#
# Youngs Moduli (GPa) = 66.23404 44.68831 38.62699
#
# Poissons Ratio (x) = 0.13416 0.00261
# Poissons Ratio (y) = 0.19884 0.45708
# Poissons Ratio (z) = 0.00448 0.52880
#
# Static dielectric constant tensor:
#      x y z
#    x 4.154070 0.000000 0.000000 
#    y 0.000000 4.204790 0.000000 
#    z 0.000000 0.000000 3.751730 
# 
# 
# High freq. dielectric constant tensor:
#      x y z
#    x 1.839720 0.000000 0.000000 
#    y 0.000000 1.851670 0.000000 
#    z 0.000000 0.000000 1.825460 
# 
# From -- ./inp_files/25301.got.cif
#   From: 2010.06.25/outbox.cif.g09.slc.cpg/sg58_13_cif.got.tgz:25301.got - 2010.06.26 21:38:00.
