data_PCOD8237958
_publ_section_title
;
Structure prediction by ZEFSAII (Michael W. Deem and Ramdas Pophale) SiO2 
 PCOD8237958
Probable space group: P N N M
;
_chemical_formula_sum "Si O2"
_cell_formula_units_Z 48
_cell_length_a 12.099268
_cell_length_b 18.224296
_cell_length_c 12.495404
_cell_angle_alpha 90.000000
_cell_angle_beta 90.000000
_cell_angle_gamma 90.000000
_cell_volume 2755.244597
_symmetry_space_group_name_H-M "P N N M"
_symmetry_group_IT_number 58
_symmetry_cell_setting 'orthorhombic'
loop_
_space_group_symop_operation_xyz
x,y,z
-x,-y,z
1/2+x,1/2-y,1/2-z
1/2-x,1/2+y,1/2-z
-x,-y,-z
x,y,-z
1/2-x,1/2+y,1/2+z
1/2+x,1/2-y,1/2+z
loop_
_atom_site_type_symbol
_atom_site_label
_atom_site_fract_x
_atom_site_fract_y
_atom_site_fract_z
Si Si1 0.818918 0.353511 0.264214
Si Si2 0.140066 0.218681 0.374520
Si Si3 0.616393 0.706832 0.876498
Si Si4 0.493787 0.914649 0.623244
Si Si5 0.798136 0.635316 0.747898
Si Si6 0.129871 0.502022 0.375035
O O1 0.709914 0.340441 0.192952
O O2 0.843887 0.287804 0.345265
O O3 0.807405 0.425215 0.336959
O O4 0.918715 0.364361 0.183093
O O5 0.173080 0.217831 0.500000
O O6 0.160716 0.298927 0.327031
O O7 0.013295 0.196624 0.359009
O O8 0.677249 0.649327 0.797843
O O9 0.648225 0.692941 0.000000
O O10 0.519667 0.906492 0.500000
O O11 0.376077 0.879281 0.650137
O O12 0.500000 0.000000 0.658444
O O13 0.800001 0.563979 0.674381
O O14 0.140421 0.495243 0.500000
O O15 0.000000 0.500000 0.340995
#
# Coordination Sequence:
#
# PCOD8237958 Si02
#       6
#     8   8   8   8   8   8
#     4  11  19  35  56  80 110 138 178 226 268 318
#     4  10  21  36  55  78 108 146 182 217 263 320
#     4  10  21  36  55  78 108 146 182 217 263 320
#     4  11  20  32  52  82 112 139 170 223 282 320
#     4  11  19  35  56  80 110 138 178 226 268 318
#     4  11  20  34  59  86 109 137 176 224 277 319
#
# _framework density 17.421320000000001
#
# number of rings (size 3 to 8) (size 9 to 14) (size 15 to 20)
#    0.000    1.333    5.000    2.000    0.000    2.667 
#    0.000    0.833    0.000    3.000    0.000    0.000 
#    0.000    0.000    0.000    0.000    0.000    0.000 
#
# Total GULP energy -595133.011563 kJ/mol
# GULP energy per Si atom -12398.604408 kJ/mol
# Density = 1.738167 g / cm^3
# Si number density = 17.421320 Si / 1000 Ang^3
#
#
#
# Elastic Constant Matrix: (Units=GPa)
#
#
# Indices 1 2 3 4 5 6 
#
# 1 79.5728 29.1440 32.6516 0.0000 0.0000 0.0000
# 2 29.1440 74.9561 20.4771 0.0000 0.0000 0.0000
# 3 32.6516 20.4771 97.8513 0.0000 0.0000 0.0000
# 4 0.0000 0.0000 0.0000 12.8318 0.0000 0.0000
# 5 0.0000 0.0000 0.0000 0.0000 35.8219 0.0000
# 6 0.0000 0.0000 0.0000 0.0000 0.0000 39.5664
#
#
#
# Elastic Compliance Matrix: (Units=1/GPa)
#
#
# Indices 1 2 3 4 5 6 
#
# 1 0.016225 -0.005122 -0.004342 0.000000 0.000000 0.000000
# 2 -0.005122 0.015767 -0.001590 0.000000 0.000000 0.000000
# 3 -0.004342 -0.001590 0.012001 0.000000 0.000000 0.000000
# 4 0.000000 0.000000 0.000000 0.077932 0.000000 0.000000
# 5 0.000000 0.000000 0.000000 0.000000 0.027916 0.000000
# 6 0.000000 0.000000 0.000000 0.000000 0.000000 0.025274
#
#
# Mechanical properties :
#
#
# Convention : Reuss Voigt Hill
#
# Bulk Modulus (GPa) = 45.69547 46.32506 46.01026
# Shear Modulus (GPa) = 24.44762 28.98451 26.71606
#
# Velocity S-wave (km/s) = 3.75015 4.08332 3.92028
# Velocity P-wave (km/s) = 6.71104 6.99143 6.85267
#
# Compressibility (1/GPa) = 0.02188401
#
# Stress axis : x y z
#
# Youngs Moduli (GPa) = 61.63375 63.42283 83.32435
#
# Poissons Ratio (x) = 0.32487 0.36180
# Poissons Ratio (y) = 0.31570 0.13251
# Poissons Ratio (z) = 0.26762 0.10086
#
# Static dielectric constant tensor:
#      x y z
#    x 3.182580 0.000000 0.000000 
#    y 0.000000 3.251100 0.000000 
#    z 0.000000 0.000000 3.400880 
# 
# 
# High freq. dielectric constant tensor:
#      x y z
#    x 1.657180 0.000000 0.000000 
#    y 0.000000 1.670320 0.000000 
#    z 0.000000 0.000000 1.697930 
# 
# From -- ./inp_files/14360.got.cif
#   From: 2010.06.25/outbox.cif.g09.slc.cpg/sg58_8_cif.got.tgz:14360.got - 2010.06.26 21:38:00.
