data_PCOD8237380
_publ_section_title
;
Structure prediction by ZEFSAII (Michael W. Deem and Ramdas Pophale) SiO2 
 PCOD8237380
Probable space group: P N N M
;
_chemical_formula_sum "Si O2"
_cell_formula_units_Z 56
_cell_length_a 23.049089
_cell_length_b 13.581722
_cell_length_c 9.231654
_cell_angle_alpha 90.000000
_cell_angle_beta 90.000000
_cell_angle_gamma 90.000000
_cell_volume 2889.935304
_symmetry_space_group_name_H-M "P N N M"
_symmetry_group_IT_number 58
_symmetry_cell_setting 'orthorhombic'
loop_
_space_group_symop_operation_xyz
x,y,z
-x,-y,z
1/2+x,1/2-y,1/2-z
1/2-x,1/2+y,1/2-z
-x,-y,-z
x,y,-z
1/2-x,1/2+y,1/2+z
1/2+x,1/2-y,1/2+z
loop_
_atom_site_type_symbol
_atom_site_label
_atom_site_fract_x
_atom_site_fract_y
_atom_site_fract_z
Si Si1 0.162031 0.025151 0.334346
Si Si2 0.532858 0.097453 0.832363
Si Si3 0.230535 0.216895 0.329186
Si Si4 0.167520 0.804327 0.666740
Si Si5 0.869414 0.687830 0.836400
Si Si6 0.965126 0.203572 0.667539
Si Si7 0.561927 0.390677 0.662618
O O1 0.143461 0.042920 0.500000
O O2 0.209659 0.106505 0.288356
O O3 0.102879 0.031074 0.242745
O O4 0.189015 0.917021 0.312058
O O5 0.591807 0.104081 0.739400
O O6 0.490693 0.188773 0.802560
O O7 0.500000 0.000000 0.780902
O O8 0.550930 0.091639 0.000000
O O9 0.230484 0.235036 0.500000
O O10 0.294796 0.231587 0.266000
O O11 0.189272 0.297683 0.254239
O O12 0.174142 0.771333 0.500000
O O13 0.101260 0.795132 0.718565
O O14 0.905614 0.787309 0.834692
O O15 0.853641 0.655591 0.000000
O O16 0.970055 0.173765 0.500000
O O17 0.000092 0.120795 0.757711
O O18 0.550512 0.427536 0.500000
#
# Coordination Sequence:
#
# PCOD8237380 Si02
#       7
#     8   8   8   8   8   8   8
#     4   9  19  36  56  76 102 138 177 215 263 322
#     4   9  17  31  51  76 108 139 176 222 267 317
#     4  10  20  36  56  76 101 135 176 221 268 313
#     4  10  21  37  55  76 107 142 179 220 264 318
#     4   9  17  31  52  75 100 134 175 214 259 312
#     4   9  18  33  52  74 104 143 175 211 266 320
#     4   9  17  30  52  79 105 132 167 213 259 308
#
# _framework density 19.377596
#
# number of rings (size 3 to 8) (size 9 to 14) (size 15 to 20)
#    0.000    2.714    0.000    1.286    0.000    6.000 
#    2.571    2.857    0.000    0.000    0.000    0.000 
#    0.000    0.000    0.000    0.000    0.000    0.000 
#
# Total GULP energy -694457.789994 kJ/mol
# GULP energy per Si atom -12401.031964 kJ/mol
# Density = 1.933349 g / cm^3
# Si number density = 19.377596 Si / 1000 Ang^3
#
#
#
# Elastic Constant Matrix: (Units=GPa)
#
#
# Indices 1 2 3 4 5 6 
#
# 1 115.0150 20.2888 53.3963 0.0000 0.0000 0.0000
# 2 20.2888 41.8211 19.5679 0.0000 0.0000 0.0000
# 3 53.3963 19.5679 94.4729 0.0000 0.0000 0.0000
# 4 0.0000 0.0000 0.0000 17.4761 0.0000 0.0000
# 5 0.0000 0.0000 0.0000 0.0000 39.0305 0.0000
# 6 0.0000 0.0000 0.0000 0.0000 0.0000 26.2361
#
#
#
# Elastic Compliance Matrix: (Units=1/GPa)
#
#
# Indices 1 2 3 4 5 6 
#
# 1 0.012109 -0.002959 -0.006231 0.000000 0.000000 0.000000
# 2 -0.002959 0.027200 -0.003961 0.000000 0.000000 0.000000
# 3 -0.006231 -0.003961 0.014928 0.000000 0.000000 0.000000
# 4 0.000000 0.000000 0.000000 0.057221 0.000000 0.000000
# 5 0.000000 0.000000 0.000000 0.000000 0.025621 0.000000
# 6 0.000000 0.000000 0.000000 0.000000 0.000000 0.038115
#
#
# Mechanical properties :
#
#
# Convention : Reuss Voigt Hill
#
# Bulk Modulus (GPa) = 35.79914 48.64610 42.22262
# Shear Modulus (GPa) = 23.71805 27.08561 25.40183
#
# Velocity S-wave (km/s) = 3.50236 3.74275 3.62454
# Velocity P-wave (km/s) = 5.90508 6.62090 6.27321
#
# Compressibility (1/GPa) = 0.02793363
#
# Stress axis : x y z
#
# Youngs Moduli (GPa) = 82.58012 36.76406 66.99016
#
# Poissons Ratio (x) = 0.10879 0.41744
# Poissons Ratio (y) = 0.24436 0.26538
# Poissons Ratio (z) = 0.51459 0.14564
#
# Static dielectric constant tensor:
#      x y z
#    x 3.509260 0.000000 0.000000 
#    y 0.000000 3.389960 0.000000 
#    z 0.000000 0.000000 3.589370 
# 
# 
# High freq. dielectric constant tensor:
#      x y z
#    x 1.751120 0.000000 0.000000 
#    y 0.000000 1.737930 0.000000 
#    z 0.000000 0.000000 1.752820 
# 
# From -- ./inp_files/6312.got.cif
#   From: 2010.06.25/outbox.cif.g09.slc.cpg/sg58_4_cif.got.tgz:6312.got - 2010.06.26 21:38:00.
