data_PCOD8237818
_publ_section_title
;
Structure prediction by ZEFSAII (Michael W. Deem and Ramdas Pophale) SiO2 
 PCOD8237818
Probable space group: P N N M
;
_chemical_formula_sum "Si O2"
_cell_formula_units_Z 64
_cell_length_a 11.944622
_cell_length_b 30.425303
_cell_length_c 9.324447
_cell_angle_alpha 90.000000
_cell_angle_beta 90.000000
_cell_angle_gamma 90.000000
_cell_volume 3388.678813
_symmetry_space_group_name_H-M "P N N M"
_symmetry_group_IT_number 58
_symmetry_cell_setting 'orthorhombic'
loop_
_space_group_symop_operation_xyz
x,y,z
-x,-y,z
1/2+x,1/2-y,1/2-z
1/2-x,1/2+y,1/2-z
-x,-y,-z
x,y,-z
1/2-x,1/2+y,1/2+z
1/2+x,1/2-y,1/2+z
loop_
_atom_site_type_symbol
_atom_site_label
_atom_site_fract_x
_atom_site_fract_y
_atom_site_fract_z
Si Si1 0.033142 0.787540 0.662385
Si Si2 0.747564 0.079618 0.168337
Si Si3 0.095395 0.126638 0.670182
Si Si4 0.257605 0.835452 0.661933
Si Si5 0.996333 0.699356 0.168150
Si Si6 0.850348 0.381496 0.170047
Si Si7 0.500471 0.949276 0.832369
Si Si8 0.443350 0.453541 0.165945
O O1 0.994612 0.777405 0.500000
O O2 0.164495 0.798006 0.666744
O O3 0.018878 0.745051 0.757284
O O4 0.959974 0.827994 0.726072
O O5 0.781515 0.126626 0.231413
O O6 0.619846 0.070076 0.208952
O O7 0.828854 0.044442 0.243398
O O8 0.768181 0.078276 0.000000
O O9 0.092127 0.126636 0.500000
O O10 0.222896 0.122910 0.724779
O O11 0.024843 0.084805 0.726105
O O12 0.269640 0.854338 0.500000
O O13 0.373897 0.815864 0.716736
O O14 0.085276 0.662671 0.217985
O O15 0.004033 0.707415 0.000000
O O16 0.904692 0.423907 0.244210
O O17 0.857747 0.388467 0.000000
O O18 0.500000 0.000000 0.786795
O O19 0.527019 0.943752 0.000000
O O20 0.500000 0.500000 0.189569
O O21 0.413984 0.445111 0.000000
#
# Coordination Sequence:
#
# PCOD8237818 Si02
#       8
#     8   8   8   8   8   8   8   8
#     4  10  21  37  59  81 111 152 187 227 284 344
#     4  11  22  37  60  86 113 148 193 242 287 339
#     4   9  19  37  57  83 116 147 186 233 282 336
#     4  10  20  39  61  81 110 151 194 238 287 339
#     4  10  22  37  56  84 115 144 187 241 282 328
#     4  10  21  38  60  85 113 148 190 235 278 330
#     4  10  23  41  58  82 118 154 186 230 289 343
#     4  10  21  38  61  86 116 154 192 235 287 343
#
# _framework density 18.886415
#
# number of rings (size 3 to 8) (size 9 to 14) (size 15 to 20)
#    0.000    2.000    2.500    0.375    3.500    2.500 
#    0.000    1.250    0.000    0.000    0.000    0.000 
#    0.000    0.000    0.000    0.000    0.000    0.000 
#
# Total GULP energy -793745.500093 kJ/mol
# GULP energy per Si atom -12402.273439 kJ/mol
# Density = 1.884343 g / cm^3
# Si number density = 18.886415 Si / 1000 Ang^3
#
#
#
# Elastic Constant Matrix: (Units=GPa)
#
#
# Indices 1 2 3 4 5 6 
#
# 1 106.2879 34.1556 26.1308 0.0000 0.0000 0.0000
# 2 34.1556 116.7335 31.4583 0.0000 0.0000 0.0000
# 3 26.1308 31.4583 43.3073 0.0000 0.0000 0.0000
# 4 0.0000 0.0000 0.0000 32.3781 0.0000 0.0000
# 5 0.0000 0.0000 0.0000 0.0000 7.9580 0.0000
# 6 0.0000 0.0000 0.0000 0.0000 0.0000 26.7555
#
#
#
# Elastic Compliance Matrix: (Units=1/GPa)
#
#
# Indices 1 2 3 4 5 6 
#
# 1 0.011355 -0.001835 -0.005518 0.000000 0.000000 0.000000
# 2 -0.001835 0.010948 -0.006845 0.000000 0.000000 0.000000
# 3 -0.005518 -0.006845 0.031393 0.000000 0.000000 0.000000
# 4 0.000000 0.000000 0.000000 0.030885 0.000000 0.000000
# 5 0.000000 0.000000 0.000000 0.000000 0.125660 0.000000
# 6 0.000000 0.000000 0.000000 0.000000 0.000000 0.037375
#
#
# Mechanical properties :
#
#
# Convention : Reuss Voigt Hill
#
# Bulk Modulus (GPa) = 39.52846 49.97980 44.75413
# Shear Modulus (GPa) = 17.57797 25.05725 21.31761
#
# Velocity S-wave (km/s) = 3.05408 3.64639 3.36330
# Velocity P-wave (km/s) = 5.78027 6.65199 6.23139
#
# Compressibility (1/GPa) = 0.02529823
#
# Stress axis : x y z
#
# Youngs Moduli (GPa) = 88.06846 91.33854 31.85441
#
# Poissons Ratio (x) = 0.16763 0.17578
# Poissons Ratio (y) = 0.16163 0.21806
# Poissons Ratio (z) = 0.48597 0.62525
#
# Static dielectric constant tensor:
#      x y z
#    x 3.781680 0.000000 0.000000 
#    y 0.000000 3.429490 0.000000 
#    z 0.000000 0.000000 3.293960 
# 
# 
# High freq. dielectric constant tensor:
#      x y z
#    x 1.748890 0.000000 0.000000 
#    y 0.000000 1.737740 0.000000 
#    z 0.000000 0.000000 1.711830 
# 
# From -- ./inp_files/4743.got.cif
#   From: 2010.06.25/outbox.cif.g09.slc.cpg/sg58_3_cif.got.tgz:4743.got - 2010.06.26 21:38:00.
