data_PCOD8237647
_publ_section_title
;
Structure prediction by ZEFSAII (Michael W. Deem and Ramdas Pophale) SiO2 
 PCOD8237647
Probable space group: P N N M
;
_chemical_formula_sum "Si O2"
_cell_formula_units_Z 48
_cell_length_a 14.228684
_cell_length_b 20.098980
_cell_length_c 8.551921
_cell_angle_alpha 90.000000
_cell_angle_beta 90.000000
_cell_angle_gamma 90.000000
_cell_volume 2445.695772
_symmetry_space_group_name_H-M "P N N M"
_symmetry_group_IT_number 58
_symmetry_cell_setting 'orthorhombic'
loop_
_space_group_symop_operation_xyz
x,y,z
-x,-y,z
1/2+x,1/2-y,1/2-z
1/2-x,1/2+y,1/2-z
-x,-y,-z
x,y,-z
1/2-x,1/2+y,1/2+z
1/2+x,1/2-y,1/2+z
loop_
_atom_site_type_symbol
_atom_site_label
_atom_site_fract_x
_atom_site_fract_y
_atom_site_fract_z
Si Si1 0.165885 0.180187 0.680630
Si Si2 0.520458 0.727412 0.318990
Si Si3 0.182752 0.420086 0.680661
Si Si4 0.993294 0.380547 0.816857
Si Si5 0.204326 0.558392 0.182160
Si Si6 0.784761 0.203754 0.680554
O O1 0.137705 0.186077 0.500000
O O2 0.072828 0.185345 0.784763
O O3 0.211951 0.109304 0.718660
O O4 0.240378 0.237892 0.716436
O O5 0.547753 0.721688 0.500000
O O6 0.500568 0.803296 0.271058
O O7 0.605144 0.697663 0.217896
O O8 0.198687 0.403501 0.500000
O O9 0.072429 0.420214 0.722121
O O10 0.224784 0.492362 0.719194
O O11 0.235968 0.366071 0.784423
O O12 0.893090 0.408441 0.763363
O O13 0.010658 0.391504 0.000000
O O14 0.199735 0.540212 0.000000
O O15 0.768657 0.221122 0.500000
#
# Coordination Sequence:
#
# PCOD8237647 Si02
#       6
#     8   8   8   8   8   8
#     4  11  22  40  64  92 123 160 204 252 303 364
#     4  11  22  39  63  94 125 158 201 253 305 360
#     4  12  25  39  59  90 126 161 206 256 303 362
#     4  10  20  37  61  90 125 163 197 243 308 368
#     4  10  22  41  62  86 124 165 202 245 305 369
#     4  12  24  40  63  89 122 164 206 252 303 359
#
# _framework density 19.626318000000001
#
# number of rings (size 3 to 8) (size 9 to 14) (size 15 to 20)
#    0.000    1.000    3.333    4.500    0.000    4.667 
#    0.000    0.833    0.000    5.000    0.000    0.000 
#    0.000    0.000    0.000    0.000    0.000    0.000 
#
# Total GULP energy -595595.992171 kJ/mol
# GULP energy per Si atom -12408.249837 kJ/mol
# Density = 1.958165 g / cm^3
# Si number density = 19.626318 Si / 1000 Ang^3
#
#
#
# Elastic Constant Matrix: (Units=GPa)
#
#
# Indices 1 2 3 4 5 6 
#
# 1 74.4066 5.4201 11.9474 0.0000 0.0000 0.0000
# 2 5.4201 64.0920 26.7716 0.0000 0.0000 0.0000
# 3 11.9474 26.7716 58.8727 0.0000 0.0000 0.0000
# 4 0.0000 0.0000 0.0000 30.9170 0.0000 0.0000
# 5 0.0000 0.0000 0.0000 0.0000 34.4853 0.0000
# 6 0.0000 0.0000 0.0000 0.0000 0.0000 28.6640
#
#
#
# Elastic Compliance Matrix: (Units=1/GPa)
#
#
# Indices 1 2 3 4 5 6 
#
# 1 0.013892 0.000003 -0.002821 0.000000 0.000000 0.000000
# 2 0.000003 0.019261 -0.008759 0.000000 0.000000 0.000000
# 3 -0.002821 -0.008759 0.021541 0.000000 0.000000 0.000000
# 4 0.000000 0.000000 0.000000 0.032345 0.000000 0.000000
# 5 0.000000 0.000000 0.000000 0.000000 0.028998 0.000000
# 6 0.000000 0.000000 0.000000 0.000000 0.000000 0.034887
#
#
# Mechanical properties :
#
#
# Convention : Reuss Voigt Hill
#
# Bulk Modulus (GPa) = 31.70447 31.73885 31.72166
# Shear Modulus (GPa) = 27.08680 29.02876 28.05778
#
# Velocity S-wave (km/s) = 3.71904 3.85004 3.78511
# Velocity P-wave (km/s) = 5.88479 5.99754 5.94143
#
# Compressibility (1/GPa) = 0.03154130
#
# Stress axis : x y z
#
# Youngs Moduli (GPa) = 71.98206 51.91800 46.42208
#
# Poissons Ratio (x) = -0.00018 0.13095
# Poissons Ratio (y) = -0.00025 0.40663
# Poissons Ratio (z) = 0.20305 0.45477
#
# Static dielectric constant tensor:
#      x y z
#    x 3.575330 0.000000 0.000000 
#    y 0.000000 3.543480 0.000000 
#    z 0.000000 0.000000 3.490240 
# 
# 
# High freq. dielectric constant tensor:
#      x y z
#    x 1.765750 0.000000 0.000000 
#    y 0.000000 1.761960 0.000000 
#    z 0.000000 0.000000 1.766040 
# 
# From -- ./inp_files/5746.got.cif
#   From: 2010.06.25/outbox.cif.g09.slc.cpg/sg58_3_cif.got.tgz:5746.got - 2010.06.26 21:38:00.
