data_PCOD8237120
_publ_section_title
;
Structure prediction by ZEFSAII (Michael W. Deem and Ramdas Pophale) SiO2 
 PCOD8237120
Probable space group: P N N M
;
_chemical_formula_sum "Si O2"
_cell_formula_units_Z 64
_cell_length_a 20.309389
_cell_length_b 18.581452
_cell_length_c 8.911530
_cell_angle_alpha 90.000000
_cell_angle_beta 90.000000
_cell_angle_gamma 90.000000
_cell_volume 3363.014806
_symmetry_space_group_name_H-M "P N N M"
_symmetry_group_IT_number 58
_symmetry_cell_setting 'orthorhombic'
loop_
_space_group_symop_operation_xyz
x,y,z
-x,-y,z
1/2+x,1/2-y,1/2-z
1/2-x,1/2+y,1/2-z
-x,-y,-z
x,y,-z
1/2-x,1/2+y,1/2+z
1/2+x,1/2-y,1/2+z
loop_
_atom_site_type_symbol
_atom_site_label
_atom_site_fract_x
_atom_site_fract_y
_atom_site_fract_z
Si Si1 0.934098 0.042382 0.824090
Si Si2 0.682115 0.955628 0.177240
Si Si3 0.944353 0.704478 0.822039
Si Si4 0.932796 0.207130 0.823356
Si Si5 0.933478 0.542075 0.175585
Si Si6 0.319683 0.544262 0.822563
Si Si7 0.171996 0.194718 0.174456
Si Si8 0.678606 0.792352 0.827709
O O1 0.943889 0.124963 0.775324
O O2 0.873542 0.012848 0.729235
O O3 0.918350 0.034351 0.000000
O O4 0.000000 0.000000 0.780306
O O5 0.749891 0.979530 0.254174
O O6 0.663998 0.874037 0.224618
O O7 0.625010 0.007809 0.230492
O O8 0.692260 0.960746 0.000000
O O9 0.942726 0.622947 0.763635
O O10 0.878548 0.744991 0.768116
O O11 0.008038 0.744988 0.754059
O O12 0.948482 0.704768 0.000000
O O13 0.863038 0.236078 0.767164
O O14 0.933124 0.214332 0.000000
O O15 0.000000 0.500000 0.210475
O O16 0.915522 0.539409 0.000000
O O17 0.341243 0.622884 0.767521
O O18 0.313879 0.543815 0.000000
O O19 0.244896 0.225583 0.201023
O O20 0.160999 0.175106 0.000000
O O21 0.659403 0.782081 0.000000
#
# Coordination Sequence:
#
# PCOD8237120 Si02
#       8
#     8   8   8   8   8   8   8   8
#     4  10  21  38  59  81 109 147 186 222 267 326
#     4  10  21  38  58  80 109 147 189 224 265 327
#     4   9  18  34  56  80 106 141 183 223 268 321
#     4  10  20  34  56  82 106 139 182 224 264 317
#     4  10  20  34  55  84 116 147 182 228 277 321
#     4  11  22  36  57  84 112 141 178 227 280 325
#     4   9  18  36  58  77 104 143 184 220 263 326
#     4   9  19  34  53  77 106 141 176 220 274 321
#
# _framework density 19.030543999999999
#
# number of rings (size 3 to 8) (size 9 to 14) (size 15 to 20)
#    0.000    2.250    0.000    3.750    0.000    7.500 
#    0.000    4.375    0.000    0.000    0.000    0.000 
#    0.000    0.000    0.000    0.000    0.000    0.000 
#
# Total GULP energy -793791.550734 kJ/mol
# GULP energy per Si atom -12402.992980 kJ/mol
# Density = 1.898723 g / cm^3
# Si number density = 19.030544 Si / 1000 Ang^3
#
#
#
# Elastic Constant Matrix: (Units=GPa)
#
#
# Indices 1 2 3 4 5 6 
#
# 1 126.6509 78.6353 46.5327 0.0000 0.0000 0.0000
# 2 78.6353 130.1983 48.2241 0.0000 0.0000 0.0000
# 3 46.5327 48.2241 62.5004 0.0000 0.0000 0.0000
# 4 0.0000 0.0000 0.0000 24.0711 0.0000 0.0000
# 5 0.0000 0.0000 0.0000 0.0000 20.7928 0.0000
# 6 0.0000 0.0000 0.0000 0.0000 0.0000 38.8418
#
#
#
# Elastic Compliance Matrix: (Units=1/GPa)
#
#
# Indices 1 2 3 4 5 6 
#
# 1 0.013818 -0.006350 -0.005388 0.000000 0.000000 0.000000
# 2 -0.006350 0.013672 -0.005821 0.000000 0.000000 0.000000
# 3 -0.005388 -0.005821 0.024503 0.000000 0.000000 0.000000
# 4 0.000000 0.000000 0.000000 0.041544 0.000000 0.000000
# 5 0.000000 0.000000 0.000000 0.000000 0.048094 0.000000
# 6 0.000000 0.000000 0.000000 0.000000 0.000000 0.025745
#
#
# Mechanical properties :
#
#
# Convention : Reuss Voigt Hill
#
# Bulk Modulus (GPa) = 59.26268 74.01486 66.63877
# Shear Modulus (GPa) = 24.02470 26.47164 25.24817
#
# Velocity S-wave (km/s) = 3.55692 3.73367 3.64637
# Velocity P-wave (km/s) = 6.93378 7.58710 7.26779
#
# Compressibility (1/GPa) = 0.01687403
#
# Stress axis : x y z
#
# Youngs Moduli (GPa) = 72.36997 73.14325 40.81091
#
# Poissons Ratio (x) = 0.46444 0.21990
# Poissons Ratio (y) = 0.45953 0.23758
# Poissons Ratio (z) = 0.38995 0.42580
#
# Static dielectric constant tensor:
#      x y z
#    x 3.696320 0.000000 0.000000 
#    y 0.000000 3.620200 0.000000 
#    z 0.000000 0.000000 3.239910 
# 
# 
# High freq. dielectric constant tensor:
#      x y z
#    x 1.752810 0.000000 0.000000 
#    y 0.000000 1.744120 0.000000 
#    z 0.000000 0.000000 1.718230 
# 
# From -- ./inp_files/9303.got.cif
#   From: 2010.06.25/outbox.cif.g09.slc.cpg/sg58_5_cif.got.tgz:9303.got - 2010.06.26 21:38:00.
