data_PCOD8237800
_publ_section_title
;
Structure prediction by ZEFSAII (Michael W. Deem and Ramdas Pophale) SiO2 
 PCOD8237800
Probable space group: P N N M
;
_chemical_formula_sum "Si O2"
_cell_formula_units_Z 28
_cell_length_a 8.147421
_cell_length_b 4.936814
_cell_length_c 31.334902
_cell_angle_alpha 90.000000
_cell_angle_beta 90.000000
_cell_angle_gamma 90.000000
_cell_volume 1260.361893
_symmetry_space_group_name_H-M "P N N M"
_symmetry_group_IT_number 58
_symmetry_cell_setting 'orthorhombic'
loop_
_space_group_symop_operation_xyz
x,y,z
-x,-y,z
1/2+x,1/2-y,1/2-z
1/2-x,1/2+y,1/2-z
-x,-y,-z
x,y,-z
1/2-x,1/2+y,1/2+z
1/2+x,1/2-y,1/2+z
loop_
_atom_site_type_symbol
_atom_site_label
_atom_site_fract_x
_atom_site_fract_y
_atom_site_fract_z
Si Si1 0.316056 0.107155 0.590164
Si Si2 0.689233 0.426903 0.273903
Si Si3 0.683630 0.895712 0.865012
Si Si4 0.380351 0.245519 0.500000
O O1 0.303793 0.361089 0.621651
O O2 0.269567 0.220853 0.542755
O O3 0.500000 0.000000 0.592511
O O4 0.195878 0.863883 0.603883
O O5 0.500000 0.500000 0.279040
O O6 0.707411 0.192340 0.238774
O O7 0.764377 0.308289 0.317573
O O8 0.500000 0.000000 0.867346
O O9 0.500000 0.500000 0.500000
O O10 0.500000 0.000000 0.500000
#
# Coordination Sequence:
#
# PCOD8237800 Si02
#       4
#     8   8   8   4
#     4  11  22  41  66  93 123 166 215 262 313 377
#     4  12  25  44  67  94 126 167 212 262 316 377
#     4  12  25  42  62  93 131 168 208 261 319 378
#     4  10  20  38  65  96 125 162 213 266 315 376
#
# _framework density 22.215844000000001
#
# number of rings (size 3 to 8) (size 9 to 14) (size 15 to 20)
#    0.000    0.571    0.000   11.143    0.000    0.000 
#    0.000    4.286    0.000    0.000    0.000    0.000 
#    0.000    0.000    0.000    0.000    0.000    0.000 
#
# Total GULP energy -347300.342105 kJ/mol
# GULP energy per Si atom -12403.583647 kJ/mol
# Density = 2.216528 g / cm^3
# Si number density = 22.215844 Si / 1000 Ang^3
#
#
#
# Elastic Constant Matrix: (Units=GPa)
#
#
# Indices 1 2 3 4 5 6 
#
# 1 72.2424 21.3699 56.4675 0.0000 0.0000 0.0000
# 2 21.3699 143.4124 51.8598 0.0000 0.0000 0.0000
# 3 56.4675 51.8598 140.0965 0.0000 0.0000 0.0000
# 4 0.0000 0.0000 0.0000 26.6794 0.0000 0.0000
# 5 0.0000 0.0000 0.0000 0.0000 24.0086 0.0000
# 6 0.0000 0.0000 0.0000 0.0000 0.0000 30.5625
#
#
#
# Elastic Compliance Matrix: (Units=1/GPa)
#
#
# Indices 1 2 3 4 5 6 
#
# 1 0.020210 -0.000076 -0.008118 0.000000 0.000000 0.000000
# 2 -0.000076 0.008051 -0.002950 0.000000 0.000000 0.000000
# 3 -0.008118 -0.002950 0.011502 0.000000 0.000000 0.000000
# 4 0.000000 0.000000 0.000000 0.037482 0.000000 0.000000
# 5 0.000000 0.000000 0.000000 0.000000 0.041652 0.000000
# 6 0.000000 0.000000 0.000000 0.000000 0.000000 0.032720
#
#
# Mechanical properties :
#
#
# Convention : Reuss Voigt Hill
#
# Bulk Modulus (GPa) = 57.22166 68.34952 62.78559
# Shear Modulus (GPa) = 27.81985 31.32039 29.57012
#
# Velocity S-wave (km/s) = 3.54256 3.75883 3.65230
# Velocity P-wave (km/s) = 6.52273 7.04779 6.79034
#
# Compressibility (1/GPa) = 0.01747590
#
# Stress axis : x y z
#
# Youngs Moduli (GPa) = 49.48081 124.21091 86.94368
#
# Poissons Ratio (x) = 0.00944 0.70578
# Poissons Ratio (y) = 0.00376 0.25644
# Poissons Ratio (z) = 0.40167 0.36637
#
# Static dielectric constant tensor:
#      x y z
#    x 3.764860 0.000000 0.000000 
#    y 0.000000 4.208350 0.000000 
#    z 0.000000 0.000000 -12.241480 
# 
# 
# High freq. dielectric constant tensor:
#      x y z
#    x 1.858660 0.000000 0.000000 
#    y 0.000000 1.894530 0.000000 
#    z 0.000000 0.000000 1.888450 
# 
# From -- ./inp_files/34319.got.cif
#   From: 2010.06.25/outbox.cif.g09.slc.cpg/sg58_18_cif.got.tgz:34319.got - 2010.06.26 21:38:00.
