data_PCOD8237521
_publ_section_title
;
Structure prediction by ZEFSAII (Michael W. Deem and Ramdas Pophale) SiO2 
 PCOD8237521
Probable space group: P N N M
;
_chemical_formula_sum "Si O2"
_cell_formula_units_Z 64
_cell_length_a 27.481905
_cell_length_b 12.576730
_cell_length_c 9.086577
_cell_angle_alpha 90.000000
_cell_angle_beta 90.000000
_cell_angle_gamma 90.000000
_cell_volume 3140.616317
_symmetry_space_group_name_H-M "P N N M"
_symmetry_group_IT_number 58
_symmetry_cell_setting 'orthorhombic'
loop_
_space_group_symop_operation_xyz
x,y,z
-x,-y,z
1/2+x,1/2-y,1/2-z
1/2-x,1/2+y,1/2-z
-x,-y,-z
x,y,-z
1/2-x,1/2+y,1/2+z
1/2+x,1/2-y,1/2+z
loop_
_atom_site_type_symbol
_atom_site_label
_atom_site_fract_x
_atom_site_fract_y
_atom_site_fract_z
Si Si1 0.843654 0.420811 0.325230
Si Si2 0.715963 0.130513 0.165862
Si Si3 0.826342 0.823540 0.836741
Si Si4 0.929874 0.717284 0.158467
Si Si5 0.054552 0.484518 0.672078
Si Si6 0.546501 0.435661 0.332014
Si Si7 0.676783 0.702337 0.668325
Si Si8 0.137912 0.987938 0.327396
O O1 0.841115 0.403316 0.500000
O O2 0.809445 0.521100 0.278569
O O3 0.900602 0.439875 0.274513
O O4 0.821382 0.318398 0.244085
O O5 0.703186 0.228078 0.268537
O O6 0.774111 0.131806 0.174422
O O7 0.697511 0.152197 0.000000
O O8 0.881659 0.787586 0.845294
O O9 0.821748 0.931322 0.741142
O O10 0.805614 0.847695 0.000000
O O11 0.929416 0.634838 0.290671
O O12 0.969468 0.810638 0.181821
O O13 0.937028 0.658412 0.000000
O O14 0.049722 0.497532 0.500000
O O15 0.000000 0.500000 0.743085
O O16 0.500000 0.500000 0.286838
O O17 0.564222 0.461194 0.500000
O O18 0.585375 0.466072 0.208752
O O19 0.660354 0.719335 0.500000
O O20 0.638957 0.629471 0.756319
O O21 0.147165 0.979497 0.500000
#
# Coordination Sequence:
#
# PCOD8237521 Si02
#       8
#     8   8   8   8   8   8   8   8
#     4  10  22  42  63  88 125 163 204 256 317 373
#     4  10  22  40  63  90 119 156 201 251 309 370
#     4  10  20  36  61  88 116 151 198 252 306 363
#     4   9  18  33  54  83 113 149 195 243 297 355
#     4  10  21  37  59  86 118 159 203 250 303 362
#     4   9  19  37  60  87 121 158 200 253 311 365
#     4  11  25  42  61  90 125 163 207 252 313 376
#     4  11  23  39  60  87 122 160 203 249 305 366
#
# _framework density 20.378166
#
# number of rings (size 3 to 8) (size 9 to 14) (size 15 to 20)
#    0.000    2.000    1.250    2.625    1.750    5.500 
#    0.000    2.500    0.000    0.000    0.000    0.000 
#    0.000    0.000    0.000    0.000    0.000    0.000 
#
# Total GULP energy -792997.821011 kJ/mol
# GULP energy per Si atom -12390.590953 kJ/mol
# Density = 2.033178 g / cm^3
# Si number density = 20.378166 Si / 1000 Ang^3
#
#
#
# Elastic Constant Matrix: (Units=GPa)
#
#
# Indices 1 2 3 4 5 6 
#
# 1 64.3524 31.2640 27.2147 0.0000 0.0000 0.0000
# 2 31.2640 113.0322 46.9542 0.0000 0.0000 0.0000
# 3 27.2147 46.9542 87.0461 0.0000 0.0000 0.0000
# 4 0.0000 0.0000 0.0000 39.0181 0.0000 0.0000
# 5 0.0000 0.0000 0.0000 0.0000 21.4030 0.0000
# 6 0.0000 0.0000 0.0000 0.0000 0.0000 31.0491
#
#
#
# Elastic Compliance Matrix: (Units=1/GPa)
#
#
# Indices 1 2 3 4 5 6 
#
# 1 0.018972 -0.003587 -0.003997 0.000000 0.000000 0.000000
# 2 -0.003587 0.012080 -0.005395 0.000000 0.000000 0.000000
# 3 -0.003997 -0.005395 0.015648 0.000000 0.000000 0.000000
# 4 0.000000 0.000000 0.000000 0.025629 0.000000 0.000000
# 5 0.000000 0.000000 0.000000 0.000000 0.046722 0.000000
# 6 0.000000 0.000000 0.000000 0.000000 0.000000 0.032207
#
#
# Mechanical properties :
#
#
# Convention : Reuss Voigt Hill
#
# Bulk Modulus (GPa) = 48.20907 52.81072 50.50990
# Shear Modulus (GPa) = 27.15461 28.89390 28.02426
#
# Velocity S-wave (km/s) = 3.65435 3.76957 3.71241
# Velocity P-wave (km/s) = 6.44316 6.70207 6.57389
#
# Compressibility (1/GPa) = 0.02074298
#
# Stress axis : x y z
#
# Youngs Moduli (GPa) = 52.70799 82.77930 63.90730
#
# Poissons Ratio (x) = 0.29697 0.25541
# Poissons Ratio (y) = 0.18909 0.34476
# Poissons Ratio (z) = 0.21065 0.44657
#
# Static dielectric constant tensor:
#      x y z
#    x 3.912270 0.000000 0.000000 
#    y 0.000000 3.791510 0.000000 
#    z 0.000000 0.000000 3.694160 
# 
# 
# High freq. dielectric constant tensor:
#      x y z
#    x 1.784330 0.000000 0.000000 
#    y 0.000000 1.801620 0.000000 
#    z 0.000000 0.000000 1.789680 
# 
# From -- ./inp_files/11017.got.cif
#   From: 2010.06.25/outbox.cif.g09.slc.cpg/sg58_6_cif.got.tgz:11017.got - 2010.06.26 21:38:00.
