data_PCOD8237942
_publ_section_title
;
Structure prediction by ZEFSAII (Michael W. Deem and Ramdas Pophale) SiO2 
 PCOD8237942
Probable space group: P N N M
;
_chemical_formula_sum "Si O2"
_cell_formula_units_Z 48
_cell_length_a 5.441647
_cell_length_b 16.287805
_cell_length_c 26.856828
_cell_angle_alpha 90.000000
_cell_angle_beta 90.000000
_cell_angle_gamma 90.000000
_cell_volume 2380.387411
_symmetry_space_group_name_H-M "P N N M"
_symmetry_group_IT_number 58
_symmetry_cell_setting 'orthorhombic'
loop_
_space_group_symop_operation_xyz
x,y,z
-x,-y,z
1/2+x,1/2-y,1/2-z
1/2-x,1/2+y,1/2-z
-x,-y,-z
x,y,-z
1/2-x,1/2+y,1/2+z
1/2+x,1/2-y,1/2+z
loop_
_atom_site_type_symbol
_atom_site_label
_atom_site_fract_x
_atom_site_fract_y
_atom_site_fract_z
Si Si1 0.247172 0.052420 0.500000
Si Si2 0.772183 0.788417 0.054762
Si Si3 0.659015 0.630363 0.268121
Si Si4 0.563272 0.276967 0.815186
Si Si5 0.000000 0.500000 0.293919
Si Si6 0.766391 0.861045 0.847245
Si Si7 0.230704 0.193199 0.577712
O O1 0.234238 0.105020 0.551056
O O2 0.500000 0.000000 0.500000
O O3 0.000000 0.000000 0.500000
O O4 0.795861 0.864451 0.093217
O O5 0.513259 0.740763 0.060021
O O6 0.011867 0.732417 0.061756
O O7 0.779748 0.827170 0.000000
O O8 0.496403 0.643640 0.218716
O O9 0.813994 0.712726 0.276967
O O10 0.800242 0.543907 0.258380
O O11 0.513719 0.615980 0.319221
O O12 0.317375 0.232654 0.835444
O O13 0.727415 0.309226 0.861511
O O14 0.932700 0.426520 0.330731
#
# Coordination Sequence:
#
# PCOD8237942 Si02
#       7
#     4   8   8   8   4   8   8
#     4  12  24  42  66  92 132 177 203 257 343 400
#     4  11  20  38  67 100 120 160 217 276 314 370
#     4  11  19  39  62  94 123 168 213 262 326 385
#     4  10  21  35  66  93 119 162 223 270 307 375
#     4  10  24  38  59  88 134 173 204 260 338 404
#     4  10  21  37  61  90 125 165 212 261 324 383
#     4  11  22  40  65  95 126 161 219 270 316 378
#
# _framework density 20.164784999999998
#
# number of rings (size 3 to 8) (size 9 to 14) (size 15 to 20)
#    0.000    1.333    5.000    1.500    0.000    0.000 
#    0.000    2.083    3.667    2.000    0.000    0.000 
#    0.000    0.000    0.000    0.000    0.000    0.000 
#
# Total GULP energy -594708.088777 kJ/mol
# GULP energy per Si atom -12389.751850 kJ/mol
# Density = 2.011889 g / cm^3
# Si number density = 20.164785 Si / 1000 Ang^3
#
#
#
# Elastic Constant Matrix: (Units=GPa)
#
#
# Indices 1 2 3 4 5 6 
#
# 1 100.3870 16.3591 10.5828 0.0000 0.0000 0.0000
# 2 16.3591 72.4311 29.4925 0.0000 0.0000 0.0000
# 3 10.5828 29.4925 127.0272 0.0000 0.0000 0.0000
# 4 0.0000 0.0000 0.0000 27.5781 0.0000 0.0000
# 5 0.0000 0.0000 0.0000 0.0000 6.2111 0.0000
# 6 0.0000 0.0000 0.0000 0.0000 0.0000 30.2035
#
#
#
# Elastic Compliance Matrix: (Units=1/GPa)
#
#
# Indices 1 2 3 4 5 6 
#
# 1 0.010356 -0.002195 -0.000353 0.000000 0.000000 0.000000
# 2 -0.002195 0.015713 -0.003465 0.000000 0.000000 0.000000
# 3 -0.000353 -0.003465 0.008706 0.000000 0.000000 0.000000
# 4 0.000000 0.000000 0.000000 0.036261 0.000000 0.000000
# 5 0.000000 0.000000 0.000000 0.000000 0.161003 0.000000
# 6 0.000000 0.000000 0.000000 0.000000 0.000000 0.033109
#
#
# Mechanical properties :
#
#
# Convention : Reuss Voigt Hill
#
# Bulk Modulus (GPa) = 43.95917 45.85712 44.90814
# Shear Modulus (GPa) = 17.55876 29.02592 23.29234
#
# Velocity S-wave (km/s) = 2.95407 3.79811 3.40236
# Velocity P-wave (km/s) = 5.78642 6.48265 6.14440
#
# Compressibility (1/GPa) = 0.02274838
#
# Stress axis : x y z
#
# Youngs Moduli (GPa) = 96.55849 63.64144 114.85939
#
# Poissons Ratio (x) = 0.13971 0.04056
# Poissons Ratio (y) = 0.21197 0.39802
# Poissons Ratio (z) = 0.03410 0.22053
#
# Static dielectric constant tensor:
#      x y z
#    x 3.936170 0.000000 0.000000 
#    y 0.000000 3.773980 0.000000 
#    z 0.000000 0.000000 4.131300 
# 
# 
# High freq. dielectric constant tensor:
#      x y z
#    x 1.804550 0.000000 0.000000 
#    y 0.000000 1.756130 0.000000 
#    z 0.000000 0.000000 1.792560 
# 
# From -- ./inp_files/32848.got.cif
#   From: 2010.06.25/outbox.cif.g09.slc.cpg/sg58_17_cif.got.tgz:32848.got - 2010.06.26 21:38:00.
