data_PCOD8237972
_publ_section_title
;
Structure prediction by ZEFSAII (Michael W. Deem and Ramdas Pophale) SiO2 
 PCOD8237972
Probable space group: P N N M
;
_chemical_formula_sum "Si O2"
_cell_formula_units_Z 40
_cell_length_a 4.943038
_cell_length_b 12.720808
_cell_length_c 29.965736
_cell_angle_alpha 90.000000
_cell_angle_beta 90.000000
_cell_angle_gamma 90.000000
_cell_volume 1884.228619
_symmetry_space_group_name_H-M "P N N M"
_symmetry_group_IT_number 58
_symmetry_cell_setting 'orthorhombic'
loop_
_space_group_symop_operation_xyz
x,y,z
-x,-y,z
1/2+x,1/2-y,1/2-z
1/2-x,1/2+y,1/2-z
-x,-y,-z
x,y,-z
1/2-x,1/2+y,1/2+z
1/2+x,1/2-y,1/2+z
loop_
_atom_site_type_symbol
_atom_site_label
_atom_site_fract_x
_atom_site_fract_y
_atom_site_fract_z
Si Si1 0.906348 0.381083 0.449060
Si Si2 0.894163 0.219683 0.092858
Si Si3 0.542591 0.376448 0.776661
Si Si4 0.458558 0.758467 0.308487
Si Si5 0.245691 0.069448 0.548688
O O1 0.953678 0.345425 0.500000
O O2 0.596083 0.352487 0.436892
O O3 0.000000 0.500000 0.443095
O O4 0.089680 0.318457 0.414430
O O5 0.984449 0.208260 0.143676
O O6 0.869463 0.341600 0.080438
O O7 0.500000 0.500000 0.779098
O O8 0.513474 0.338629 0.725641
O O9 0.837184 0.351596 0.795707
O O10 0.335026 0.311923 0.807675
O O11 0.144866 0.113679 0.500000
O O12 0.500000 0.000000 0.539000
O O13 0.000000 0.000000 0.570398
#
# Coordination Sequence:
#
# PCOD8237972 Si02
#       5
#     8   8   8   8   8
#     4  11  24  41  62  89 122 163 205 245 300 360
#     4  12  23  40  63  89 124 157 200 259 300 345
#     4  10  21  41  63  84 122 160 189 244 308 359
#     4  10  23  39  60  94 118 150 207 243 293 374
#     4  10  21  36  55  82 116 157 199 236 287 348
#
# _framework density 21.228846000000001
#
# number of rings (size 3 to 8) (size 9 to 14) (size 15 to 20)
#    0.000    1.400    0.000    5.400    0.000    7.200 
#    0.000    0.000    0.000    0.000    0.000    0.000 
#    0.000    0.000    0.000    0.000    0.000    0.000 
#
# Total GULP energy -495867.765752 kJ/mol
# GULP energy per Si atom -12396.694144 kJ/mol
# Density = 2.118053 g / cm^3
# Si number density = 21.228846 Si / 1000 Ang^3
#
#
#
# Elastic Constant Matrix: (Units=GPa)
#
#
# Indices 1 2 3 4 5 6 
#
# 1 75.0510 1.4704 4.8439 0.0000 0.0000 0.0000
# 2 1.4704 73.9736 17.3230 0.0000 0.0000 0.0000
# 3 4.8439 17.3230 109.4233 0.0000 0.0000 0.0000
# 4 0.0000 0.0000 0.0000 2.0065 0.0000 0.0000
# 5 0.0000 0.0000 0.0000 0.0000 12.4151 0.0000
# 6 0.0000 0.0000 0.0000 0.0000 0.0000 40.9610
#
#
#
# Elastic Compliance Matrix: (Units=1/GPa)
#
#
# Indices 1 2 3 4 5 6 
#
# 1 0.013364 -0.000132 -0.000571 0.000000 0.000000 0.000000
# 2 -0.000132 0.014040 -0.002217 0.000000 0.000000 0.000000
# 3 -0.000571 -0.002217 0.009515 0.000000 0.000000 0.000000
# 4 0.000000 0.000000 0.000000 0.498373 0.000000 0.000000
# 5 0.000000 0.000000 0.000000 0.000000 0.080547 0.000000
# 6 0.000000 0.000000 0.000000 0.000000 0.000000 0.024413
#
#
# Mechanical properties :
#
#
# Convention : Reuss Voigt Hill
#
# Bulk Modulus (GPa) = 32.17528 33.96914 33.07221
# Shear Modulus (GPa) = 7.61672 26.73057 17.17364
#
# Velocity S-wave (km/s) = 1.89623 3.55232 2.84734
# Velocity P-wave (km/s) = 4.47030 5.73249 5.14028
#
# Compressibility (1/GPa) = 0.03107976
#
# Stress axis : x y z
#
# Youngs Moduli (GPa) = 74.82964 71.22457 105.09673
#
# Poissons Ratio (x) = 0.00940 0.05998
# Poissons Ratio (y) = 0.00988 0.23299
# Poissons Ratio (z) = 0.04270 0.15790
#
# Static dielectric constant tensor:
#      x y z
#    x 4.032090 0.000000 0.000000 
#    y 0.000000 3.618310 0.000000 
#    z 0.000000 0.000000 3.732590 
# 
# 
# High freq. dielectric constant tensor:
#      x y z
#    x 1.851300 0.000000 0.000000 
#    y 0.000000 1.830170 0.000000 
#    z 0.000000 0.000000 1.825090 
# 
# From -- ./inp_files/32655.got.cif
#   From: 2010.06.25/outbox.cif.g09.slc.cpg/sg58_17_cif.got.tgz:32655.got - 2010.06.26 21:38:00.
