data_PCOD8237596
_publ_section_title
;
Structure prediction by ZEFSAII (Michael W. Deem and Ramdas Pophale) SiO2 
 PCOD8237596
Probable space group: P N N M
;
_chemical_formula_sum "Si O2"
_cell_formula_units_Z 48
_cell_length_a 30.663236
_cell_length_b 9.328983
_cell_length_c 8.866497
_cell_angle_alpha 90.000000
_cell_angle_beta 90.000000
_cell_angle_gamma 90.000000
_cell_volume 2536.321824
_symmetry_space_group_name_H-M "P N N M"
_symmetry_group_IT_number 58
_symmetry_cell_setting 'orthorhombic'
loop_
_space_group_symop_operation_xyz
x,y,z
-x,-y,z
1/2+x,1/2-y,1/2-z
1/2-x,1/2+y,1/2-z
-x,-y,-z
x,y,-z
1/2-x,1/2+y,1/2+z
1/2+x,1/2-y,1/2+z
loop_
_atom_site_type_symbol
_atom_site_label
_atom_site_fract_x
_atom_site_fract_y
_atom_site_fract_z
Si Si1 0.789518 0.600889 0.823442
Si Si2 0.536972 0.888568 0.674385
Si Si3 0.293420 0.594981 0.175414
Si Si4 0.630821 0.580933 0.321057
Si Si5 0.865461 0.402361 0.825221
Si Si6 0.541203 0.591952 0.823652
O O1 0.748017 0.502869 0.790593
O O2 0.783167 0.746528 0.732914
O O3 0.831673 0.516628 0.755355
O O4 0.794888 0.636172 0.000000
O O5 0.532830 0.840648 0.500000
O O6 0.585022 0.956236 0.702483
O O7 0.530237 0.754378 0.781644
O O8 0.500000 0.000000 0.720540
O O9 0.334599 0.532242 0.262254
O O10 0.304502 0.600515 0.000000
O O11 0.630538 0.579462 0.500000
O O12 0.640886 0.741671 0.257979
O O13 0.583296 0.532923 0.264246
O O14 0.853883 0.392204 0.000000
O O15 0.500000 0.500000 0.772000
O O16 0.550446 0.578926 0.000000
#
# Coordination Sequence:
#
# PCOD8237596 Si02
#       6
#     8   8   8   8   8   8
#     4  10  21  37  56  78 108 146 182 219 268 323
#     4   9  18  33  54  80 109 144 187 228 267 319
#     4  11  23  37  55  82 113 142 180 228 273 322
#     4  10  20  37  60  81 106 143 185 226 272 327
#     4   8  16  33  55  78 104 138 183 228 265 311
#     4  10  21  36  54  80 114 146 179 224 275 324
#
# _framework density 18.925042000000001
#
# number of rings (size 3 to 8) (size 9 to 14) (size 15 to 20)
#    0.000    2.333    0.000    3.500    0.000    5.667 
#    0.000    5.833    0.000    0.000    0.000    0.000 
#    0.000    0.000    0.000    0.000    0.000    0.000 
#
# Total GULP energy -595222.603751 kJ/mol
# GULP energy per Si atom -12400.470911 kJ/mol
# Density = 1.888197 g / cm^3
# Si number density = 18.925042 Si / 1000 Ang^3
#
#
#
# Elastic Constant Matrix: (Units=GPa)
#
#
# Indices 1 2 3 4 5 6 
#
# 1 137.1221 64.9945 48.1737 0.0000 0.0000 0.0000
# 2 64.9945 88.2032 32.2875 0.0000 0.0000 0.0000
# 3 48.1737 32.2875 56.9621 0.0000 0.0000 0.0000
# 4 0.0000 0.0000 0.0000 29.2760 0.0000 0.0000
# 5 0.0000 0.0000 0.0000 0.0000 9.0800 0.0000
# 6 0.0000 0.0000 0.0000 0.0000 0.0000 40.5544
#
#
#
# Elastic Compliance Matrix: (Units=1/GPa)
#
#
# Indices 1 2 3 4 5 6 
#
# 1 0.013147 -0.007089 -0.007101 0.000000 0.000000 0.000000
# 2 -0.007089 0.018128 -0.004280 0.000000 0.000000 0.000000
# 3 -0.007101 -0.004280 0.025987 0.000000 0.000000 0.000000
# 4 0.000000 0.000000 0.000000 0.034158 0.000000 0.000000
# 5 0.000000 0.000000 0.000000 0.000000 0.110132 0.000000
# 6 0.000000 0.000000 0.000000 0.000000 0.000000 0.024658
#
#
# Mechanical properties :
#
#
# Convention : Reuss Voigt Hill
#
# Bulk Modulus (GPa) = 49.20654 63.68876 56.44765
# Shear Modulus (GPa) = 18.52373 24.90419 21.71396
#
# Velocity S-wave (km/s) = 3.13196 3.63152 3.39095
# Velocity P-wave (km/s) = 6.25589 7.16311 6.72482
#
# Compressibility (1/GPa) = 0.02032250
#
# Stress axis : x y z
#
# Youngs Moduli (GPa) = 76.06057 55.16422 38.48056
#
# Poissons Ratio (x) = 0.39104 0.27325
# Poissons Ratio (y) = 0.53916 0.16471
# Poissons Ratio (z) = 0.54011 0.23612
#
# Static dielectric constant tensor:
#      x y z
#    x 3.671250 0.000000 0.000000 
#    y 0.000000 3.551450 0.000000 
#    z 0.000000 0.000000 3.308430 
# 
# 
# High freq. dielectric constant tensor:
#      x y z
#    x 1.751550 0.000000 0.000000 
#    y 0.000000 1.731650 0.000000 
#    z 0.000000 0.000000 1.721260 
# 
# From -- ./inp_files/2983.got.cif
#   From: 2010.06.25/outbox.cif.g09.slc.cpg/sg58_2_cif.got.tgz:2983.got - 2010.06.26 21:38:00.
