data_PCOD8237763
_publ_section_title
;
Structure prediction by ZEFSAII (Michael W. Deem and Ramdas Pophale) SiO2 
 PCOD8237763
Probable space group: P N N M
;
_chemical_formula_sum "Si O2"
_cell_formula_units_Z 56
_cell_length_a 14.626507
_cell_length_b 21.787600
_cell_length_c 8.793753
_cell_angle_alpha 90.000000
_cell_angle_beta 90.000000
_cell_angle_gamma 90.000000
_cell_volume 2802.362286
_symmetry_space_group_name_H-M "P N N M"
_symmetry_group_IT_number 58
_symmetry_cell_setting 'orthorhombic'
loop_
_space_group_symop_operation_xyz
x,y,z
-x,-y,z
1/2+x,1/2-y,1/2-z
1/2-x,1/2+y,1/2-z
-x,-y,-z
x,y,-z
1/2-x,1/2+y,1/2+z
1/2+x,1/2-y,1/2+z
loop_
_atom_site_type_symbol
_atom_site_label
_atom_site_fract_x
_atom_site_fract_y
_atom_site_fract_z
Si Si1 0.435628 0.682875 0.177657
Si Si2 0.425836 0.108621 0.321637
Si Si3 0.721735 0.991203 0.320031
Si Si4 0.109714 0.736547 0.674425
Si Si5 0.689391 0.223010 0.675633
Si Si6 0.421640 0.544109 0.180495
Si Si7 0.881824 0.601420 0.321114
O O1 0.530387 0.716014 0.215376
O O2 0.354651 0.712783 0.274717
O O3 0.444115 0.612996 0.232791
O O4 0.410359 0.686946 0.000000
O O5 0.443441 0.104288 0.500000
O O6 0.344963 0.063635 0.268763
O O7 0.397915 0.177598 0.280779
O O8 0.517302 0.086286 0.238919
O O9 0.721630 0.998869 0.500000
O O10 0.822662 0.976186 0.257026
O O11 0.691311 0.055226 0.248801
O O12 0.103126 0.714282 0.500000
O O13 0.202886 0.772904 0.705770
O O14 0.667699 0.209132 0.500000
O O15 0.645311 0.170289 0.777631
O O16 0.500000 0.500000 0.249257
O O17 0.421349 0.539551 0.000000
O O18 0.881986 0.594727 0.500000
#
# Coordination Sequence:
#
# PCOD8237763 Si02
#       7
#     8   8   8   8   8   8   8
#     4  10  20  38  62  91 122 158 200 248 299 356
#     4  11  22  39  63  92 123 158 201 250 306 368
#     4  10  22  39  61  89 120 159 203 249 301 364
#     4  10  22  37  60  91 124 160 199 245 301 362
#     4  11  23  39  61  91 123 163 204 249 305 362
#     4   9  19  36  63  92 120 158 202 246 295 356
#     4  12  25  40  60  88 121 161 204 255 310 361
#
# _framework density 19.983139000000001
#
# number of rings (size 3 to 8) (size 9 to 14) (size 15 to 20)
#    0.000    1.571    1.429    3.429    2.000    5.143 
#    0.000    0.714    0.000    0.857    0.000    0.000 
#    0.000    0.000    0.000    0.000    0.000    0.000 
#
# Total GULP energy -694729.047979 kJ/mol
# GULP energy per Si atom -12405.875857 kJ/mol
# Density = 1.993766 g / cm^3
# Si number density = 19.983139 Si / 1000 Ang^3
#
#
#
# Elastic Constant Matrix: (Units=GPa)
#
#
# Indices 1 2 3 4 5 6 
#
# 1 126.7108 53.2021 26.5278 0.0000 0.0000 0.0000
# 2 53.2021 127.3700 16.9886 0.0000 0.0000 0.0000
# 3 26.5278 16.9886 32.9094 0.0000 0.0000 0.0000
# 4 0.0000 0.0000 0.0000 29.0064 0.0000 0.0000
# 5 0.0000 0.0000 0.0000 0.0000 20.2764 0.0000
# 6 0.0000 0.0000 0.0000 0.0000 0.0000 34.3783
#
#
#
# Elastic Compliance Matrix: (Units=1/GPa)
#
#
# Indices 1 2 3 4 5 6 
#
# 1 0.010850 -0.003614 -0.006880 0.000000 0.000000 0.000000
# 2 -0.003614 0.009636 -0.002061 0.000000 0.000000 0.000000
# 3 -0.006880 -0.002061 0.036996 0.000000 0.000000 0.000000
# 4 0.000000 0.000000 0.000000 0.034475 0.000000 0.000000
# 5 0.000000 0.000000 0.000000 0.000000 0.049318 0.000000
# 6 0.000000 0.000000 0.000000 0.000000 0.000000 0.029088
#
#
# Mechanical properties :
#
#
# Convention : Reuss Voigt Hill
#
# Bulk Modulus (GPa) = 30.89138 53.38078 42.13608
# Shear Modulus (GPa) = 24.24071 29.41700 26.82886
#
# Velocity S-wave (km/s) = 3.48668 3.84095 3.66809
# Velocity P-wave (km/s) = 5.63041 6.81479 6.25072
#
# Compressibility (1/GPa) = 0.03237149
#
# Stress axis : x y z
#
# Youngs Moduli (GPa) = 92.16638 103.78082 27.02972
#
# Poissons Ratio (x) = 0.37510 0.18597
# Poissons Ratio (y) = 0.33312 0.05570
# Poissons Ratio (z) = 0.63412 0.21386
#
# Static dielectric constant tensor:
#      x y z
#    x 3.891560 0.000000 0.000000 
#    y 0.000000 3.720340 0.000000 
#    z 0.000000 0.000000 3.431880 
# 
# 
# High freq. dielectric constant tensor:
#      x y z
#    x 1.796020 0.000000 0.000000 
#    y 0.000000 1.789510 0.000000 
#    z 0.000000 0.000000 1.760040 
# 
# From -- ./inp_files/6242.got.cif
#   From: 2010.06.25/outbox.cif.g09.slc.cpg/sg58_4_cif.got.tgz:6242.got - 2010.06.26 21:38:00.
