data_PCOD8237031
_publ_section_title
;
Structure prediction by ZEFSAII (Michael W. Deem and Ramdas Pophale) SiO2 
 PCOD8237031
Probable space group: P N N M
;
_chemical_formula_sum "Si O2"
_cell_formula_units_Z 56
_cell_length_a 17.829383
_cell_length_b 18.707871
_cell_length_c 9.053024
_cell_angle_alpha 90.000000
_cell_angle_beta 90.000000
_cell_angle_gamma 90.000000
_cell_volume 3019.634319
_symmetry_space_group_name_H-M "P N N M"
_symmetry_group_IT_number 58
_symmetry_cell_setting 'orthorhombic'
loop_
_space_group_symop_operation_xyz
x,y,z
-x,-y,z
1/2+x,1/2-y,1/2-z
1/2-x,1/2+y,1/2-z
-x,-y,-z
x,y,-z
1/2-x,1/2+y,1/2+z
1/2+x,1/2-y,1/2+z
loop_
_atom_site_type_symbol
_atom_site_label
_atom_site_fract_x
_atom_site_fract_y
_atom_site_fract_z
Si Si1 0.155941 0.960001 0.672001
Si Si2 0.510721 0.786213 0.166620
Si Si3 0.471780 0.923181 0.326887
Si Si4 0.838110 0.756609 0.666255
Si Si5 0.046007 0.851219 0.829387
Si Si6 0.625735 0.393107 0.670493
Si Si7 0.693764 0.120809 0.669444
O O1 0.135130 0.962107 0.500000
O O2 0.099820 0.906903 0.751760
O O3 0.240965 0.935613 0.699186
O O4 0.148736 0.037913 0.738897
O O5 0.520721 0.862917 0.244233
O O6 0.424336 0.765186 0.169351
O O7 0.557239 0.726254 0.254892
O O8 0.541737 0.790395 0.000000
O O9 0.485877 0.913047 0.500000
O O10 0.384142 0.916859 0.285768
O O11 0.500000 0.000000 0.271333
O O12 0.810249 0.771422 0.500000
O O13 0.826464 0.827320 0.764055
O O14 0.790309 0.691665 0.734499
O O15 0.962216 0.879934 0.809363
O O16 0.067916 0.844431 0.000000
O O17 0.647235 0.403178 0.500000
O O18 0.690927 0.145753 0.500000
#
# Coordination Sequence:
#
# PCOD8237031 Si02
#       7
#     8   8   8   8   8   8   8
#     4  11  22  34  50  74 106 139 170 211 261 310
#     4   9  17  30  50  76 102 127 161 206 253 300
#     4   9  17  32  55  78 100 131 171 213 256 303
#     4   9  17  31  53  76  96 125 166 207 247 297
#     4  10  20  34  52  74 101 135 174 213 255 306
#     4  10  20  34  53  76 102 134 173 214 254 301
#     4   9  19  35  52  73 102 134 168 207 255 307
#
# _framework density 18.545293000000001
#
# number of rings (size 3 to 8) (size 9 to 14) (size 15 to 20)
#    0.000    2.429    0.000    2.571    0.000    8.286 
#    0.000    1.429    0.000    5.143    0.000    0.000 
#    0.000    0.000    0.000    0.000    0.000    0.000 
#
# Total GULP energy -694503.289224 kJ/mol
# GULP energy per Si atom -12401.844450 kJ/mol
# Density = 1.850308 g / cm^3
# Si number density = 18.545293 Si / 1000 Ang^3
#
#
#
# Elastic Constant Matrix: (Units=GPa)
#
#
# Indices 1 2 3 4 5 6 
#
# 1 37.9724 37.9128 36.9954 0.0000 0.0000 0.0000
# 2 37.9128 163.2636 75.5351 0.0000 0.0000 0.0000
# 3 36.9954 75.5351 122.3921 0.0000 0.0000 0.0000
# 4 0.0000 0.0000 0.0000 39.7912 0.0000 0.0000
# 5 0.0000 0.0000 0.0000 0.0000 17.5480 0.0000
# 6 0.0000 0.0000 0.0000 0.0000 0.0000 10.8074
#
#
#
# Elastic Compliance Matrix: (Units=1/GPa)
#
#
# Indices 1 2 3 4 5 6 
#
# 1 0.040258 -0.005205 -0.008957 0.000000 0.000000 0.000000
# 2 -0.005205 0.009246 -0.004133 0.000000 0.000000 0.000000
# 3 -0.008957 -0.004133 0.013428 0.000000 0.000000 0.000000
# 4 0.000000 0.000000 0.000000 0.025131 0.000000 0.000000
# 5 0.000000 0.000000 0.000000 0.000000 0.056987 0.000000
# 6 0.000000 0.000000 0.000000 0.000000 0.000000 0.092530
#
#
# Mechanical properties :
#
#
# Convention : Reuss Voigt Hill
#
# Bulk Modulus (GPa) = 37.96004 69.39051 53.67528
# Shear Modulus (GPa) = 17.67106 25.17496 21.42301
#
# Velocity S-wave (km/s) = 3.09019 3.68840 3.40247
# Velocity P-wave (km/s) = 5.76590 7.45903 6.66644
#
# Compressibility (1/GPa) = 0.02634349
#
# Stress axis : x y z
#
# Youngs Moduli (GPa) = 24.84007 108.15724 74.46918
#
# Poissons Ratio (x) = 0.56293 0.66698
# Poissons Ratio (y) = 0.12929 0.30777
# Poissons Ratio (z) = 0.22248 0.44700
#
# Static dielectric constant tensor:
#      x y z
#    x 3.222620 0.000000 0.000000 
#    y 0.000000 3.602830 0.000000 
#    z 0.000000 0.000000 3.605020 
# 
# 
# High freq. dielectric constant tensor:
#      x y z
#    x 1.683320 0.000000 0.000000 
#    y 0.000000 1.730680 0.000000 
#    z 0.000000 0.000000 1.732240 
# 
# From -- ./inp_files/9186.got.cif
#   From: 2010.06.25/outbox.cif.g09.slc.cpg/sg58_5_cif.got.tgz:9186.got - 2010.06.26 21:38:00.
