data_PCOD8237688
_publ_section_title
;
Structure prediction by ZEFSAII (Michael W. Deem and Ramdas Pophale) SiO2 
 PCOD8237688
Probable space group: P N N M
;
_chemical_formula_sum "Si O2"
_cell_formula_units_Z 56
_cell_length_a 11.536871
_cell_length_b 15.551438
_cell_length_c 14.983076
_cell_angle_alpha 90.000000
_cell_angle_beta 90.000000
_cell_angle_gamma 90.000000
_cell_volume 2688.187593
_symmetry_space_group_name_H-M "P N N M"
_symmetry_group_IT_number 58
_symmetry_cell_setting 'orthorhombic'
loop_
_space_group_symop_operation_xyz
x,y,z
-x,-y,z
1/2+x,1/2-y,1/2-z
1/2-x,1/2+y,1/2-z
-x,-y,-z
x,y,-z
1/2-x,1/2+y,1/2+z
1/2+x,1/2-y,1/2+z
loop_
_atom_site_type_symbol
_atom_site_label
_atom_site_fract_x
_atom_site_fract_y
_atom_site_fract_z
Si Si1 0.939778 0.089925 0.602198
Si Si2 0.074790 0.175092 0.244245
Si Si3 0.790287 0.667520 0.601511
Si Si4 0.682782 0.030627 0.600948
Si Si5 0.553538 0.137741 0.744686
Si Si6 0.946973 0.086425 0.100288
Si Si7 0.799506 0.350611 0.179852
O O1 0.964271 0.118032 0.500000
O O2 0.803587 0.078593 0.620244
O O3 0.992639 0.161827 0.668237
O O4 0.000000 0.000000 0.624124
O O5 0.116150 0.272122 0.227435
O O6 0.193814 0.121432 0.254572
O O7 0.004483 0.161575 0.155031
O O8 0.831548 0.680581 0.500000
O O9 0.897304 0.622028 0.654898
O O10 0.690822 0.594639 0.607363
O O11 0.737803 0.760139 0.633911
O O12 0.640964 0.051566 0.500000
O O13 0.590599 0.065771 0.673078
O O14 0.690956 0.927150 0.607534
O O15 0.415438 0.152883 0.739715
O O16 0.992078 0.095308 0.000000
O O17 0.000000 0.000000 0.143491
#
# Coordination Sequence:
#
# PCOD8237688 Si02
#       7
#     8   8   8   8   8   8   8
#     4  10  20  37  63  95 122 153 207 269 323 374
#     4  11  22  38  64  86 125 164 205 260 313 368
#     4  10  22  42  68  93 127 172 220 263 316 380
#     4  11  24  41  65  96 129 164 207 265 329 390
#     4  11  25  40  59  93 130 168 214 253 316 386
#     4  10  21  38  64  92 114 154 212 262 304 354
#     4  11  23  40  63  92 130 170 210 255 323 393
#
# _framework density 20.831879000000001
#
# number of rings (size 3 to 8) (size 9 to 14) (size 15 to 20)
#    0.000    1.429    2.857    2.143    4.000    4.571 
#    0.000    0.714    0.000    1.714    0.000    0.000 
#    0.000    0.000    0.000    0.000    0.000    0.000 
#
# Total GULP energy -693734.659357 kJ/mol
# GULP energy per Si atom -12388.118917 kJ/mol
# Density = 2.078446 g / cm^3
# Si number density = 20.831879 Si / 1000 Ang^3
#
#
#
# Elastic Constant Matrix: (Units=GPa)
#
#
# Indices 1 2 3 4 5 6 
#
# 1 115.8557 5.3967 59.2704 0.0000 0.0000 0.0000
# 2 5.3967 66.1054 26.3669 0.0000 0.0000 0.0000
# 3 59.2704 26.3669 114.9681 0.0000 0.0000 0.0000
# 4 0.0000 0.0000 0.0000 18.8266 0.0000 0.0000
# 5 0.0000 0.0000 0.0000 0.0000 6.7427 0.0000
# 6 0.0000 0.0000 0.0000 0.0000 0.0000 25.6779
#
#
#
# Elastic Compliance Matrix: (Units=1/GPa)
#
#
# Indices 1 2 3 4 5 6 
#
# 1 0.011879 0.001621 -0.006496 0.000000 0.000000 0.000000
# 2 0.001621 0.016872 -0.004705 0.000000 0.000000 0.000000
# 3 -0.006496 -0.004705 0.013126 0.000000 0.000000 0.000000
# 4 0.000000 0.000000 0.000000 0.053116 0.000000 0.000000
# 5 0.000000 0.000000 0.000000 0.000000 0.148309 0.000000
# 6 0.000000 0.000000 0.000000 0.000000 0.000000 0.038944
#
#
# Mechanical properties :
#
#
# Convention : Reuss Voigt Hill
#
# Bulk Modulus (GPa) = 44.01975 53.22193 48.62084
# Shear Modulus (GPa) = 16.18234 23.97579 20.07906
#
# Velocity S-wave (km/s) = 2.79015 3.39620 3.10798
# Velocity P-wave (km/s) = 5.61754 6.40177 6.02243
#
# Compressibility (1/GPa) = 0.02271708
#
# Stress axis : x y z
#
# Youngs Moduli (GPa) = 84.18101 59.27083 76.18432
#
# Poissons Ratio (x) = -0.09609 0.49489
# Poissons Ratio (y) = -0.13647 0.35846
# Poissons Ratio (z) = 0.54684 0.27888
#
# Static dielectric constant tensor:
#      x y z
#    x 3.955910 0.000000 0.000000 
#    y 0.000000 3.773590 0.000000 
#    z 0.000000 0.000000 3.815280 
# 
# 
# High freq. dielectric constant tensor:
#      x y z
#    x 1.822570 0.000000 0.000000 
#    y 0.000000 1.805680 0.000000 
#    z 0.000000 0.000000 1.810300 
# 
# From -- ./inp_files/21244.got.cif
#   From: 2010.06.25/outbox.cif.g09.slc.cpg/sg58_11_cif.got.tgz:21244.got - 2010.06.26 21:38:00.
