data_PCOD8237572
_publ_section_title
;
Structure prediction by ZEFSAII (Michael W. Deem and Ramdas Pophale) SiO2 
 PCOD8237572
Probable space group: P N N M
;
_chemical_formula_sum "Si O2"
_cell_formula_units_Z 64
_cell_length_a 8.528470
_cell_length_b 12.242880
_cell_length_c 28.323693
_cell_angle_alpha 90.000000
_cell_angle_beta 90.000000
_cell_angle_gamma 90.000000
_cell_volume 2957.362743
_symmetry_space_group_name_H-M "P N N M"
_symmetry_group_IT_number 58
_symmetry_cell_setting 'orthorhombic'
loop_
_space_group_symop_operation_xyz
x,y,z
-x,-y,z
1/2+x,1/2-y,1/2-z
1/2-x,1/2+y,1/2-z
-x,-y,-z
x,y,-z
1/2-x,1/2+y,1/2+z
1/2+x,1/2-y,1/2+z
loop_
_atom_site_type_symbol
_atom_site_label
_atom_site_fract_x
_atom_site_fract_y
_atom_site_fract_z
Si Si1 0.688161 0.752333 0.097973
Si Si2 0.128647 0.838848 0.305433
Si Si3 0.565967 0.119470 0.945993
Si Si4 0.819228 0.837991 0.756850
Si Si5 0.945841 0.617196 0.945468
Si Si6 0.431179 0.609848 0.645644
Si Si7 0.818726 0.256898 0.109604
Si Si8 0.326148 0.048393 0.322739
O O1 0.594348 0.724543 0.145744
O O2 0.574382 0.792440 0.056479
O O3 0.786192 0.646481 0.081890
O O4 0.801401 0.853939 0.108347
O O5 0.267598 0.780930 0.275553
O O6 0.968029 0.834720 0.277302
O O7 0.190452 0.958121 0.318687
O O8 0.693212 0.168283 0.909214
O O9 0.500000 0.000000 0.930195
O O10 0.628333 0.114850 0.000000
O O11 0.861804 0.911476 0.802261
O O12 0.673840 0.890862 0.728196
O O13 0.000000 0.500000 0.925932
O O14 0.081379 0.705967 0.936167
O O15 0.905582 0.612434 0.000000
O O16 0.500000 0.500000 0.624075
O O17 0.569490 0.699504 0.648274
O O18 0.764134 0.367170 0.136708
O O19 0.500000 0.000000 0.333213
#
# Coordination Sequence:
#
# PCOD8237572 Si02
#       8
#     8   8   8   8   8   8   8   8
#     4  10  21  37  59  85 118 158 202 254 314 373
#     4  11  22  39  59  87 125 166 212 261 312 372
#     4  11  24  42  63  91 126 161 204 263 328 387
#     4  11  23  38  59  87 122 165 210 254 303 361
#     4  10  20  37  61  87 116 153 201 256 314 380
#     4  10  20  37  58  83 116 155 205 254 299 363
#     4  11  22  39  63  89 120 163 208 252 312 381
#     4  12  23  39  63  91 128 169 212 262 317 378
#
# _framework density 21.640902000000001
#
# number of rings (size 3 to 8) (size 9 to 14) (size 15 to 20)
#    0.000    1.250    0.000    8.250    0.000    0.000 
#    0.000    9.375    0.000   10.500    0.000    0.000 
#    0.000    0.000    0.000    0.000    0.000    0.000 
#
# Total GULP energy -793292.709496 kJ/mol
# GULP energy per Si atom -12395.198586 kJ/mol
# Density = 2.159165 g / cm^3
# Si number density = 21.640902 Si / 1000 Ang^3
#
#
#
# Elastic Constant Matrix: (Units=GPa)
#
#
# Indices 1 2 3 4 5 6 
#
# 1 77.8203 21.5021 31.0410 0.0000 0.0000 0.0000
# 2 21.5021 89.9155 26.5226 0.0000 0.0000 0.0000
# 3 31.0410 26.5226 93.4705 0.0000 0.0000 0.0000
# 4 0.0000 0.0000 0.0000 32.6514 0.0000 0.0000
# 5 0.0000 0.0000 0.0000 0.0000 23.4464 0.0000
# 6 0.0000 0.0000 0.0000 0.0000 0.0000 38.7528
#
#
#
# Elastic Compliance Matrix: (Units=1/GPa)
#
#
# Indices 1 2 3 4 5 6 
#
# 1 0.015254 -0.002350 -0.004399 0.000000 0.000000 0.000000
# 2 -0.002350 0.012500 -0.002766 0.000000 0.000000 0.000000
# 3 -0.004399 -0.002766 0.012944 0.000000 0.000000 0.000000
# 4 0.000000 0.000000 0.000000 0.030627 0.000000 0.000000
# 5 0.000000 0.000000 0.000000 0.000000 0.042650 0.000000
# 6 0.000000 0.000000 0.000000 0.000000 0.000000 0.025805
#
#
# Mechanical properties :
#
#
# Convention : Reuss Voigt Hill
#
# Bulk Modulus (GPa) = 46.15283 46.59306 46.37295
# Shear Modulus (GPa) = 30.11451 31.11284 30.61367
#
# Velocity S-wave (km/s) = 3.73440 3.79580 3.76523
# Velocity P-wave (km/s) = 6.32197 6.38652 6.35433
#
# Compressibility (1/GPa) = 0.02166714
#
# Stress axis : x y z
#
# Youngs Moduli (GPa) = 65.55594 80.00277 77.25371
#
# Poissons Ratio (x) = 0.18803 0.33983
# Poissons Ratio (y) = 0.15407 0.21371
# Poissons Ratio (z) = 0.28837 0.22131
#
# Static dielectric constant tensor:
#      x y z
#    x 3.861330 0.000000 0.000000 
#    y 0.000000 4.044010 0.000000 
#    z 0.000000 0.000000 3.849030 
# 
# 
# High freq. dielectric constant tensor:
#      x y z
#    x 1.843380 0.000000 0.000000 
#    y 0.000000 1.856160 0.000000 
#    z 0.000000 0.000000 1.851600 
# 
# From -- ./inp_files/34777.got.cif
#   From: 2010.06.25/outbox.cif.g09.slc.cpg/sg58_18_cif.got.tgz:34777.got - 2010.06.26 21:38:00.
