data_PCOD8237786
_publ_section_title
;
Structure prediction by ZEFSAII (Michael W. Deem and Ramdas Pophale) SiO2 
 PCOD8237786
Probable space group: P N N M
;
_chemical_formula_sum "Si O2"
_cell_formula_units_Z 64
_cell_length_a 24.525544
_cell_length_b 14.661500
_cell_length_c 8.751814
_cell_angle_alpha 90.000000
_cell_angle_beta 90.000000
_cell_angle_gamma 90.000000
_cell_volume 3146.988335
_symmetry_space_group_name_H-M "P N N M"
_symmetry_group_IT_number 58
_symmetry_cell_setting 'orthorhombic'
loop_
_space_group_symop_operation_xyz
x,y,z
-x,-y,z
1/2+x,1/2-y,1/2-z
1/2-x,1/2+y,1/2-z
-x,-y,-z
x,y,-z
1/2-x,1/2+y,1/2+z
1/2+x,1/2-y,1/2+z
loop_
_atom_site_type_symbol
_atom_site_label
_atom_site_fract_x
_atom_site_fract_y
_atom_site_fract_z
Si Si1 0.240328 0.164156 0.821918
Si Si2 0.125755 0.447467 0.320350
Si Si3 0.937821 0.256158 0.680546
Si Si4 0.052942 0.948795 0.318701
Si Si5 0.829797 0.984032 0.320214
Si Si6 0.648223 0.869086 0.320370
Si Si7 0.980308 0.600387 0.819960
Si Si8 0.233894 0.377545 0.176793
O O1 0.187050 0.108941 0.767311
O O2 0.289014 0.120978 0.724197
O O3 0.238238 0.270901 0.784731
O O4 0.250869 0.146907 0.000000
O O5 0.117055 0.449739 0.500000
O O6 0.114825 0.546998 0.250195
O O7 0.080769 0.382058 0.243159
O O8 0.186317 0.415111 0.282685
O O9 0.933763 0.263315 0.500000
O O10 0.952436 0.155058 0.735547
O O11 0.878218 0.278136 0.749978
O O12 0.982792 0.323779 0.743359
O O13 0.053125 0.955200 0.500000
O O14 0.109796 0.991659 0.258994
O O15 0.000000 0.000000 0.250175
O O16 0.829779 0.963852 0.500000
O O17 0.789685 0.069233 0.282423
O O18 0.640891 0.870792 0.500000
O O19 0.000000 0.500000 0.770670
O O20 0.981934 0.614151 0.000000
O O21 0.218279 0.393077 0.000000
#
# Coordination Sequence:
#
# PCOD8237786 Si02
#       8
#     8   8   8   8   8   8   8   8
#     4  11  23  39  62  93 125 163 208 258 309 368
#     4  12  24  38  61  90 121 159 206 258 305 366
#     4  11  22  38  64  94 122 162 215 265 306 364
#     4   9  20  40  65  93 125 162 206 257 310 363
#     4  10  20  38  64  90 123 167 208 253 311 372
#     4  12  23  38  60  88 124 165 205 254 316 374
#     4  11  23  39  60  87 126 168 199 245 312 376
#     4  10  22  40  60  87 128 168 203 251 317 375
#
# _framework density 20.336904000000001
#
# number of rings (size 3 to 8) (size 9 to 14) (size 15 to 20)
#    0.000    1.250    2.500    4.125    0.000    4.500 
#    0.000    3.750    0.000    2.625    0.000    0.000 
#    0.000    0.000    0.000    0.000    0.000    0.000 
#
# Total GULP energy -793804.657169 kJ/mol
# GULP energy per Si atom -12403.197768 kJ/mol
# Density = 2.029062 g / cm^3
# Si number density = 20.336904 Si / 1000 Ang^3
#
#
#
# Elastic Constant Matrix: (Units=GPa)
#
#
# Indices 1 2 3 4 5 6 
#
# 1 145.5178 61.1526 39.8747 0.0000 0.0000 0.0000
# 2 61.1526 125.9026 47.4984 0.0000 0.0000 0.0000
# 3 39.8747 47.4984 99.4008 0.0000 0.0000 0.0000
# 4 0.0000 0.0000 0.0000 25.1745 0.0000 0.0000
# 5 0.0000 0.0000 0.0000 0.0000 27.5407 0.0000
# 6 0.0000 0.0000 0.0000 0.0000 0.0000 33.9661
#
#
#
# Elastic Compliance Matrix: (Units=1/GPa)
#
#
# Indices 1 2 3 4 5 6 
#
# 1 0.008901 -0.003631 -0.001836 0.000000 0.000000 0.000000
# 2 -0.003631 0.011170 -0.003881 0.000000 0.000000 0.000000
# 3 -0.001836 -0.003881 0.012651 0.000000 0.000000 0.000000
# 4 0.000000 0.000000 0.000000 0.039723 0.000000 0.000000
# 5 0.000000 0.000000 0.000000 0.000000 0.036310 0.000000
# 6 0.000000 0.000000 0.000000 0.000000 0.000000 0.029441
#
#
# Mechanical properties :
#
#
# Convention : Reuss Voigt Hill
#
# Bulk Modulus (GPa) = 71.28986 74.20806 72.74896
# Shear Modulus (GPa) = 30.94688 32.15597 31.55142
#
# Velocity S-wave (km/s) = 3.90514 3.98070 3.94310
# Velocity P-wave (km/s) = 7.44742 7.59582 7.52199
#
# Compressibility (1/GPa) = 0.01402724
#
# Stress axis : x y z
#
# Youngs Moduli (GPa) = 112.34961 89.52233 79.04321
#
# Poissons Ratio (x) = 0.32503 0.14509
# Poissons Ratio (y) = 0.40791 0.30679
# Poissons Ratio (z) = 0.20623 0.34746
#
# Static dielectric constant tensor:
#      x y z
#    x 3.880450 0.000000 0.000000 
#    y 0.000000 3.817870 0.000000 
#    z 0.000000 0.000000 3.506720 
# 
# 
# High freq. dielectric constant tensor:
#      x y z
#    x 1.805310 0.000000 0.000000 
#    y 0.000000 1.795430 0.000000 
#    z 0.000000 0.000000 1.784630 
# 
# From -- ./inp_files/9979.got.cif
#   From: 2010.06.25/outbox.cif.g09.slc.cpg/sg58_5_cif.got.tgz:9979.got - 2010.06.26 21:38:00.
