data_PCOD8237124
_publ_section_title
;
Structure prediction by ZEFSAII (Michael W. Deem and Ramdas Pophale) SiO2 
 PCOD8237124
Probable space group: P N N M
;
_chemical_formula_sum "Si O2"
_cell_formula_units_Z 40
_cell_length_a 29.108757
_cell_length_b 7.636257
_cell_length_c 9.100958
_cell_angle_alpha 90.000000
_cell_angle_beta 90.000000
_cell_angle_gamma 90.000000
_cell_volume 2022.978686
_symmetry_space_group_name_H-M "P N N M"
_symmetry_group_IT_number 58
_symmetry_cell_setting 'orthorhombic'
loop_
_space_group_symop_operation_xyz
x,y,z
-x,-y,z
1/2+x,1/2-y,1/2-z
1/2-x,1/2+y,1/2-z
-x,-y,-z
x,y,-z
1/2-x,1/2+y,1/2+z
1/2+x,1/2-y,1/2+z
loop_
_atom_site_type_symbol
_atom_site_label
_atom_site_fract_x
_atom_site_fract_y
_atom_site_fract_z
Si Si1 0.388231 0.213344 0.172656
Si Si2 0.945914 0.997639 0.168978
Si Si3 0.397519 0.804697 0.834762
Si Si4 0.200525 0.673153 0.168657
Si Si5 0.796863 0.667531 0.334455
O O1 0.426534 0.337420 0.241998
O O2 0.338260 0.271982 0.235667
O O3 0.399011 0.010145 0.211734
O O4 0.387303 0.244107 0.000000
O O5 0.928117 0.810503 0.226673
O O6 0.931292 0.016606 0.000000
O O7 0.000000 0.000000 0.189540
O O8 0.345173 0.728017 0.829847
O O9 0.417011 0.785600 0.000000
O O10 0.198011 0.471152 0.206136
O O11 0.252748 0.720664 0.208606
O O12 0.188871 0.708335 0.000000
O O13 0.791378 0.586107 0.500000
#
# Coordination Sequence:
#
# PCOD8237124 Si02
#       5
#     8   8   8   8   8
#     4  10  22  41  63  87 120 158 200 250 299 356
#     4  11  25  42  62  91 122 155 199 251 309 366
#     4   9  20  40  62  86 119 158 201 248 297 354
#     4  10  20  34  55  85 118 155 197 239 291 349
#     4   9  20  36  53  82 118 154 196 238 287 348
#
# _framework density 19.772822999999999
#
# number of rings (size 3 to 8) (size 9 to 14) (size 15 to 20)
#    0.000    2.200    0.000    3.000    2.800    8.000 
#    0.000    4.000    0.000    0.000    0.000    0.000 
#    0.000    0.000    0.000    0.000    0.000    0.000 
#
# Total GULP energy -495746.753489 kJ/mol
# GULP energy per Si atom -12393.668837 kJ/mol
# Density = 1.972782 g / cm^3
# Si number density = 19.772823 Si / 1000 Ang^3
#
#
#
# Elastic Constant Matrix: (Units=GPa)
#
#
# Indices 1 2 3 4 5 6 
#
# 1 87.4202 34.3003 58.6257 0.0000 0.0000 0.0000
# 2 34.3003 69.3434 46.3903 0.0000 0.0000 0.0000
# 3 58.6257 46.3903 108.8413 0.0000 0.0000 0.0000
# 4 0.0000 0.0000 0.0000 31.2572 0.0000 0.0000
# 5 0.0000 0.0000 0.0000 0.0000 29.0096 0.0000
# 6 0.0000 0.0000 0.0000 0.0000 0.0000 32.1926
#
#
#
# Elastic Compliance Matrix: (Units=1/GPa)
#
#
# Indices 1 2 3 4 5 6 
#
# 1 0.018487 -0.003473 -0.008477 0.000000 0.000000 0.000000
# 2 -0.003473 0.020826 -0.007006 0.000000 0.000000 0.000000
# 3 -0.008477 -0.007006 0.016740 0.000000 0.000000 0.000000
# 4 0.000000 0.000000 0.000000 0.031993 0.000000 0.000000
# 5 0.000000 0.000000 0.000000 0.000000 0.034471 0.000000
# 6 0.000000 0.000000 0.000000 0.000000 0.000000 0.031063
#
#
# Mechanical properties :
#
#
# Convention : Reuss Voigt Hill
#
# Bulk Modulus (GPa) = 55.12616 60.47085 57.79850
# Shear Modulus (GPa) = 25.31162 26.91114 26.11138
#
# Velocity S-wave (km/s) = 3.58176 3.69320 3.63791
# Velocity P-wave (km/s) = 6.71160 6.98824 6.85132
#
# Compressibility (1/GPa) = 0.01814021
#
# Stress axis : x y z
#
# Youngs Moduli (GPa) = 54.09269 48.01787 59.73800
#
# Poissons Ratio (x) = 0.16677 0.50642
# Poissons Ratio (y) = 0.18787 0.41850
# Poissons Ratio (z) = 0.45856 0.33639
#
# Static dielectric constant tensor:
#      x y z
#    x 3.855720 0.000000 0.000000 
#    y 0.000000 3.516230 0.000000 
#    z 0.000000 0.000000 3.667250 
# 
# 
# High freq. dielectric constant tensor:
#      x y z
#    x 1.778830 0.000000 0.000000 
#    y 0.000000 1.753790 0.000000 
#    z 0.000000 0.000000 1.778080 
# 
# From -- ./inp_files/2421.got.cif
#   From: 2010.06.25/outbox.cif.g09.slc.cpg/sg58_2_cif.got.tgz:2421.got - 2010.06.26 21:38:00.
