data_PCOD8237544
_publ_section_title
;
Structure prediction by ZEFSAII (Michael W. Deem and Ramdas Pophale) SiO2 
 PCOD8237544
Probable space group: P N N M
;
_chemical_formula_sum "Si O2"
_cell_formula_units_Z 56
_cell_length_a 12.733918
_cell_length_b 14.262527
_cell_length_c 14.838141
_cell_angle_alpha 90.000000
_cell_angle_beta 90.000000
_cell_angle_gamma 90.000000
_cell_volume 2694.871256
_symmetry_space_group_name_H-M "P N N M"
_symmetry_group_IT_number 58
_symmetry_cell_setting 'orthorhombic'
loop_
_space_group_symop_operation_xyz
x,y,z
-x,-y,z
1/2+x,1/2-y,1/2-z
1/2-x,1/2+y,1/2-z
-x,-y,-z
x,y,-z
1/2-x,1/2+y,1/2+z
1/2+x,1/2-y,1/2+z
loop_
_atom_site_type_symbol
_atom_site_label
_atom_site_fract_x
_atom_site_fract_y
_atom_site_fract_z
Si Si1 0.424015 0.912214 0.287084
Si Si2 0.578522 0.658887 0.252600
Si Si3 0.703775 0.818622 0.831792
Si Si4 0.941059 0.903140 0.598142
Si Si5 0.005666 0.388813 0.597141
Si Si6 0.069626 0.235630 0.104068
Si Si7 0.218438 0.011500 0.280859
O O1 0.427066 0.862380 0.187221
O O2 0.462263 0.838573 0.361285
O O3 0.500000 0.000000 0.289667
O O4 0.308201 0.942512 0.316610
O O5 0.664723 0.742230 0.243157
O O6 0.506095 0.666137 0.162757
O O7 0.503357 0.664548 0.339630
O O8 0.629093 0.555554 0.261676
O O9 0.609485 0.841297 0.899840
O O10 0.806126 0.779950 0.882340
O O11 0.731831 0.919171 0.791004
O O12 0.928309 0.854774 0.500000
O O13 0.826412 0.924921 0.638516
O O14 0.000000 0.000000 0.586454
O O15 0.055893 0.357009 0.500000
O O16 0.000000 0.500000 0.596883
O O17 0.040295 0.224733 0.000000
#
# Coordination Sequence:
#
# PCOD8237544 Si02
#       7
#     8   8   8   8   8   8   8
#     4  11  21  42  68  93 133 173 213 277 331 382
#     4  11  23  42  67  91 134 173 216 273 328 380
#     4  12  22  41  67  93 132 173 217 270 326 388
#     4   9  20  38  64  93 121 159 215 270 320 378
#     4  10  20  36  62  94 123 162 213 262 317 383
#     4  12  26  43  65  97 133 178 225 266 324 399
#     4  11  21  40  68  95 131 172 212 262 333 386
#
# _framework density 20.780214000000001
#
# number of rings (size 3 to 8) (size 9 to 14) (size 15 to 20)
#    0.000    1.143    7.143    0.429    0.000    2.000 
#    0.000    5.000    0.000    0.000    0.000    0.000 
#    0.000    0.000    0.000    0.000    0.000    0.000 
#
# Total GULP energy -694050.494135 kJ/mol
# GULP energy per Si atom -12393.758824 kJ/mol
# Density = 2.073292 g / cm^3
# Si number density = 20.780214 Si / 1000 Ang^3
#
#
#
# Elastic Constant Matrix: (Units=GPa)
#
#
# Indices 1 2 3 4 5 6 
#
# 1 97.9991 26.5143 45.2907 0.0000 0.0000 0.0000
# 2 26.5143 81.6011 36.7928 0.0000 0.0000 0.0000
# 3 45.2907 36.7928 137.2485 0.0000 0.0000 0.0000
# 4 0.0000 0.0000 0.0000 16.2715 0.0000 0.0000
# 5 0.0000 0.0000 0.0000 0.0000 23.4131 0.0000
# 6 0.0000 0.0000 0.0000 0.0000 0.0000 39.9015
#
#
#
# Elastic Compliance Matrix: (Units=1/GPa)
#
#
# Indices 1 2 3 4 5 6 
#
# 1 0.012473 -0.002499 -0.003446 0.000000 0.000000 0.000000
# 2 -0.002499 0.014440 -0.003046 0.000000 0.000000 0.000000
# 3 -0.003446 -0.003046 0.009240 0.000000 0.000000 0.000000
# 4 0.000000 0.000000 0.000000 0.061457 0.000000 0.000000
# 5 0.000000 0.000000 0.000000 0.000000 0.042711 0.000000
# 6 0.000000 0.000000 0.000000 0.000000 0.000000 0.025062
#
#
# Mechanical properties :
#
#
# Convention : Reuss Voigt Hill
#
# Bulk Modulus (GPa) = 55.03523 59.33827 57.18675
# Shear Modulus (GPa) = 26.39600 29.80061 28.09830
#
# Velocity S-wave (km/s) = 3.56792 3.79104 3.68117
# Velocity P-wave (km/s) = 6.59661 6.91229 6.75630
#
# Compressibility (1/GPa) = 0.01817018
#
# Stress axis : x y z
#
# Youngs Moduli (GPa) = 80.17382 69.25059 108.22658
#
# Poissons Ratio (x) = 0.17306 0.37295
# Poissons Ratio (y) = 0.20035 0.32970
# Poissons Ratio (z) = 0.27628 0.21097
#
# Static dielectric constant tensor:
#      x y z
#    x 4.060610 0.000000 0.000000 
#    y 0.000000 3.802030 0.000000 
#    z 0.000000 0.000000 4.044320 
# 
# 
# High freq. dielectric constant tensor:
#      x y z
#    x 1.809160 0.000000 0.000000 
#    y 0.000000 1.824740 0.000000 
#    z 0.000000 0.000000 1.792780 
# 
# From -- ./inp_files/21286.got.cif
#   From: 2010.06.25/outbox.cif.g09.slc.cpg/sg58_11_cif.got.tgz:21286.got - 2010.06.26 21:38:00.
