data_PCOD8237009
_publ_section_title
;
Structure prediction by ZEFSAII (Michael W. Deem and Ramdas Pophale) SiO2 
 PCOD8237009
Probable space group: P N N M
;
_chemical_formula_sum "Si O2"
_cell_formula_units_Z 64
_cell_length_a 24.189765
_cell_length_b 15.176419
_cell_length_c 9.318432
_cell_angle_alpha 90.000000
_cell_angle_beta 90.000000
_cell_angle_gamma 90.000000
_cell_volume 3420.926931
_symmetry_space_group_name_H-M "P N N M"
_symmetry_group_IT_number 58
_symmetry_cell_setting 'orthorhombic'
loop_
_space_group_symop_operation_xyz
x,y,z
-x,-y,z
1/2+x,1/2-y,1/2-z
1/2-x,1/2+y,1/2-z
-x,-y,-z
x,y,-z
1/2-x,1/2+y,1/2+z
1/2+x,1/2-y,1/2+z
loop_
_atom_site_type_symbol
_atom_site_label
_atom_site_fract_x
_atom_site_fract_y
_atom_site_fract_z
Si Si1 0.431220 0.382113 0.835817
Si Si2 0.687693 0.880902 0.830252
Si Si3 0.082304 0.559610 0.836430
Si Si4 0.037830 0.371372 0.835886
Si Si5 0.221809 0.980777 0.834137
Si Si6 0.598965 0.454683 0.333380
Si Si7 0.452821 0.701376 0.166979
Si Si8 0.310791 0.316678 0.833643
O O1 0.437346 0.466873 0.734158
O O2 0.482804 0.319154 0.805059
O O3 0.375840 0.328209 0.799245
O O4 0.430988 0.415663 0.000000
O O5 0.628414 0.902096 0.766359
O O6 0.706143 0.781940 0.785233
O O7 0.732548 0.951231 0.773697
O O8 0.681718 0.885188 0.000000
O O9 0.077739 0.454777 0.815594
O O10 0.024582 0.604058 0.794112
O O11 0.097894 0.581958 0.000000
O O12 0.060117 0.297495 0.728590
O O13 0.040205 0.337747 0.000000
O O14 0.225845 0.887783 0.751852
O O15 0.163135 0.026025 0.808142
O O16 0.232110 0.960120 0.000000
O O17 0.583752 0.445684 0.500000
O O18 0.586278 0.365182 0.251424
O O19 0.437524 0.698086 0.000000
O O20 0.298361 0.332487 0.000000
#
# Coordination Sequence:
#
# PCOD8237009 Si02
#       8
#     8   8   8   8   8   8   8   8
#     4   9  18  32  50  74 104 134 172 221 265 314
#     4  10  20  36  58  82 108 139 179 225 271 318
#     4   9  19  36  57  80 106 138 175 216 261 311
#     4   9  19  36  54  76 110 143 172 211 258 315
#     4   9  20  38  55  75 107 142 178 225 271 313
#     4  10  20  34  51  71 102 143 180 218 267 316
#     4  11  21  32  50  78 108 140 176 215 265 320
#     4   9  18  34  56  79 103 136 177 220 269 320
#
# _framework density 18.708379000000001
#
# number of rings (size 3 to 8) (size 9 to 14) (size 15 to 20)
#    0.000    2.500    0.000    2.625    0.000    6.000 
#    2.250    3.750    0.000    0.000    0.000    0.000 
#    0.000    0.000    0.000    0.000    0.000    0.000 
#
# Total GULP energy -793735.407788 kJ/mol
# GULP energy per Si atom -12402.115747 kJ/mol
# Density = 1.866580 g / cm^3
# Si number density = 18.708379 Si / 1000 Ang^3
#
#
#
# Elastic Constant Matrix: (Units=GPa)
#
#
# Indices 1 2 3 4 5 6 
#
# 1 43.7779 38.9275 27.2405 0.0000 0.0000 0.0000
# 2 38.9275 139.6831 60.1113 0.0000 0.0000 0.0000
# 3 27.2405 60.1113 75.1407 0.0000 0.0000 0.0000
# 4 0.0000 0.0000 0.0000 36.9301 0.0000 0.0000
# 5 0.0000 0.0000 0.0000 0.0000 17.2175 0.0000
# 6 0.0000 0.0000 0.0000 0.0000 0.0000 25.0701
#
#
#
# Elastic Compliance Matrix: (Units=1/GPa)
#
#
# Indices 1 2 3 4 5 6 
#
# 1 0.032577 -0.006094 -0.006934 0.000000 0.000000 0.000000
# 2 -0.006094 0.012058 -0.007437 0.000000 0.000000 0.000000
# 3 -0.006934 -0.007437 0.021771 0.000000 0.000000 0.000000
# 4 0.000000 0.000000 0.000000 0.027078 0.000000 0.000000
# 5 0.000000 0.000000 0.000000 0.000000 0.058080 0.000000
# 6 0.000000 0.000000 0.000000 0.000000 0.000000 0.039888
#
#
# Mechanical properties :
#
#
# Convention : Reuss Voigt Hill
#
# Bulk Modulus (GPa) = 39.25436 56.79559 48.02498
# Shear Modulus (GPa) = 20.75762 24.66502 22.71132
#
# Velocity S-wave (km/s) = 3.33458 3.63491 3.48798
# Velocity P-wave (km/s) = 5.98780 6.93116 6.47668
#
# Compressibility (1/GPa) = 0.02547488
#
# Stress axis : x y z
#
# Youngs Moduli (GPa) = 30.69678 82.93411 45.93164
#
# Poissons Ratio (x) = 0.50544 0.31851
# Poissons Ratio (y) = 0.18708 0.34158
# Poissons Ratio (z) = 0.21287 0.61675
#
# Static dielectric constant tensor:
#      x y z
#    x 3.280350 0.000000 0.000000 
#    y 0.000000 3.527560 0.000000 
#    z 0.000000 0.000000 3.405890 
# 
# 
# High freq. dielectric constant tensor:
#      x y z
#    x 1.709460 0.000000 0.000000 
#    y 0.000000 1.733900 0.000000 
#    z 0.000000 0.000000 1.724550 
# 
# From -- ./inp_files/9987.got.cif
#   From: 2010.06.25/outbox.cif.g09.slc.cpg/sg58_5_cif.got.tgz:9987.got - 2010.06.26 21:38:00.
