data_PCOD8237761
_publ_section_title
;
Structure prediction by ZEFSAII (Michael W. Deem and Ramdas Pophale) SiO2 
 PCOD8237761
Probable space group: P N N M
;
_chemical_formula_sum "Si O2"
_cell_formula_units_Z 64
_cell_length_a 22.157749
_cell_length_b 16.466679
_cell_length_c 8.988901
_cell_angle_alpha 90.000000
_cell_angle_beta 90.000000
_cell_angle_gamma 90.000000
_cell_volume 3279.731230
_symmetry_space_group_name_H-M "P N N M"
_symmetry_group_IT_number 58
_symmetry_cell_setting 'orthorhombic'
loop_
_space_group_symop_operation_xyz
x,y,z
-x,-y,z
1/2+x,1/2-y,1/2-z
1/2-x,1/2+y,1/2-z
-x,-y,-z
x,y,-z
1/2-x,1/2+y,1/2+z
1/2+x,1/2-y,1/2+z
loop_
_atom_site_type_symbol
_atom_site_label
_atom_site_fract_x
_atom_site_fract_y
_atom_site_fract_z
Si Si1 0.358596 0.345459 0.173401
Si Si2 0.003263 0.594677 0.673792
Si Si3 0.263189 0.095263 0.676120
Si Si4 0.643777 0.354877 0.328167
Si Si5 0.614313 0.818332 0.675776
Si Si6 0.569283 0.491700 0.828180
Si Si7 0.610513 0.172418 0.327064
Si Si8 0.732418 0.088051 0.676534
O O1 0.388346 0.273074 0.265159
O O2 0.398201 0.424199 0.206242
O O3 0.290726 0.361976 0.232300
O O4 0.359099 0.322515 0.000000
O O5 0.010671 0.611743 0.500000
O O6 0.943090 0.637622 0.729659
O O7 0.000000 0.500000 0.710764
O O8 0.060257 0.630074 0.758328
O O9 0.256062 0.094992 0.500000
O O10 0.207055 0.143198 0.743323
O O11 0.323559 0.140447 0.727772
O O12 0.265031 0.003512 0.739423
O O13 0.657525 0.370101 0.500000
O O14 0.597747 0.421893 0.270918
O O15 0.612870 0.268334 0.301509
O O16 0.607412 0.817622 0.500000
O O17 0.500000 0.500000 0.782943
O O18 0.577239 0.466998 0.000000
O O19 0.600159 0.150614 0.500000
O O20 0.672305 0.132311 0.266755
O O21 0.733791 0.084816 0.500000
#
# Coordination Sequence:
#
# PCOD8237761 Si02
#       8
#     8   8   8   8   8   8   8   8
#     4  10  20  38  62  88 122 160 201 250 300 356
#     4  11  25  44  64  89 121 157 200 248 299 354
#     4  10  20  38  62  88 119 161 205 243 293 362
#     4  11  23  38  60  92 125 158 198 254 306 350
#     4  11  24  39  62  92 124 159 199 248 300 361
#     4  10  22  40  63  88 119 165 209 245 298 364
#     4  10  22  39  61  89 120 158 201 244 302 361
#     4   9  17  35  62  86 115 158 202 243 292 355
#
# _framework density 19.513794000000001
#
# number of rings (size 3 to 8) (size 9 to 14) (size 15 to 20)
#    0.000    1.750    1.250    2.625    1.750    5.750 
#    0.000    1.250    0.000    0.000    0.000    0.000 
#    0.000    0.000    0.000    0.000    0.000    0.000 
#
# Total GULP energy -793919.844096 kJ/mol
# GULP energy per Si atom -12404.997564 kJ/mol
# Density = 1.946938 g / cm^3
# Si number density = 19.513794 Si / 1000 Ang^3
#
#
#
# Elastic Constant Matrix: (Units=GPa)
#
#
# Indices 1 2 3 4 5 6 
#
# 1 145.5251 54.0143 37.9160 0.0000 0.0000 0.0000
# 2 54.0143 109.3499 45.8274 0.0000 0.0000 0.0000
# 3 37.9160 45.8274 44.4127 0.0000 0.0000 0.0000
# 4 0.0000 0.0000 0.0000 24.0547 0.0000 0.0000
# 5 0.0000 0.0000 0.0000 0.0000 8.4343 0.0000
# 6 0.0000 0.0000 0.0000 0.0000 0.0000 27.9951
#
#
#
# Elastic Compliance Matrix: (Units=1/GPa)
#
#
# Indices 1 2 3 4 5 6 
#
# 1 0.009126 -0.002189 -0.005531 0.000000 0.000000 0.000000
# 2 -0.002189 0.016638 -0.015299 0.000000 0.000000 0.000000
# 3 -0.005531 -0.015299 0.043025 0.000000 0.000000 0.000000
# 4 0.000000 0.000000 0.000000 0.041572 0.000000 0.000000
# 5 0.000000 0.000000 0.000000 0.000000 0.118563 0.000000
# 6 0.000000 0.000000 0.000000 0.000000 0.000000 0.035721
#
#
# Mechanical properties :
#
#
# Convention : Reuss Voigt Hill
#
# Bulk Modulus (GPa) = 43.95868 63.86701 53.91285
# Shear Modulus (GPa) = 15.71014 22.86550 19.28782
#
# Velocity S-wave (km/s) = 2.84047 3.42681 3.14733
# Velocity P-wave (km/s) = 5.77352 6.96115 6.39497
#
# Compressibility (1/GPa) = 0.02274863
#
# Stress axis : x y z
#
# Youngs Moduli (GPa) = 109.58273 60.10319 23.24252
#
# Poissons Ratio (x) = 0.13159 0.12856
# Poissons Ratio (y) = 0.23993 0.35558
# Poissons Ratio (z) = 0.60615 0.91951
#
# Static dielectric constant tensor:
#      x y z
#    x 3.759190 0.000000 0.000000 
#    y 0.000000 3.673880 0.000000 
#    z 0.000000 0.000000 3.405480 
# 
# 
# High freq. dielectric constant tensor:
#      x y z
#    x 1.776230 0.000000 0.000000 
#    y 0.000000 1.774860 0.000000 
#    z 0.000000 0.000000 1.744390 
# 
# From -- ./inp_files/10080.got.cif
#   From: 2010.06.25/outbox.cif.g09.slc.cpg/sg58_6_cif.got.tgz:10080.got - 2010.06.26 21:38:00.
