data_PCOD8237994
_publ_section_title
;
Structure prediction by ZEFSAII (Michael W. Deem and Ramdas Pophale) SiO2 
 PCOD8237994
Probable space group: P N N M
;
_chemical_formula_sum "Si O2"
_cell_formula_units_Z 48
_cell_length_a 7.837231
_cell_length_b 9.963460
_cell_length_c 30.126629
_cell_angle_alpha 90.000000
_cell_angle_beta 90.000000
_cell_angle_gamma 90.000000
_cell_volume 2352.466072
_symmetry_space_group_name_H-M "P N N M"
_symmetry_group_IT_number 58
_symmetry_cell_setting 'orthorhombic'
loop_
_space_group_symop_operation_xyz
x,y,z
-x,-y,z
1/2+x,1/2-y,1/2-z
1/2-x,1/2+y,1/2-z
-x,-y,-z
x,y,-z
1/2-x,1/2+y,1/2+z
1/2+x,1/2-y,1/2+z
loop_
_atom_site_type_symbol
_atom_site_label
_atom_site_fract_x
_atom_site_fract_y
_atom_site_fract_z
Si Si1 0.743343 0.002160 0.808358
Si Si2 0.500000 0.500000 0.382110
Si Si3 0.478798 0.720137 0.550440
Si Si4 0.622606 0.683535 0.082983
Si Si5 0.500000 0.500000 0.232062
Si Si6 0.214943 0.091528 0.550005
Si Si7 0.003406 0.728776 0.322049
O O1 0.839917 0.033080 0.762898
O O2 0.671152 0.144634 0.826472
O O3 0.852514 0.947407 0.849651
O O4 0.618261 0.879743 0.795620
O O5 0.440106 0.382160 0.414659
O O6 0.502796 0.668690 0.500000
O O7 0.276868 0.738244 0.558963
O O8 0.595500 0.851587 0.557835
O O9 0.441144 0.697969 0.056901
O O10 0.682686 0.528159 0.084818
O O11 0.594390 0.740066 0.131770
O O12 0.468619 0.632161 0.202879
O O13 0.203766 0.033625 0.500000
#
# Coordination Sequence:
#
# PCOD8237994 Si02
#       7
#     8   4   8   8   4   8   8
#     4  10  23  41  63  86 126 162 194 251 327 377
#     4  11  21  40  57  82 118 170 207 254 309 377
#     4  11  22  37  59  88 124 169 220 261 307 368
#     4  11  20  37  61  87 122 160 205 253 322 373
#     4  11  22  40  69  92 118 152 205 256 310 381
#     4  10  21  36  57  88 124 161 207 270 320 356
#     4  11  22  40  63  92 121 158 202 251 310 388
#
# _framework density 20.404121
#
# number of rings (size 3 to 8) (size 9 to 14) (size 15 to 20)
#    0.000    1.333    1.667    5.750    0.000    1.333 
#    0.000    0.000    3.667    4.000    0.000    0.000 
#    0.000    0.000    0.000    0.000    0.000    0.000 
#
# Total GULP energy -594769.320001 kJ/mol
# GULP energy per Si atom -12391.027500 kJ/mol
# Density = 2.035768 g / cm^3
# Si number density = 20.404121 Si / 1000 Ang^3
#
#
#
# Elastic Constant Matrix: (Units=GPa)
#
#
# Indices 1 2 3 4 5 6 
#
# 1 79.4276 22.9903 29.0155 0.0000 0.0000 0.0000
# 2 22.9903 106.3877 40.4077 0.0000 0.0000 0.0000
# 3 29.0155 40.4077 91.1279 0.0000 0.0000 0.0000
# 4 0.0000 0.0000 0.0000 31.6456 0.0000 0.0000
# 5 0.0000 0.0000 0.0000 0.0000 25.0318 0.0000
# 6 0.0000 0.0000 0.0000 0.0000 0.0000 29.9353
#
#
#
# Elastic Compliance Matrix: (Units=1/GPa)
#
#
# Indices 1 2 3 4 5 6 
#
# 1 0.014486 -0.001658 -0.003877 0.000000 0.000000 0.000000
# 2 -0.001658 0.011493 -0.004568 0.000000 0.000000 0.000000
# 3 -0.003877 -0.004568 0.014234 0.000000 0.000000 0.000000
# 4 0.000000 0.000000 0.000000 0.031600 0.000000 0.000000
# 5 0.000000 0.000000 0.000000 0.000000 0.039949 0.000000
# 6 0.000000 0.000000 0.000000 0.000000 0.000000 0.033405
#
#
# Mechanical properties :
#
#
# Convention : Reuss Voigt Hill
#
# Bulk Modulus (GPa) = 49.98479 51.30781 50.64630
# Shear Modulus (GPa) = 29.06240 29.62451 29.34345
#
# Velocity S-wave (km/s) = 3.77814 3.81450 3.79636
# Velocity P-wave (km/s) = 6.60174 6.67839 6.64018
#
# Compressibility (1/GPa) = 0.02000609
#
# Stress axis : x y z
#
# Youngs Moduli (GPa) = 69.03036 87.00987 70.25503
#
# Poissons Ratio (x) = 0.14424 0.27241
# Poissons Ratio (y) = 0.11444 0.32095
# Poissons Ratio (z) = 0.26766 0.39749
#
# Static dielectric constant tensor:
#      x y z
#    x 3.989380 0.000000 0.000000 
#    y 0.000000 3.612810 0.000000 
#    z 0.000000 0.000000 3.591310 
# 
# 
# High freq. dielectric constant tensor:
#      x y z
#    x 1.808470 0.000000 0.000000 
#    y 0.000000 1.788750 0.000000 
#    z 0.000000 0.000000 1.793920 
# 
# From -- ./inp_files/34610.got.cif
#   From: 2010.06.25/outbox.cif.g09.slc.cpg/sg58_18_cif.got.tgz:34610.got - 2010.06.26 21:38:00.
