data_PCOD8237891
_publ_section_title
;
Structure prediction by ZEFSAII (Michael W. Deem and Ramdas Pophale) SiO2 
 PCOD8237891
Probable space group: P N N M
;
_chemical_formula_sum "Si O2"
_cell_formula_units_Z 56
_cell_length_a 14.135377
_cell_length_b 9.202048
_cell_length_c 24.430029
_cell_angle_alpha 90.000000
_cell_angle_beta 90.000000
_cell_angle_gamma 90.000000
_cell_volume 3177.721795
_symmetry_space_group_name_H-M "P N N M"
_symmetry_group_IT_number 58
_symmetry_cell_setting 'orthorhombic'
loop_
_space_group_symop_operation_xyz
x,y,z
-x,-y,z
1/2+x,1/2-y,1/2-z
1/2-x,1/2+y,1/2-z
-x,-y,-z
x,y,-z
1/2-x,1/2+y,1/2+z
1/2+x,1/2-y,1/2+z
loop_
_atom_site_type_symbol
_atom_site_label
_atom_site_fract_x
_atom_site_fract_y
_atom_site_fract_z
Si Si1 0.999467 0.340061 0.757117
Si Si2 0.223462 0.680321 0.351584
Si Si3 0.593523 0.308085 0.063286
Si Si4 0.623433 0.636176 0.937807
Si Si5 0.187816 0.828735 0.243322
Si Si6 0.358330 0.875660 0.164760
Si Si7 0.408034 0.580801 0.314184
O O1 0.043055 0.339797 0.695501
O O2 0.065146 0.237968 0.792996
O O3 0.000000 0.500000 0.782861
O O4 0.891118 0.294496 0.761811
O O5 0.197423 0.765353 0.405868
O O6 0.229564 0.802363 0.303690
O O7 0.149347 0.550685 0.339034
O O8 0.326809 0.605127 0.359689
O O9 0.481224 0.302240 0.071280
O O10 0.629821 0.468012 0.080033
O O11 0.641481 0.192192 0.103884
O O12 0.619659 0.271395 0.000000
O O13 0.654203 0.650016 0.000000
O O14 0.269676 0.809077 0.198288
O O15 0.136574 0.985624 0.236091
O O16 0.500000 0.500000 0.339518
#
# Coordination Sequence:
#
# PCOD8237891 Si02
#       7
#     8   8   8   8   8   8   8
#     4  11  20  33  50  74 109 137 177 217 257 311
#     4  11  20  34  53  77 107 141 180 224 262 320
#     4   9  20  37  53  74 106 142 176 217 271 325
#     4   9  20  36  54  76 102 139 183 219 264 326
#     4  10  21  34  49  76 108 141 176 211 268 323
#     4  11  22  33  50  78 109 139 177 219 261 313
#     4   9  21  36  50  71 108 150 173 217 272 324
#
# _framework density 17.622688
#
# number of rings (size 3 to 8) (size 9 to 14) (size 15 to 20)
#    0.000    2.000    2.857    1.714    2.000    1.714 
#    0.000    1.429    0.000    0.429    0.000    3.000 
#    0.000   21.714    0.000    0.000    0.000    0.000 
#
# Total GULP energy -694039.268916 kJ/mol
# GULP energy per Si atom -12393.558374 kJ/mol
# Density = 1.758258 g / cm^3
# Si number density = 17.622688 Si / 1000 Ang^3
#
#
#
# Elastic Constant Matrix: (Units=GPa)
#
#
# Indices 1 2 3 4 5 6 
#
# 1 87.4346 42.3682 37.9577 0.0000 0.0000 0.0000
# 2 42.3682 103.2572 45.1040 0.0000 0.0000 0.0000
# 3 37.9577 45.1040 78.2657 0.0000 0.0000 0.0000
# 4 0.0000 0.0000 0.0000 28.9305 0.0000 0.0000
# 5 0.0000 0.0000 0.0000 0.0000 25.8548 0.0000
# 6 0.0000 0.0000 0.0000 0.0000 0.0000 27.3550
#
#
#
# Elastic Compliance Matrix: (Units=1/GPa)
#
#
# Indices 1 2 3 4 5 6 
#
# 1 0.015726 -0.004171 -0.005223 0.000000 0.000000 0.000000
# 2 -0.004171 0.014049 -0.006073 0.000000 0.000000 0.000000
# 3 -0.005223 -0.006073 0.018810 0.000000 0.000000 0.000000
# 4 0.000000 0.000000 0.000000 0.034566 0.000000 0.000000
# 5 0.000000 0.000000 0.000000 0.000000 0.038678 0.000000
# 6 0.000000 0.000000 0.000000 0.000000 0.000000 0.036556
#
#
# Mechanical properties :
#
#
# Convention : Reuss Voigt Hill
#
# Bulk Modulus (GPa) = 56.65760 57.75746 57.20753
# Shear Modulus (GPa) = 25.61441 25.99656 25.80548
#
# Velocity S-wave (km/s) = 3.81660 3.84497 3.83081
# Velocity P-wave (km/s) = 7.18624 7.24964 7.21801
#
# Compressibility (1/GPa) = 0.01764988
#
# Stress axis : x y z
#
# Youngs Moduli (GPa) = 63.59004 71.17974 53.16287
#
# Poissons Ratio (x) = 0.29690 0.27767
# Poissons Ratio (y) = 0.26524 0.32288
# Poissons Ratio (z) = 0.33213 0.43230
#
# Static dielectric constant tensor:
#      x y z
#    x 3.393430 0.000000 0.000000 
#    y 0.000000 3.421260 0.000000 
#    z 0.000000 0.000000 2.973660 
# 
# 
# High freq. dielectric constant tensor:
#      x y z
#    x 1.683090 0.000000 0.000000 
#    y 0.000000 1.694670 0.000000 
#    z 0.000000 0.000000 1.641290 
# 
# From -- ./inp_files/28971.got.cif
#   From: 2010.06.25/outbox.cif.g09.slc.cpg/sg58_15_cif.got.tgz:28971.got - 2010.06.26 21:38:00.
