data_PCOD8237211
_publ_section_title
;
Structure prediction by ZEFSAII (Michael W. Deem and Ramdas Pophale) SiO2 
 PCOD8237211
Probable space group: P N N M
;
_chemical_formula_sum "Si O2"
_cell_formula_units_Z 56
_cell_length_a 16.125627
_cell_length_b 19.670701
_cell_length_c 9.442704
_cell_angle_alpha 90.000000
_cell_angle_beta 90.000000
_cell_angle_gamma 90.000000
_cell_volume 2995.248250
_symmetry_space_group_name_H-M "P N N M"
_symmetry_group_IT_number 58
_symmetry_cell_setting 'orthorhombic'
loop_
_space_group_symop_operation_xyz
x,y,z
-x,-y,z
1/2+x,1/2-y,1/2-z
1/2-x,1/2+y,1/2-z
-x,-y,-z
x,y,-z
1/2-x,1/2+y,1/2+z
1/2+x,1/2-y,1/2+z
loop_
_atom_site_type_symbol
_atom_site_label
_atom_site_fract_x
_atom_site_fract_y
_atom_site_fract_z
Si Si1 0.797958 0.622199 0.836040
Si Si2 0.402904 0.005162 0.332445
Si Si3 0.117247 0.024206 0.844976
Si Si4 0.480800 0.660332 0.656451
Si Si5 0.285059 0.099587 0.834087
Si Si6 0.892078 0.098336 0.663085
Si Si7 0.683311 0.272453 0.330473
O O1 0.859418 0.564332 0.774382
O O2 0.704788 0.600999 0.808074
O O3 0.806471 0.696963 0.766172
O O4 0.818933 0.630283 0.000000
O O5 0.387987 0.014093 0.500000
O O6 0.500000 0.000000 0.295630
O O7 0.363480 0.071159 0.254797
O O8 0.052275 0.084316 0.855167
O O9 0.208139 0.050335 0.802465
O O10 0.081087 0.973397 0.728314
O O11 0.122151 0.988446 0.000000
O O12 0.506619 0.686896 0.500000
O O13 0.560690 0.660739 0.759394
O O14 0.407506 0.705318 0.724133
O O15 0.256935 0.175632 0.781872
O O16 0.308679 0.100382 0.000000
O O17 0.916304 0.101653 0.500000
O O18 0.683434 0.275293 0.500000
#
# Coordination Sequence:
#
# PCOD8237211 Si02
#       7
#     8   8   8   8   8   8   8
#     4   9  18  34  53  73 102 140 175 208 255 315
#     4  10  20  35  55  79 107 139 175 215 261 317
#     4   9  17  30  49  72  99 129 162 203 246 294
#     4   9  18  32  50  72  98 130 170 210 246 295
#     4   9  17  32  56  79  97 127 174 222 260 298
#     4  11  20  29  47  75 104 133 163 199 253 310
#     4   8  16  34  56  73  96 138 182 213 254 315
#
# _framework density 18.696280999999999
#
# number of rings (size 3 to 8) (size 9 to 14) (size 15 to 20)
#    0.000    2.714    1.429    2.571    0.000    2.571 
#    2.571    2.143    0.000    4.286    0.000    0.000 
#    0.000    0.000    0.000    0.000    0.000    0.000 
#
# Total GULP energy -693903.912632 kJ/mol
# GULP energy per Si atom -12391.141297 kJ/mol
# Density = 1.865373 g / cm^3
# Si number density = 18.696281 Si / 1000 Ang^3
#
#
#
# Elastic Constant Matrix: (Units=GPa)
#
#
# Indices 1 2 3 4 5 6 
#
# 1 47.8863 17.0527 38.6323 0.0000 0.0000 0.0000
# 2 17.0527 93.3777 21.9893 0.0000 0.0000 0.0000
# 3 38.6323 21.9893 50.7466 0.0000 0.0000 0.0000
# 4 0.0000 0.0000 0.0000 13.9358 0.0000 0.0000
# 5 0.0000 0.0000 0.0000 0.0000 27.4710 0.0000
# 6 0.0000 0.0000 0.0000 0.0000 0.0000 3.1716
#
#
#
# Elastic Compliance Matrix: (Units=1/GPa)
#
#
# Indices 1 2 3 4 5 6 
#
# 1 0.054127 -0.000202 -0.041118 0.000000 0.000000 0.000000
# 2 -0.000202 0.011927 -0.005014 0.000000 0.000000 0.000000
# 3 -0.041118 -0.005014 0.053181 0.000000 0.000000 0.000000
# 4 0.000000 0.000000 0.000000 0.071757 0.000000 0.000000
# 5 0.000000 0.000000 0.000000 0.000000 0.036402 0.000000
# 6 0.000000 0.000000 0.000000 0.000000 0.000000 0.315301
#
#
# Mechanical properties :
#
#
# Convention : Reuss Voigt Hill
#
# Bulk Modulus (GPa) = 37.64239 38.59548 38.11893
# Shear Modulus (GPa) = 7.76134 16.53809 12.14972
#
# Velocity S-wave (km/s) = 2.03968 2.97739 2.55197
# Velocity P-wave (km/s) = 5.07192 5.70158 5.39594
#
# Compressibility (1/GPa) = 0.02656580
#
# Stress axis : x y z
#
# Youngs Moduli (GPa) = 18.47517 83.84411 18.80378
#
# Poissons Ratio (x) = 0.01693 0.77317
# Poissons Ratio (y) = 0.00373 0.09429
# Poissons Ratio (z) = 0.75966 0.42043
#
# Static dielectric constant tensor:
#      x y z
#    x 3.494560 0.000000 0.000000 
#    y 0.000000 3.822400 0.000000 
#    z 0.000000 0.000000 3.222060 
# 
# 
# High freq. dielectric constant tensor:
#      x y z
#    x 1.727900 0.000000 0.000000 
#    y 0.000000 1.714570 0.000000 
#    z 0.000000 0.000000 1.690140 
# 
# From -- ./inp_files/8154.got.cif
#   From: 2010.06.25/outbox.cif.g09.slc.cpg/sg58_5_cif.got.tgz:8154.got - 2010.06.26 21:38:00.
