data_PCOD8237045
_publ_section_title
;
Structure prediction by ZEFSAII (Michael W. Deem and Ramdas Pophale) SiO2 
 PCOD8237045
Probable space group: P N N M
;
_chemical_formula_sum "Si O2"
_cell_formula_units_Z 64
_cell_length_a 9.536339
_cell_length_b 17.792261
_cell_length_c 21.045259
_cell_angle_alpha 90.000000
_cell_angle_beta 90.000000
_cell_angle_gamma 90.000000
_cell_volume 3570.812914
_symmetry_space_group_name_H-M "P N N M"
_symmetry_group_IT_number 58
_symmetry_cell_setting 'orthorhombic'
loop_
_space_group_symop_operation_xyz
x,y,z
-x,-y,z
1/2+x,1/2-y,1/2-z
1/2-x,1/2+y,1/2-z
-x,-y,-z
x,y,-z
1/2-x,1/2+y,1/2+z
1/2+x,1/2-y,1/2+z
loop_
_atom_site_type_symbol
_atom_site_label
_atom_site_fract_x
_atom_site_fract_y
_atom_site_fract_z
Si Si1 0.261409 0.694742 0.573930
Si Si2 0.541452 0.649961 0.641493
Si Si3 0.728555 0.701034 0.185297
Si Si4 0.381609 0.447619 0.236426
Si Si5 0.155791 0.969574 0.930059
Si Si6 0.107111 0.559505 0.616113
Si Si7 0.617183 0.948314 0.257609
Si Si8 0.449755 0.210340 0.717555
O O1 0.295725 0.711824 0.500000
O O2 0.387243 0.651773 0.610276
O O3 0.235738 0.772982 0.611439
O O4 0.127377 0.637978 0.577904
O O5 0.550952 0.592767 0.701628
O O6 0.651078 0.618484 0.589507
O O7 0.590935 0.733300 0.660392
O O8 0.673518 0.615469 0.187400
O O9 0.616123 0.756263 0.218087
O O10 0.879977 0.705704 0.220904
O O11 0.500000 0.500000 0.204106
O O12 0.259237 0.506723 0.250619
O O13 0.245528 0.016210 0.880450
O O14 0.220940 0.978466 0.000000
O O15 0.000000 0.000000 0.926496
O O16 0.059075 0.576854 0.688034
O O17 0.000000 0.500000 0.582994
O O18 0.623387 0.870153 0.297040
O O19 0.500000 0.000000 0.291167
#
# Coordination Sequence:
#
# PCOD8237045 Si02
#       8
#     8   8   8   8   8   8   8   8
#     4  11  21  37  57  76 109 151 189 224 265 322
#     4  10  20  34  52  80 105 140 183 226 265 313
#     4  10  22  37  53  85 109 143 184 226 281 328
#     4  11  21  34  57  80 114 139 181 231 278 331
#     4  11  20  32  49  71 103 144 185 215 248 310
#     4  11  22  32  49  74 109 141 182 207 258 318
#     4  11  20  35  53  78 109 151 177 219 281 332
#     4  10  21  34  54  77 115 140 181 229 276 331
#
# _framework density 17.923089999999998
#
# number of rings (size 3 to 8) (size 9 to 14) (size 15 to 20)
#    0.000    1.375    5.000    1.875    3.500    1.000 
#    0.000    0.000    0.000    0.375    0.000    7.875 
#    0.000    0.000    0.000    0.000    0.000    0.000 
#
# Total GULP energy -792858.761402 kJ/mol
# GULP energy per Si atom -12388.418147 kJ/mol
# Density = 1.788230 g / cm^3
# Si number density = 17.923090 Si / 1000 Ang^3
#
#
#
# Elastic Constant Matrix: (Units=GPa)
#
#
# Indices 1 2 3 4 5 6 
#
# 1 69.7251 45.8663 32.3524 0.0000 0.0000 0.0000
# 2 45.8663 135.9337 45.0875 0.0000 0.0000 0.0000
# 3 32.3524 45.0875 67.6126 0.0000 0.0000 0.0000
# 4 0.0000 0.0000 0.0000 16.3974 0.0000 0.0000
# 5 0.0000 0.0000 0.0000 0.0000 13.5681 0.0000
# 6 0.0000 0.0000 0.0000 0.0000 0.0000 33.8031
#
#
#
# Elastic Compliance Matrix: (Units=1/GPa)
#
#
# Indices 1 2 3 4 5 6 
#
# 1 0.020546 -0.004715 -0.006687 0.000000 0.000000 0.000000
# 2 -0.004715 0.010528 -0.004764 0.000000 0.000000 0.000000
# 3 -0.006687 -0.004764 0.021167 0.000000 0.000000 0.000000
# 4 0.000000 0.000000 0.000000 0.060985 0.000000 0.000000
# 5 0.000000 0.000000 0.000000 0.000000 0.073702 0.000000
# 6 0.000000 0.000000 0.000000 0.000000 0.000000 0.029583
#
#
# Mechanical properties :
#
#
# Convention : Reuss Voigt Hill
#
# Bulk Modulus (GPa) = 50.23034 57.76487 53.99761
# Shear Modulus (GPa) = 19.57095 22.75141 21.16118
#
# Velocity S-wave (km/s) = 3.30804 3.56672 3.43981
# Velocity P-wave (km/s) = 6.53277 7.01863 6.78006
#
# Compressibility (1/GPa) = 0.01990829
#
# Stress axis : x y z
#
# Youngs Moduli (GPa) = 48.67050 94.98851 47.24274
#
# Poissons Ratio (x) = 0.44783 0.31594
# Poissons Ratio (y) = 0.22946 0.22509
# Poissons Ratio (z) = 0.32548 0.45257
#
# Static dielectric constant tensor:
#      x y z
#    x 3.398710 0.000000 0.000000 
#    y 0.000000 3.581960 0.000000 
#    z 0.000000 0.000000 3.096410 
# 
# 
# High freq. dielectric constant tensor:
#      x y z
#    x 1.693790 0.000000 0.000000 
#    y 0.000000 1.701390 0.000000 
#    z 0.000000 0.000000 1.646760 
# 
# From -- ./inp_files/31694.got.cif
#   From: 2010.06.25/outbox.cif.g09.slc.cpg/sg58_16_cif.got.tgz:31694.got - 2010.06.26 21:38:00.
