data_PCOD8237311
_publ_section_title
;
Structure prediction by ZEFSAII (Michael W. Deem and Ramdas Pophale) SiO2 
 PCOD8237311
Probable space group: P N N M
;
_chemical_formula_sum "Si O2"
_cell_formula_units_Z 40
_cell_length_a 13.824337
_cell_length_b 11.730667
_cell_length_c 13.257543
_cell_angle_alpha 90.000000
_cell_angle_beta 90.000000
_cell_angle_gamma 90.000000
_cell_volume 2149.958432
_symmetry_space_group_name_H-M "P N N M"
_symmetry_group_IT_number 58
_symmetry_cell_setting 'orthorhombic'
loop_
_space_group_symop_operation_xyz
x,y,z
-x,-y,z
1/2+x,1/2-y,1/2-z
1/2-x,1/2+y,1/2-z
-x,-y,-z
x,y,-z
1/2-x,1/2+y,1/2+z
1/2+x,1/2-y,1/2+z
loop_
_atom_site_type_symbol
_atom_site_label
_atom_site_fract_x
_atom_site_fract_y
_atom_site_fract_z
Si Si1 0.457021 0.876351 0.390566
Si Si2 0.809743 0.728443 0.613038
Si Si3 0.612215 0.023210 0.205029
Si Si4 0.876151 0.279196 0.236092
Si Si5 0.498863 0.632851 0.118324
O O1 0.418719 0.830062 0.500000
O O2 0.373798 0.895517 0.305738
O O3 0.540297 0.793363 0.348000
O O4 0.500000 0.000000 0.409362
O O5 0.778663 0.761676 0.500000
O O6 0.845887 0.596658 0.613099
O O7 0.717959 0.728584 0.684880
O O8 0.895421 0.812964 0.649507
O O9 0.500000 0.000000 0.185167
O O10 0.660371 0.899689 0.216772
O O11 0.914287 0.195066 0.322857
O O12 0.500000 0.500000 0.147786
O O13 0.518248 0.650976 0.000000
#
# Coordination Sequence:
#
# PCOD8237311 Si02
#       5
#     8   8   8   8   8
#     4   8  14  29  52  78 105 135 172 218 271 321
#     4  11  22  36  59  85 109 148 191 230 283 339
#     4   9  18  35  54  82 107 145 182 232 280 322
#     4  10  20  35  58  82 115 142 186 232 280 329
#     4  10  22  40  59  81 115 155 189 230 285 342
#
# _framework density 18.605011000000001
#
# number of rings (size 3 to 8) (size 9 to 14) (size 15 to 20)
#    0.000    2.800    4.000    0.600    2.800    2.000 
#    0.000    1.000    0.000    2.400    0.000    0.000 
#    0.000    0.000    0.000    0.000    0.000    0.000 
#
# Total GULP energy -495547.079435 kJ/mol
# GULP energy per Si atom -12388.676986 kJ/mol
# Density = 1.856267 g / cm^3
# Si number density = 18.605011 Si / 1000 Ang^3
#
#
#
# Elastic Constant Matrix: (Units=GPa)
#
#
# Indices 1 2 3 4 5 6 
#
# 1 80.5675 44.4084 49.0894 0.0000 0.0000 0.0000
# 2 44.4084 111.6925 43.1240 0.0000 0.0000 0.0000
# 3 49.0894 43.1240 75.8365 0.0000 0.0000 0.0000
# 4 0.0000 0.0000 0.0000 35.2808 0.0000 0.0000
# 5 0.0000 0.0000 0.0000 0.0000 30.0364 0.0000
# 6 0.0000 0.0000 0.0000 0.0000 0.0000 20.8921
#
#
#
# Elastic Compliance Matrix: (Units=1/GPa)
#
#
# Indices 1 2 3 4 5 6 
#
# 1 0.021896 -0.004143 -0.011817 0.000000 0.000000 0.000000
# 2 -0.004143 0.012256 -0.004287 0.000000 0.000000 0.000000
# 3 -0.011817 -0.004287 0.023274 0.000000 0.000000 0.000000
# 4 0.000000 0.000000 0.000000 0.028344 0.000000 0.000000
# 5 0.000000 0.000000 0.000000 0.000000 0.033293 0.000000
# 6 0.000000 0.000000 0.000000 0.000000 0.000000 0.047865
#
#
# Mechanical properties :
#
#
# Convention : Reuss Voigt Hill
#
# Bulk Modulus (GPa) = 59.06766 60.14890 59.60828
# Shear Modulus (GPa) = 23.46687 26.00682 24.73685
#
# Velocity S-wave (km/s) = 3.55536 3.74283 3.65030
# Velocity P-wave (km/s) = 6.97648 7.14688 7.06219
#
# Compressibility (1/GPa) = 0.01692974
#
# Stress axis : x y z
#
# Youngs Moduli (GPa) = 45.67060 81.59446 42.96687
#
# Poissons Ratio (x) = 0.33805 0.50776
# Poissons Ratio (y) = 0.18922 0.18421
# Poissons Ratio (z) = 0.53971 0.34982
#
# Static dielectric constant tensor:
#      x y z
#    x 3.084670 0.000000 0.000000 
#    y 0.000000 3.498480 0.000000 
#    z 0.000000 0.000000 4.177490 
# 
# 
# High freq. dielectric constant tensor:
#      x y z
#    x 1.691640 0.000000 0.000000 
#    y 0.000000 1.715200 0.000000 
#    z 0.000000 0.000000 1.723530 
# 
# From -- ./inp_files/20904.got.cif
#   From: 2010.06.25/outbox.cif.g09.slc.cpg/sg58_11_cif.got.tgz:20904.got - 2010.06.26 21:38:00.
