data_PCOD8237341
_publ_section_title
;
Structure prediction by ZEFSAII (Michael W. Deem and Ramdas Pophale) SiO2 
 PCOD8237341
Probable space group: P N N M
;
_chemical_formula_sum "Si O2"
_cell_formula_units_Z 48
_cell_length_a 6.997129
_cell_length_b 12.857887
_cell_length_c 26.755544
_cell_angle_alpha 90.000000
_cell_angle_beta 90.000000
_cell_angle_gamma 90.000000
_cell_volume 2407.150649
_symmetry_space_group_name_H-M "P N N M"
_symmetry_group_IT_number 58
_symmetry_cell_setting 'orthorhombic'
loop_
_space_group_symop_operation_xyz
x,y,z
-x,-y,z
1/2+x,1/2-y,1/2-z
1/2-x,1/2+y,1/2-z
-x,-y,-z
x,y,-z
1/2-x,1/2+y,1/2+z
1/2+x,1/2-y,1/2+z
loop_
_atom_site_type_symbol
_atom_site_label
_atom_site_fract_x
_atom_site_fract_y
_atom_site_fract_z
Si Si1 0.272960 0.737674 0.559106
Si Si2 0.945675 0.883228 0.397643
Si Si3 0.604977 0.391927 0.644435
Si Si4 0.271263 0.249029 0.684635
Si Si5 0.065634 0.612824 0.273875
Si Si6 0.070185 0.603431 0.055723
O O1 0.243562 0.712754 0.500000
O O2 0.284181 0.632995 0.592018
O O3 0.473358 0.791120 0.574391
O O4 0.116474 0.815960 0.580775
O O5 0.839192 0.829308 0.351722
O O6 0.797426 0.889051 0.443269
O O7 0.000000 0.000000 0.380861
O O8 0.500000 0.500000 0.636695
O O9 0.449780 0.305022 0.658726
O O10 0.767400 0.400753 0.685950
O O11 0.353176 0.180869 0.729297
O O12 0.120970 0.333774 0.703163
O O13 0.000000 0.500000 0.253951
O O14 0.000000 0.500000 0.085888
O O15 0.991413 0.591390 0.000000
#
# Coordination Sequence:
#
# PCOD8237341 Si02
#       6
#     8   8   8   8   8   8
#     4  11  24  41  65  98 135 177 229 283 333 391
#     4  12  24  38  65 100 139 175 218 270 334 398
#     4  12  25  45  73  95 132 180 227 276 339 393
#     4  12  26  43  69 103 137 172 220 276 331 405
#     4  12  26  45  73 102 132 174 223 270 337 405
#     4  10  20  35  58  90 129 175 217 260 322 391
#
# _framework density 19.940587000000001
#
# number of rings (size 3 to 8) (size 9 to 14) (size 15 to 20)
#    0.000    0.500    8.333    0.500    0.000    5.000 
#    0.000    0.000    0.000    1.500    0.000    0.000 
#    0.000    0.000    0.000    0.000    0.000    0.000 
#
# Total GULP energy -594853.400114 kJ/mol
# GULP energy per Si atom -12392.779169 kJ/mol
# Density = 1.989520 g / cm^3
# Si number density = 19.940587 Si / 1000 Ang^3
#
#
#
# Elastic Constant Matrix: (Units=GPa)
#
#
# Indices 1 2 3 4 5 6 
#
# 1 103.2626 46.2282 26.9342 0.0000 0.0000 0.0000
# 2 46.2282 115.4034 50.5705 0.0000 0.0000 0.0000
# 3 26.9342 50.5705 93.1945 0.0000 0.0000 0.0000
# 4 0.0000 0.0000 0.0000 156.8153 0.0000 0.0000
# 5 0.0000 0.0000 0.0000 0.0000 47.5517 0.0000
# 6 0.0000 0.0000 0.0000 0.0000 0.0000 43.6027
#
#
#
# Elastic Compliance Matrix: (Units=1/GPa)
#
#
# Indices 1 2 3 4 5 6 
#
# 1 0.011888 -0.004273 -0.001117 0.000000 0.000000 0.000000
# 2 -0.004273 0.012904 -0.005767 0.000000 0.000000 0.000000
# 3 -0.001117 -0.005767 0.014183 0.000000 0.000000 0.000000
# 4 0.000000 0.000000 0.000000 0.006377 0.000000 0.000000
# 5 0.000000 0.000000 0.000000 0.000000 0.021030 0.000000
# 6 0.000000 0.000000 0.000000 0.000000 0.000000 0.022934
#
#
# Mechanical properties :
#
#
# Convention : Reuss Voigt Hill
#
# Bulk Modulus (GPa) = 60.02247 62.14737 61.08492
# Shear Modulus (GPa) = 42.66793 62.13579 52.40186
#
# Velocity S-wave (km/s) = 4.63076 5.58821 5.13187
# Velocity P-wave (km/s) = 7.66538 8.53647 8.11263
#
# Compressibility (1/GPa) = 0.01666043
#
# Stress axis : x y z
#
# Youngs Moduli (GPa) = 84.11706 77.49517 70.50813
#
# Poissons Ratio (x) = 0.33110 0.07879
# Poissons Ratio (y) = 0.35939 0.40665
# Poissons Ratio (z) = 0.09399 0.44694
#
# Static dielectric constant tensor:
#      x y z
#    x 3.845990 0.000000 0.000000 
#    y 0.000000 3.319580 0.000000 
#    z 0.000000 0.000000 3.604820 
# 
# 
# High freq. dielectric constant tensor:
#      x y z
#    x 1.798870 0.000000 0.000000 
#    y 0.000000 1.785000 0.000000 
#    z 0.000000 0.000000 1.775020 
# 
# From -- ./inp_files/32817.got.cif
#   From: 2010.06.25/outbox.cif.g09.slc.cpg/sg58_17_cif.got.tgz:32817.got - 2010.06.26 21:38:00.
