data_PCOD8237957
_publ_section_title
;
Structure prediction by ZEFSAII (Michael W. Deem and Ramdas Pophale) SiO2 
 PCOD8237957
Probable space group: P N N M
;
_chemical_formula_sum "Si O2"
_cell_formula_units_Z 64
_cell_length_a 18.676599
_cell_length_b 19.606728
_cell_length_c 9.161442
_cell_angle_alpha 90.000000
_cell_angle_beta 90.000000
_cell_angle_gamma 90.000000
_cell_volume 3354.800930
_symmetry_space_group_name_H-M "P N N M"
_symmetry_group_IT_number 58
_symmetry_cell_setting 'orthorhombic'
loop_
_space_group_symop_operation_xyz
x,y,z
-x,-y,z
1/2+x,1/2-y,1/2-z
1/2-x,1/2+y,1/2-z
-x,-y,-z
x,y,-z
1/2-x,1/2+y,1/2+z
1/2+x,1/2-y,1/2+z
loop_
_atom_site_type_symbol
_atom_site_label
_atom_site_fract_x
_atom_site_fract_y
_atom_site_fract_z
Si Si1 0.809710 0.237075 0.172210
Si Si2 0.714041 0.982237 0.168832
Si Si3 0.444719 0.056946 0.172252
Si Si4 0.047701 0.178124 0.833031
Si Si5 0.789943 0.841368 0.831068
Si Si6 0.042264 0.695160 0.833356
Si Si7 0.961073 0.066786 0.329524
Si Si8 0.299983 0.405177 0.171457
O O1 0.754892 0.294079 0.224712
O O2 0.888790 0.261550 0.216813
O O3 0.791409 0.167440 0.253061
O O4 0.802196 0.225727 0.000000
O O5 0.634973 0.962144 0.224057
O O6 0.766966 0.919082 0.193481
O O7 0.739631 0.045154 0.265742
O O8 0.712719 0.004688 0.000000
O O9 0.468762 0.128902 0.236459
O O10 0.500000 0.000000 0.228724
O O11 0.447696 0.064599 0.000000
O O12 0.128284 0.166054 0.780504
O O13 0.027596 0.257560 0.812408
O O14 0.992911 0.134051 0.740754
O O15 0.038298 0.155561 0.000000
O O16 0.778857 0.819551 0.000000
O O17 0.051731 0.671622 0.000000
O O18 0.975678 0.072365 0.500000
O O19 0.877175 0.062218 0.293105
O O20 0.000000 0.000000 0.264104
O O21 0.287813 0.395806 0.000000
#
# Coordination Sequence:
#
# PCOD8237957 Si02
#       8
#     8   8   8   8   8   8   8   8
#     4  11  22  38  61  85 115 155 199 243 291 350
#     4  10  21  38  59  85 119 156 197 245 296 355
#     4  10  22  40  63  89 117 154 200 247 298 356
#     4  10  21  37  58  87 119 150 193 242 291 350
#     4  10  21  38  61  88 118 155 196 242 297 354
#     4  10  21  38  60  86 116 153 195 243 294 349
#     4  10  21  36  54  81 117 154 193 237 284 341
#     4  11  23  37  58  86 118 156 197 240 291 351
#
# _framework density 19.077137
#
# number of rings (size 3 to 8) (size 9 to 14) (size 15 to 20)
#    0.000    1.750    2.500    1.500    0.000    4.500 
#    0.000    2.500    0.000    0.000    0.000    0.000 
#    0.000    0.000    0.000    0.000    0.000    0.000 
#
# Total GULP energy -793916.854787 kJ/mol
# GULP energy per Si atom -12404.950856 kJ/mol
# Density = 1.903372 g / cm^3
# Si number density = 19.077137 Si / 1000 Ang^3
#
#
#
# Elastic Constant Matrix: (Units=GPa)
#
#
# Indices 1 2 3 4 5 6 
#
# 1 100.0438 34.9037 27.6293 0.0000 0.0000 0.0000
# 2 34.9037 98.7424 34.0766 0.0000 0.0000 0.0000
# 3 27.6293 34.0766 47.1406 0.0000 0.0000 0.0000
# 4 0.0000 0.0000 0.0000 36.2725 0.0000 0.0000
# 5 0.0000 0.0000 0.0000 0.0000 41.4389 0.0000
# 6 0.0000 0.0000 0.0000 0.0000 0.0000 34.0873
#
#
#
# Elastic Compliance Matrix: (Units=1/GPa)
#
#
# Indices 1 2 3 4 5 6 
#
# 1 0.012370 -0.002492 -0.005448 0.000000 0.000000 0.000000
# 2 -0.002492 0.013996 -0.008656 0.000000 0.000000 0.000000
# 3 -0.005448 -0.008656 0.030664 0.000000 0.000000 0.000000
# 4 0.000000 0.000000 0.000000 0.027569 0.000000 0.000000
# 5 0.000000 0.000000 0.000000 0.000000 0.024132 0.000000
# 6 0.000000 0.000000 0.000000 0.000000 0.000000 0.029336
#
#
# Mechanical properties :
#
#
# Convention : Reuss Voigt Hill
#
# Bulk Modulus (GPa) = 41.95446 48.79400 45.37423
# Shear Modulus (GPa) = 27.90083 32.31424 30.10753
#
# Velocity S-wave (km/s) = 3.82845 4.12013 3.97697
# Velocity P-wave (km/s) = 6.44845 6.94743 6.70258
#
# Compressibility (1/GPa) = 0.02383537
#
# Stress axis : x y z
#
# Youngs Moduli (GPa) = 80.84192 71.45059 32.61156
#
# Poissons Ratio (x) = 0.17807 0.17768
# Poissons Ratio (y) = 0.20148 0.28230
# Poissons Ratio (z) = 0.44046 0.61850
#
# Static dielectric constant tensor:
#      x y z
#    x 3.657290 0.000000 0.000000 
#    y 0.000000 3.446830 0.000000 
#    z 0.000000 0.000000 3.410170 
# 
# 
# High freq. dielectric constant tensor:
#      x y z
#    x 1.747620 0.000000 0.000000 
#    y 0.000000 1.748270 0.000000 
#    z 0.000000 0.000000 1.737220 
# 
# From -- ./inp_files/9236.got.cif
#   From: 2010.06.25/outbox.cif.g09.slc.cpg/sg58_5_cif.got.tgz:9236.got - 2010.06.26 21:38:00.
