data_PCOD8237837
_publ_section_title
;
Structure prediction by ZEFSAII (Michael W. Deem and Ramdas Pophale) SiO2 
 PCOD8237837
Probable space group: P N N M
;
_chemical_formula_sum "Si O2"
_cell_formula_units_Z 64
_cell_length_a 15.275096
_cell_length_b 24.019381
_cell_length_c 8.662940
_cell_angle_alpha 90.000000
_cell_angle_beta 90.000000
_cell_angle_gamma 90.000000
_cell_volume 3178.418398
_symmetry_space_group_name_H-M "P N N M"
_symmetry_group_IT_number 58
_symmetry_cell_setting 'orthorhombic'
loop_
_space_group_symop_operation_xyz
x,y,z
-x,-y,z
1/2+x,1/2-y,1/2-z
1/2-x,1/2+y,1/2-z
-x,-y,-z
x,y,-z
1/2-x,1/2+y,1/2+z
1/2+x,1/2-y,1/2+z
loop_
_atom_site_type_symbol
_atom_site_label
_atom_site_fract_x
_atom_site_fract_y
_atom_site_fract_z
Si Si1 0.905550 0.770076 0.819986
Si Si2 0.250645 0.430106 0.817201
Si Si3 0.754895 0.196188 0.683005
Si Si4 0.599261 0.996360 0.181719
Si Si5 0.673484 0.877637 0.825022
Si Si6 0.350358 0.620688 0.177900
Si Si7 0.578011 0.765603 0.176146
Si Si8 0.400685 0.505820 0.318987
O O1 0.828445 0.730660 0.753618
O O2 0.911018 0.828208 0.728378
O O3 0.997334 0.740540 0.791067
O O4 0.891194 0.782244 0.000000
O O5 0.253189 0.366868 0.752987
O O6 0.161094 0.458031 0.760031
O O7 0.337721 0.461228 0.761050
O O8 0.250853 0.431205 0.000000
O O9 0.750035 0.195862 0.500000
O O10 0.843141 0.226863 0.737636
O O11 0.632631 0.935628 0.228138
O O12 0.500000 0.000000 0.243952
O O13 0.602518 0.006932 0.000000
O O14 0.750757 0.861256 0.708979
O O15 0.600778 0.830443 0.813752
O O16 0.710158 0.881229 0.000000
O O17 0.369179 0.567486 0.282279
O O18 0.366471 0.605993 0.000000
O O19 0.553495 0.749487 0.000000
O O20 0.500000 0.500000 0.257652
O O21 0.395126 0.494853 0.500000
#
# Coordination Sequence:
#
# PCOD8237837 Si02
#       8
#     8   8   8   8   8   8   8   8
#     4  11  23  42  64  90 125 167 208 253 307 364
#     4  11  23  40  62  91 124 163 206 254 310 367
#     4   9  21  41  61  84 124 166 198 246 312 364
#     4  10  22  39  61  90 123 165 208 251 307 367
#     4  10  20  39  65  87 122 164 204 254 309 365
#     4  12  24  40  65  94 123 159 207 260 311 368
#     4  10  21  40  63  90 121 162 207 252 307 366
#     4  11  25  44  65  91 123 162 206 255 313 375
#
# _framework density 20.135802000000002
#
# number of rings (size 3 to 8) (size 9 to 14) (size 15 to 20)
#    0.000    1.500    2.500    2.250    3.500    1.750 
#    0.000    2.500    0.000    0.000    0.000    0.000 
#    0.000    0.000    0.000    0.000    0.000    0.000 
#
# Total GULP energy -793822.149898 kJ/mol
# GULP energy per Si atom -12403.471092 kJ/mol
# Density = 2.008997 g / cm^3
# Si number density = 20.135802 Si / 1000 Ang^3
#
#
#
# Elastic Constant Matrix: (Units=GPa)
#
#
# Indices 1 2 3 4 5 6 
#
# 1 122.3143 33.9642 23.2013 0.0000 0.0000 0.0000
# 2 33.9642 127.2452 15.3562 0.0000 0.0000 0.0000
# 3 23.2013 15.3562 44.0811 0.0000 0.0000 0.0000
# 4 0.0000 0.0000 0.0000 23.1921 0.0000 0.0000
# 5 0.0000 0.0000 0.0000 0.0000 31.7228 0.0000
# 6 0.0000 0.0000 0.0000 0.0000 0.0000 28.6326
#
#
#
# Elastic Compliance Matrix: (Units=1/GPa)
#
#
# Indices 1 2 3 4 5 6 
#
# 1 0.009560 -0.002030 -0.004324 0.000000 0.000000 0.000000
# 2 -0.002030 0.008635 -0.001940 0.000000 0.000000 0.000000
# 3 -0.004324 -0.001940 0.025637 0.000000 0.000000 0.000000
# 4 0.000000 0.000000 0.000000 0.043118 0.000000 0.000000
# 5 0.000000 0.000000 0.000000 0.000000 0.031523 0.000000
# 6 0.000000 0.000000 0.000000 0.000000 0.000000 0.034925
#
#
# Mechanical properties :
#
#
# Convention : Reuss Voigt Hill
#
# Bulk Modulus (GPa) = 36.70560 48.74267 42.72414
# Shear Modulus (GPa) = 27.92254 31.45076 29.68665
#
# Velocity S-wave (km/s) = 3.72790 3.95642 3.84386
# Velocity P-wave (km/s) = 6.06615 6.71792 6.40034
#
# Compressibility (1/GPa) = 0.02724380
#
# Stress axis : x y z
#
# Youngs Moduli (GPa) = 104.60725 115.81164 39.00578
#
# Poissons Ratio (x) = 0.23507 0.16868
# Poissons Ratio (y) = 0.21233 0.07566
# Poissons Ratio (z) = 0.45237 0.22464
#
# Static dielectric constant tensor:
#      x y z
#    x 3.768510 0.000000 0.000000 
#    y 0.000000 3.835250 0.000000 
#    z 0.000000 0.000000 3.441450 
# 
# 
# High freq. dielectric constant tensor:
#      x y z
#    x 1.793650 0.000000 0.000000 
#    y 0.000000 1.800780 0.000000 
#    z 0.000000 0.000000 1.768700 
# 
# From -- ./inp_files/6795.got.cif
#   From: 2010.06.25/outbox.cif.g09.slc.cpg/sg58_4_cif.got.tgz:6795.got - 2010.06.26 21:38:00.
