data_PCOD8237090
_publ_section_title
;
Structure prediction by ZEFSAII (Michael W. Deem and Ramdas Pophale) SiO2 
 PCOD8237090
Probable space group: P N N M
;
_chemical_formula_sum "Si O2"
_cell_formula_units_Z 56
_cell_length_a 14.446297
_cell_length_b 21.402614
_cell_length_c 9.081950
_cell_angle_alpha 90.000000
_cell_angle_beta 90.000000
_cell_angle_gamma 90.000000
_cell_volume 2808.034665
_symmetry_space_group_name_H-M "P N N M"
_symmetry_group_IT_number 58
_symmetry_cell_setting 'orthorhombic'
loop_
_space_group_symop_operation_xyz
x,y,z
-x,-y,z
1/2+x,1/2-y,1/2-z
1/2-x,1/2+y,1/2-z
-x,-y,-z
x,y,-z
1/2-x,1/2+y,1/2+z
1/2+x,1/2-y,1/2+z
loop_
_atom_site_type_symbol
_atom_site_label
_atom_site_fract_x
_atom_site_fract_y
_atom_site_fract_z
Si Si1 0.673187 0.273529 0.672800
Si Si2 0.650338 0.465339 0.167376
Si Si3 0.520573 0.346931 0.167749
Si Si4 0.499557 0.070347 0.173622
Si Si5 0.797916 0.389254 0.328613
Si Si6 0.868714 0.088618 0.832254
Si Si7 0.325882 0.853112 0.831628
O O1 0.655077 0.270972 0.500000
O O2 0.578240 0.293260 0.751505
O O3 0.757121 0.321065 0.711179
O O4 0.700436 0.206109 0.732899
O O5 0.574730 0.411634 0.177140
O O6 0.746116 0.442889 0.238463
O O7 0.608468 0.523456 0.254514
O O8 0.669710 0.485390 0.000000
O O9 0.422939 0.355538 0.249918
O O10 0.502754 0.326030 0.000000
O O11 0.405697 0.107226 0.215335
O O12 0.585179 0.110887 0.235812
O O13 0.500000 0.000000 0.240893
O O14 0.512529 0.064795 0.000000
O O15 0.783213 0.404514 0.500000
O O16 0.759469 0.099652 0.822773
O O17 0.903520 0.085754 0.000000
O O18 0.343391 0.831501 0.000000
#
# Coordination Sequence:
#
# PCOD8237090 Si02
#       7
#     8   8   8   8   8   8   8
#     4  10  21  37  56  81 111 143 184 228 273 332
#     4  10  20  34  54  82 113 143 177 220 273 330
#     4  10  21  37  57  80 109 145 183 226 277 331
#     4   9  17  33  58  84 108 139 183 231 280 335
#     4   9  18  34  57  81 106 141 182 223 271 329
#     4  11  22  35  54  81 112 146 183 224 272 326
#     4  10  22  38  56  80 111 146 184 229 278 329
#
# _framework density 19.942774
#
# number of rings (size 3 to 8) (size 9 to 14) (size 15 to 20)
#    0.000    2.143    0.000    3.000    0.000    8.571 
#    0.000    2.143    0.000    1.714    0.000    0.000 
#    0.000    0.000    0.000    0.000    0.000    0.000 
#
# Total GULP energy -694580.029878 kJ/mol
# GULP energy per Si atom -12403.214819 kJ/mol
# Density = 1.989738 g / cm^3
# Si number density = 19.942774 Si / 1000 Ang^3
#
#
#
# Elastic Constant Matrix: (Units=GPa)
#
#
# Indices 1 2 3 4 5 6 
#
# 1 97.6473 12.8107 26.7514 0.0000 0.0000 0.0000
# 2 12.8107 79.4256 28.4440 0.0000 0.0000 0.0000
# 3 26.7514 28.4440 95.3791 0.0000 0.0000 0.0000
# 4 0.0000 0.0000 0.0000 29.4772 0.0000 0.0000
# 5 0.0000 0.0000 0.0000 0.0000 20.8627 0.0000
# 6 0.0000 0.0000 0.0000 0.0000 0.0000 23.6816
#
#
#
# Elastic Compliance Matrix: (Units=1/GPa)
#
#
# Indices 1 2 3 4 5 6 
#
# 1 0.011134 -0.000758 -0.002897 0.000000 0.000000 0.000000
# 2 -0.000758 0.014147 -0.004006 0.000000 0.000000 0.000000
# 3 -0.002897 -0.004006 0.012492 0.000000 0.000000 0.000000
# 4 0.000000 0.000000 0.000000 0.033924 0.000000 0.000000
# 5 0.000000 0.000000 0.000000 0.000000 0.047933 0.000000
# 6 0.000000 0.000000 0.000000 0.000000 0.000000 0.042227
#
#
# Mechanical properties :
#
#
# Convention : Reuss Voigt Hill
#
# Bulk Modulus (GPa) = 44.54282 45.38490 44.96386
# Shear Modulus (GPa) = 27.07630 28.43403 27.75517
#
# Velocity S-wave (km/s) = 3.68870 3.78005 3.73465
# Velocity P-wave (km/s) = 6.36599 6.46983 6.41812
#
# Compressibility (1/GPa) = 0.02245031
#
# Stress axis : x y z
#
# Youngs Moduli (GPa) = 89.81501 70.68395 80.05334
#
# Poissons Ratio (x) = 0.05361 0.23188
# Poissons Ratio (y) = 0.06812 0.32072
# Poissons Ratio (z) = 0.26016 0.28318
#
# Static dielectric constant tensor:
#      x y z
#    x 3.657910 0.000000 0.000000 
#    y 0.000000 3.521550 0.000000 
#    z 0.000000 0.000000 3.579080 
# 
# 
# High freq. dielectric constant tensor:
#      x y z
#    x 1.782220 0.000000 0.000000 
#    y 0.000000 1.772090 0.000000 
#    z 0.000000 0.000000 1.765710 
# 
# From -- ./inp_files/6444.got.cif
#   From: 2010.06.25/outbox.cif.g09.slc.cpg/sg58_4_cif.got.tgz:6444.got - 2010.06.26 21:38:00.
