data_PCOD8237538
_publ_section_title
;
Structure prediction by ZEFSAII (Michael W. Deem and Ramdas Pophale) SiO2 
 PCOD8237538
Probable space group: P N N M
;
_chemical_formula_sum "Si O2"
_cell_formula_units_Z 64
_cell_length_a 24.090034
_cell_length_b 15.442187
_cell_length_c 8.635188
_cell_angle_alpha 90.000000
_cell_angle_beta 90.000000
_cell_angle_gamma 90.000000
_cell_volume 3212.314200
_symmetry_space_group_name_H-M "P N N M"
_symmetry_group_IT_number 58
_symmetry_cell_setting 'orthorhombic'
loop_
_space_group_symop_operation_xyz
x,y,z
-x,-y,z
1/2+x,1/2-y,1/2-z
1/2-x,1/2+y,1/2-z
-x,-y,-z
x,y,-z
1/2-x,1/2+y,1/2+z
1/2+x,1/2-y,1/2+z
loop_
_atom_site_type_symbol
_atom_site_label
_atom_site_fract_x
_atom_site_fract_y
_atom_site_fract_z
Si Si1 0.184144 0.251978 0.183266
Si Si2 0.882343 0.154256 0.322192
Si Si3 0.762302 0.094819 0.683580
Si Si4 0.627153 0.828879 0.674408
Si Si5 0.007130 0.902127 0.180069
Si Si6 0.746234 0.902331 0.319628
Si Si7 0.438110 0.752059 0.181644
Si Si8 0.990025 0.404467 0.177248
O O1 0.219550 0.333396 0.251153
O O2 0.211136 0.161882 0.236559
O O3 0.121332 0.260389 0.238812
O O4 0.184843 0.253685 0.000000
O O5 0.895299 0.130115 0.500000
O O6 0.824237 0.117080 0.263215
O O7 0.880396 0.257049 0.305009
O O8 0.928966 0.118588 0.209052
O O9 0.756961 0.095960 0.500000
O O10 0.751057 0.999116 0.749482
O O11 0.629453 0.789332 0.500000
O O12 0.683030 0.878834 0.713650
O O13 0.575877 0.893594 0.688927
O O14 0.966790 0.838390 0.273027
O O15 0.992939 0.891308 0.000000
O O16 0.000000 0.000000 0.238215
O O17 0.761448 0.900514 0.500000
O O18 0.477182 0.832081 0.227421
O O19 0.428977 0.752797 0.000000
O O20 0.000000 0.500000 0.246313
O O21 0.010832 0.398135 0.000000
#
# Coordination Sequence:
#
# PCOD8237538 Si02
#       8
#     8   8   8   8   8   8   8   8
#     4  11  23  42  64  88 123 165 206 252 307 369
#     4  11  21  38  63  91 123 161 203 251 307 365
#     4   9  21  39  62  90 122 161 203 245 301 364
#     4  10  20  36  62  90 121 159 206 258 305 356
#     4  11  25  44  65  92 123 160 206 256 311 371
#     4  10  21  39  62  91 123 161 206 253 302 362
#     4  12  26  43  63  91 126 165 206 256 312 368
#     4  10  22  40  65  94 124 166 211 252 305 367
#
# _framework density 19.923331999999998
#
# number of rings (size 3 to 8) (size 9 to 14) (size 15 to 20)
#    0.000    1.500    2.500    2.250    3.500    1.250 
#    0.000    1.875    0.000    0.000    0.000    0.000 
#    0.000    0.000    0.000    0.000    0.000    0.000 
#
# Total GULP energy -793690.938293 kJ/mol
# GULP energy per Si atom -12401.420911 kJ/mol
# Density = 1.987799 g / cm^3
# Si number density = 19.923332 Si / 1000 Ang^3
#
#
#
# Elastic Constant Matrix: (Units=GPa)
#
#
# Indices 1 2 3 4 5 6 
#
# 1 115.8620 42.6620 6.2050 0.0000 0.0000 0.0000
# 2 42.6620 147.4067 18.2089 0.0000 0.0000 0.0000
# 3 6.2050 18.2089 45.1773 0.0000 0.0000 0.0000
# 4 0.0000 0.0000 0.0000 24.2124 0.0000 0.0000
# 5 0.0000 0.0000 0.0000 0.0000 9.5385 0.0000
# 6 0.0000 0.0000 0.0000 0.0000 0.0000 29.8411
#
#
#
# Elastic Compliance Matrix: (Units=1/GPa)
#
#
# Indices 1 2 3 4 5 6 
#
# 1 0.009662 -0.002770 -0.000210 0.000000 0.000000 0.000000
# 2 -0.002770 0.007934 -0.002817 0.000000 0.000000 0.000000
# 3 -0.000210 -0.002817 0.023299 0.000000 0.000000 0.000000
# 4 0.000000 0.000000 0.000000 0.041301 0.000000 0.000000
# 5 0.000000 0.000000 0.000000 0.000000 0.104839 0.000000
# 6 0.000000 0.000000 0.000000 0.000000 0.000000 0.033511
#
#
# Mechanical properties :
#
#
# Convention : Reuss Voigt Hill
#
# Bulk Modulus (GPa) = 34.13054 49.17754 41.65404
# Shear Modulus (GPa) = 20.66894 28.80974 24.73934
#
# Velocity S-wave (km/s) = 3.22440 3.80680 3.52764
# Velocity P-wave (km/s) = 5.57050 6.63771 6.12739
#
# Compressibility (1/GPa) = 0.02929927
#
# Stress axis : x y z
#
# Youngs Moduli (GPa) = 103.49452 126.04342 42.91949
#
# Poissons Ratio (x) = 0.34920 0.00903
# Poissons Ratio (y) = 0.28673 0.12091
# Poissons Ratio (z) = 0.02178 0.35509
#
# Static dielectric constant tensor:
#      x y z
#    x 3.743340 0.000000 0.000000 
#    y 0.000000 5.019730 0.000000 
#    z 0.000000 0.000000 3.473590 
# 
# 
# High freq. dielectric constant tensor:
#      x y z
#    x 1.793180 0.000000 0.000000 
#    y 0.000000 1.786430 0.000000 
#    z 0.000000 0.000000 1.762170 
# 
# From -- ./inp_files/10073.got.cif
#   From: 2010.06.25/outbox.cif.g09.slc.cpg/sg58_6_cif.got.tgz:10073.got - 2010.06.26 21:38:00.
