data_PCOD8237503
_publ_section_title
;
Structure prediction by ZEFSAII (Michael W. Deem and Ramdas Pophale) SiO2 
 PCOD8237503
Probable space group: P N N M
;
_chemical_formula_sum "Si O2"
_cell_formula_units_Z 56
_cell_length_a 16.186921
_cell_length_b 19.797311
_cell_length_c 8.909515
_cell_angle_alpha 90.000000
_cell_angle_beta 90.000000
_cell_angle_gamma 90.000000
_cell_volume 2855.120985
_symmetry_space_group_name_H-M "P N N M"
_symmetry_group_IT_number 58
_symmetry_cell_setting 'orthorhombic'
loop_
_space_group_symop_operation_xyz
x,y,z
-x,-y,z
1/2+x,1/2-y,1/2-z
1/2-x,1/2+y,1/2-z
-x,-y,-z
x,y,-z
1/2-x,1/2+y,1/2+z
1/2+x,1/2-y,1/2+z
loop_
_atom_site_type_symbol
_atom_site_label
_atom_site_fract_x
_atom_site_fract_y
_atom_site_fract_z
Si Si1 0.803090 0.622129 0.322883
Si Si2 0.808359 0.230651 0.326216
Si Si3 0.149117 0.635322 0.826556
Si Si4 0.560416 0.442889 0.822133
Si Si5 0.963616 0.664415 0.174957
Si Si6 0.004192 0.800224 0.325054
Si Si7 0.239827 0.010327 0.324739
O O1 0.806549 0.622227 0.500000
O O2 0.758895 0.689929 0.267448
O O3 0.895836 0.619286 0.258807
O O4 0.753001 0.557411 0.267520
O O5 0.784140 0.227267 0.500000
O O6 0.806463 0.308152 0.273377
O O7 0.897940 0.198420 0.296071
O O8 0.187626 0.562961 0.787632
O O9 0.052143 0.631119 0.788969
O O10 0.163822 0.654570 0.000000
O O11 0.500000 0.500000 0.754016
O O12 0.532895 0.369853 0.761213
O O13 0.653641 0.457379 0.771586
O O14 0.551834 0.442198 0.000000
O O15 0.960438 0.741034 0.232962
O O16 0.943489 0.663909 0.000000
O O17 0.984354 0.788868 0.500000
O O18 0.237299 0.991526 0.500000
#
# Coordination Sequence:
#
# PCOD8237503 Si02
#       7
#     8   8   8   8   8   8   8
#     4  12  25  39  57  82 114 152 200 248 296 348
#     4  10  20  36  60  87 119 154 192 239 289 347
#     4   9  20  38  60  87 118 153 192 239 295 358
#     4   9  17  31  55  85 117 152 190 229 275 342
#     4  10  21  38  58  83 114 149 193 242 297 351
#     4   9  18  34  58  88 117 150 191 233 283 346
#     4  10  21  38  59  84 115 154 194 235 293 354
#
# _framework density 19.613880000000002
#
# number of rings (size 3 to 8) (size 9 to 14) (size 15 to 20)
#    0.000    2.143    0.000    3.000    2.000    4.571 
#    0.000    3.571    0.000    1.714    0.000    0.000 
#    0.000    0.000    0.000    0.000    0.000    0.000 
#
# Total GULP energy -694664.855689 kJ/mol
# GULP energy per Si atom -12404.729566 kJ/mol
# Density = 1.956924 g / cm^3
# Si number density = 19.613880 Si / 1000 Ang^3
#
#
#
# Elastic Constant Matrix: (Units=GPa)
#
#
# Indices 1 2 3 4 5 6 
#
# 1 83.8242 23.3026 31.8056 0.0000 0.0000 0.0000
# 2 23.3026 54.5515 26.3853 0.0000 0.0000 0.0000
# 3 31.8056 26.3853 82.1800 0.0000 0.0000 0.0000
# 4 0.0000 0.0000 0.0000 33.6491 0.0000 0.0000
# 5 0.0000 0.0000 0.0000 0.0000 21.3241 0.0000
# 6 0.0000 0.0000 0.0000 0.0000 0.0000 34.3866
#
#
#
# Elastic Compliance Matrix: (Units=1/GPa)
#
#
# Indices 1 2 3 4 5 6 
#
# 1 0.014750 -0.004190 -0.004363 0.000000 0.000000 0.000000
# 2 -0.004190 0.022892 -0.005728 0.000000 0.000000 0.000000
# 3 -0.004363 -0.005728 0.015696 0.000000 0.000000 0.000000
# 4 0.000000 0.000000 0.000000 0.029718 0.000000 0.000000
# 5 0.000000 0.000000 0.000000 0.000000 0.046895 0.000000
# 6 0.000000 0.000000 0.000000 0.000000 0.000000 0.029081
#
#
# Mechanical properties :
#
#
# Convention : Reuss Voigt Hill
#
# Bulk Modulus (GPa) = 40.36358 42.61585 41.48971
# Shear Modulus (GPa) = 25.52912 27.14277 26.33595
#
# Velocity S-wave (km/s) = 3.61166 3.72406 3.66829
# Velocity P-wave (km/s) = 6.16570 6.34555 6.25627
#
# Compressibility (1/GPa) = 0.02477481
#
# Stress axis : x y z
#
# Youngs Moduli (GPa) = 67.79575 43.68376 63.70976
#
# Poissons Ratio (x) = 0.18305 0.27798
# Poissons Ratio (y) = 0.28409 0.36493
# Poissons Ratio (z) = 0.29581 0.25022
#
# Static dielectric constant tensor:
#      x y z
#    x 3.718930 0.000000 0.000000 
#    y 0.000000 3.567460 0.000000 
#    z 0.000000 0.000000 3.409460 
# 
# 
# High freq. dielectric constant tensor:
#      x y z
#    x 1.774410 0.000000 0.000000 
#    y 0.000000 1.766470 0.000000 
#    z 0.000000 0.000000 1.746120 
# 
# From -- ./inp_files/6394.got.cif
#   From: 2010.06.25/outbox.cif.g09.slc.cpg/sg58_4_cif.got.tgz:6394.got - 2010.06.26 21:38:00.
