data_PCOD8237119
_publ_section_title
;
Structure prediction by ZEFSAII (Michael W. Deem and Ramdas Pophale) SiO2 
 PCOD8237119
Probable space group: P N N M
;
_chemical_formula_sum "Si O2"
_cell_formula_units_Z 64
_cell_length_a 11.067050
_cell_length_b 31.798363
_cell_length_c 9.714876
_cell_angle_alpha 90.000000
_cell_angle_beta 90.000000
_cell_angle_gamma 90.000000
_cell_volume 3418.801584
_symmetry_space_group_name_H-M "P N N M"
_symmetry_group_IT_number 58
_symmetry_cell_setting 'orthorhombic'
loop_
_space_group_symop_operation_xyz
x,y,z
-x,-y,z
1/2+x,1/2-y,1/2-z
1/2-x,1/2+y,1/2-z
-x,-y,-z
x,y,-z
1/2-x,1/2+y,1/2+z
1/2+x,1/2-y,1/2+z
loop_
_atom_site_type_symbol
_atom_site_label
_atom_site_fract_x
_atom_site_fract_y
_atom_site_fract_z
Si Si1 0.540658 0.719430 0.840977
Si Si2 0.220260 0.822260 0.152666
Si Si3 0.009800 0.313613 0.659019
Si Si4 0.093430 0.136134 0.347235
Si Si5 0.920783 0.091942 0.843240
Si Si6 0.886077 0.472513 0.837360
Si Si7 0.864315 0.017458 0.339659
Si Si8 0.374434 0.121963 0.654322
O O1 0.662359 0.710544 0.757405
O O2 0.493134 0.764893 0.795779
O O3 0.439998 0.684110 0.805223
O O4 0.575776 0.718616 0.000000
O O5 0.357705 0.830137 0.191928
O O6 0.160815 0.867337 0.159833
O O7 0.209149 0.802520 0.000000
O O8 0.973059 0.318858 0.500000
O O9 0.922477 0.341892 0.748156
O O10 0.039501 0.126262 0.500000
O O11 0.233846 0.130226 0.351412
O O12 0.043904 0.102430 0.237832
O O13 0.847103 0.056850 0.760665
O O14 0.949783 0.077737 0.000000
O O15 0.749887 0.487931 0.797373
O O16 0.901560 0.424530 0.784330
O O17 0.000000 0.500000 0.777562
O O18 0.894930 0.472609 0.000000
O O19 0.853715 0.030234 0.500000
O O20 0.000000 0.000000 0.310395
O O21 0.428894 0.126085 0.500000
#
# Coordination Sequence:
#
# PCOD8237119 Si02
#       8
#     8   8   8   8   8   8   8   8
#     4   9  19  35  55  79 105 139 181 224 268 314
#     4   9  20  37  55  76 110 147 179 219 270 324
#     4  10  22  37  54  78 112 147 177 219 276 330
#     4   9  18  35  57  81 110 144 184 227 269 322
#     4  10  20  34  55  84 113 144 181 223 274 327
#     4   9  19  35  54  80 112 142 181 234 283 327
#     4  10  20  35  58  83 108 143 185 232 283 332
#     4  10  21  36  58  83 106 142 189 228 270 329
#
# _framework density 18.720011
#
# number of rings (size 3 to 8) (size 9 to 14) (size 15 to 20)
#    0.000    2.500    0.000    1.125    3.500    4.250 
#    0.000    0.625    0.000    0.750    0.000    0.000 
#    0.000    0.000    0.000    0.000    0.000    0.000 
#
# Total GULP energy -793262.830710 kJ/mol
# GULP energy per Si atom -12394.731730 kJ/mol
# Density = 1.867740 g / cm^3
# Si number density = 18.720011 Si / 1000 Ang^3
#
#
#
# Elastic Constant Matrix: (Units=GPa)
#
#
# Indices 1 2 3 4 5 6 
#
# 1 55.7281 26.6618 23.1201 0.0000 0.0000 0.0000
# 2 26.6618 85.5710 37.3915 0.0000 0.0000 0.0000
# 3 23.1201 37.3915 65.6885 0.0000 0.0000 0.0000
# 4 0.0000 0.0000 0.0000 15.3350 0.0000 0.0000
# 5 0.0000 0.0000 0.0000 0.0000 20.5412 0.0000
# 6 0.0000 0.0000 0.0000 0.0000 0.0000 14.7629
#
#
#
# Elastic Compliance Matrix: (Units=1/GPa)
#
#
# Indices 1 2 3 4 5 6 
#
# 1 0.022344 -0.004693 -0.005193 0.000000 0.000000 0.000000
# 2 -0.004693 0.016541 -0.007764 0.000000 0.000000 0.000000
# 3 -0.005193 -0.007764 0.021470 0.000000 0.000000 0.000000
# 4 0.000000 0.000000 0.000000 0.065210 0.000000 0.000000
# 5 0.000000 0.000000 0.000000 0.000000 0.048683 0.000000
# 6 0.000000 0.000000 0.000000 0.000000 0.000000 0.067737
#
#
# Mechanical properties :
#
#
# Convention : Reuss Voigt Hill
#
# Bulk Modulus (GPa) = 39.91040 42.37048 41.14044
# Shear Modulus (GPa) = 17.50479 18.11545 17.81012
#
# Velocity S-wave (km/s) = 3.06123 3.11417 3.08781
# Velocity P-wave (km/s) = 5.81900 5.96772 5.89383
#
# Compressibility (1/GPa) = 0.02505613
#
# Stress axis : x y z
#
# Youngs Moduli (GPa) = 44.75513 60.45661 46.57555
#
# Poissons Ratio (x) = 0.28370 0.24187
# Poissons Ratio (y) = 0.21002 0.36160
# Poissons Ratio (z) = 0.23242 0.46937
#
# Static dielectric constant tensor:
#      x y z
#    x 3.472360 0.000000 0.000000 
#    y 0.000000 3.616960 0.000000 
#    z 0.000000 0.000000 3.540610 
# 
# 
# High freq. dielectric constant tensor:
#      x y z
#    x 1.724590 0.000000 0.000000 
#    y 0.000000 1.732780 0.000000 
#    z 0.000000 0.000000 1.712570 
# 
# From -- ./inp_files/4709.got.cif
#   From: 2010.06.25/outbox.cif.g09.slc.cpg/sg58_3_cif.got.tgz:4709.got - 2010.06.26 21:38:00.
