data_PCOD8237500
_publ_section_title
;
Structure prediction by ZEFSAII (Michael W. Deem and Ramdas Pophale) SiO2 
 PCOD8237500
Probable space group: P N N M
;
_chemical_formula_sum "Si O2"
_cell_formula_units_Z 48
_cell_length_a 8.935980
_cell_length_b 30.839853
_cell_length_c 8.409540
_cell_angle_alpha 90.000000
_cell_angle_beta 90.000000
_cell_angle_gamma 90.000000
_cell_volume 2317.537275
_symmetry_space_group_name_H-M "P N N M"
_symmetry_group_IT_number 58
_symmetry_cell_setting 'orthorhombic'
loop_
_space_group_symop_operation_xyz
x,y,z
-x,-y,z
1/2+x,1/2-y,1/2-z
1/2-x,1/2+y,1/2-z
-x,-y,-z
x,y,-z
1/2-x,1/2+y,1/2+z
1/2+x,1/2-y,1/2+z
loop_
_atom_site_type_symbol
_atom_site_label
_atom_site_fract_x
_atom_site_fract_y
_atom_site_fract_z
Si Si1 0.072079 0.123873 0.183679
Si Si2 0.580369 0.043218 0.689307
Si Si3 0.910945 0.211803 0.185744
Si Si4 0.914651 0.041388 0.686041
Si Si5 0.103633 0.625902 0.815446
Si Si6 0.565278 0.205319 0.183078
O O1 0.246963 0.130144 0.213381
O O2 0.986678 0.166991 0.238371
O O3 0.009934 0.084256 0.285291
O O4 0.041697 0.114086 0.000000
O O5 0.584710 0.043376 0.500000
O O6 0.748379 0.045220 0.760706
O O7 0.489294 0.084901 0.750330
O O8 0.500000 0.000000 0.753960
O O9 0.737590 0.209822 0.230593
O O10 0.984727 0.249209 0.289555
O O11 0.936884 0.221467 0.000000
O O12 0.897290 0.033652 0.500000
O O13 0.000000 0.000000 0.762179
O O14 0.006118 0.668908 0.794430
O O15 0.145310 0.620155 0.000000
O O16 0.547125 0.191481 0.000000
#
# Coordination Sequence:
#
# PCOD8237500 Si02
#       6
#     8   8   8   8   8   8
#     4  11  23  39  59  84 117 153 192 239 288 339
#     4   9  18  34  57  85 114 146 188 236 282 333
#     4  10  23  41  59  83 115 151 190 232 281 338
#     4  10  20  36  60  87 115 150 193 238 286 344
#     4  11  22  37  59  85 115 150 189 233 283 340
#     4  11  23  39  60  85 114 147 186 233 282 334
#
# _framework density 20.711642999999999
#
# number of rings (size 3 to 8) (size 9 to 14) (size 15 to 20)
#    0.000    1.667    0.000    4.500    0.000    8.333 
#    0.000    0.833    0.000    3.500    0.000    0.000 
#    0.000    0.000    0.000    0.000    0.000    0.000 
#
# Total GULP energy -595492.904905 kJ/mol
# GULP energy per Si atom -12406.102186 kJ/mol
# Density = 2.066450 g / cm^3
# Si number density = 20.711643 Si / 1000 Ang^3
#
#
#
# Elastic Constant Matrix: (Units=GPa)
#
#
# Indices 1 2 3 4 5 6 
#
# 1 163.9154 69.9815 12.6956 0.0000 0.0000 0.0000
# 2 69.9815 154.0438 9.8305 0.0000 0.0000 0.0000
# 3 12.6956 9.8305 20.4837 0.0000 0.0000 0.0000
# 4 0.0000 0.0000 0.0000 20.0165 0.0000 0.0000
# 5 0.0000 0.0000 0.0000 0.0000 8.7399 0.0000
# 6 0.0000 0.0000 0.0000 0.0000 0.0000 44.3214
#
#
#
# Elastic Compliance Matrix: (Units=1/GPa)
#
#
# Indices 1 2 3 4 5 6 
#
# 1 0.007769 -0.003324 -0.003220 0.000000 0.000000 0.000000
# 2 -0.003324 0.008119 -0.001836 0.000000 0.000000 0.000000
# 3 -0.003220 -0.001836 0.051696 0.000000 0.000000 0.000000
# 4 0.000000 0.000000 0.000000 0.049959 0.000000 0.000000
# 5 0.000000 0.000000 0.000000 0.000000 0.114418 0.000000
# 6 0.000000 0.000000 0.000000 0.000000 0.000000 0.022562
#
#
# Mechanical properties :
#
#
# Convention : Reuss Voigt Hill
#
# Bulk Modulus (GPa) = 19.67581 58.16199 38.91890
# Shear Modulus (GPa) = 17.34752 31.01125 24.17938
#
# Velocity S-wave (km/s) = 2.89723 3.87368 3.42047
# Velocity P-wave (km/s) = 4.55109 6.93901 5.86781
#
# Compressibility (1/GPa) = 0.05082384
#
# Stress axis : x y z
#
# Youngs Moduli (GPa) = 128.71223 123.16871 19.34378
#
# Poissons Ratio (x) = 0.40942 0.06229
# Poissons Ratio (y) = 0.42785 0.03552
# Poissons Ratio (z) = 0.41446 0.22616
#
# Static dielectric constant tensor:
#      x y z
#    x 4.062230 0.000000 0.000000 
#    y 0.000000 3.841440 0.000000 
#    z 0.000000 0.000000 3.378190 
# 
# 
# High freq. dielectric constant tensor:
#      x y z
#    x 1.830030 0.000000 0.000000 
#    y 0.000000 1.825390 0.000000 
#    z 0.000000 0.000000 1.784740 
# 
# From -- ./inp_files/2887.got.cif
#   From: 2010.06.25/outbox.cif.g09.slc.cpg/sg58_2_cif.got.tgz:2887.got - 2010.06.26 21:38:00.
