data_PCOD8237294
_publ_section_title
;
Structure prediction by ZEFSAII (Michael W. Deem and Ramdas Pophale) SiO2 
 PCOD8237294
Probable space group: P N N M
;
_chemical_formula_sum "Si O2"
_cell_formula_units_Z 56
_cell_length_a 21.731657
_cell_length_b 14.450402
_cell_length_c 9.136805
_cell_angle_alpha 90.000000
_cell_angle_beta 90.000000
_cell_angle_gamma 90.000000
_cell_volume 2869.241654
_symmetry_space_group_name_H-M "P N N M"
_symmetry_group_IT_number 58
_symmetry_cell_setting 'orthorhombic'
loop_
_space_group_symop_operation_xyz
x,y,z
-x,-y,z
1/2+x,1/2-y,1/2-z
1/2-x,1/2+y,1/2-z
-x,-y,-z
x,y,-z
1/2-x,1/2+y,1/2+z
1/2+x,1/2-y,1/2+z
loop_
_atom_site_type_symbol
_atom_site_label
_atom_site_fract_x
_atom_site_fract_y
_atom_site_fract_z
Si Si1 0.077957 0.085174 0.827850
Si Si2 0.442121 0.379354 0.672815
Si Si3 0.088620 0.702993 0.667488
Si Si4 0.530733 0.091869 0.833330
Si Si5 0.802016 0.810884 0.827944
Si Si6 0.655782 0.112414 0.668695
Si Si7 0.189817 0.590536 0.172246
O O1 0.134198 0.145974 0.767075
O O2 0.012512 0.121477 0.767681
O O3 0.088324 0.977785 0.786698
O O4 0.073991 0.094876 0.000000
O O5 0.438735 0.359394 0.500000
O O6 0.402788 0.302914 0.758654
O O7 0.111582 0.707158 0.500000
O O8 0.127936 0.627573 0.754132
O O9 0.017244 0.675694 0.678271
O O10 0.591847 0.121432 0.751729
O O11 0.500000 0.000000 0.763265
O O12 0.549103 0.069697 0.000000
O O13 0.801799 0.701108 0.793789
O O14 0.747748 0.858109 0.739757
O O15 0.793328 0.831007 0.000000
O O16 0.637179 0.113715 0.500000
O O17 0.693276 0.019226 0.707798
O O18 0.187690 0.609765 0.000000
#
# Coordination Sequence:
#
# PCOD8237294 Si02
#       7
#     8   8   8   8   8   8   8
#     4   8  16  33  58  85 113 147 186 226 275 332
#     4   9  17  33  58  86 115 147 185 228 271 329
#     4  11  22  36  55  83 116 150 185 229 284 339
#     4  10  20  35  57  85 117 150 184 227 285 346
#     4  10  21  39  60  82 111 150 191 233 282 335
#     4  10  22  39  61  87 114 145 189 239 286 335
#     4  11  24  40  56  80 111 146 188 233 278 332
#
# _framework density 19.517354000000001
#
# number of rings (size 3 to 8) (size 9 to 14) (size 15 to 20)
#    0.000    2.143    1.429    2.571    0.000    4.857 
#    0.000    5.714    0.000    0.000    0.000    0.000 
#    0.000    0.000    0.000    0.000    0.000    0.000 
#
# Total GULP energy -694405.939413 kJ/mol
# GULP energy per Si atom -12400.106061 kJ/mol
# Density = 1.947293 g / cm^3
# Si number density = 19.517354 Si / 1000 Ang^3
#
#
#
# Elastic Constant Matrix: (Units=GPa)
#
#
# Indices 1 2 3 4 5 6 
#
# 1 89.0798 50.1114 45.8167 0.0000 0.0000 0.0000
# 2 50.1114 146.7906 57.3563 0.0000 0.0000 0.0000
# 3 45.8167 57.3563 78.2542 0.0000 0.0000 0.0000
# 4 0.0000 0.0000 0.0000 20.4159 0.0000 0.0000
# 5 0.0000 0.0000 0.0000 0.0000 32.9277 0.0000
# 6 0.0000 0.0000 0.0000 0.0000 0.0000 29.5071
#
#
#
# Elastic Compliance Matrix: (Units=1/GPa)
#
#
# Indices 1 2 3 4 5 6 
#
# 1 0.016766 -0.002646 -0.007877 0.000000 0.000000 0.000000
# 2 -0.002646 0.009964 -0.005754 0.000000 0.000000 0.000000
# 3 -0.007877 -0.005754 0.021608 0.000000 0.000000 0.000000
# 4 0.000000 0.000000 0.000000 0.048982 0.000000 0.000000
# 5 0.000000 0.000000 0.000000 0.000000 0.030370 0.000000
# 6 0.000000 0.000000 0.000000 0.000000 0.000000 0.033890
#
#
# Mechanical properties :
#
#
# Convention : Reuss Voigt Hill
#
# Bulk Modulus (GPa) = 63.35363 68.96592 66.15978
# Shear Modulus (GPa) = 25.07607 27.29281 26.18444
#
# Velocity S-wave (km/s) = 3.58831 3.74356 3.66676
# Velocity P-wave (km/s) = 7.04972 7.35514 7.20405
#
# Compressibility (1/GPa) = 0.01578441
#
# Stress axis : x y z
#
# Youngs Moduli (GPa) = 59.64626 100.36223 46.27903
#
# Poissons Ratio (x) = 0.26552 0.36453
# Poissons Ratio (y) = 0.15780 0.26629
# Poissons Ratio (z) = 0.46982 0.57749
#
# Static dielectric constant tensor:
#      x y z
#    x 3.596790 0.000000 0.000000 
#    y 0.000000 3.830550 0.000000 
#    z 0.000000 0.000000 3.372410 
# 
# 
# High freq. dielectric constant tensor:
#      x y z
#    x 1.748700 0.000000 0.000000 
#    y 0.000000 1.776630 0.000000 
#    z 0.000000 0.000000 1.740860 
# 
# From -- ./inp_files/8966.got.cif
#   From: 2010.06.25/outbox.cif.g09.slc.cpg/sg58_5_cif.got.tgz:8966.got - 2010.06.26 21:38:00.
