data_PCOD8237623
_publ_section_title
;
Structure prediction by ZEFSAII (Michael W. Deem and Ramdas Pophale) SiO2 
 PCOD8237623
Probable space group: P N N M
;
_chemical_formula_sum "Si O2"
_cell_formula_units_Z 64
_cell_length_a 21.893543
_cell_length_b 17.059632
_cell_length_c 8.509603
_cell_angle_alpha 90.000000
_cell_angle_beta 90.000000
_cell_angle_gamma 90.000000
_cell_volume 3178.300867
_symmetry_space_group_name_H-M "P N N M"
_symmetry_group_IT_number 58
_symmetry_cell_setting 'orthorhombic'
loop_
_space_group_symop_operation_xyz
x,y,z
-x,-y,z
1/2+x,1/2-y,1/2-z
1/2-x,1/2+y,1/2-z
-x,-y,-z
x,y,-z
1/2-x,1/2+y,1/2+z
1/2+x,1/2-y,1/2+z
loop_
_atom_site_type_symbol
_atom_site_label
_atom_site_fract_x
_atom_site_fract_y
_atom_site_fract_z
Si Si1 0.220015 0.158912 0.818641
Si Si2 0.433143 0.916463 0.315745
Si Si3 0.364310 0.533951 0.817217
Si Si4 0.106356 0.871833 0.181238
Si Si5 0.434604 0.078968 0.817977
Si Si6 0.024289 0.140217 0.320784
Si Si7 0.121503 0.268842 0.319591
Si Si8 0.347066 0.203211 0.681747
O O1 0.171435 0.226821 0.786871
O O2 0.278571 0.175996 0.712792
O O3 0.191354 0.074578 0.775168
O O4 0.239277 0.158904 0.000000
O O5 0.440456 0.903458 0.500000
O O6 0.497176 0.899942 0.232187
O O7 0.384129 0.856686 0.244367
O O8 0.410041 0.004312 0.280178
O O9 0.365141 0.441879 0.783075
O O10 0.429097 0.571882 0.766075
O O11 0.353427 0.550921 0.000000
O O12 0.143410 0.793929 0.228815
O O13 0.034491 0.860766 0.210864
O O14 0.115827 0.892784 0.000000
O O15 0.392454 0.153134 0.787957
O O16 0.433592 0.056598 0.000000
O O17 0.003275 0.125544 0.500000
O O18 0.056880 0.224292 0.303143
O O19 0.143528 0.268900 0.500000
O O20 0.363592 0.190177 0.500000
#
# Coordination Sequence:
#
# PCOD8237623 Si02
#       8
#     8   8   8   8   8   8   8   8
#     4  11  23  41  63  86 114 151 199 245 294 352
#     4  11  21  36  59  90 123 155 196 244 296 355
#     4  10  21  39  61  85 118 158 195 237 290 348
#     4  11  23  36  57  89 120 151 192 242 290 344
#     4  11  22  38  60  87 119 156 196 244 301 357
#     4   9  19  34  56  86 121 158 191 230 290 351
#     4  10  20  37  60  87 119 157 198 243 293 347
#     4  11  24  43  61  83 118 157 198 246 300 352
#
# _framework density 20.136544000000001
#
# number of rings (size 3 to 8) (size 9 to 14) (size 15 to 20)
#    0.000    1.500    0.000    7.500    0.000    8.500 
#    2.250    0.000    0.000    0.000    0.000    0.000 
#    0.000    0.000    0.000    0.000    0.000    0.000 
#
# Total GULP energy -793967.332209 kJ/mol
# GULP energy per Si atom -12405.739566 kJ/mol
# Density = 2.009071 g / cm^3
# Si number density = 20.136544 Si / 1000 Ang^3
#
#
#
# Elastic Constant Matrix: (Units=GPa)
#
#
# Indices 1 2 3 4 5 6 
#
# 1 64.1502 27.6698 22.7949 0.0000 0.0000 0.0000
# 2 27.6698 97.1563 28.2762 0.0000 0.0000 0.0000
# 3 22.7949 28.2762 69.1724 0.0000 0.0000 0.0000
# 4 0.0000 0.0000 0.0000 30.7085 0.0000 0.0000
# 5 0.0000 0.0000 0.0000 0.0000 30.8772 0.0000
# 6 0.0000 0.0000 0.0000 0.0000 0.0000 16.0670
#
#
#
# Elastic Compliance Matrix: (Units=1/GPa)
#
#
# Indices 1 2 3 4 5 6 
#
# 1 0.018974 -0.004068 -0.004590 0.000000 0.000000 0.000000
# 2 -0.004068 0.012555 -0.003792 0.000000 0.000000 0.000000
# 3 -0.004590 -0.003792 0.017519 0.000000 0.000000 0.000000
# 4 0.000000 0.000000 0.000000 0.032564 0.000000 0.000000
# 5 0.000000 0.000000 0.000000 0.000000 0.032386 0.000000
# 6 0.000000 0.000000 0.000000 0.000000 0.000000 0.062240
#
#
# Mechanical properties :
#
#
# Convention : Reuss Voigt Hill
#
# Bulk Modulus (GPa) = 41.40919 43.10674 42.25796
# Shear Modulus (GPa) = 23.90217 25.64640 24.77428
#
# Velocity S-wave (km/s) = 3.44903 3.57266 3.51139
# Velocity P-wave (km/s) = 6.03903 6.20260 6.12136
#
# Compressibility (1/GPa) = 0.02414923
#
# Stress axis : x y z
#
# Youngs Moduli (GPa) = 52.70390 79.65133 57.08075
#
# Poissons Ratio (x) = 0.32402 0.26199
# Poissons Ratio (y) = 0.21440 0.21643
# Poissons Ratio (z) = 0.24190 0.30200
#
# Static dielectric constant tensor:
#      x y z
#    x 3.466660 0.000000 0.000000 
#    y 0.000000 3.781100 0.000000 
#    z 0.000000 0.000000 3.627960 
# 
# 
# High freq. dielectric constant tensor:
#      x y z
#    x 1.767460 0.000000 0.000000 
#    y 0.000000 1.795710 0.000000 
#    z 0.000000 0.000000 1.795640 
# 
# From -- ./inp_files/9963.got.cif
#   From: 2010.06.25/outbox.cif.g09.slc.cpg/sg58_5_cif.got.tgz:9963.got - 2010.06.26 21:38:00.
