data_PCOD8237804
_publ_section_title
;
Structure prediction by ZEFSAII (Michael W. Deem and Ramdas Pophale) SiO2 
 PCOD8237804
Probable space group: P N N M
;
_chemical_formula_sum "Si O2"
_cell_formula_units_Z 44
_cell_length_a 7.980845
_cell_length_b 9.401954
_cell_length_c 27.617808
_cell_angle_alpha 90.000000
_cell_angle_beta 90.000000
_cell_angle_gamma 90.000000
_cell_volume 2072.317070
_symmetry_space_group_name_H-M "P N N M"
_symmetry_group_IT_number 58
_symmetry_cell_setting 'orthorhombic'
loop_
_space_group_symop_operation_xyz
x,y,z
-x,-y,z
1/2+x,1/2-y,1/2-z
1/2-x,1/2+y,1/2-z
-x,-y,-z
x,y,-z
1/2-x,1/2+y,1/2+z
1/2+x,1/2-y,1/2+z
loop_
_atom_site_type_symbol
_atom_site_label
_atom_site_fract_x
_atom_site_fract_y
_atom_site_fract_z
Si Si1 0.401091 0.864560 0.792504
Si Si2 0.915210 0.847210 0.131068
Si Si3 0.000000 0.000000 0.628940
Si Si4 0.691599 0.991207 0.944119
Si Si5 0.198327 0.820634 0.702151
Si Si6 0.750167 0.260078 0.888842
O O1 0.288295 0.902631 0.746002
O O2 0.532089 0.746212 0.774764
O O3 0.299182 0.809753 0.838043
O O4 0.500000 0.000000 0.811425
O O5 0.786684 0.868991 0.086249
O O6 0.813081 0.801750 0.178565
O O7 0.048254 0.718257 0.118621
O O8 0.000000 0.000000 0.142328
O O9 0.881567 0.888815 0.598406
O O10 0.145758 0.930103 0.660668
O O11 0.500000 0.000000 0.928478
O O12 0.755362 0.149923 0.933281
O O13 0.719296 0.953307 0.000000
#
# Coordination Sequence:
#
# PCOD8237804 Si02
#       6
#     8   8   4   8   8   8
#     4  11  23  36  56  79 117 157 204 249 293 350
#     4  10  21  38  63  89 119 152 202 255 308 357
#     4  10  24  40  57  82 126 162 203 242 304 372
#     4  10  20  38  66  94 119 151 199 259 315 360
#     4  11  24  37  57  84 118 163 201 249 298 361
#     4  10  21  40  57  86 120 161 198 252 301 363
#
# _framework density 21.232271000000001
#
# number of rings (size 3 to 8) (size 9 to 14) (size 15 to 20)
#    0.000    1.636    0.000    6.000    7.636    3.273 
#    6.545    0.455    0.000    1.091    0.000    8.909 
#    0.000    0.000    0.000    0.000    0.000    0.000 
#
# Total GULP energy -545091.581209 kJ/mol
# GULP energy per Si atom -12388.445027 kJ/mol
# Density = 2.118395 g / cm^3
# Si number density = 21.232271 Si / 1000 Ang^3
#
#
#
# Elastic Constant Matrix: (Units=GPa)
#
#
# Indices 1 2 3 4 5 6 
#
# 1 123.4564 21.6801 37.7451 0.0000 0.0000 0.0000
# 2 21.6801 51.6827 11.5777 0.0000 0.0000 0.0000
# 3 37.7451 11.5777 66.4740 0.0000 0.0000 0.0000
# 4 0.0000 0.0000 0.0000 3.7660 0.0000 0.0000
# 5 0.0000 0.0000 0.0000 0.0000 23.4444 0.0000
# 6 0.0000 0.0000 0.0000 0.0000 0.0000 43.5659
#
#
#
# Elastic Compliance Matrix: (Units=1/GPa)
#
#
# Indices 1 2 3 4 5 6 
#
# 1 0.010264 -0.003122 -0.005284 0.000000 0.000000 0.000000
# 2 -0.003122 0.021084 -0.001900 0.000000 0.000000 0.000000
# 3 -0.005284 -0.001900 0.018375 0.000000 0.000000 0.000000
# 4 0.000000 0.000000 0.000000 0.265537 0.000000 0.000000
# 5 0.000000 0.000000 0.000000 0.000000 0.042654 0.000000
# 6 0.000000 0.000000 0.000000 0.000000 0.000000 0.022954
#
#
# Mechanical properties :
#
#
# Convention : Reuss Voigt Hill
#
# Bulk Modulus (GPa) = 34.35085 42.62432 38.48758
# Shear Modulus (GPa) = 12.16005 25.52927 18.84466
#
# Velocity S-wave (km/s) = 2.39574 3.47130 2.98241
# Velocity P-wave (km/s) = 4.88534 6.01543 5.47959
#
# Compressibility (1/GPa) = 0.02911136
#
# Stress axis : x y z
#
# Youngs Moduli (GPa) = 97.42955 47.42963 54.42226
#
# Poissons Ratio (x) = 0.14806 0.28758
# Poissons Ratio (y) = 0.30415 0.10338
# Poissons Ratio (z) = 0.51484 0.09010
#
# Static dielectric constant tensor:
#      x y z
#    x 4.593490 0.000000 0.000000 
#    y 0.000000 3.817400 0.000000 
#    z 0.000000 0.000000 3.456530 
# 
# 
# High freq. dielectric constant tensor:
#      x y z
#    x 1.863610 0.000000 0.000000 
#    y 0.000000 1.807550 0.000000 
#    z 0.000000 0.000000 1.804170 
# 
# From -- ./inp_files/34483.got.cif
#   From: 2010.06.25/outbox.cif.g09.slc.cpg/sg58_18_cif.got.tgz:34483.got - 2010.06.26 21:38:00.
