data_PCOD8237301
_publ_section_title
;
Structure prediction by ZEFSAII (Michael W. Deem and Ramdas Pophale) SiO2 
 PCOD8237301
Probable space group: P N N M
;
_chemical_formula_sum "Si O2"
_cell_formula_units_Z 64
_cell_length_a 26.400261
_cell_length_b 12.622461
_cell_length_c 9.054602
_cell_angle_alpha 90.000000
_cell_angle_beta 90.000000
_cell_angle_gamma 90.000000
_cell_volume 3017.321750
_symmetry_space_group_name_H-M "P N N M"
_symmetry_group_IT_number 58
_symmetry_cell_setting 'orthorhombic'
loop_
_space_group_symop_operation_xyz
x,y,z
-x,-y,z
1/2+x,1/2-y,1/2-z
1/2-x,1/2+y,1/2-z
-x,-y,-z
x,y,-z
1/2-x,1/2+y,1/2+z
1/2+x,1/2-y,1/2+z
loop_
_atom_site_type_symbol
_atom_site_label
_atom_site_fract_x
_atom_site_fract_y
_atom_site_fract_z
Si Si1 0.170893 0.197426 0.661748
Si Si2 0.142742 0.009682 0.836366
Si Si3 0.437988 0.778644 0.160859
Si Si4 0.030796 0.095857 0.164446
Si Si5 0.174354 0.821989 0.331243
Si Si6 0.787272 0.604201 0.828767
Si Si7 0.941306 0.511611 0.825336
Si Si8 0.347641 0.082699 0.175525
O O1 0.198227 0.199641 0.500000
O O2 0.111590 0.210009 0.634123
O O3 0.188620 0.288840 0.769344
O O4 0.180439 0.083458 0.738698
O O5 0.136007 0.892675 0.765687
O O6 0.089154 0.066235 0.845992
O O7 0.166202 0.998429 0.000000
O O8 0.478794 0.701584 0.239129
O O9 0.423846 0.874002 0.269544
O O10 0.458554 0.817523 0.000000
O O11 0.009203 0.118377 0.000000
O O12 0.000000 0.000000 0.239340
O O13 0.156947 0.828426 0.500000
O O14 0.227826 0.879582 0.305378
O O15 0.173702 0.699005 0.282004
O O16 0.808417 0.502805 0.740857
O O17 0.801890 0.590549 0.000000
O O18 0.904131 0.427798 0.745302
O O19 0.000000 0.500000 0.778173
O O20 0.934173 0.501517 0.000000
O O21 0.351240 0.065102 0.000000
#
# Coordination Sequence:
#
# PCOD8237301 Si02
#       8
#     8   8   8   8   8   8   8   8
#     4  10  20  36  60  88 118 154 197 252 310 364
#     4  10  21  37  60  88 120 159 204 252 306 369
#     4  10  20  35  57  86 117 153 200 253 310 369
#     4   9  19  36  58  85 119 159 203 254 308 365
#     4  10  25  44  61  89 129 168 206 256 319 379
#     4  11  23  40  64  92 121 160 208 255 310 375
#     4  11  24  41  63  91 124 166 214 264 318 381
#     4  11  24  44  66  93 130 169 212 267 323 381
#
# _framework density 21.210864999999998
#
# number of rings (size 3 to 8) (size 9 to 14) (size 15 to 20)
#    0.000    1.750    1.250    2.250    1.750    5.750 
#    0.000    3.750    0.000    0.000    0.000    0.000 
#    0.000    0.000    0.000    0.000    0.000    0.000 
#
# Total GULP energy -793365.755722 kJ/mol
# GULP energy per Si atom -12396.339933 kJ/mol
# Density = 2.116259 g / cm^3
# Si number density = 21.210865 Si / 1000 Ang^3
#
#
#
# Elastic Constant Matrix: (Units=GPa)
#
#
# Indices 1 2 3 4 5 6 
#
# 1 45.5445 17.9989 32.0986 0.0000 0.0000 0.0000
# 2 17.9989 137.3255 64.1012 0.0000 0.0000 0.0000
# 3 32.0986 64.1012 131.9905 0.0000 0.0000 0.0000
# 4 0.0000 0.0000 0.0000 21.9302 0.0000 0.0000
# 5 0.0000 0.0000 0.0000 0.0000 23.6877 0.0000
# 6 0.0000 0.0000 0.0000 0.0000 0.0000 28.4686
#
#
#
# Elastic Compliance Matrix: (Units=1/GPa)
#
#
# Indices 1 2 3 4 5 6 
#
# 1 0.026537 -0.000602 -0.006161 0.000000 0.000000 0.000000
# 2 -0.000602 0.009430 -0.004433 0.000000 0.000000 0.000000
# 3 -0.006161 -0.004433 0.011228 0.000000 0.000000 0.000000
# 4 0.000000 0.000000 0.000000 0.045599 0.000000 0.000000
# 5 0.000000 0.000000 0.000000 0.000000 0.042216 0.000000
# 6 0.000000 0.000000 0.000000 0.000000 0.000000 0.035126
#
#
# Mechanical properties :
#
#
# Convention : Reuss Voigt Hill
#
# Bulk Modulus (GPa) = 40.32018 60.36196 50.34107
# Shear Modulus (GPa) = 24.90082 28.19475 26.54778
#
# Velocity S-wave (km/s) = 3.43003 3.64986 3.54165
# Velocity P-wave (km/s) = 5.89384 6.80307 6.36471
#
# Compressibility (1/GPa) = 0.02480148
#
# Stress axis : x y z
#
# Youngs Moduli (GPa) = 37.68375 106.04082 89.06598
#
# Poissons Ratio (x) = 0.06387 0.54873
# Poissons Ratio (y) = 0.02270 0.39486
# Poissons Ratio (z) = 0.23217 0.47012
#
# Static dielectric constant tensor:
#      x y z
#    x 4.011030 0.000000 0.000000 
#    y 0.000000 3.895660 0.000000 
#    z 0.000000 0.000000 4.228830 
# 
# 
# High freq. dielectric constant tensor:
#      x y z
#    x 1.807560 0.000000 0.000000 
#    y 0.000000 1.837810 0.000000 
#    z 0.000000 0.000000 1.845210 
# 
# From -- ./inp_files/11047.got.cif
#   From: 2010.06.25/outbox.cif.g09.slc.cpg/sg58_6_cif.got.tgz:11047.got - 2010.06.26 21:38:00.
