data_PCOD8237528
_publ_section_title
;
Structure prediction by ZEFSAII (Michael W. Deem and Ramdas Pophale) SiO2 
 PCOD8237528
Probable space group: P N N M
;
_chemical_formula_sum "Si O2"
_cell_formula_units_Z 40
_cell_length_a 7.945845
_cell_length_b 8.093343
_cell_length_c 27.679883
_cell_angle_alpha 90.000000
_cell_angle_beta 90.000000
_cell_angle_gamma 90.000000
_cell_volume 1780.050345
_symmetry_space_group_name_H-M "P N N M"
_symmetry_group_IT_number 58
_symmetry_cell_setting 'orthorhombic'
loop_
_space_group_symop_operation_xyz
x,y,z
-x,-y,z
1/2+x,1/2-y,1/2-z
1/2-x,1/2+y,1/2-z
-x,-y,-z
x,y,-z
1/2-x,1/2+y,1/2+z
1/2+x,1/2-y,1/2+z
loop_
_atom_site_type_symbol
_atom_site_label
_atom_site_fract_x
_atom_site_fract_y
_atom_site_fract_z
Si Si1 0.466047 0.316376 0.309370
Si Si2 0.878492 0.683016 0.902706
Si Si3 0.483271 0.306108 0.109539
Si Si4 0.925411 0.682676 0.290533
Si Si5 0.299279 0.174244 0.555612
O O1 0.500000 0.500000 0.327695
O O2 0.551033 0.192799 0.347829
O O3 0.266990 0.299729 0.305622
O O4 0.551665 0.286982 0.257786
O O5 0.694745 0.768171 0.909938
O O6 0.841078 0.492158 0.915093
O O7 0.020132 0.768693 0.937800
O O8 0.500000 0.500000 0.099503
O O9 0.474571 0.267997 0.166101
O O10 0.643150 0.227457 0.080728
O O11 0.000000 0.500000 0.282622
O O12 0.255494 0.141574 0.500000
#
# Coordination Sequence:
#
# PCOD8237528 Si02
#       5
#     8   8   8   8   8
#     4  12  25  42  62  94 130 171 213 260 325 387
#     4  10  20  36  61  91 128 163 211 263 317 374
#     4  10  21  38  61  94 130 166 213 265 319 378
#     4  12  25  41  64  92 129 171 215 262 319 390
#     4  10  21  38  65  97 129 169 219 270 320 377
#
# _framework density 22.471274999999999
#
# number of rings (size 3 to 8) (size 9 to 14) (size 15 to 20)
#    0.000    1.200    2.000    5.400    2.800    6.000 
#    0.000    0.000    0.000    3.000    0.000    0.000 
#    0.000    0.000    0.000    0.000    0.000    0.000 
#
# Total GULP energy -495538.714042 kJ/mol
# GULP energy per Si atom -12388.467851 kJ/mol
# Density = 2.242013 g / cm^3
# Si number density = 22.471275 Si / 1000 Ang^3
#
#
#
# Elastic Constant Matrix: (Units=GPa)
#
#
# Indices 1 2 3 4 5 6 
#
# 1 193.2264 11.1687 51.9471 0.0000 0.0000 0.0000
# 2 11.1687 31.7897 24.9441 0.0000 0.0000 0.0000
# 3 51.9471 24.9441 153.9336 0.0000 0.0000 0.0000
# 4 0.0000 0.0000 0.0000 10.7099 0.0000 0.0000
# 5 0.0000 0.0000 0.0000 0.0000 31.6013 0.0000
# 6 0.0000 0.0000 0.0000 0.0000 0.0000 19.1141
#
#
#
# Elastic Compliance Matrix: (Units=1/GPa)
#
#
# Indices 1 2 3 4 5 6 
#
# 1 0.005700 -0.000565 -0.001832 0.000000 0.000000 0.000000
# 2 -0.000565 0.036095 -0.005658 0.000000 0.000000 0.000000
# 3 -0.001832 -0.005658 0.008031 0.000000 0.000000 0.000000
# 4 0.000000 0.000000 0.000000 0.093371 0.000000 0.000000
# 5 0.000000 0.000000 0.000000 0.000000 0.031644 0.000000
# 6 0.000000 0.000000 0.000000 0.000000 0.000000 0.052317
#
#
# Mechanical properties :
#
#
# Convention : Reuss Voigt Hill
#
# Bulk Modulus (GPa) = 29.65959 61.67440 45.66700
# Shear Modulus (GPa) = 19.64561 31.67772 25.66166
#
# Velocity S-wave (km/s) = 2.95999 3.75867 3.38298
# Velocity P-wave (km/s) = 4.99095 6.80751 5.96874
#
# Compressibility (1/GPa) = 0.03371591
#
# Stress axis : x y z
#
# Youngs Moduli (GPa) = 175.42337 27.70459 124.50998
#
# Poissons Ratio (x) = 0.01566 0.22812
# Poissons Ratio (y) = 0.09914 0.70451
# Poissons Ratio (z) = 0.32140 0.15676
#
# Static dielectric constant tensor:
#      x y z
#    x 5.779060 0.000000 0.000000 
#    y 0.000000 3.548030 0.000000 
#    z 0.000000 0.000000 3.999270 
# 
# 
# High freq. dielectric constant tensor:
#      x y z
#    x 1.932660 0.000000 0.000000 
#    y 0.000000 1.830850 0.000000 
#    z 0.000000 0.000000 1.879870 
# 
# From -- ./inp_files/33138.got.cif
#   From: 2010.06.25/outbox.cif.g09.slc.cpg/sg58_17_cif.got.tgz:33138.got - 2010.06.26 21:38:00.
