data_PCOD8237280
_publ_section_title
;
Structure prediction by ZEFSAII (Michael W. Deem and Ramdas Pophale) SiO2 
 PCOD8237280
Probable space group: P N N M
;
_chemical_formula_sum "Si O2"
_cell_formula_units_Z 64
_cell_length_a 14.640590
_cell_length_b 25.636748
_cell_length_c 9.195709
_cell_angle_alpha 90.000000
_cell_angle_beta 90.000000
_cell_angle_gamma 90.000000
_cell_volume 3451.490899
_symmetry_space_group_name_H-M "P N N M"
_symmetry_group_IT_number 58
_symmetry_cell_setting 'orthorhombic'
loop_
_space_group_symop_operation_xyz
x,y,z
-x,-y,z
1/2+x,1/2-y,1/2-z
1/2-x,1/2+y,1/2-z
-x,-y,-z
x,y,-z
1/2-x,1/2+y,1/2+z
1/2+x,1/2-y,1/2+z
loop_
_atom_site_type_symbol
_atom_site_label
_atom_site_fract_x
_atom_site_fract_y
_atom_site_fract_z
Si Si1 0.629107 0.642960 0.667132
Si Si2 0.986562 0.673486 0.827541
Si Si3 0.000860 0.782901 0.671489
Si Si4 0.656986 0.895061 0.331383
Si Si5 0.103672 0.504042 0.331034
Si Si6 0.858141 0.869522 0.667184
Si Si7 0.333607 0.889164 0.168283
Si Si8 0.982362 0.943035 0.831732
O O1 0.619143 0.660928 0.500000
O O2 0.592320 0.689308 0.768988
O O3 0.732689 0.630107 0.707025
O O4 0.572261 0.590810 0.697426
O O5 0.987617 0.728680 0.750306
O O6 0.899125 0.641847 0.775103
O O7 0.075952 0.642005 0.776737
O O8 0.982946 0.681306 0.000000
O O9 0.011020 0.774313 0.500000
O O10 0.911205 0.816869 0.712250
O O11 0.645519 0.908180 0.500000
O O12 0.657021 0.949909 0.248926
O O13 0.750691 0.863715 0.300091
O O14 0.101862 0.518243 0.500000
O O15 0.157725 0.450651 0.300155
O O16 0.000000 0.500000 0.271387
O O17 0.877432 0.881777 0.500000
O O18 0.894421 0.918762 0.755673
O O19 0.358427 0.877481 0.000000
O O20 0.957443 0.947215 0.000000
O O21 0.000000 0.000000 0.765038
#
# Coordination Sequence:
#
# PCOD8237280 Si02
#       8
#     8   8   8   8   8   8   8   8
#     4   9  19  36  56  80 113 149 185 227 280 334
#     4  11  23  38  58  83 112 146 190 236 283 336
#     4  10  21  39  61  82 110 145 187 237 286 333
#     4  10  22  38  56  81 113 149 186 226 277 335
#     4  10  20  35  57  83 114 148 186 231 276 326
#     4   9  20  38  56  78 109 146 185 225 276 332
#     4  10  21  37  57  83 115 151 188 228 279 333
#     4   9  18  32  53  81 111 143 182 227 273 324
#
# _framework density 18.542712000000002
#
# number of rings (size 3 to 8) (size 9 to 14) (size 15 to 20)
#    0.000    2.250    1.250    0.750    1.750    4.000 
#    0.000    2.500    0.000    0.000    0.000    0.000 
#    0.000    0.000    0.000    0.000    0.000    0.000 
#
# Total GULP energy -793783.468435 kJ/mol
# GULP energy per Si atom -12402.866694 kJ/mol
# Density = 1.850051 g / cm^3
# Si number density = 18.542712 Si / 1000 Ang^3
#
#
#
# Elastic Constant Matrix: (Units=GPa)
#
#
# Indices 1 2 3 4 5 6 
#
# 1 126.4830 52.2703 44.5355 0.0000 0.0000 0.0000
# 2 52.2703 129.3897 56.7458 0.0000 0.0000 0.0000
# 3 44.5355 56.7458 65.2613 0.0000 0.0000 0.0000
# 4 0.0000 0.0000 0.0000 26.9446 0.0000 0.0000
# 5 0.0000 0.0000 0.0000 0.0000 25.1011 0.0000
# 6 0.0000 0.0000 0.0000 0.0000 0.0000 -345.9956
#
#
#
# Elastic Compliance Matrix: (Units=1/GPa)
#
#
# Indices 1 2 3 4 5 6 
#
# 1 0.010661 -0.001804 -0.005707 0.000000 0.000000 0.000000
# 2 -0.001804 0.012798 -0.009897 0.000000 0.000000 0.000000
# 3 -0.005707 -0.009897 0.027823 0.000000 0.000000 0.000000
# 4 0.000000 0.000000 0.000000 0.037113 0.000000 0.000000
# 5 0.000000 0.000000 0.000000 0.000000 0.039839 0.000000
# 6 0.000000 0.000000 0.000000 0.000000 0.000000 -0.002890
#
#
# Mechanical properties :
#
#
# Convention : Reuss Voigt Hill
#
# Bulk Modulus (GPa) = 60.72883 69.80414 65.26648
# Shear Modulus (GPa) = 30.18463 -47.61782 -8.71659
#
# Velocity S-wave (km/s) = 4.03903 -5.07305 -2.17049
# Velocity P-wave (km/s) = 7.38739 1.84725 5.38451
#
# Compressibility (1/GPa) = 0.01646664
#
# Stress axis : x y z
#
# Youngs Moduli (GPa) = 93.79885 78.13875 35.94190
#
# Poissons Ratio (x) = 0.14097 0.20511
# Poissons Ratio (y) = 0.16922 0.35571
# Poissons Ratio (z) = 0.53528 0.77332
#
# Static dielectric constant tensor:
#      x y z
#    x 3.531490 0.000000 0.000000 
#    y 0.000000 3.451970 0.000000 
#    z 0.000000 0.000000 3.408010 
# 
# 
# High freq. dielectric constant tensor:
#      x y z
#    x 1.724600 0.000000 0.000000 
#    y 0.000000 1.722730 0.000000 
#    z 0.000000 0.000000 1.716260 
# 
# From -- ./inp_files/6946.got.cif
#   From: 2010.06.25/outbox.cif.g09.slc.cpg/sg58_4_cif.got.tgz:6946.got - 2010.06.26 21:38:00.
