data_PCOD8237063
_publ_section_title
;
Structure prediction by ZEFSAII (Michael W. Deem and Ramdas Pophale) SiO2 
 PCOD8237063
Probable space group: P N N M
;
_chemical_formula_sum "Si O2"
_cell_formula_units_Z 64
_cell_length_a 18.602127
_cell_length_b 19.874148
_cell_length_c 9.098515
_cell_angle_alpha 90.000000
_cell_angle_beta 90.000000
_cell_angle_gamma 90.000000
_cell_volume 3363.733962
_symmetry_space_group_name_H-M "P N N M"
_symmetry_group_IT_number 58
_symmetry_cell_setting 'orthorhombic'
loop_
_space_group_symop_operation_xyz
x,y,z
-x,-y,z
1/2+x,1/2-y,1/2-z
1/2-x,1/2+y,1/2-z
-x,-y,-z
x,y,-z
1/2-x,1/2+y,1/2+z
1/2+x,1/2-y,1/2+z
loop_
_atom_site_type_symbol
_atom_site_label
_atom_site_fract_x
_atom_site_fract_y
_atom_site_fract_z
Si Si1 0.513386 0.300903 0.826642
Si Si2 0.243098 0.373191 0.829052
Si Si3 0.942639 0.945700 0.324481
Si Si4 0.397976 0.825911 0.171878
Si Si5 0.835482 0.375723 0.825613
Si Si6 0.857472 0.239643 0.671593
Si Si7 0.976303 0.424228 0.330564
Si Si8 0.215136 0.019541 0.674525
O O1 0.534229 0.373210 0.759776
O O2 0.576277 0.248905 0.785365
O O3 0.437229 0.274384 0.765023
O O4 0.504468 0.307770 0.000000
O O5 0.175427 0.339952 0.752861
O O6 0.311970 0.327116 0.798197
O O7 0.258827 0.447301 0.763544
O O8 0.225409 0.377982 0.000000
O O9 0.941284 0.944051 0.500000
O O10 0.863964 0.964236 0.262381
O O11 0.000000 0.000000 0.266836
O O12 0.458597 0.877959 0.224031
O O13 0.383865 0.833272 0.000000
O O14 0.823160 0.302086 0.758217
O O15 0.908118 0.409555 0.769189
O O16 0.769545 0.422501 0.773298
O O17 0.838403 0.369906 0.000000
O O18 0.859224 0.258522 0.500000
O O19 0.956875 0.408459 0.500000
O O20 0.000000 0.500000 0.306913
O O21 0.211531 0.015585 0.500000
#
# Coordination Sequence:
#
# PCOD8237063 Si02
#       8
#     8   8   8   8   8   8   8   8
#     4   9  17  31  52  76 104 138 175 222 268 317
#     4  10  21  36  56  79 108 143 180 226 275 329
#     4   9  16  28  51  79 104 135 177 223 274 324
#     4  10  20  34  53  79 109 141 177 223 270 318
#     4  11  22  34  53  81 115 149 179 226 279 327
#     4  10  20  37  57  78 109 146 185 224 271 331
#     4  10  20  36  57  78 105 144 187 225 265 323
#     4   9  19  34  50  78 113 140 174 225 280 327
#
# _framework density 19.026475000000001
#
# number of rings (size 3 to 8) (size 9 to 14) (size 15 to 20)
#    0.000    2.250    1.250    1.875    1.750    4.250 
#    0.000    0.625    0.000    0.000    0.000    0.000 
#    0.000    5.500    0.000    0.000    0.000    0.000 
#
# Total GULP energy -793701.209339 kJ/mol
# GULP energy per Si atom -12401.581396 kJ/mol
# Density = 1.898317 g / cm^3
# Si number density = 19.026475 Si / 1000 Ang^3
#
#
#
# Elastic Constant Matrix: (Units=GPa)
#
#
# Indices 1 2 3 4 5 6 
#
# 1 138.0626 63.0750 33.1652 0.0000 0.0000 0.0000
# 2 63.0750 153.1114 28.8164 0.0000 0.0000 0.0000
# 3 33.1652 28.8164 33.4239 0.0000 0.0000 0.0000
# 4 0.0000 0.0000 0.0000 15.5776 0.0000 0.0000
# 5 0.0000 0.0000 0.0000 0.0000 22.3780 0.0000
# 6 0.0000 0.0000 0.0000 0.0000 0.0000 33.5304
#
#
#
# Elastic Compliance Matrix: (Units=1/GPa)
#
#
# Indices 1 2 3 4 5 6 
#
# 1 0.010429 -0.002804 -0.007931 0.000000 0.000000 0.000000
# 2 -0.002804 0.008550 -0.004589 0.000000 0.000000 0.000000
# 3 -0.007931 -0.004589 0.041745 0.000000 0.000000 0.000000
# 4 0.000000 0.000000 0.000000 0.064195 0.000000 0.000000
# 5 0.000000 0.000000 0.000000 0.000000 0.044687 0.000000
# 6 0.000000 0.000000 0.000000 0.000000 0.000000 0.029824
#
#
# Mechanical properties :
#
#
# Convention : Reuss Voigt Hill
#
# Bulk Modulus (GPa) = 33.24925 63.85679 48.55302
# Shear Modulus (GPa) = 20.82435 27.59997 24.21216
#
# Velocity S-wave (km/s) = 3.31190 3.81282 3.57115
# Velocity P-wave (km/s) = 5.66905 7.28137 6.52520
#
# Compressibility (1/GPa) = 0.03007586
#
# Stress axis : x y z
#
# Youngs Moduli (GPa) = 95.88456 116.96029 23.95471
#
# Poissons Ratio (x) = 0.32791 0.18999
# Poissons Ratio (y) = 0.26883 0.10994
# Poissons Ratio (z) = 0.76049 0.53677
#
# Static dielectric constant tensor:
#      x y z
#    x 3.890810 0.000000 0.000000 
#    y 0.000000 3.748000 0.000000 
#    z 0.000000 0.000000 3.042750 
# 
# 
# High freq. dielectric constant tensor:
#      x y z
#    x 1.751610 0.000000 0.000000 
#    y 0.000000 1.761730 0.000000 
#    z 0.000000 0.000000 1.687870 
# 
# From -- ./inp_files/8258.got.cif
#   From: 2010.06.25/outbox.cif.g09.slc.cpg/sg58_5_cif.got.tgz:8258.got - 2010.06.26 21:38:00.
