data_PCOD8237466
_publ_section_title
;
Structure prediction by ZEFSAII (Michael W. Deem and Ramdas Pophale) SiO2 
 PCOD8237466
Probable space group: P N N M
;
_chemical_formula_sum "Si O2"
_cell_formula_units_Z 56
_cell_length_a 13.061665
_cell_length_b 12.009835
_cell_length_c 18.268444
_cell_angle_alpha 90.000000
_cell_angle_beta 90.000000
_cell_angle_gamma 90.000000
_cell_volume 2865.742338
_symmetry_space_group_name_H-M "P N N M"
_symmetry_group_IT_number 58
_symmetry_cell_setting 'orthorhombic'
loop_
_space_group_symop_operation_xyz
x,y,z
-x,-y,z
1/2+x,1/2-y,1/2-z
1/2-x,1/2+y,1/2-z
-x,-y,-z
x,y,-z
1/2-x,1/2+y,1/2+z
1/2+x,1/2-y,1/2+z
loop_
_atom_site_type_symbol
_atom_site_label
_atom_site_fract_x
_atom_site_fract_y
_atom_site_fract_z
Si Si1 0.663017 0.616684 0.082636
Si Si2 0.268219 0.066414 0.915969
Si Si3 0.942785 0.303693 0.662338
Si Si4 0.625721 0.247182 0.582228
Si Si5 0.961409 0.378287 0.821293
Si Si6 0.740110 0.892270 0.585617
Si Si7 0.849243 0.666622 0.415852
O O1 0.580842 0.677820 0.134873
O O2 0.772479 0.674709 0.087267
O O3 0.679938 0.489387 0.108228
O O4 0.619275 0.621103 0.000000
O O5 0.359752 0.111859 0.867805
O O6 0.159556 0.125621 0.895363
O O7 0.267347 0.933479 0.903877
O O8 0.292818 0.097804 0.000000
O O9 0.935314 0.306857 0.749725
O O10 0.052959 0.346651 0.635781
O O11 0.580258 0.244960 0.500000
O O12 0.542333 0.197265 0.635810
O O13 0.864283 0.402412 0.871011
O O14 0.000000 0.500000 0.797877
O O15 0.713613 0.901750 0.500000
O O16 0.790999 0.776946 0.607542
O O17 0.886394 0.670657 0.500000
#
# Coordination Sequence:
#
# PCOD8237466 Si02
#       7
#     8   8   8   8   8   8   8
#     4   9  18  37  63  86 111 147 196 246 288 336
#     4   9  18  36  60  85 111 150 198 239 282 339
#     4  11  22  35  55  87 117 153 190 232 290 358
#     4   9  18  34  60  85 108 146 198 247 284 333
#     4  12  23  36  57  86 119 154 193 241 299 358
#     4  10  22  39  61  89 115 150 200 248 293 339
#     4  10  20  36  59  85 117 151 191 243 289 340
#
# _framework density 19.541184999999999
#
# number of rings (size 3 to 8) (size 9 to 14) (size 15 to 20)
#    0.000    2.000    1.429    3.857    0.000    4.571 
#    2.571    2.857    3.143    3.429    0.000    0.000 
#    0.000    0.000    0.000    0.000    0.000    0.000 
#
# Total GULP energy -694302.040054 kJ/mol
# GULP energy per Si atom -12398.250715 kJ/mol
# Density = 1.949671 g / cm^3
# Si number density = 19.541185 Si / 1000 Ang^3
#
#
#
# Elastic Constant Matrix: (Units=GPa)
#
#
# Indices 1 2 3 4 5 6 
#
# 1 60.1619 44.3016 45.4181 0.0000 0.0000 0.0000
# 2 44.3016 153.9206 47.7626 0.0000 0.0000 0.0000
# 3 45.4181 47.7626 93.0772 0.0000 0.0000 0.0000
# 4 0.0000 0.0000 0.0000 10.8309 0.0000 0.0000
# 5 0.0000 0.0000 0.0000 0.0000 -24.2041 0.0000
# 6 0.0000 0.0000 0.0000 0.0000 0.0000 29.1016
#
#
#
# Elastic Compliance Matrix: (Units=1/GPa)
#
#
# Indices 1 2 3 4 5 6 
#
# 1 0.028907 -0.004690 -0.011699 0.000000 0.000000 0.000000
# 2 -0.004690 0.008488 -0.002067 0.000000 0.000000 0.000000
# 3 -0.011699 -0.002067 0.017513 0.000000 0.000000 0.000000
# 4 0.000000 0.000000 0.000000 0.092329 0.000000 0.000000
# 5 0.000000 0.000000 0.000000 0.000000 -0.041315 0.000000
# 6 0.000000 0.000000 0.000000 0.000000 0.000000 0.034362
#
#
# Mechanical properties :
#
#
# Convention : Reuss Voigt Hill
#
# Bulk Modulus (GPa) = 55.56655 64.68048 60.12351
# Shear Modulus (GPa) = 27.29330 14.45752 20.87541
#
# Velocity S-wave (km/s) = 3.74131 2.72297 3.27200
# Velocity P-wave (km/s) = 6.86735 6.56182 6.71632
#
# Compressibility (1/GPa) = 0.01799644
#
# Stress axis : x y z
#
# Youngs Moduli (GPa) = 34.59346 117.81105 57.09967
#
# Poissons Ratio (x) = 0.55251 0.66801
# Poissons Ratio (y) = 0.16224 0.11804
# Poissons Ratio (z) = 0.40471 0.24354
#
# Static dielectric constant tensor:
#      x y z
#    x 3.389270 0.000000 0.000000 
#    y 0.000000 4.046530 0.000000 
#    z 0.000000 0.000000 3.441270 
# 
# 
# High freq. dielectric constant tensor:
#      x y z
#    x 1.742270 0.000000 0.000000 
#    y 0.000000 1.774850 0.000000 
#    z 0.000000 0.000000 1.747950 
# 
# From -- ./inp_files/22197.got.cif
#   From: 2010.06.25/outbox.cif.g09.slc.cpg/sg58_12_cif.got.tgz:22197.got - 2010.06.26 21:38:00.
