data_PCOD8237645
_publ_section_title
;
Structure prediction by ZEFSAII (Michael W. Deem and Ramdas Pophale) SiO2 
 PCOD8237645
Probable space group: P N N M
;
_chemical_formula_sum "Si O2"
_cell_formula_units_Z 60
_cell_length_a 12.969617
_cell_length_b 19.663710
_cell_length_c 12.239439
_cell_angle_alpha 90.000000
_cell_angle_beta 90.000000
_cell_angle_gamma 90.000000
_cell_volume 3121.433767
_symmetry_space_group_name_H-M "P N N M"
_symmetry_group_IT_number 58
_symmetry_cell_setting 'orthorhombic'
loop_
_space_group_symop_operation_xyz
x,y,z
-x,-y,z
1/2+x,1/2-y,1/2-z
1/2-x,1/2+y,1/2-z
-x,-y,-z
x,y,-z
1/2-x,1/2+y,1/2+z
1/2+x,1/2-y,1/2+z
loop_
_atom_site_type_symbol
_atom_site_label
_atom_site_fract_x
_atom_site_fract_y
_atom_site_fract_z
Si Si1 0.717253 0.968247 0.372373
Si Si2 0.399690 0.894308 0.873346
Si Si3 0.500000 0.000000 0.725525
Si Si4 0.536426 0.255984 0.126596
Si Si5 0.504776 0.580109 0.622148
Si Si6 0.695207 0.733677 0.870400
Si Si7 0.823321 0.851969 0.760519
Si Si8 0.703775 0.595293 0.242779
O O1 0.733296 0.953501 0.500000
O O2 0.598338 0.987251 0.350987
O O3 0.746093 0.901345 0.303952
O O4 0.792291 0.030300 0.337514
O O5 0.410128 0.815146 0.846172
O O6 0.284673 0.917375 0.840901
O O7 0.483787 0.934884 0.803083
O O8 0.419269 0.910345 0.000000
O O9 0.420719 0.255395 0.172646
O O10 0.600927 0.317040 0.175512
O O11 0.532163 0.271079 0.000000
O O12 0.500000 0.500000 0.625486
O O13 0.531379 0.606171 0.500000
O O14 0.391939 0.606568 0.653681
O O15 0.591024 0.606112 0.706413
O O16 0.760542 0.796041 0.826161
O O17 0.736639 0.661906 0.825151
O O18 0.704307 0.732834 0.000000
#
# Coordination Sequence:
#
# PCOD8237645 Si02
#       8
#     8   8   4   8   8   8   8   8
#     4  11  24  41  63  91 121 162 208 253 313 371
#     4  10  20  37  61  90 118 157 203 245 301 362
#     4  10  22  40  64  86 126 160 198 264 300 368
#     4  10  21  37  59  85 122 158 196 252 302 354
#     4  11  23  41  63  92 125 161 204 256 316 371
#     4  11  23  39  62  90 123 162 203 251 314 372
#     4  12  22  41  64  91 123 162 209 257 305 376
#     4  11  21  40  62  88 125 160 200 254 308 368
#
# _framework density 19.221935999999999
#
# number of rings (size 3 to 8) (size 9 to 14) (size 15 to 20)
#    0.000    1.200    4.000    2.800    0.000    0.000 
#    0.000    2.000    0.000    0.000    0.000    0.000 
#    0.000    0.000    0.000    0.000    0.000    0.000 
#
# Total GULP energy -744226.747150 kJ/mol
# GULP energy per Si atom -12403.779119 kJ/mol
# Density = 1.917819 g / cm^3
# Si number density = 19.221936 Si / 1000 Ang^3
#
#
#
# Elastic Constant Matrix: (Units=GPa)
#
#
# Indices 1 2 3 4 5 6 
#
# 1 95.3233 29.7809 35.2059 0.0000 0.0000 0.0000
# 2 29.7809 101.4903 50.7872 0.0000 0.0000 0.0000
# 3 35.2059 50.7872 91.8524 0.0000 0.0000 0.0000
# 4 0.0000 0.0000 0.0000 63.5322 0.0000 0.0000
# 5 0.0000 0.0000 0.0000 0.0000 27.9280 0.0000
# 6 0.0000 0.0000 0.0000 0.0000 0.0000 35.7963
#
#
#
# Elastic Compliance Matrix: (Units=1/GPa)
#
#
# Indices 1 2 3 4 5 6 
#
# 1 0.012441 -0.001748 -0.003802 0.000000 0.000000 0.000000
# 2 -0.001748 0.013868 -0.006998 0.000000 0.000000 0.000000
# 3 -0.003802 -0.006998 0.016214 0.000000 0.000000 0.000000
# 4 0.000000 0.000000 0.000000 0.015740 0.000000 0.000000
# 5 0.000000 0.000000 0.000000 0.000000 0.035806 0.000000
# 6 0.000000 0.000000 0.000000 0.000000 0.000000 0.027936
#
#
# Mechanical properties :
#
#
# Convention : Reuss Voigt Hill
#
# Bulk Modulus (GPa) = 57.38326 57.80154 57.59240
# Shear Modulus (GPa) = 32.69917 36.97746 34.83832
#
# Velocity S-wave (km/s) = 4.12896 4.39077 4.26188
# Velocity P-wave (km/s) = 7.25596 7.47269 7.36512
#
# Compressibility (1/GPa) = 0.01742668
#
# Stress axis : x y z
#
# Youngs Moduli (GPa) = 80.38003 72.10879 61.67696
#
# Poissons Ratio (x) = 0.12605 0.23449
# Poissons Ratio (y) = 0.14051 0.43161
# Poissons Ratio (z) = 0.30560 0.50461
#
# Static dielectric constant tensor:
#      x y z
#    x 3.823890 0.000000 0.000000 
#    y 0.000000 3.536630 0.000000 
#    z 0.000000 0.000000 3.473110 
# 
# 
# High freq. dielectric constant tensor:
#      x y z
#    x 1.753550 0.000000 0.000000 
#    y 0.000000 1.757890 0.000000 
#    z 0.000000 0.000000 1.749730 
# 
# From -- ./inp_files/14670.got.cif
#   From: 2010.06.25/outbox.cif.g09.slc.cpg/sg58_8_cif.got.tgz:14670.got - 2010.06.26 21:38:00.
