data_PCOD8237533
_publ_section_title
;
Structure prediction by ZEFSAII (Michael W. Deem and Ramdas Pophale) SiO2 
 PCOD8237533
Probable space group: P N N M
;
_chemical_formula_sum "Si O2"
_cell_formula_units_Z 48
_cell_length_a 9.557848
_cell_length_b 11.471945
_cell_length_c 21.828882
_cell_angle_alpha 90.000000
_cell_angle_beta 90.000000
_cell_angle_gamma 90.000000
_cell_volume 2393.473751
_symmetry_space_group_name_H-M "P N N M"
_symmetry_group_IT_number 58
_symmetry_cell_setting 'orthorhombic'
loop_
_space_group_symop_operation_xyz
x,y,z
-x,-y,z
1/2+x,1/2-y,1/2-z
1/2-x,1/2+y,1/2-z
-x,-y,-z
x,y,-z
1/2-x,1/2+y,1/2+z
1/2+x,1/2-y,1/2+z
loop_
_atom_site_type_symbol
_atom_site_label
_atom_site_fract_x
_atom_site_fract_y
_atom_site_fract_z
Si Si1 0.672557 0.734987 0.127567
Si Si2 0.156022 0.541196 0.287538
Si Si3 0.840017 0.988654 0.674858
Si Si4 0.378410 0.693112 0.929945
Si Si5 0.407463 0.641285 0.431856
Si Si6 0.195260 0.905401 0.111080
O O1 0.648134 0.840353 0.174308
O O2 0.713443 0.618827 0.163704
O O3 0.538720 0.719754 0.084819
O O4 0.804594 0.754154 0.083795
O O5 0.242816 0.569418 0.226339
O O6 0.238084 0.438411 0.323448
O O7 0.000000 0.500000 0.271369
O O8 0.824319 0.909906 0.614030
O O9 0.000000 0.000000 0.697360
O O10 0.291654 0.811297 0.921960
O O11 0.365285 0.650251 0.000000
O O12 0.468716 0.657847 0.500000
O O13 0.536040 0.643046 0.383237
O O14 0.317096 0.522127 0.429709
#
# Coordination Sequence:
#
# PCOD8237533 Si02
#       6
#     8   8   8   8   8   8
#     4  10  23  40  61  96 122 170 211 260 316 372
#     4  11  23  41  63  92 128 157 217 269 315 382
#     4  10  26  41  62  94 124 175 209 256 324 376
#     4  11  22  42  66  93 132 170 216 262 315 388
#     4  10  20  36  61  93 128 162 204 258 320 375
#     4  10  21  37  60  94 123 165 206 259 321 370
#
# _framework density 20.054532999999999
#
# number of rings (size 3 to 8) (size 9 to 14) (size 15 to 20)
#    0.000    1.667    1.667    2.500    7.000    5.000 
#    0.000    2.500    0.000    2.500    0.000    0.000 
#    0.000    0.000    0.000    0.000    0.000    0.000 
#
# Total GULP energy -595170.388324 kJ/mol
# GULP energy per Si atom -12399.383090 kJ/mol
# Density = 2.000889 g / cm^3
# Si number density = 20.054533 Si / 1000 Ang^3
#
#
#
# Elastic Constant Matrix: (Units=GPa)
#
#
# Indices 1 2 3 4 5 6 
#
# 1 96.2447 28.6801 57.2635 0.0000 0.0000 0.0000
# 2 28.6801 72.8484 36.0348 0.0000 0.0000 0.0000
# 3 57.2635 36.0348 138.2653 0.0000 0.0000 0.0000
# 4 0.0000 0.0000 0.0000 25.0513 0.0000 0.0000
# 5 0.0000 0.0000 0.0000 0.0000 32.7745 0.0000
# 6 0.0000 0.0000 0.0000 0.0000 0.0000 27.0483
#
#
#
# Elastic Compliance Matrix: (Units=1/GPa)
#
#
# Indices 1 2 3 4 5 6 
#
# 1 0.014379 -0.003117 -0.005143 0.000000 0.000000 0.000000
# 2 -0.003117 0.016434 -0.002992 0.000000 0.000000 0.000000
# 3 -0.005143 -0.002992 0.010142 0.000000 0.000000 0.000000
# 4 0.000000 0.000000 0.000000 0.039918 0.000000 0.000000
# 5 0.000000 0.000000 0.000000 0.000000 0.030512 0.000000
# 6 0.000000 0.000000 0.000000 0.000000 0.000000 0.036971
#
#
# Mechanical properties :
#
#
# Convention : Reuss Voigt Hill
#
# Bulk Modulus (GPa) = 54.19607 61.25726 57.72666
# Shear Modulus (GPa) = 28.24692 29.33347 28.79020
#
# Velocity S-wave (km/s) = 3.75708 3.82866 3.79304
# Velocity P-wave (km/s) = 6.77524 7.08212 6.93038
#
# Compressibility (1/GPa) = 0.01845152
#
# Stress axis : x y z
#
# Youngs Moduli (GPa) = 69.54664 60.84791 98.59789
#
# Poissons Ratio (x) = 0.18966 0.50706
# Poissons Ratio (y) = 0.21678 0.29503
# Poissons Ratio (z) = 0.35766 0.18207
#
# Static dielectric constant tensor:
#      x y z
#    x 3.758790 0.000000 0.000000 
#    y 0.000000 3.666360 0.000000 
#    z 0.000000 0.000000 3.576270 
# 
# 
# High freq. dielectric constant tensor:
#      x y z
#    x 1.791100 0.000000 0.000000 
#    y 0.000000 1.781030 0.000000 
#    z 0.000000 0.000000 1.774500 
# 
# From -- ./inp_files/31485.got.cif
#   From: 2010.06.25/outbox.cif.g09.slc.cpg/sg58_16_cif.got.tgz:31485.got - 2010.06.26 21:38:00.
