data_PCOD8237842
_publ_section_title
;
Structure prediction by ZEFSAII (Michael W. Deem and Ramdas Pophale) SiO2 
 PCOD8237842
Probable space group: P N N M
;
_chemical_formula_sum "Si O2"
_cell_formula_units_Z 48
_cell_length_a 12.711816
_cell_length_b 11.598876
_cell_length_c 16.107938
_cell_angle_alpha 90.000000
_cell_angle_beta 90.000000
_cell_angle_gamma 90.000000
_cell_volume 2374.999119
_symmetry_space_group_name_H-M "P N N M"
_symmetry_group_IT_number 58
_symmetry_cell_setting 'orthorhombic'
loop_
_space_group_symop_operation_xyz
x,y,z
-x,-y,z
1/2+x,1/2-y,1/2-z
1/2-x,1/2+y,1/2-z
-x,-y,-z
x,y,-z
1/2-x,1/2+y,1/2+z
1/2+x,1/2-y,1/2+z
loop_
_atom_site_type_symbol
_atom_site_label
_atom_site_fract_x
_atom_site_fract_y
_atom_site_fract_z
Si Si1 0.701510 0.772824 0.901150
Si Si2 0.397541 0.134055 0.405686
Si Si3 0.379112 0.892986 0.343158
Si Si4 0.999114 0.128478 0.598650
Si Si5 0.197317 0.260545 0.405201
Si Si6 0.123356 0.488020 0.660195
O O1 0.807945 0.715230 0.867838
O O2 0.607552 0.689360 0.873703
O O3 0.684243 0.893074 0.854224
O O4 0.706041 0.792406 0.000000
O O5 0.425751 0.168611 0.500000
O O6 0.499972 0.149205 0.348194
O O7 0.307610 0.216850 0.365968
O O8 0.359198 0.000419 0.405163
O O9 0.356762 0.939693 0.251633
O O10 0.007795 0.127875 0.500000
O O11 0.098295 0.196518 0.637955
O O12 0.000000 0.000000 0.635313
O O13 0.203625 0.220459 0.500000
O O14 0.179458 0.396926 0.400614
O O15 0.000000 0.500000 0.637944
#
# Coordination Sequence:
#
# PCOD8237842 Si02
#       6
#     8   8   8   8   8   8
#     4  11  23  40  65  92 126 171 221 267 316 387
#     4  10  20  39  66  91 120 165 216 260 313 382
#     4  11  23  39  63  91 127 166 213 263 322 377
#     4   9  17  31  55  90 121 152 203 263 311 355
#     4  10  21  37  62  89 123 165 210 258 312 383
#     4  12  24  40  62  92 131 172 208 259 332 391
#
# _framework density 20.210533999999999
#
# number of rings (size 3 to 8) (size 9 to 14) (size 15 to 20)
#    0.000    1.500    3.333    3.500    2.333    3.333 
#    0.000    0.833    0.000    3.000    0.000    0.000 
#    0.000    0.000    0.000    0.000    0.000    0.000 
#
# Total GULP energy -595202.554542 kJ/mol
# GULP energy per Si atom -12400.053220 kJ/mol
# Density = 2.016453 g / cm^3
# Si number density = 20.210534 Si / 1000 Ang^3
#
#
#
# Elastic Constant Matrix: (Units=GPa)
#
#
# Indices 1 2 3 4 5 6 
#
# 1 128.1581 76.2936 26.7598 0.0000 0.0000 0.0000
# 2 76.2936 151.8447 17.5938 0.0000 0.0000 0.0000
# 3 26.7598 17.5938 55.6509 0.0000 0.0000 0.0000
# 4 0.0000 0.0000 0.0000 26.7185 0.0000 0.0000
# 5 0.0000 0.0000 0.0000 0.0000 21.1386 0.0000
# 6 0.0000 0.0000 0.0000 0.0000 0.0000 40.1934
#
#
#
# Elastic Compliance Matrix: (Units=1/GPa)
#
#
# Indices 1 2 3 4 5 6 
#
# 1 0.011928 -0.005531 -0.003987 0.000000 0.000000 0.000000
# 2 -0.005531 0.009401 -0.000312 0.000000 0.000000 0.000000
# 3 -0.003987 -0.000312 0.019985 0.000000 0.000000 0.000000
# 4 0.000000 0.000000 0.000000 0.037427 0.000000 0.000000
# 5 0.000000 0.000000 0.000000 0.000000 0.047307 0.000000
# 6 0.000000 0.000000 0.000000 0.000000 0.000000 0.024880
#
#
# Mechanical properties :
#
#
# Convention : Reuss Voigt Hill
#
# Bulk Modulus (GPa) = 46.18301 64.10535 55.14418
# Shear Modulus (GPa) = 28.12037 31.94386 30.03211
#
# Velocity S-wave (km/s) = 3.73416 3.97993 3.85900
# Velocity P-wave (km/s) = 6.44146 7.27375 6.87022
#
# Compressibility (1/GPa) = 0.02165299
#
# Stress axis : x y z
#
# Youngs Moduli (GPa) = 83.83498 106.37115 50.03735
#
# Poissons Ratio (x) = 0.58837 0.19950
# Poissons Ratio (y) = 0.46372 0.01563
# Poissons Ratio (z) = 0.33425 0.03323
#
# Static dielectric constant tensor:
#      x y z
#    x 3.792590 0.000000 0.000000 
#    y 0.000000 3.728220 0.000000 
#    z 0.000000 0.000000 3.380240 
# 
# 
# High freq. dielectric constant tensor:
#      x y z
#    x 1.794070 0.000000 0.000000 
#    y 0.000000 1.788480 0.000000 
#    z 0.000000 0.000000 1.767360 
# 
# From -- ./inp_files/26127.got.cif
#   From: 2010.06.25/outbox.cif.g09.slc.cpg/sg58_14_cif.got.tgz:26127.got - 2010.06.26 21:38:00.
