data_PCOD8237511
_publ_section_title
;
Structure prediction by ZEFSAII (Michael W. Deem and Ramdas Pophale) SiO2 
 PCOD8237511
Probable space group: P N N M
;
_chemical_formula_sum "Si O2"
_cell_formula_units_Z 56
_cell_length_a 16.121340
_cell_length_b 19.980850
_cell_length_c 8.702965
_cell_angle_alpha 90.000000
_cell_angle_beta 90.000000
_cell_angle_gamma 90.000000
_cell_volume 2803.382344
_symmetry_space_group_name_H-M "P N N M"
_symmetry_group_IT_number 58
_symmetry_cell_setting 'orthorhombic'
loop_
_space_group_symop_operation_xyz
x,y,z
-x,-y,z
1/2+x,1/2-y,1/2-z
1/2-x,1/2+y,1/2-z
-x,-y,-z
x,y,-z
1/2-x,1/2+y,1/2+z
1/2+x,1/2-y,1/2+z
loop_
_atom_site_type_symbol
_atom_site_label
_atom_site_fract_x
_atom_site_fract_y
_atom_site_fract_z
Si Si1 0.749436 0.475686 0.679480
Si Si2 0.002944 0.315151 0.180021
Si Si3 0.809954 0.108137 0.677770
Si Si4 0.922810 0.453982 0.178443
Si Si5 0.519632 0.676964 0.821189
Si Si6 0.677097 0.203440 0.819494
Si Si7 0.346392 0.656726 0.318970
O O1 0.737471 0.489770 0.500000
O O2 0.700567 0.531508 0.774590
O O3 0.846278 0.477366 0.719020
O O4 0.711569 0.404721 0.729621
O O5 0.943597 0.377244 0.217315
O O6 0.959781 0.248955 0.247041
O O7 0.092343 0.327897 0.255268
O O8 0.017290 0.306422 0.000000
O O9 0.786590 0.118132 0.500000
O O10 0.904934 0.127093 0.710452
O O11 0.751895 0.154721 0.779801
O O12 0.000000 0.500000 0.224376
O O13 0.900010 0.463527 0.000000
O O14 0.438178 0.644486 0.746798
O O15 0.503072 0.688352 0.000000
O O16 0.694541 0.276345 0.748740
O O17 0.669340 0.211123 0.000000
O O18 0.352922 0.664596 0.500000
#
# Coordination Sequence:
#
# PCOD8237511 Si02
#       7
#     8   8   8   8   8   8   8
#     4  11  25  41  61  90 121 159 203 250 302 360
#     4  10  20  36  60  89 120 157 199 245 301 358
#     4  11  24  41  61  86 121 160 200 250 306 361
#     4  10  22  39  60  87 122 162 200 242 300 365
#     4  10  22  39  61  88 116 155 203 251 302 356
#     4  11  22  37  62  91 121 158 202 249 299 358
#     4  10  22  41  62  88 123 159 198 249 307 360
#
# _framework density 19.975871000000001
#
# number of rings (size 3 to 8) (size 9 to 14) (size 15 to 20)
#    0.000    1.571    0.000    6.000    2.000    7.714 
#    0.000    2.857    0.000    0.000    0.000    0.000 
#    0.000    0.000    0.000    0.000    0.000    0.000 
#
# Total GULP energy -694732.401543 kJ/mol
# GULP energy per Si atom -12405.935742 kJ/mol
# Density = 1.993040 g / cm^3
# Si number density = 19.975871 Si / 1000 Ang^3
#
#
#
# Elastic Constant Matrix: (Units=GPa)
#
#
# Indices 1 2 3 4 5 6 
#
# 1 61.0408 36.4904 27.8677 0.0000 0.0000 0.0000
# 2 36.4904 94.7955 36.1332 0.0000 0.0000 0.0000
# 3 27.8677 36.1332 99.2579 0.0000 0.0000 0.0000
# 4 0.0000 0.0000 0.0000 20.8375 0.0000 0.0000
# 5 0.0000 0.0000 0.0000 0.0000 21.0107 0.0000
# 6 0.0000 0.0000 0.0000 0.0000 0.0000 37.3660
#
#
#
# Elastic Compliance Matrix: (Units=1/GPa)
#
#
# Indices 1 2 3 4 5 6 
#
# 1 0.022364 -0.007217 -0.003652 0.000000 0.000000 0.000000
# 2 -0.007217 0.014577 -0.003280 0.000000 0.000000 0.000000
# 3 -0.003652 -0.003280 0.012294 0.000000 0.000000 0.000000
# 4 0.000000 0.000000 0.000000 0.047990 0.000000 0.000000
# 5 0.000000 0.000000 0.000000 0.000000 0.047595 0.000000
# 6 0.000000 0.000000 0.000000 0.000000 0.000000 0.026762
#
#
# Mechanical properties :
#
#
# Convention : Reuss Voigt Hill
#
# Bulk Modulus (GPa) = 47.76108 50.67518 49.21813
# Shear Modulus (GPa) = 24.17090 26.14970 25.16030
#
# Velocity S-wave (km/s) = 3.48229 3.62202 3.55284
# Velocity P-wave (km/s) = 6.33480 6.55098 6.44380
#
# Compressibility (1/GPa) = 0.02093755
#
# Stress axis : x y z
#
# Youngs Moduli (GPa) = 44.71495 68.59905 81.33886
#
# Poissons Ratio (x) = 0.49506 0.29703
# Poissons Ratio (y) = 0.32270 0.26683
# Poissons Ratio (z) = 0.16329 0.22504
#
# Static dielectric constant tensor:
#      x y z
#    x 3.576030 0.000000 0.000000 
#    y 0.000000 3.784380 0.000000 
#    z 0.000000 0.000000 3.720690 
# 
# 
# High freq. dielectric constant tensor:
#      x y z
#    x 1.780520 0.000000 0.000000 
#    y 0.000000 1.787910 0.000000 
#    z 0.000000 0.000000 1.791750 
# 
# From -- ./inp_files/6404.got.cif
#   From: 2010.06.25/outbox.cif.g09.slc.cpg/sg58_4_cif.got.tgz:6404.got - 2010.06.26 21:38:00.
