data_PCOD8237423
_publ_section_title
;
Structure prediction by ZEFSAII (Michael W. Deem and Ramdas Pophale) SiO2 
 PCOD8237423
Probable space group: P N N M
;
_chemical_formula_sum "Si O2"
_cell_formula_units_Z 56
_cell_length_a 14.752753
_cell_length_b 20.801560
_cell_length_c 9.527794
_cell_angle_alpha 90.000000
_cell_angle_beta 90.000000
_cell_angle_gamma 90.000000
_cell_volume 2923.892059
_symmetry_space_group_name_H-M "P N N M"
_symmetry_group_IT_number 58
_symmetry_cell_setting 'orthorhombic'
loop_
_space_group_symop_operation_xyz
x,y,z
-x,-y,z
1/2+x,1/2-y,1/2-z
1/2-x,1/2+y,1/2-z
-x,-y,-z
x,y,-z
1/2-x,1/2+y,1/2+z
1/2+x,1/2-y,1/2+z
loop_
_atom_site_type_symbol
_atom_site_label
_atom_site_fract_x
_atom_site_fract_y
_atom_site_fract_z
Si Si1 0.599294 0.784257 0.837056
Si Si2 0.221893 0.902864 0.837469
Si Si3 0.984332 0.072990 0.836074
Si Si4 0.143800 0.477410 0.159023
Si Si5 0.233645 0.259192 0.335934
Si Si6 0.535405 0.899042 0.339580
Si Si7 0.053870 0.183396 0.339776
O O1 0.693298 0.778796 0.755200
O O2 0.542878 0.842262 0.771099
O O3 0.540555 0.720174 0.817480
O O4 0.618175 0.798594 0.000000
O O5 0.116711 0.905084 0.796878
O O6 0.272293 0.959752 0.756723
O O7 0.264346 0.834239 0.794582
O O8 0.235624 0.917286 0.000000
O O9 0.054124 0.119511 0.755000
O O10 0.004939 0.080480 0.000000
O O11 0.000000 0.000000 0.786468
O O12 0.119108 0.551999 0.181074
O O13 0.057611 0.434300 0.197010
O O14 0.173951 0.464755 0.000000
O O15 0.257477 0.250522 0.500000
O O16 0.135908 0.230528 0.296730
O O17 0.534961 0.873334 0.500000
O O18 0.065678 0.161394 0.500000
#
# Coordination Sequence:
#
# PCOD8237423 Si02
#       7
#     8   8   8   8   8   8   8
#     4  11  22  36  57  86 115 145 188 241 283 337
#     4  10  20  36  58  83 115 153 190 237 294 347
#     4  10  22  40  61  84 113 152 196 239 288 349
#     4   9  19  35  56  81 111 149 193 234 275 340
#     4  10  21  38  59  83 114 154 192 232 295 355
#     4   9  19  36  55  80 115 152 187 230 287 342
#     4  10  22  39  59  85 117 150 193 244 292 347
#
# _framework density 19.152555
#
# number of rings (size 3 to 8) (size 9 to 14) (size 15 to 20)
#    0.000    2.143    1.429    2.143    0.000    6.000 
#    0.000    4.286    0.000    0.000    0.000    0.000 
#    0.000    0.000    0.000    0.000    0.000    0.000 
#
# Total GULP energy -694573.466169 kJ/mol
# GULP energy per Si atom -12403.097610 kJ/mol
# Density = 1.910896 g / cm^3
# Si number density = 19.152555 Si / 1000 Ang^3
#
#
#
# Elastic Constant Matrix: (Units=GPa)
#
#
# Indices 1 2 3 4 5 6 
#
# 1 69.1357 27.1036 34.5064 0.0000 0.0000 0.0000
# 2 27.1036 96.7079 45.2396 0.0000 0.0000 0.0000
# 3 34.5064 45.2396 69.9233 0.0000 0.0000 0.0000
# 4 0.0000 0.0000 0.0000 36.0746 0.0000 0.0000
# 5 0.0000 0.0000 0.0000 0.0000 27.0145 0.0000
# 6 0.0000 0.0000 0.0000 0.0000 0.0000 32.3349
#
#
#
# Elastic Compliance Matrix: (Units=1/GPa)
#
#
# Indices 1 2 3 4 5 6 
#
# 1 0.019317 -0.001369 -0.008647 0.000000 0.000000 0.000000
# 2 -0.001369 0.014925 -0.008981 0.000000 0.000000 0.000000
# 3 -0.008647 -0.008981 0.024379 0.000000 0.000000 0.000000
# 4 0.000000 0.000000 0.000000 0.027720 0.000000 0.000000
# 5 0.000000 0.000000 0.000000 0.000000 0.037017 0.000000
# 6 0.000000 0.000000 0.000000 0.000000 0.000000 0.030926
#
#
# Mechanical properties :
#
#
# Convention : Reuss Voigt Hill
#
# Bulk Modulus (GPa) = 48.47862 49.94067 49.20964
# Shear Modulus (GPa) = 25.10607 27.67926 26.39266
#
# Velocity S-wave (km/s) = 3.62449 3.80570 3.71620
# Velocity P-wave (km/s) = 6.54849 6.74114 6.64551
#
# Compressibility (1/GPa) = 0.02062765
#
# Stress axis : x y z
#
# Youngs Moduli (GPa) = 51.76855 67.00009 41.01831
#
# Poissons Ratio (x) = 0.09170 0.35469
# Poissons Ratio (y) = 0.07085 0.36839
# Poissons Ratio (z) = 0.44765 0.60174
#
# Static dielectric constant tensor:
#      x y z
#    x 3.400690 0.000000 0.000000 
#    y 0.000000 3.471950 0.000000 
#    z 0.000000 0.000000 3.408530 
# 
# 
# High freq. dielectric constant tensor:
#      x y z
#    x 1.742640 0.000000 0.000000 
#    y 0.000000 1.745880 0.000000 
#    z 0.000000 0.000000 1.741190 
# 
# From -- ./inp_files/6252.got.cif
#   From: 2010.06.25/outbox.cif.g09.slc.cpg/sg58_4_cif.got.tgz:6252.got - 2010.06.26 21:38:00.
