data_PCOD8237637
_publ_section_title
;
Structure prediction by ZEFSAII (Michael W. Deem and Ramdas Pophale) SiO2 
 PCOD8237637
Probable space group: P N N M
;
_chemical_formula_sum "Si O2"
_cell_formula_units_Z 48
_cell_length_a 16.476629
_cell_length_b 17.651182
_cell_length_c 8.697180
_cell_angle_alpha 90.000000
_cell_angle_beta 90.000000
_cell_angle_gamma 90.000000
_cell_volume 2529.418056
_symmetry_space_group_name_H-M "P N N M"
_symmetry_group_IT_number 58
_symmetry_cell_setting 'orthorhombic'
loop_
_space_group_symop_operation_xyz
x,y,z
-x,-y,z
1/2+x,1/2-y,1/2-z
1/2-x,1/2+y,1/2-z
-x,-y,-z
x,y,-z
1/2-x,1/2+y,1/2+z
1/2+x,1/2-y,1/2+z
loop_
_atom_site_type_symbol
_atom_site_label
_atom_site_fract_x
_atom_site_fract_y
_atom_site_fract_z
Si Si1 0.831304 0.092640 0.677346
Si Si2 0.851502 0.832220 0.678319
Si Si3 0.091146 0.482892 0.180486
Si Si4 0.755959 0.451300 0.319763
Si Si5 0.667662 0.175008 0.323972
Si Si6 0.996886 0.088749 0.822193
O O1 0.855751 0.084114 0.500000
O O2 0.761968 0.155208 0.700690
O O3 0.908689 0.120032 0.774447
O O4 0.800715 0.011403 0.734192
O O5 0.834047 0.844379 0.500000
O O6 0.777171 0.868548 0.774355
O O7 0.856583 0.743385 0.714326
O O8 0.936656 0.869640 0.720790
O O9 0.150510 0.540488 0.269278
O O10 0.112650 0.396689 0.224012
O O11 0.000000 0.500000 0.234070
O O12 0.103688 0.496795 0.000000
O O13 0.747502 0.464208 0.500000
O O14 0.650459 0.197619 0.500000
O O15 0.013627 0.106629 0.000000
O O16 0.000000 0.000000 0.786825
#
# Coordination Sequence:
#
# PCOD8237637 Si02
#       6
#     8   8   8   8   8   8
#     4  10  20  37  61  86 113 150 191 233 282 344
#     4  12  24  38  58  84 117 156 196 240 291 345
#     4   9  19  39  65  89 114 150 195 241 288 345
#     4  11  21  35  58  85 115 151 190 236 287 342
#     4   9  20  39  60  84 117 151 187 239 293 342
#     4  11  22  36  59  89 119 153 191 237 289 345
#
# _framework density 18.976696
#
# number of rings (size 3 to 8) (size 9 to 14) (size 15 to 20)
#    0.000    1.667    1.667    5.000    0.000    4.333 
#    3.000    0.000    0.000    0.000    0.000    0.000 
#    0.000    0.000    0.000    0.000    0.000    0.000 
#
# Total GULP energy -595446.782567 kJ/mol
# GULP energy per Si atom -12405.141303 kJ/mol
# Density = 1.893350 g / cm^3
# Si number density = 18.976696 Si / 1000 Ang^3
#
#
#
# Elastic Constant Matrix: (Units=GPa)
#
#
# Indices 1 2 3 4 5 6 
#
# 1 126.0408 42.6386 25.9228 0.0000 0.0000 0.0000
# 2 42.6386 79.7008 25.6039 0.0000 0.0000 0.0000
# 3 25.9228 25.6039 59.9427 0.0000 0.0000 0.0000
# 4 0.0000 0.0000 0.0000 26.3193 0.0000 0.0000
# 5 0.0000 0.0000 0.0000 0.0000 26.3771 0.0000
# 6 0.0000 0.0000 0.0000 0.0000 0.0000 21.2403
#
#
#
# Elastic Compliance Matrix: (Units=1/GPa)
#
#
# Indices 1 2 3 4 5 6 
#
# 1 0.009966 -0.004575 -0.002356 0.000000 0.000000 0.000000
# 2 -0.004575 0.016643 -0.005130 0.000000 0.000000 0.000000
# 3 -0.002356 -0.005130 0.019893 0.000000 0.000000 0.000000
# 4 0.000000 0.000000 0.000000 0.037995 0.000000 0.000000
# 5 0.000000 0.000000 0.000000 0.000000 0.037912 0.000000
# 6 0.000000 0.000000 0.000000 0.000000 0.000000 0.047080
#
#
# Mechanical properties :
#
#
# Convention : Reuss Voigt Hill
#
# Bulk Modulus (GPa) = 44.68382 50.44610 47.56496
# Shear Modulus (GPa) = 24.86696 26.22194 25.54445
#
# Velocity S-wave (km/s) = 3.62386 3.72129 3.67290
# Velocity P-wave (km/s) = 6.41153 6.71601 6.56554
#
# Compressibility (1/GPa) = 0.02237947
#
# Stress axis : x y z
#
# Youngs Moduli (GPa) = 100.34007 60.08708 50.26968
#
# Poissons Ratio (x) = 0.27489 0.11843
# Poissons Ratio (y) = 0.45905 0.25789
# Poissons Ratio (z) = 0.23638 0.30826
#
# Static dielectric constant tensor:
#      x y z
#    x 3.645260 0.000000 0.000000 
#    y 0.000000 3.354060 0.000000 
#    z 0.000000 0.000000 3.452220 
# 
# 
# High freq. dielectric constant tensor:
#      x y z
#    x 1.743560 0.000000 0.000000 
#    y 0.000000 1.721130 0.000000 
#    z 0.000000 0.000000 1.743690 
# 
# From -- ./inp_files/5762.got.cif
#   From: 2010.06.25/outbox.cif.g09.slc.cpg/sg58_3_cif.got.tgz:5762.got - 2010.06.26 21:38:00.
