data_PCOD8237546
_publ_section_title
;
Structure prediction by ZEFSAII (Michael W. Deem and Ramdas Pophale) SiO2 
 PCOD8237546
Probable space group: P N N M
;
_chemical_formula_sum "Si O2"
_cell_formula_units_Z 36
_cell_length_a 9.642434
_cell_length_b 13.992965
_cell_length_c 13.736898
_cell_angle_alpha 90.000000
_cell_angle_beta 90.000000
_cell_angle_gamma 90.000000
_cell_volume 1853.468017
_symmetry_space_group_name_H-M "P N N M"
_symmetry_group_IT_number 58
_symmetry_cell_setting 'orthorhombic'
loop_
_space_group_symop_operation_xyz
x,y,z
-x,-y,z
1/2+x,1/2-y,1/2-z
1/2-x,1/2+y,1/2-z
-x,-y,-z
x,y,-z
1/2-x,1/2+y,1/2+z
1/2+x,1/2-y,1/2+z
loop_
_atom_site_type_symbol
_atom_site_label
_atom_site_fract_x
_atom_site_fract_y
_atom_site_fract_z
Si Si1 0.678657 0.321817 0.206882
Si Si2 0.361819 0.320632 0.195625
Si Si3 0.823025 0.763270 0.500000
Si Si4 0.077610 0.897703 0.500000
Si Si5 0.156442 0.993620 0.176228
Si Si6 0.656767 0.034733 0.000000
O O1 0.520349 0.284459 0.203091
O O2 0.761099 0.270058 0.294205
O O3 0.749541 0.302380 0.100197
O O4 0.677284 0.433590 0.233492
O O5 0.331812 0.381759 0.097106
O O6 0.319977 0.387519 0.285086
O O7 0.830404 0.648977 0.500000
O O8 0.974571 0.808343 0.500000
O O9 0.000000 0.000000 0.500000
O O10 0.268174 0.011939 0.092748
O O11 0.000000 0.000000 0.134137
O O12 0.500000 0.000000 0.000000
#
# Coordination Sequence:
#
# PCOD8237546 Si02
#       6
#     8   8   4   4   8   4
#     4  10  21  36  61  82 120 152 199 240 294 350
#     4  10  20  37  58  88 114 155 194 244 291 351
#     4  10  20  39  58  87 117 159 192 245 297 349
#     4  10  20  36  63  86 117 150 205 242 289 356
#     4  10  22  39  59  86 119 157 197 242 299 355
#     4  12  25  37  61  89 125 156 198 248 302 356
#
# _framework density 19.42305
#
# number of rings (size 3 to 8) (size 9 to 14) (size 15 to 20)
#    0.000    1.778    2.222    3.667    6.222    0.000 
#    0.000    2.222    0.000    0.000    0.000   10.889 
#    0.000    0.000    0.000    0.000    0.000    0.000 
#
# Total GULP energy -446159.467219 kJ/mol
# GULP energy per Si atom -12393.318534 kJ/mol
# Density = 1.937884 g / cm^3
# Si number density = 19.423050 Si / 1000 Ang^3
#
#
#
# Elastic Constant Matrix: (Units=GPa)
#
#
# Indices 1 2 3 4 5 6 
#
# 1 80.1509 29.2391 46.7054 0.0000 0.0000 0.0000
# 2 29.2391 75.6827 27.1433 0.0000 0.0000 0.0000
# 3 46.7054 27.1433 124.6285 0.0000 0.0000 0.0000
# 4 0.0000 0.0000 0.0000 29.8243 0.0000 0.0000
# 5 0.0000 0.0000 0.0000 0.0000 24.2220 0.0000
# 6 0.0000 0.0000 0.0000 0.0000 0.0000 31.9235
#
#
#
# Elastic Compliance Matrix: (Units=1/GPa)
#
#
# Indices 1 2 3 4 5 6 
#
# 1 0.017410 -0.004758 -0.005488 0.000000 0.000000 0.000000
# 2 -0.004758 0.015633 -0.001622 0.000000 0.000000 0.000000
# 3 -0.005488 -0.001622 0.010434 0.000000 0.000000 0.000000
# 4 0.000000 0.000000 0.000000 0.033530 0.000000 0.000000
# 5 0.000000 0.000000 0.000000 0.000000 0.041285 0.000000
# 6 0.000000 0.000000 0.000000 0.000000 0.000000 0.031325
#
#
# Mechanical properties :
#
#
# Convention : Reuss Voigt Hill
#
# Bulk Modulus (GPa) = 50.65581 54.07086 52.36333
# Shear Modulus (GPa) = 27.78816 29.01890 28.40353
#
# Velocity S-wave (km/s) = 3.78654 3.86948 3.82823
# Velocity P-wave (km/s) = 6.72711 6.91829 6.82337
#
# Compressibility (1/GPa) = 0.01974107
#
# Stress axis : x y z
#
# Youngs Moduli (GPa) = 57.43712 63.96799 95.84184
#
# Poissons Ratio (x) = 0.30435 0.52602
# Poissons Ratio (y) = 0.27328 0.15542
# Poissons Ratio (z) = 0.31524 0.10374
#
# Static dielectric constant tensor:
#      x y z
#    x 3.295590 0.000000 0.000000 
#    y 0.000000 3.444250 0.000000 
#    z 0.000000 0.000000 4.045180 
# 
# 
# High freq. dielectric constant tensor:
#      x y z
#    x 1.718210 0.000000 0.000000 
#    y 0.000000 1.761650 0.000000 
#    z 0.000000 0.000000 1.771790 
# 
# From -- ./inp_files/19406.got.cif
#   From: 2010.06.25/outbox.cif.g09.slc.cpg/sg58_10_cif.got.tgz:19406.got - 2010.06.26 21:38:00.
