data_PCOD8237882
_publ_section_title
;
Structure prediction by ZEFSAII (Michael W. Deem and Ramdas Pophale) SiO2 
 PCOD8237882
Probable space group: P N N M
;
_chemical_formula_sum "Si O2"
_cell_formula_units_Z 36
_cell_length_a 8.255335
_cell_length_b 14.117071
_cell_length_c 14.475022
_cell_angle_alpha 90.000000
_cell_angle_beta 90.000000
_cell_angle_gamma 90.000000
_cell_volume 1686.935715
_symmetry_space_group_name_H-M "P N N M"
_symmetry_group_IT_number 58
_symmetry_cell_setting 'orthorhombic'
loop_
_space_group_symop_operation_xyz
x,y,z
-x,-y,z
1/2+x,1/2-y,1/2-z
1/2-x,1/2+y,1/2-z
-x,-y,-z
x,y,-z
1/2-x,1/2+y,1/2+z
1/2+x,1/2-y,1/2+z
loop_
_atom_site_type_symbol
_atom_site_label
_atom_site_fract_x
_atom_site_fract_y
_atom_site_fract_z
Si Si1 0.314049 0.969747 0.305497
Si Si2 0.309739 0.258808 0.500000
Si Si3 0.801733 0.201536 0.203781
Si Si4 0.095898 0.100971 0.000000
Si Si5 0.681825 0.968371 0.500000
Si Si6 0.666795 0.371744 0.697026
O O1 0.240035 0.985186 0.408457
O O2 0.190510 0.025396 0.240159
O O3 0.500000 0.000000 0.299815
O O4 0.310010 0.862289 0.269963
O O5 0.230873 0.293850 0.402228
O O6 0.486184 0.304892 0.500000
O O7 0.311017 0.145319 0.500000
O O8 0.794652 0.304505 0.250891
O O9 0.984740 0.165259 0.207639
O O10 0.209634 0.111357 0.089422
O O11 0.000000 0.000000 0.000000
O O12 0.500000 0.000000 0.500000
#
# Coordination Sequence:
#
# PCOD8237882 Si02
#       6
#     8   4   8   4   4   8
#     4  11  23  41  64  93 125 167 216 259 314 375
#     4  10  20  42  63  90 126 175 209 250 321 389
#     4  11  23  39  66  90 127 165 210 265 311 382
#     4  10  22  38  65  89 127 171 215 253 315 405
#     4  10  22  38  65  90 126 170 215 247 312 396
#     4  11  22  41  62  94 125 166 213 256 320 372
#
# _framework density 21.340468999999999
#
# number of rings (size 3 to 8) (size 9 to 14) (size 15 to 20)
#    0.000    1.333    2.222    4.667    9.333    0.000 
#    0.000   10.000    0.000    0.000    0.000    0.000 
#    0.000    0.000    0.000    0.000    0.000    0.000 
#
# Total GULP energy -446055.641539 kJ/mol
# GULP energy per Si atom -12390.434487 kJ/mol
# Density = 2.129190 g / cm^3
# Si number density = 21.340469 Si / 1000 Ang^3
#
#
#
# Elastic Constant Matrix: (Units=GPa)
#
#
# Indices 1 2 3 4 5 6 
#
# 1 41.9346 0.7257 23.2892 0.0000 0.0000 0.0000
# 2 0.7257 85.8793 49.0783 0.0000 0.0000 0.0000
# 3 23.2892 49.0783 228.5915 0.0000 0.0000 0.0000
# 4 0.0000 0.0000 0.0000 24.7794 0.0000 0.0000
# 5 0.0000 0.0000 0.0000 0.0000 23.0171 0.0000
# 6 0.0000 0.0000 0.0000 0.0000 0.0000 40.8640
#
#
#
# Elastic Compliance Matrix: (Units=1/GPa)
#
#
# Indices 1 2 3 4 5 6 
#
# 1 0.025433 0.001443 -0.002901 0.000000 0.000000 0.000000
# 2 0.001443 0.013355 -0.003014 0.000000 0.000000 0.000000
# 3 -0.002901 -0.003014 0.005317 0.000000 0.000000 0.000000
# 4 0.000000 0.000000 0.000000 0.040356 0.000000 0.000000
# 5 0.000000 0.000000 0.000000 0.000000 0.043446 0.000000
# 6 0.000000 0.000000 0.000000 0.000000 0.000000 0.024471
#
#
# Mechanical properties :
#
#
# Convention : Reuss Voigt Hill
#
# Bulk Modulus (GPa) = 28.44123 55.84355 42.14239
# Shear Modulus (GPa) = 28.89457 36.61956 32.75707
#
# Velocity S-wave (km/s) = 3.68364 4.14692 3.92212
# Velocity P-wave (km/s) = 5.60790 7.01099 6.34833
#
# Compressibility (1/GPa) = 0.03516022
#
# Stress axis : x y z
#
# Youngs Moduli (GPa) = 39.31937 74.88041 188.06479
#
# Poissons Ratio (x) = -0.10805 0.54556
# Poissons Ratio (y) = -0.05673 0.56687
# Poissons Ratio (z) = 0.11406 0.22571
#
# Static dielectric constant tensor:
#      x y z
#    x 3.267910 0.000000 0.000000 
#    y 0.000000 4.373730 0.000000 
#    z 0.000000 0.000000 5.292820 
# 
# 
# High freq. dielectric constant tensor:
#      x y z
#    x 1.790150 0.000000 0.000000 
#    y 0.000000 1.854420 0.000000 
#    z 0.000000 0.000000 1.866020 
# 
# From -- ./inp_files/19428.got.cif
#   From: 2010.06.25/outbox.cif.g09.slc.cpg/sg58_10_cif.got.tgz:19428.got - 2010.06.26 21:38:00.
