data_PCOD8237529
_publ_section_title
;
Structure prediction by ZEFSAII (Michael W. Deem and Ramdas Pophale) SiO2 
 PCOD8237529
Probable space group: P N N M
;
_chemical_formula_sum "Si O2"
_cell_formula_units_Z 64
_cell_length_a 12.400009
_cell_length_b 17.749024
_cell_length_c 14.309321
_cell_angle_alpha 90.000000
_cell_angle_beta 90.000000
_cell_angle_gamma 90.000000
_cell_volume 3149.310661
_symmetry_space_group_name_H-M "P N N M"
_symmetry_group_IT_number 58
_symmetry_cell_setting 'orthorhombic'
loop_
_space_group_symop_operation_xyz
x,y,z
-x,-y,z
1/2+x,1/2-y,1/2-z
1/2-x,1/2+y,1/2-z
-x,-y,-z
x,y,-z
1/2-x,1/2+y,1/2+z
1/2+x,1/2-y,1/2+z
loop_
_atom_site_type_symbol
_atom_site_label
_atom_site_fract_x
_atom_site_fract_y
_atom_site_fract_z
Si Si1 0.243504 0.418300 0.835010
Si Si2 0.806875 0.425590 0.104142
Si Si3 0.954397 0.080444 0.228924
Si Si4 0.236381 0.755072 0.604814
Si Si5 0.910275 0.852190 0.606501
Si Si6 0.985491 0.304345 0.607029
Si Si7 0.530656 0.280397 0.387502
Si Si8 0.994781 0.625707 0.790639
O O1 0.255509 0.494419 0.894089
O O2 0.324919 0.423147 0.745954
O O3 0.273165 0.345210 0.894792
O O4 0.117180 0.412839 0.813923
O O5 0.715843 0.364040 0.130197
O O6 0.905101 0.426029 0.177723
O O7 0.852773 0.411250 0.000000
O O8 0.013149 0.099830 0.326076
O O9 0.975483 0.143680 0.149951
O O10 0.000000 0.000000 0.192508
O O11 0.235377 0.726603 0.500000
O O12 0.345181 0.721375 0.649804
O O13 0.129267 0.722011 0.650508
O O14 0.936424 0.877246 0.500000
O O15 0.930039 0.763378 0.618323
O O16 0.981908 0.333379 0.500000
O O17 0.015493 0.370417 0.677933
O O18 0.520467 0.276328 0.500000
O O19 0.479969 0.205577 0.341861
#
# Coordination Sequence:
#
# PCOD8237529 Si02
#       8
#     8   8   8   8   8   8   8   8
#     4  11  22  36  58  88 119 159 197 243 298 359
#     4  11  24  39  60  90 125 159 196 246 302 360
#     4  12  23  39  60  87 121 156 197 247 306 356
#     4   9  18  33  57  84 115 152 195 242 293 350
#     4  10  21  37  59  89 118 149 188 240 303 355
#     4  10  20  36  61  92 119 153 200 248 295 353
#     4  10  22  39  59  87 118 157 203 248 294 352
#     4  11  23  39  61  85 122 161 200 244 298 357
#
# _framework density 20.321908000000001
#
# number of rings (size 3 to 8) (size 9 to 14) (size 15 to 20)
#    0.000    1.500    3.750    1.125    1.750    4.000 
#    0.000    1.875    0.000    2.250    0.000    0.000 
#    0.000    0.000    0.000    0.000    0.000    0.000 
#
# Total GULP energy -793179.748756 kJ/mol
# GULP energy per Si atom -12393.433574 kJ/mol
# Density = 2.027565 g / cm^3
# Si number density = 20.321908 Si / 1000 Ang^3
#
#
#
# Elastic Constant Matrix: (Units=GPa)
#
#
# Indices 1 2 3 4 5 6 
#
# 1 76.3931 8.4264 20.0156 0.0000 0.0000 0.0000
# 2 8.4264 60.3984 21.0307 0.0000 0.0000 0.0000
# 3 20.0156 21.0307 90.5103 0.0000 0.0000 0.0000
# 4 0.0000 0.0000 0.0000 26.2831 0.0000 0.0000
# 5 0.0000 0.0000 0.0000 0.0000 17.2591 0.0000
# 6 0.0000 0.0000 0.0000 0.0000 0.0000 24.6857
#
#
#
# Elastic Compliance Matrix: (Units=1/GPa)
#
#
# Indices 1 2 3 4 5 6 
#
# 1 0.013945 -0.000948 -0.002863 0.000000 0.000000 0.000000
# 2 -0.000948 0.018079 -0.003991 0.000000 0.000000 0.000000
# 3 -0.002863 -0.003991 0.012609 0.000000 0.000000 0.000000
# 4 0.000000 0.000000 0.000000 0.038047 0.000000 0.000000
# 5 0.000000 0.000000 0.000000 0.000000 0.057941 0.000000
# 6 0.000000 0.000000 0.000000 0.000000 0.000000 0.040509
#
#
# Mechanical properties :
#
#
# Convention : Reuss Voigt Hill
#
# Bulk Modulus (GPa) = 34.45070 36.24971 35.35021
# Shear Modulus (GPa) = 24.22346 25.50082 24.86214
#
# Velocity S-wave (km/s) = 3.45626 3.54622 3.50153
# Velocity P-wave (km/s) = 5.73733 5.88592 5.81210
#
# Compressibility (1/GPa) = 0.02902699
#
# Stress axis : x y z
#
# Youngs Moduli (GPa) = 71.70996 55.31369 79.30829
#
# Poissons Ratio (x) = 0.05246 0.22710
# Poissons Ratio (y) = 0.06802 0.31652
# Poissons Ratio (z) = 0.20534 0.22076
#
# Static dielectric constant tensor:
#      x y z
#    x 3.959880 0.000000 0.000000 
#    y 0.000000 3.512640 0.000000 
#    z 0.000000 0.000000 3.488570 
# 
# 
# High freq. dielectric constant tensor:
#      x y z
#    x 1.805680 0.000000 0.000000 
#    y 0.000000 1.778010 0.000000 
#    z 0.000000 0.000000 1.777070 
# 
# From -- ./inp_files/21501.got.cif
#   From: 2010.06.25/outbox.cif.g09.slc.cpg/sg58_11_cif.got.tgz:21501.got - 2010.06.26 21:38:00.
