data_PCOD8237049
_publ_section_title
;
Structure prediction by ZEFSAII (Michael W. Deem and Ramdas Pophale) SiO2 
 PCOD8237049
Probable space group: P N N M
;
_chemical_formula_sum "Si O2"
_cell_formula_units_Z 48
_cell_length_a 17.914463
_cell_length_b 15.511347
_cell_length_c 9.162902
_cell_angle_alpha 90.000000
_cell_angle_beta 90.000000
_cell_angle_gamma 90.000000
_cell_volume 2546.163860
_symmetry_space_group_name_H-M "P N N M"
_symmetry_group_IT_number 58
_symmetry_cell_setting 'orthorhombic'
loop_
_space_group_symop_operation_xyz
x,y,z
-x,-y,z
1/2+x,1/2-y,1/2-z
1/2-x,1/2+y,1/2-z
-x,-y,-z
x,y,-z
1/2-x,1/2+y,1/2+z
1/2+x,1/2-y,1/2+z
loop_
_atom_site_type_symbol
_atom_site_label
_atom_site_fract_x
_atom_site_fract_y
_atom_site_fract_z
Si Si1 0.457189 0.083057 0.173820
Si Si2 0.799748 0.073006 0.169747
Si Si3 0.211776 0.596966 0.672637
Si Si4 0.211862 0.254323 0.329351
Si Si5 0.544387 0.583766 0.172914
Si Si6 0.042970 0.250874 0.673489
O O1 0.372196 0.081136 0.228518
O O2 0.498322 0.167441 0.236868
O O3 0.500000 0.000000 0.236875
O O4 0.460097 0.082773 0.000000
O O5 0.743890 0.151216 0.203371
O O6 0.874158 0.086368 0.260117
O O7 0.760949 0.984666 0.221459
O O8 0.820237 0.069201 0.000000
O O9 0.213684 0.609614 0.500000
O O10 0.240658 0.683618 0.745456
O O11 0.214573 0.232254 0.500000
O O12 0.127546 0.252072 0.268512
O O13 0.500000 0.500000 0.226828
O O14 0.497889 0.665354 0.230653
O O15 0.553397 0.584895 0.000000
O O16 0.043294 0.254037 0.500000
#
# Coordination Sequence:
#
# PCOD8237049 Si02
#       6
#     8   8   8   8   8   8
#     4   9  16  28  49  74  97 124 162 207 249 290
#     4  10  21  35  52  77 108 138 168 209 263 315
#     4  10  20  34  53  78 105 133 169 212 256 303
#     4  10  20  35  54  76 104 137 171 209 257 310
#     4  10  20  34  53  76 101 133 174 215 253 298
#     4   9  17  30  49  72  97 127 166 209 248 292
#
# _framework density 18.851889
#
# number of rings (size 3 to 8) (size 9 to 14) (size 15 to 20)
#    0.000    2.333    0.000    3.000    0.000    8.333 
#    0.000    0.833    0.000    1.500    0.000    0.000 
#    0.000    0.000    0.000    0.000    0.000    0.000 
#
# Total GULP energy -595308.826473 kJ/mol
# GULP energy per Si atom -12402.267218 kJ/mol
# Density = 1.880898 g / cm^3
# Si number density = 18.851889 Si / 1000 Ang^3
#
#
#
# Elastic Constant Matrix: (Units=GPa)
#
#
# Indices 1 2 3 4 5 6 
#
# 1 130.2222 32.0964 20.4159 0.0000 0.0000 0.0000
# 2 32.0964 118.4811 16.7424 0.0000 0.0000 0.0000
# 3 20.4159 16.7424 17.6200 0.0000 0.0000 0.0000
# 4 0.0000 0.0000 0.0000 6.9245 0.0000 0.0000
# 5 0.0000 0.0000 0.0000 0.0000 25.1422 0.0000
# 6 0.0000 0.0000 0.0000 0.0000 0.0000 43.8210
#
#
#
# Elastic Compliance Matrix: (Units=1/GPa)
#
#
# Indices 1 2 3 4 5 6 
#
# 1 0.009524 -0.001179 -0.009915 0.000000 0.000000 0.000000
# 2 -0.001179 0.009895 -0.008036 0.000000 0.000000 0.000000
# 3 -0.009915 -0.008036 0.075878 0.000000 0.000000 0.000000
# 4 0.000000 0.000000 0.000000 0.144415 0.000000 0.000000
# 5 0.000000 0.000000 0.000000 0.000000 0.039774 0.000000
# 6 0.000000 0.000000 0.000000 0.000000 0.000000 0.022820
#
#
# Mechanical properties :
#
#
# Convention : Reuss Voigt Hill
#
# Bulk Modulus (GPa) = 17.53257 44.98142 31.25699
# Shear Modulus (GPa) = 13.90510 28.31544 21.11027
#
# Velocity S-wave (km/s) = 2.71882 3.87976 3.34997
# Velocity P-wave (km/s) = 4.37908 6.63192 5.61955
#
# Compressibility (1/GPa) = 0.05703671
#
# Stress axis : x y z
#
# Youngs Moduli (GPa) = 104.99484 101.05976 13.17900
#
# Poissons Ratio (x) = 0.11915 0.13067
# Poissons Ratio (y) = 0.12379 0.10591
# Poissons Ratio (z) = 1.04106 0.81214
#
# Static dielectric constant tensor:
#      x y z
#    x 3.642820 0.000000 0.000000 
#    y 0.000000 3.755280 0.000000 
#    z 0.000000 0.000000 3.002910 
# 
# 
# High freq. dielectric constant tensor:
#      x y z
#    x 1.751570 0.000000 0.000000 
#    y 0.000000 1.753530 0.000000 
#    z 0.000000 0.000000 1.683000 
# 
# From -- ./inp_files/5859.got.cif
#   From: 2010.06.25/outbox.cif.g09.slc.cpg/sg58_3_cif.got.tgz:5859.got - 2010.06.26 21:38:00.
