data_PCOD8237755
_publ_section_title
;
Structure prediction by ZEFSAII (Michael W. Deem and Ramdas Pophale) SiO2 
 PCOD8237755
Probable space group: P N N M
;
_chemical_formula_sum "Si O2"
_cell_formula_units_Z 48
_cell_length_a 9.774645
_cell_length_b 27.866627
_cell_length_c 8.804815
_cell_angle_alpha 90.000000
_cell_angle_beta 90.000000
_cell_angle_gamma 90.000000
_cell_volume 2398.311740
_symmetry_space_group_name_H-M "P N N M"
_symmetry_group_IT_number 58
_symmetry_cell_setting 'orthorhombic'
loop_
_space_group_symop_operation_xyz
x,y,z
-x,-y,z
1/2+x,1/2-y,1/2-z
1/2-x,1/2+y,1/2-z
-x,-y,-z
x,y,-z
1/2-x,1/2+y,1/2+z
1/2+x,1/2-y,1/2+z
loop_
_atom_site_type_symbol
_atom_site_label
_atom_site_fract_x
_atom_site_fract_y
_atom_site_fract_z
Si Si1 0.963186 0.051992 0.676504
Si Si2 0.342548 0.207051 0.321892
Si Si3 0.261846 0.602843 0.175222
Si Si4 0.791537 0.610586 0.820964
Si Si5 0.140680 0.291536 0.320650
Si Si6 0.026862 0.554434 0.324600
O O1 0.936173 0.042719 0.500000
O O2 0.825243 0.075079 0.746419
O O3 0.079421 0.091765 0.704011
O O4 0.000000 0.000000 0.751425
O O5 0.371159 0.209537 0.500000
O O6 0.273641 0.156743 0.275243
O O7 0.233619 0.246809 0.269382
O O8 0.487248 0.214553 0.240737
O O9 0.182759 0.565728 0.283264
O O10 0.223103 0.593372 0.000000
O O11 0.781275 0.662284 0.744090
O O12 0.937910 0.588529 0.782274
O O13 0.776094 0.617656 0.000000
O O14 0.130732 0.295803 0.500000
O O15 0.995013 0.565274 0.500000
O O16 0.000000 0.500000 0.281507
#
# Coordination Sequence:
#
# PCOD8237755 Si02
#       6
#     8   8   8   8   8   8
#     4   9  19  35  58  89 119 152 199 249 294 344
#     4  10  23  41  62  90 119 158 204 246 298 361
#     4  10  20  38  62  86 117 155 201 250 294 355
#     4  11  22  38  63  90 119 158 202 247 299 359
#     4  11  24  41  63  91 124 157 197 250 304 358
#     4  11  23  38  58  87 122 158 197 246 304 360
#
# _framework density 20.014077
#
# number of rings (size 3 to 8) (size 9 to 14) (size 15 to 20)
#    0.000    1.667    1.667    2.500    2.333    4.000 
#    0.000    1.667    0.000    4.500    0.000    0.000 
#    0.000    0.000    0.000    0.000    0.000    0.000 
#
# Total GULP energy -595302.563684 kJ/mol
# GULP energy per Si atom -12402.136743 kJ/mol
# Density = 1.996852 g / cm^3
# Si number density = 20.014077 Si / 1000 Ang^3
#
#
#
# Elastic Constant Matrix: (Units=GPa)
#
#
# Indices 1 2 3 4 5 6 
#
# 1 83.3642 35.8839 22.1832 0.0000 0.0000 0.0000
# 2 35.8839 122.4145 36.5651 0.0000 0.0000 0.0000
# 3 22.1832 36.5651 40.7591 0.0000 0.0000 0.0000
# 4 0.0000 0.0000 0.0000 18.4299 0.0000 0.0000
# 5 0.0000 0.0000 0.0000 0.0000 22.7741 0.0000
# 6 0.0000 0.0000 0.0000 0.0000 0.0000 43.7230
#
#
#
# Elastic Compliance Matrix: (Units=1/GPa)
#
#
# Indices 1 2 3 4 5 6 
#
# 1 0.014611 -0.002606 -0.005614 0.000000 0.000000 0.000000
# 2 -0.002606 0.011624 -0.009010 0.000000 0.000000 0.000000
# 3 -0.005614 -0.009010 0.035673 0.000000 0.000000 0.000000
# 4 0.000000 0.000000 0.000000 0.054260 0.000000 0.000000
# 5 0.000000 0.000000 0.000000 0.000000 0.043910 0.000000
# 6 0.000000 0.000000 0.000000 0.000000 0.000000 0.022871
#
#
# Mechanical properties :
#
#
# Convention : Reuss Voigt Hill
#
# Bulk Modulus (GPa) = 36.43266 48.42247 42.42756
# Shear Modulus (GPa) = 22.06943 27.11242 24.59093
#
# Velocity S-wave (km/s) = 3.32429 3.68457 3.50906
# Velocity P-wave (km/s) = 5.74261 6.50755 6.13701
#
# Compressibility (1/GPa) = 0.02744790
#
# Stress axis : x y z
#
# Youngs Moduli (GPa) = 68.44013 86.02840 28.03277
#
# Poissons Ratio (x) = 0.22420 0.15738
# Poissons Ratio (y) = 0.17836 0.25256
# Poissons Ratio (z) = 0.38424 0.77508
#
# Static dielectric constant tensor:
#      x y z
#    x 3.732430 0.000000 0.000000 
#    y 0.000000 3.890670 0.000000 
#    z 0.000000 0.000000 3.408330 
# 
# 
# High freq. dielectric constant tensor:
#      x y z
#    x 1.790830 0.000000 0.000000 
#    y 0.000000 1.796170 0.000000 
#    z 0.000000 0.000000 1.759870 
# 
# From -- ./inp_files/2932.got.cif
#   From: 2010.06.25/outbox.cif.g09.slc.cpg/sg58_2_cif.got.tgz:2932.got - 2010.06.26 21:38:00.
