data_PCOD8237471
_publ_section_title
;
Structure prediction by ZEFSAII (Michael W. Deem and Ramdas Pophale) SiO2 
 PCOD8237471
Probable space group: P N N M
;
_chemical_formula_sum "Si O2"
_cell_formula_units_Z 64
_cell_length_a 27.965322
_cell_length_b 12.588951
_cell_length_c 9.003285
_cell_angle_alpha 90.000000
_cell_angle_beta 90.000000
_cell_angle_gamma 90.000000
_cell_volume 3169.643113
_symmetry_space_group_name_H-M "P N N M"
_symmetry_group_IT_number 58
_symmetry_cell_setting 'orthorhombic'
loop_
_space_group_symop_operation_xyz
x,y,z
-x,-y,z
1/2+x,1/2-y,1/2-z
1/2-x,1/2+y,1/2-z
-x,-y,-z
x,y,-z
1/2-x,1/2+y,1/2+z
1/2+x,1/2-y,1/2+z
loop_
_atom_site_type_symbol
_atom_site_label
_atom_site_fract_x
_atom_site_fract_y
_atom_site_fract_z
Si Si1 0.815028 0.147760 0.825406
Si Si2 0.713388 0.221171 0.176494
Si Si3 0.946618 0.029667 0.840739
Si Si4 0.912403 0.838046 0.339813
Si Si5 0.554082 0.967174 0.824030
Si Si6 0.910923 0.256226 0.174285
Si Si7 0.314080 0.562433 0.160127
Si Si8 0.883433 0.645019 0.176410
O O1 0.762655 0.171156 0.760717
O O2 0.856067 0.231065 0.774507
O O3 0.828319 0.028382 0.774941
O O4 0.813917 0.148066 0.000000
O O5 0.723354 0.347516 0.214720
O O6 0.670249 0.162351 0.262909
O O7 0.707711 0.201838 0.000000
O O8 0.941732 0.151060 0.788209
O O9 0.929640 0.951594 0.713996
O O10 0.918595 0.016843 0.000000
O O11 0.000000 0.000000 0.873588
O O12 0.936495 0.810237 0.500000
O O13 0.856479 0.852771 0.364381
O O14 0.919186 0.741470 0.224383
O O15 0.593664 0.039115 0.743467
O O16 0.500000 0.000000 0.777757
O O17 0.565253 0.847749 0.772106
O O18 0.560813 0.976798 0.000000
O O19 0.913557 0.286381 0.000000
O O20 0.300114 0.511272 0.000000
O O21 0.881952 0.636894 0.000000
#
# Coordination Sequence:
#
# PCOD8237471 Si02
#       8
#     8   8   8   8   8   8   8   8
#     4  10  20  36  60  87 121 159 198 249 307 365
#     4   9  20  38  58  86 122 160 202 253 310 369
#     4  10  21  36  57  90 126 158 196 247 303 361
#     4  10  20  36  59  86 118 154 194 244 301 357
#     4  11  26  46  66  90 124 167 215 265 317 377
#     4  10  22  40  61  91 129 164 205 254 307 369
#     4   9  18  33  53  79 114 151 191 241 297 357
#     4  11  23  40  64  90 119 158 207 259 312 369
#
# _framework density 20.191549999999999
#
# number of rings (size 3 to 8) (size 9 to 14) (size 15 to 20)
#    0.000    2.000    1.250    2.625    1.750    5.750 
#    0.000    1.250    0.000    0.000    0.000    0.000 
#    0.000    0.000    0.000    0.000    0.000    0.000 
#
# Total GULP energy -792888.197966 kJ/mol
# GULP energy per Si atom -12388.878093 kJ/mol
# Density = 2.014559 g / cm^3
# Si number density = 20.191550 Si / 1000 Ang^3
#
#
#
# Elastic Constant Matrix: (Units=GPa)
#
#
# Indices 1 2 3 4 5 6 
#
# 1 97.3760 49.3361 43.4846 0.0000 0.0000 0.0000
# 2 49.3361 116.9098 48.6710 0.0000 0.0000 0.0000
# 3 43.4846 48.6710 96.6877 0.0000 0.0000 0.0000
# 4 0.0000 0.0000 0.0000 36.4463 0.0000 0.0000
# 5 0.0000 0.0000 0.0000 0.0000 19.0110 0.0000
# 6 0.0000 0.0000 0.0000 0.0000 0.0000 26.1175
#
#
#
# Elastic Compliance Matrix: (Units=1/GPa)
#
#
# Indices 1 2 3 4 5 6 
#
# 1 0.014354 -0.004263 -0.004310 0.000000 0.000000 0.000000
# 2 -0.004263 0.012088 -0.004167 0.000000 0.000000 0.000000
# 3 -0.004310 -0.004167 0.014379 0.000000 0.000000 0.000000
# 4 0.000000 0.000000 0.000000 0.027438 0.000000 0.000000
# 5 0.000000 0.000000 0.000000 0.000000 0.052601 0.000000
# 6 0.000000 0.000000 0.000000 0.000000 0.000000 0.038289
#
#
# Mechanical properties :
#
#
# Convention : Reuss Voigt Hill
#
# Bulk Modulus (GPa) = 65.18979 65.99524 65.59252
# Shear Modulus (GPa) = 26.35172 27.61374 26.98273
#
# Velocity S-wave (km/s) = 3.61652 3.70210 3.65956
# Velocity P-wave (km/s) = 7.05654 7.14350 7.10015
#
# Compressibility (1/GPa) = 0.01533982
#
# Stress axis : x y z
#
# Youngs Moduli (GPa) = 69.66708 82.72921 69.54816
#
# Poissons Ratio (x) = 0.35270 0.29972
# Poissons Ratio (y) = 0.29701 0.28983
# Poissons Ratio (z) = 0.30023 0.34476
#
# Static dielectric constant tensor:
#      x y z
#    x 3.498550 0.000000 0.000000 
#    y 0.000000 3.600790 0.000000 
#    z 0.000000 0.000000 3.690100 
# 
# 
# High freq. dielectric constant tensor:
#      x y z
#    x 1.783380 0.000000 0.000000 
#    y 0.000000 1.791880 0.000000 
#    z 0.000000 0.000000 1.784020 
# 
# From -- ./inp_files/10956.got.cif
#   From: 2010.06.25/outbox.cif.g09.slc.cpg/sg58_6_cif.got.tgz:10956.got - 2010.06.26 21:38:00.
