data_PCOD8237392
_publ_section_title
;
Structure prediction by ZEFSAII (Michael W. Deem and Ramdas Pophale) SiO2 
 PCOD8237392
Probable space group: P N N M
;
_chemical_formula_sum "Si O2"
_cell_formula_units_Z 64
_cell_length_a 11.918884
_cell_length_b 30.273152
_cell_length_c 9.357584
_cell_angle_alpha 90.000000
_cell_angle_beta 90.000000
_cell_angle_gamma 90.000000
_cell_volume 3376.423924
_symmetry_space_group_name_H-M "P N N M"
_symmetry_group_IT_number 58
_symmetry_cell_setting 'orthorhombic'
loop_
_space_group_symop_operation_xyz
x,y,z
-x,-y,z
1/2+x,1/2-y,1/2-z
1/2-x,1/2+y,1/2-z
-x,-y,-z
x,y,-z
1/2-x,1/2+y,1/2+z
1/2+x,1/2-y,1/2+z
loop_
_atom_site_type_symbol
_atom_site_label
_atom_site_fract_x
_atom_site_fract_y
_atom_site_fract_z
Si Si1 0.502514 0.428562 0.836074
Si Si2 0.699934 0.704553 0.665441
Si Si3 0.850302 0.624018 0.330415
Si Si4 0.253505 0.695763 0.834267
Si Si5 0.797153 0.043117 0.164212
Si Si6 0.102510 0.630498 0.667838
Si Si7 0.500661 0.327577 0.837319
Si Si8 0.775701 0.944213 0.162676
O O1 0.412548 0.458439 0.753340
O O2 0.462435 0.378109 0.823391
O O3 0.624383 0.433054 0.768739
O O4 0.508484 0.444079 0.000000
O O5 0.675029 0.695916 0.500000
O O6 0.785566 0.667567 0.725200
O O7 0.753706 0.752028 0.693317
O O8 0.581610 0.702589 0.745519
O O9 0.854426 0.623100 0.500000
O O10 0.787526 0.580007 0.273966
O O11 0.976895 0.624532 0.270864
O O12 0.156280 0.672635 0.744469
O O13 0.372951 0.677734 0.779360
O O14 0.234298 0.684221 0.000000
O O15 0.738868 0.995321 0.179080
O O16 0.828414 0.053660 0.000000
O O17 0.101876 0.640494 0.500000
O O18 0.169507 0.585713 0.704214
O O19 0.495295 0.310729 0.000000
O O20 0.814647 0.934602 0.000000
#
# Coordination Sequence:
#
# PCOD8237392 Si02
#       8
#     8   8   8   8   8   8   8   8
#     4  11  21  35  56  82 112 147 183 223 275 331
#     4  10  21  37  59  83 109 143 183 224 271 326
#     4   9  19  36  57  80 107 142 180 225 274 319
#     4  10  22  39  57  82 114 146 180 224 277 326
#     4  10  20  36  57  80 111 145 180 228 280 325
#     4  10  21  37  58  82 109 144 187 227 269 328
#     4  10  21  37  58  82 112 146 180 224 274 322
#     4  10  21  35  55  84 111 142 184 229 275 326
#
# _framework density 18.954967
#
# number of rings (size 3 to 8) (size 9 to 14) (size 15 to 20)
#    0.000    2.000    2.500    0.750    1.750    4.000 
#    0.000    3.750    0.000    0.000    0.000    2.625 
#    0.000    0.000    0.000    0.000    0.000    0.000 
#
# Total GULP energy -793818.726099 kJ/mol
# GULP energy per Si atom -12403.417595 kJ/mol
# Density = 1.891182 g / cm^3
# Si number density = 18.954967 Si / 1000 Ang^3
#
#
#
# Elastic Constant Matrix: (Units=GPa)
#
#
# Indices 1 2 3 4 5 6 
#
# 1 132.6216 43.0413 45.1359 0.0000 0.0000 0.0000
# 2 43.0413 99.9612 33.7948 0.0000 0.0000 0.0000
# 3 45.1359 33.7948 59.8268 0.0000 0.0000 0.0000
# 4 0.0000 0.0000 0.0000 23.7522 0.0000 0.0000
# 5 0.0000 0.0000 0.0000 0.0000 20.9409 0.0000
# 6 0.0000 0.0000 0.0000 0.0000 0.0000 27.2186
#
#
#
# Elastic Compliance Matrix: (Units=1/GPa)
#
#
# Indices 1 2 3 4 5 6 
#
# 1 0.010553 -0.002289 -0.006668 0.000000 0.000000 0.000000
# 2 -0.002289 0.012862 -0.005538 0.000000 0.000000 0.000000
# 3 -0.006668 -0.005538 0.024874 0.000000 0.000000 0.000000
# 4 0.000000 0.000000 0.000000 0.042101 0.000000 0.000000
# 5 0.000000 0.000000 0.000000 0.000000 0.047753 0.000000
# 6 0.000000 0.000000 0.000000 0.000000 0.000000 0.036740
#
#
# Mechanical properties :
#
#
# Convention : Reuss Voigt Hill
#
# Bulk Modulus (GPa) = 51.82102 59.59483 55.70793
# Shear Modulus (GPa) = 23.77475 25.74484 24.75980
#
# Velocity S-wave (km/s) = 3.54542 3.68939 3.61812
# Velocity P-wave (km/s) = 6.64517 7.04679 6.84893
#
# Compressibility (1/GPa) = 0.01929719
#
# Stress axis : x y z
#
# Youngs Moduli (GPa) = 94.76269 77.74836 40.20248
#
# Poissons Ratio (x) = 0.17800 0.26808
# Poissons Ratio (y) = 0.21695 0.22265
# Poissons Ratio (z) = 0.63189 0.43059
#
# Static dielectric constant tensor:
#      x y z
#    x 3.489350 0.000000 0.000000 
#    y 0.000000 3.574190 0.000000 
#    z 0.000000 0.000000 3.297390 
# 
# 
# High freq. dielectric constant tensor:
#      x y z
#    x 1.734240 0.000000 0.000000 
#    y 0.000000 1.748170 0.000000 
#    z 0.000000 0.000000 1.715860 
# 
# From -- ./inp_files/4658.got.cif
#   From: 2010.06.25/outbox.cif.g09.slc.cpg/sg58_3_cif.got.tgz:4658.got - 2010.06.26 21:38:00.
