data_PCOD8237790
_publ_section_title
;
Structure prediction by ZEFSAII (Michael W. Deem and Ramdas Pophale) SiO2 
 PCOD8237790
Probable space group: P N N M
;
_chemical_formula_sum "Si O2"
_cell_formula_units_Z 64
_cell_length_a 10.986401
_cell_length_b 32.716709
_cell_length_c 8.567570
_cell_angle_alpha 90.000000
_cell_angle_beta 90.000000
_cell_angle_gamma 90.000000
_cell_volume 3079.517803
_symmetry_space_group_name_H-M "P N N M"
_symmetry_group_IT_number 58
_symmetry_cell_setting 'orthorhombic'
loop_
_space_group_symop_operation_xyz
x,y,z
-x,-y,z
1/2+x,1/2-y,1/2-z
1/2-x,1/2+y,1/2-z
-x,-y,-z
x,y,-z
1/2-x,1/2+y,1/2+z
1/2+x,1/2-y,1/2+z
loop_
_atom_site_type_symbol
_atom_site_label
_atom_site_fract_x
_atom_site_fract_y
_atom_site_fract_z
Si Si1 0.517858 0.723897 0.679110
Si Si2 0.232512 0.819394 0.324387
Si Si3 0.020000 0.306645 0.679689
Si Si4 0.109320 0.150916 0.315793
Si Si5 0.882274 0.100716 0.677998
Si Si6 0.886649 0.470746 0.814440
Si Si7 0.864214 0.012162 0.314456
Si Si8 0.353740 0.116996 0.816804
O O1 0.495833 0.735659 0.500000
O O2 0.640544 0.698262 0.697682
O O3 0.546102 0.764120 0.782578
O O4 0.403751 0.696124 0.738633
O O5 0.191460 0.807225 0.500000
O O6 0.365113 0.803316 0.292068
O O7 0.231976 0.868720 0.306719
O O8 0.058550 0.309003 0.500000
O O9 0.944355 0.346379 0.726986
O O10 0.098634 0.157262 0.500000
O O11 0.231332 0.127638 0.273565
O O12 0.001871 0.121969 0.249104
O O13 0.915398 0.090540 0.500000
O O14 0.846038 0.057777 0.755539
O O15 0.753265 0.486468 0.752900
O O16 0.908478 0.426004 0.741015
O O17 0.000000 0.500000 0.762149
O O18 0.886598 0.466886 0.000000
O O19 0.859755 0.009340 0.500000
O O20 0.000000 0.000000 0.254205
O O21 0.327775 0.115353 0.000000
#
# Coordination Sequence:
#
# PCOD8237790 Si02
#       8
#     8   8   8   8   8   8   8   8
#     4  11  23  40  63  91 124 161 198 247 309 366
#     4  10  21  38  61  88 120 156 201 251 301 358
#     4  11  25  42  60  84 117 159 209 253 300 366
#     4  10  20  38  64  92 124 159 204 255 302 361
#     4   8  16  31  56  88 118 152 191 241 299 354
#     4  10  22  38  61  91 121 157 208 262 313 379
#     4   9  16  29  54  87 119 151 193 246 303 362
#     4  11  25  42  61  86 122 165 208 252 312 377
#
# _framework density 20.782475000000002
#
# number of rings (size 3 to 8) (size 9 to 14) (size 15 to 20)
#    0.000    2.000    0.000    4.125    3.500    4.250 
#    0.000    0.000    0.000    4.125    0.000    0.000 
#    0.000    0.000    0.000    0.000    0.000    0.000 
#
# Total GULP energy -793188.925049 kJ/mol
# GULP energy per Si atom -12393.576954 kJ/mol
# Density = 2.073517 g / cm^3
# Si number density = 20.782475 Si / 1000 Ang^3
#
#
#
# Elastic Constant Matrix: (Units=GPa)
#
#
# Indices 1 2 3 4 5 6 
#
# 1 88.0446 37.9011 16.3909 0.0000 0.0000 0.0000
# 2 37.9011 154.0971 26.6889 0.0000 0.0000 0.0000
# 3 16.3909 26.6889 48.4459 0.0000 0.0000 0.0000
# 4 0.0000 0.0000 0.0000 28.2302 0.0000 0.0000
# 5 0.0000 0.0000 0.0000 0.0000 21.9830 0.0000
# 6 0.0000 0.0000 0.0000 0.0000 0.0000 30.5328
#
#
#
# Elastic Compliance Matrix: (Units=1/GPa)
#
#
# Indices 1 2 3 4 5 6 
#
# 1 0.013069 -0.002707 -0.002930 0.000000 0.000000 0.000000
# 2 -0.002707 0.007735 -0.003345 0.000000 0.000000 0.000000
# 3 -0.002930 -0.003345 0.023476 0.000000 0.000000 0.000000
# 4 0.000000 0.000000 0.000000 0.035423 0.000000 0.000000
# 5 0.000000 0.000000 0.000000 0.000000 0.045490 0.000000
# 6 0.000000 0.000000 0.000000 0.000000 0.000000 0.032752
#
#
# Mechanical properties :
#
#
# Convention : Reuss Voigt Hill
#
# Bulk Modulus (GPa) = 38.00208 50.28328 44.14268
# Shear Modulus (GPa) = 27.07392 30.12298 28.59845
#
# Velocity S-wave (km/s) = 3.61325 3.81128 3.71359
# Velocity P-wave (km/s) = 5.97769 6.60420 6.29874
#
# Compressibility (1/GPa) = 0.02631435
#
# Stress axis : x y z
#
# Youngs Moduli (GPa) = 76.51911 129.29035 42.59694
#
# Poissons Ratio (x) = 0.34996 0.12483
# Poissons Ratio (y) = 0.20712 0.14249
# Poissons Ratio (z) = 0.22423 0.43250
#
# Static dielectric constant tensor:
#      x y z
#    x 3.753450 0.000000 0.000000 
#    y 0.000000 4.084360 0.000000 
#    z 0.000000 0.000000 3.387700 
# 
# 
# High freq. dielectric constant tensor:
#      x y z
#    x 1.808550 0.000000 0.000000 
#    y 0.000000 1.830630 0.000000 
#    z 0.000000 0.000000 1.784940 
# 
# From -- ./inp_files/4796.got.cif
#   From: 2010.06.25/outbox.cif.g09.slc.cpg/sg58_3_cif.got.tgz:4796.got - 2010.06.26 21:38:00.
