data_PCOD8237888
_publ_section_title
;
Structure prediction by ZEFSAII (Michael W. Deem and Ramdas Pophale) SiO2 
 PCOD8237888
Probable space group: P N N M
;
_chemical_formula_sum "Si O2"
_cell_formula_units_Z 48
_cell_length_a 16.751919
_cell_length_b 16.981515
_cell_length_c 9.319046
_cell_angle_alpha 90.000000
_cell_angle_beta 90.000000
_cell_angle_gamma 90.000000
_cell_volume 2651.016635
_symmetry_space_group_name_H-M "P N N M"
_symmetry_group_IT_number 58
_symmetry_cell_setting 'orthorhombic'
loop_
_space_group_symop_operation_xyz
x,y,z
-x,-y,z
1/2+x,1/2-y,1/2-z
1/2-x,1/2+y,1/2-z
-x,-y,-z
x,y,-z
1/2-x,1/2+y,1/2+z
1/2+x,1/2-y,1/2+z
loop_
_atom_site_type_symbol
_atom_site_label
_atom_site_fract_x
_atom_site_fract_y
_atom_site_fract_z
Si Si1 0.328262 0.860383 0.663963
Si Si2 0.008335 0.909933 0.830098
Si Si3 0.144960 0.824937 0.335724
Si Si4 0.591237 0.999888 0.829653
Si Si5 0.683553 0.847472 0.829375
Si Si6 0.857117 0.814734 0.829842
O O1 0.352533 0.878336 0.500000
O O2 0.233252 0.859687 0.680099
O O3 0.363848 0.925573 0.766989
O O4 0.364383 0.776653 0.714546
O O5 0.088473 0.876100 0.763645
O O6 0.932035 0.862792 0.767474
O O7 0.014571 0.901123 0.000000
O O8 0.000000 0.000000 0.782822
O O9 0.115979 0.830392 0.500000
O O10 0.142620 0.734391 0.281165
O O11 0.500000 0.000000 0.777751
O O12 0.632745 0.920582 0.769281
O O13 0.597570 0.004450 0.000000
O O14 0.774369 0.851551 0.768990
O O15 0.686645 0.848757 0.000000
O O16 0.854927 0.821289 0.000000
#
# Coordination Sequence:
#
# PCOD8237888 Si02
#       6
#     8   8   8   8   8   8
#     4   9  19  36  55  74 100 140 179 208 253 314
#     4  10  21  33  52  82 107 131 172 217 257 305
#     4   9  19  36  56  75 101 139 177 211 257 313
#     4  10  21  33  52  83 109 131 170 219 262 304
#     4   8  16  33  54  72 100 141 173 205 257 314
#     4   8  16  33  53  72  99 139 176 205 250 312
#
# _framework density 18.106262999999998
#
# number of rings (size 3 to 8) (size 9 to 14) (size 15 to 20)
#    0.000    3.000    0.000    2.000    4.667    1.333 
#    0.000    0.833    0.000    2.000    0.000    0.000 
#    0.000    0.000    0.000    0.000    0.000    0.000 
#
# Total GULP energy -595103.139469 kJ/mol
# GULP energy per Si atom -12397.982072 kJ/mol
# Density = 1.806505 g / cm^3
# Si number density = 18.106263 Si / 1000 Ang^3
#
#
#
# Elastic Constant Matrix: (Units=GPa)
#
#
# Indices 1 2 3 4 5 6 
#
# 1 99.3091 80.2304 26.6645 0.0000 0.0000 0.0000
# 2 80.2304 147.5260 31.8255 0.0000 0.0000 0.0000
# 3 26.6645 31.8255 18.6570 0.0000 0.0000 0.0000
# 4 0.0000 0.0000 0.0000 25.4355 0.0000 0.0000
# 5 0.0000 0.0000 0.0000 0.0000 25.3864 0.0000
# 6 0.0000 0.0000 0.0000 0.0000 0.0000 34.3200
#
#
#
# Elastic Compliance Matrix: (Units=1/GPa)
#
#
# Indices 1 2 3 4 5 6 
#
# 1 0.020724 -0.007723 -0.016445 0.000000 0.000000 0.000000
# 2 -0.007723 0.013603 -0.012167 0.000000 0.000000 0.000000
# 3 -0.016445 -0.012167 0.097857 0.000000 0.000000 0.000000
# 4 0.000000 0.000000 0.000000 0.039315 0.000000 0.000000
# 5 0.000000 0.000000 0.000000 0.000000 0.039391 0.000000
# 6 0.000000 0.000000 0.000000 0.000000 0.000000 0.029138
#
#
# Mechanical properties :
#
#
# Convention : Reuss Voigt Hill
#
# Bulk Modulus (GPa) = 16.80258 60.32589 38.56424
# Shear Modulus (GPa) = 15.03587 25.47980 20.25783
#
# Velocity S-wave (km/s) = 2.88483 3.75539 3.34852
# Velocity P-wave (km/s) = 4.51625 7.22454 6.02455
#
# Compressibility (1/GPa) = 0.05951465
#
# Stress axis : x y z
#
# Youngs Moduli (GPa) = 48.25210 73.51107 10.21894
#
# Poissons Ratio (x) = 0.56773 0.16805
# Poissons Ratio (y) = 0.37266 0.12434
# Poissons Ratio (z) = 0.79351 0.89442
#
# Static dielectric constant tensor:
#      x y z
#    x 3.651640 0.000000 0.000000 
#    y 0.000000 3.533970 0.000000 
#    z 0.000000 0.000000 2.911030 
# 
# 
# High freq. dielectric constant tensor:
#      x y z
#    x 1.710320 0.000000 0.000000 
#    y 0.000000 1.712620 0.000000 
#    z 0.000000 0.000000 1.658620 
# 
# From -- ./inp_files/7734.got.cif
#   From: 2010.06.25/outbox.cif.g09.slc.cpg/sg58_4_cif.got.tgz:7734.got - 2010.06.26 21:38:00.
