data_PCOD8237176
_publ_section_title
;
Structure prediction by ZEFSAII (Michael W. Deem and Ramdas Pophale) SiO2 
 PCOD8237176
Probable space group: P N N M
;
_chemical_formula_sum "Si O2"
_cell_formula_units_Z 40
_cell_length_a 10.987731
_cell_length_b 14.854975
_cell_length_c 12.629293
_cell_angle_alpha 90.000000
_cell_angle_beta 90.000000
_cell_angle_gamma 90.000000
_cell_volume 2061.384389
_symmetry_space_group_name_H-M "P N N M"
_symmetry_group_IT_number 58
_symmetry_cell_setting 'orthorhombic'
loop_
_space_group_symop_operation_xyz
x,y,z
-x,-y,z
1/2+x,1/2-y,1/2-z
1/2-x,1/2+y,1/2-z
-x,-y,-z
x,y,-z
1/2-x,1/2+y,1/2+z
1/2+x,1/2-y,1/2+z
loop_
_atom_site_type_symbol
_atom_site_label
_atom_site_fract_x
_atom_site_fract_y
_atom_site_fract_z
Si Si1 0.480473 0.099052 0.381686
Si Si2 0.135286 0.960754 0.000000
Si Si3 0.744009 0.179002 0.620261
Si Si4 0.633830 0.536722 0.729712
Si Si5 0.886692 0.434219 0.500000
Si Si6 0.305875 0.135690 0.206574
O O1 0.425748 0.091288 0.500000
O O2 0.606512 0.149192 0.382730
O O3 0.385548 0.153308 0.310738
O O4 0.500000 0.000000 0.332331
O O5 0.143286 0.910756 0.114555
O O6 0.000000 0.000000 0.000000
O O7 0.247827 0.029694 0.000000
O O8 0.793874 0.190288 0.500000
O O9 0.734847 0.272602 0.683101
O O10 0.828049 0.106066 0.679494
O O11 0.500000 0.500000 0.754757
O O12 0.718456 0.448689 0.727101
O O13 0.898366 0.377777 0.392195
O O14 0.000000 0.500000 0.500000
#
# Coordination Sequence:
#
# PCOD8237176 Si02
#       6
#     8   4   8   8   4   8
#     4  10  21  41  67  90 122 165 211 261 314 382
#     4   8  18  38  58  86 121 161 206 251 311 376
#     4  11  24  42  63  91 126 167 208 261 328 376
#     4  10  22  40  63  89 126 167 207 255 315 386
#     4  10  20  34  64  92 121 159 206 267 315 362
#     4  11  22  40  62  93 127 164 207 260 317 382
#
# _framework density 19.404434999999999
#
# number of rings (size 3 to 8) (size 9 to 14) (size 15 to 20)
#    0.000    1.800    3.000    0.600    5.600    0.400 
#    1.800    0.000    0.000    0.000    0.000    0.000 
#    0.000    0.000    0.000    0.000    0.000    0.000 
#
# Total GULP energy -495557.454484 kJ/mol
# GULP energy per Si atom -12388.936362 kJ/mol
# Density = 1.936027 g / cm^3
# Si number density = 19.404435 Si / 1000 Ang^3
#
#
#
# Elastic Constant Matrix: (Units=GPa)
#
#
# Indices 1 2 3 4 5 6 
#
# 1 81.0799 20.0148 43.6970 0.0000 0.0000 0.0000
# 2 20.0148 94.5359 34.9320 0.0000 0.0000 0.0000
# 3 43.6970 34.9320 126.0899 0.0000 0.0000 0.0000
# 4 0.0000 0.0000 0.0000 18.4829 0.0000 0.0000
# 5 0.0000 0.0000 0.0000 0.0000 108.0743 0.0000
# 6 0.0000 0.0000 0.0000 0.0000 0.0000 25.3534
#
#
#
# Elastic Compliance Matrix: (Units=1/GPa)
#
#
# Indices 1 2 3 4 5 6 
#
# 1 0.015338 -0.001429 -0.004919 0.000000 0.000000 0.000000
# 2 -0.001429 0.011918 -0.002806 0.000000 0.000000 0.000000
# 3 -0.004919 -0.002806 0.010413 0.000000 0.000000 0.000000
# 4 0.000000 0.000000 0.000000 0.054104 0.000000 0.000000
# 5 0.000000 0.000000 0.000000 0.000000 0.009253 0.000000
# 6 0.000000 0.000000 0.000000 0.000000 0.000000 0.039442
#
#
# Mechanical properties :
#
#
# Convention : Reuss Voigt Hill
#
# Bulk Modulus (GPa) = 51.65772 55.44372 53.55072
# Shear Modulus (GPa) = 30.26079 43.91959 37.09019
#
# Velocity S-wave (km/s) = 3.95331 4.76266 4.37673
# Velocity P-wave (km/s) = 6.89330 7.67324 7.29370
#
# Compressibility (1/GPa) = 0.01935819
#
# Stress axis : x y z
#
# Youngs Moduli (GPa) = 65.19937 83.90965 96.03296
#
# Poissons Ratio (x) = 0.11995 0.47241
# Poissons Ratio (y) = 0.09320 0.26949
# Poissons Ratio (z) = 0.32073 0.23547
#
# Static dielectric constant tensor:
#      x y z
#    x 3.423190 0.000000 0.000000 
#    y 0.000000 5.957680 0.000000 
#    z 0.000000 0.000000 4.218400 
# 
# 
# High freq. dielectric constant tensor:
#      x y z
#    x 1.752610 0.000000 0.000000 
#    y 0.000000 1.731490 0.000000 
#    z 0.000000 0.000000 1.779960 
# 
# From -- ./inp_files/14156.got.cif
#   From: 2010.06.25/outbox.cif.g09.slc.cpg/sg58_8_cif.got.tgz:14156.got - 2010.06.26 21:38:00.
