data_PCOD8237175
_publ_section_title
;
Structure prediction by ZEFSAII (Michael W. Deem and Ramdas Pophale) SiO2 
 PCOD8237175
Probable space group: P N N M
;
_chemical_formula_sum "Si O2"
_cell_formula_units_Z 52
_cell_length_a 9.130982
_cell_length_b 24.173825
_cell_length_c 11.437314
_cell_angle_alpha 90.000000
_cell_angle_beta 90.000000
_cell_angle_gamma 90.000000
_cell_volume 2524.567022
_symmetry_space_group_name_H-M "P N N M"
_symmetry_group_IT_number 58
_symmetry_cell_setting 'orthorhombic'
loop_
_space_group_symop_operation_xyz
x,y,z
-x,-y,z
1/2+x,1/2-y,1/2-z
1/2-x,1/2+y,1/2-z
-x,-y,-z
x,y,-z
1/2-x,1/2+y,1/2+z
1/2+x,1/2-y,1/2+z
loop_
_atom_site_type_symbol
_atom_site_label
_atom_site_fract_x
_atom_site_fract_y
_atom_site_fract_z
Si Si1 0.847461 0.104514 0.245649
Si Si2 0.527139 0.123321 0.000000
Si Si3 0.877736 0.696924 0.708892
Si Si4 0.808359 0.054565 0.000000
Si Si5 0.670379 0.389213 0.750983
Si Si6 0.325715 0.501485 0.129504
Si Si7 0.280637 0.576933 0.500000
Si Si8 0.154415 0.708557 0.862453
O O1 0.738814 0.155258 0.265473
O O2 0.768264 0.055712 0.317140
O O3 0.005527 0.121952 0.298979
O O4 0.881475 0.082310 0.114215
O O5 0.533023 0.163890 0.110593
O O6 0.643482 0.074525 0.000000
O O7 0.391715 0.082737 0.000000
O O8 0.777212 0.744878 0.655308
O O9 0.996203 0.721343 0.801539
O O10 0.828854 0.987878 0.000000
O O11 0.731965 0.448625 0.791317
O O12 0.661461 0.389035 0.611151
O O13 0.783513 0.346370 0.804311
O O14 0.500000 0.500000 0.130232
O O15 0.261902 0.508877 0.000000
O O16 0.125703 0.700860 0.000000
#
# Coordination Sequence:
#
# PCOD8237175 Si02
#       8
#     8   4   8   4   8   8   4   8
#     4  10  21  38  63  94 129 166 209 266 325 382
#     4  10  21  42  64  92 136 168 211 274 338 388
#     4  11  24  47  67  93 124 166 216 276 328 400
#     4  10  20  34  63  97 137 171 213 269 332 388
#     4  11  22  37  63  97 131 169 216 268 318 386
#     4   9  18  34  57  87 126 166 206 248 306 379
#     4  12  20  36  65 101 133 175 222 272 328 395
#     4  12  26  47  69  94 129 170 219 274 335 393
#
# _framework density 20.597591000000001
#
# number of rings (size 3 to 8) (size 9 to 14) (size 15 to 20)
#    0.000    1.385    3.846    2.077    0.000    1.846 
#    5.538    0.769    0.000    1.846    0.000    0.000 
#    0.000    0.000    0.000    0.000    0.000    0.000 
#
# Total GULP energy -644526.337520 kJ/mol
# GULP energy per Si atom -12394.737260 kJ/mol
# Density = 2.055071 g / cm^3
# Si number density = 20.597591 Si / 1000 Ang^3
#
#
#
# Elastic Constant Matrix: (Units=GPa)
#
#
# Indices 1 2 3 4 5 6 
#
# 1 81.9012 15.2268 17.6024 0.0000 0.0000 0.0000
# 2 15.2268 73.4620 20.5386 0.0000 0.0000 0.0000
# 3 17.6024 20.5386 112.4597 0.0000 0.0000 0.0000
# 4 0.0000 0.0000 0.0000 -85.2941 0.0000 0.0000
# 5 0.0000 0.0000 0.0000 0.0000 20.0236 0.0000
# 6 0.0000 0.0000 0.0000 0.0000 0.0000 33.6091
#
#
#
# Elastic Compliance Matrix: (Units=1/GPa)
#
#
# Indices 1 2 3 4 5 6 
#
# 1 0.012974 -0.002236 -0.001622 0.000000 0.000000 0.000000
# 2 -0.002236 0.014730 -0.002340 0.000000 0.000000 0.000000
# 3 -0.001622 -0.002340 0.009573 0.000000 0.000000 0.000000
# 4 0.000000 0.000000 0.000000 -0.011724 0.000000 0.000000
# 5 0.000000 0.000000 0.000000 0.000000 0.049941 0.000000
# 6 0.000000 0.000000 0.000000 0.000000 0.000000 0.029754
#
#
# Mechanical properties :
#
#
# Convention : Reuss Voigt Hill
#
# Bulk Modulus (GPa) = 40.19109 41.61759 40.90434
# Shear Modulus (GPa) = 39.70182 7.96473 23.83327
#
# Velocity S-wave (km/s) = 4.39509 1.96856 3.40529
# Velocity P-wave (km/s) = 6.73132 5.04142 5.94670
#
# Compressibility (1/GPa) = 0.02488114
#
# Stress axis : x y z
#
# Youngs Moduli (GPa) = 77.07619 67.88792 104.45583
#
# Poissons Ratio (x) = 0.15177 0.16947
# Poissons Ratio (y) = 0.17231 0.24445
# Poissons Ratio (z) = 0.12505 0.15888
#
# Static dielectric constant tensor:
#      x y z
#    x 3.610760 0.000000 0.000000 
#    y 0.000000 3.766510 0.000000 
#    z 0.000000 0.000000 3.929960 
# 
# 
# High freq. dielectric constant tensor:
#      x y z
#    x 1.800320 0.000000 0.000000 
#    y 0.000000 1.807870 0.000000 
#    z 0.000000 0.000000 1.804840 
# 
# From -- ./inp_files/13259.got.cif
#   From: 2010.06.25/outbox.cif.g09.slc.cpg/sg58_7_cif.got.tgz:13259.got - 2010.06.26 21:38:00.
