data_PCOD8237719
_publ_section_title
;
Structure prediction by ZEFSAII (Michael W. Deem and Ramdas Pophale) SiO2 
 PCOD8237719
Probable space group: P N N M
;
_chemical_formula_sum "Si O2"
_cell_formula_units_Z 48
_cell_length_a 27.421438
_cell_length_b 10.080317
_cell_length_c 8.767045
_cell_angle_alpha 90.000000
_cell_angle_beta 90.000000
_cell_angle_gamma 90.000000
_cell_volume 2423.358416
_symmetry_space_group_name_H-M "P N N M"
_symmetry_group_IT_number 58
_symmetry_cell_setting 'orthorhombic'
loop_
_space_group_symop_operation_xyz
x,y,z
-x,-y,z
1/2+x,1/2-y,1/2-z
1/2-x,1/2+y,1/2-z
-x,-y,-z
x,y,-z
1/2-x,1/2+y,1/2+z
1/2+x,1/2-y,1/2+z
loop_
_atom_site_type_symbol
_atom_site_label
_atom_site_fract_x
_atom_site_fract_y
_atom_site_fract_z
Si Si1 0.291351 0.256378 0.319561
Si Si2 0.681012 0.249917 0.180182
Si Si3 0.539647 0.607993 0.679069
Si Si4 0.641313 0.525756 0.819175
Si Si5 0.855147 0.466784 0.679079
Si Si6 0.035763 0.616462 0.678717
O O1 0.294057 0.275073 0.500000
O O2 0.236136 0.250483 0.257336
O O3 0.315833 0.381523 0.240276
O O4 0.317621 0.120939 0.273557
O O5 0.651650 0.377384 0.242960
O O6 0.652410 0.118353 0.231998
O O7 0.683137 0.259364 0.000000
O O8 0.500000 0.500000 0.729667
O O9 0.548607 0.606754 0.500000
O O10 0.589916 0.576498 0.760901
O O11 0.520555 0.751556 0.731249
O O12 0.640729 0.532976 0.000000
O O13 0.844702 0.448482 0.500000
O O14 0.909580 0.424658 0.721711
O O15 0.029771 0.644240 0.500000
O O16 0.000000 0.500000 0.732964
#
# Coordination Sequence:
#
# PCOD8237719 Si02
#       6
#     8   8   8   8   8   8
#     4  11  21  37  59  86 122 160 196 241 296 351
#     4   9  21  37  58  88 120 157 201 245 289 343
#     4  11  25  43  62  88 122 157 194 241 301 360
#     4  11  22  39  63  89 118 156 202 248 292 347
#     4  10  20  38  60  85 118 154 195 243 290 346
#     4  10  22  39  64  93 117 150 197 243 293 351
#
# _framework density 19.807223
#
# number of rings (size 3 to 8) (size 9 to 14) (size 15 to 20)
#    0.000    1.667    1.667    2.500    2.333    1.667 
#    0.000    5.000    0.000    0.000    0.000    0.000 
#    0.000    0.000    0.000    0.000    0.000    0.000 
#
# Total GULP energy -595404.015363 kJ/mol
# GULP energy per Si atom -12404.250320 kJ/mol
# Density = 1.976214 g / cm^3
# Si number density = 19.807223 Si / 1000 Ang^3
#
#
#
# Elastic Constant Matrix: (Units=GPa)
#
#
# Indices 1 2 3 4 5 6 
#
# 1 84.1777 51.9722 30.7825 0.0000 0.0000 0.0000
# 2 51.9722 172.2875 33.7622 0.0000 0.0000 0.0000
# 3 30.7825 33.7622 47.3413 0.0000 0.0000 0.0000
# 4 0.0000 0.0000 0.0000 12.3420 0.0000 0.0000
# 5 0.0000 0.0000 0.0000 0.0000 15.6698 0.0000
# 6 0.0000 0.0000 0.0000 0.0000 0.0000 43.5187
#
#
#
# Elastic Compliance Matrix: (Units=1/GPa)
#
#
# Indices 1 2 3 4 5 6 
#
# 1 0.017217 -0.003487 -0.008708 0.000000 0.000000 0.000000
# 2 -0.003487 0.007454 -0.003048 0.000000 0.000000 0.000000
# 3 -0.008708 -0.003048 0.028959 0.000000 0.000000 0.000000
# 4 0.000000 0.000000 0.000000 0.081024 0.000000 0.000000
# 5 0.000000 0.000000 0.000000 0.000000 0.063817 0.000000
# 6 0.000000 0.000000 0.000000 0.000000 0.000000 0.022979
#
#
# Mechanical properties :
#
#
# Convention : Reuss Voigt Hill
#
# Bulk Modulus (GPa) = 43.20944 59.64892 51.42918
# Shear Modulus (GPa) = 19.25666 26.79208 23.02437
#
# Velocity S-wave (km/s) = 3.12140 3.68182 3.41313
# Velocity P-wave (km/s) = 5.90366 6.94654 6.44623
#
# Compressibility (1/GPa) = 0.02314309
#
# Stress axis : x y z
#
# Youngs Moduli (GPa) = 58.08180 134.16456 34.53135
#
# Poissons Ratio (x) = 0.46787 0.30070
# Poissons Ratio (y) = 0.20255 0.10526
# Poissons Ratio (z) = 0.50578 0.40895
#
# Static dielectric constant tensor:
#      x y z
#    x 3.784220 0.000000 0.000000 
#    y 0.000000 3.977450 0.000000 
#    z 0.000000 0.000000 3.434340 
# 
# 
# High freq. dielectric constant tensor:
#      x y z
#    x 1.781400 0.000000 0.000000 
#    y 0.000000 1.793000 0.000000 
#    z 0.000000 0.000000 1.756100 
# 
# From -- ./inp_files/10757.got.cif
#   From: 2010.06.25/outbox.cif.g09.slc.cpg/sg58_6_cif.got.tgz:10757.got - 2010.06.26 21:38:00.
