data_PCOD8237505
_publ_section_title
;
Structure prediction by ZEFSAII (Michael W. Deem and Ramdas Pophale) SiO2 
 PCOD8237505
Probable space group: P N N M
;
_chemical_formula_sum "Si O2"
_cell_formula_units_Z 48
_cell_length_a 8.932952
_cell_length_b 30.969837
_cell_length_c 8.463010
_cell_angle_alpha 90.000000
_cell_angle_beta 90.000000
_cell_angle_gamma 90.000000
_cell_volume 2341.309213
_symmetry_space_group_name_H-M "P N N M"
_symmetry_group_IT_number 58
_symmetry_cell_setting 'orthorhombic'
loop_
_space_group_symop_operation_xyz
x,y,z
-x,-y,z
1/2+x,1/2-y,1/2-z
1/2-x,1/2+y,1/2-z
-x,-y,-z
x,y,-z
1/2-x,1/2+y,1/2+z
1/2+x,1/2-y,1/2+z
loop_
_atom_site_type_symbol
_atom_site_label
_atom_site_fract_x
_atom_site_fract_y
_atom_site_fract_z
Si Si1 0.404527 0.542492 0.684051
Si Si2 0.404745 0.207333 0.315448
Si Si3 0.089472 0.875383 0.187675
Si Si4 0.075295 0.208910 0.186162
Si Si5 0.580539 0.956077 0.316952
Si Si6 0.071264 0.373623 0.315824
O O1 0.500000 0.500000 0.714542
O O2 0.362839 0.547752 0.500000
O O3 0.499177 0.583050 0.748705
O O4 0.255864 0.539164 0.786581
O O5 0.374877 0.212594 0.500000
O O6 0.247683 0.206537 0.228551
O O7 0.500909 0.247369 0.246804
O O8 0.492134 0.163477 0.283663
O O9 0.259643 0.877866 0.248323
O O10 0.011653 0.832415 0.257813
O O11 0.088038 0.875159 0.000000
O O12 0.059157 0.208113 0.000000
O O13 0.551176 0.945562 0.500000
O O14 0.514061 0.918293 0.209736
O O15 0.500000 0.000000 0.264819
O O16 0.066287 0.361352 0.500000
#
# Coordination Sequence:
#
# PCOD8237505 Si02
#       6
#     8   8   8   8   8   8
#     4  10  20  36  60  88 116 151 198 243 285 341
#     4  11  23  38  58  87 120 152 194 244 292 346
#     4   9  19  36  58  84 112 147 194 242 284 336
#     4  10  21  38  59  83 115 156 198 239 288 348
#     4  11  24  40  58  85 121 156 193 239 290 344
#     4  11  22  39  63  86 114 153 195 239 291 349
#
# _framework density 20.501351
#
# number of rings (size 3 to 8) (size 9 to 14) (size 15 to 20)
#    0.000    1.667    0.000    4.500    0.000    7.000 
#    0.000    3.333    0.000    0.000    0.000    0.000 
#    0.000    0.000    0.000    0.000    0.000    0.000 
#
# Total GULP energy -595459.312525 kJ/mol
# GULP energy per Si atom -12405.402344 kJ/mol
# Density = 2.045469 g / cm^3
# Si number density = 20.501351 Si / 1000 Ang^3
#
#
#
# Elastic Constant Matrix: (Units=GPa)
#
#
# Indices 1 2 3 4 5 6 
#
# 1 153.3934 66.2064 4.9957 0.0000 0.0000 0.0000
# 2 66.2064 163.2435 11.7560 0.0000 0.0000 0.0000
# 3 4.9957 11.7560 20.9413 0.0000 0.0000 0.0000
# 4 0.0000 0.0000 0.0000 9.4968 0.0000 0.0000
# 5 0.0000 0.0000 0.0000 0.0000 12.4782 0.0000
# 6 0.0000 0.0000 0.0000 0.0000 0.0000 45.7690
#
#
#
# Elastic Compliance Matrix: (Units=1/GPa)
#
#
# Indices 1 2 3 4 5 6 
#
# 1 0.007903 -0.003199 -0.000090 0.000000 0.000000 0.000000
# 2 -0.003199 0.007679 -0.003548 0.000000 0.000000 0.000000
# 3 -0.000090 -0.003548 0.049766 0.000000 0.000000 0.000000
# 4 0.000000 0.000000 0.000000 0.105299 0.000000 0.000000
# 5 0.000000 0.000000 0.000000 0.000000 0.080140 0.000000
# 6 0.000000 0.000000 0.000000 0.000000 0.000000 0.021849
#
#
# Mechanical properties :
#
#
# Convention : Reuss Voigt Hill
#
# Bulk Modulus (GPa) = 19.35163 55.94384 37.64774
# Shear Modulus (GPa) = 16.47278 30.52346 23.49812
#
# Velocity S-wave (km/s) = 2.83768 3.86275 3.38919
# Velocity P-wave (km/s) = 4.49402 6.87325 5.80680
#
# Compressibility (1/GPa) = 0.05167522
#
# Stress axis : x y z
#
# Youngs Moduli (GPa) = 126.53959 130.23293 20.09423
#
# Poissons Ratio (x) = 0.41657 0.00180
# Poissons Ratio (y) = 0.40475 0.07128
# Poissons Ratio (z) = 0.01134 0.46200
#
# Static dielectric constant tensor:
#      x y z
#    x 3.892030 0.000000 0.000000 
#    y 0.000000 4.110560 0.000000 
#    z 0.000000 0.000000 3.398630 
# 
# 
# High freq. dielectric constant tensor:
#      x y z
#    x 1.818460 0.000000 0.000000 
#    y 0.000000 1.821470 0.000000 
#    z 0.000000 0.000000 1.778050 
# 
# From -- ./inp_files/2963.got.cif
#   From: 2010.06.25/outbox.cif.g09.slc.cpg/sg58_2_cif.got.tgz:2963.got - 2010.06.26 21:38:00.
