data_PCOD8237932
_publ_section_title
;
Structure prediction by ZEFSAII (Michael W. Deem and Ramdas Pophale) SiO2 
 PCOD8237932
Probable space group: P N N M
;
_chemical_formula_sum "Si O2"
_cell_formula_units_Z 64
_cell_length_a 10.961131
_cell_length_b 32.229102
_cell_length_c 9.383733
_cell_angle_alpha 90.000000
_cell_angle_beta 90.000000
_cell_angle_gamma 90.000000
_cell_volume 3314.967044
_symmetry_space_group_name_H-M "P N N M"
_symmetry_group_IT_number 58
_symmetry_cell_setting 'orthorhombic'
loop_
_space_group_symop_operation_xyz
x,y,z
-x,-y,z
1/2+x,1/2-y,1/2-z
1/2-x,1/2+y,1/2-z
-x,-y,-z
x,y,-z
1/2-x,1/2+y,1/2+z
1/2+x,1/2-y,1/2+z
loop_
_atom_site_type_symbol
_atom_site_label
_atom_site_fract_x
_atom_site_fract_y
_atom_site_fract_z
Si Si1 0.271371 0.732497 0.332202
Si Si2 0.633509 0.486229 0.830752
Si Si3 0.254598 0.813625 0.161953
Si Si4 0.143088 0.107160 0.665057
Si Si5 0.979743 0.830505 0.157468
Si Si6 0.615494 0.026402 0.668457
Si Si7 0.112409 0.378210 0.164937
Si Si8 0.138886 0.667597 0.163452
O O1 0.248416 0.739109 0.500000
O O2 0.302178 0.776102 0.258754
O O3 0.388875 0.705495 0.294500
O O4 0.156300 0.708233 0.262362
O O5 0.500000 0.500000 0.770056
O O6 0.656331 0.439426 0.778792
O O7 0.750939 0.512095 0.771487
O O8 0.630870 0.490339 0.000000
O O9 0.287328 0.857626 0.233324
O O10 0.110312 0.809847 0.162427
O O11 0.305682 0.810974 0.000000
O O12 0.112000 0.107093 0.500000
O O13 0.029407 0.129693 0.740361
O O14 0.266422 0.131370 0.702770
O O15 0.945743 0.846219 0.000000
O O16 0.616619 0.020189 0.500000
O O17 0.594084 0.074187 0.711322
O O18 0.500000 0.000000 0.730753
O O19 0.991536 0.351872 0.192754
O O20 0.153299 0.375841 0.000000
O O21 0.154597 0.681830 0.000000
#
# Coordination Sequence:
#
# PCOD8237932 Si02
#       8
#     8   8   8   8   8   8   8   8
#     4  10  21  38  59  82 104 138 185 225 270 329
#     4   9  17  27  45  77 111 138 173 227 274 312
#     4  11  24  39  55  78 111 146 179 225 281 325
#     4   9  17  31  55  81 107 140 180 221 268 323
#     4   9  21  39  56  75 107 143 175 221 274 325
#     4   9  17  31  52  79 112 147 182 224 280 336
#     4  10  21  35  56  83 113 147 185 226 272 329
#     4   9  18  34  54  80 111 143 178 222 270 320
#
# _framework density 19.306374999999999
#
# number of rings (size 3 to 8) (size 9 to 14) (size 15 to 20)
#    0.000    2.500    0.000    1.500    3.500    5.000 
#    0.000    0.000    0.000    1.500    0.000    0.000 
#    0.000    0.000    0.000    0.000    0.000    0.000 
#
# Total GULP energy -793417.496680 kJ/mol
# GULP energy per Si atom -12397.148386 kJ/mol
# Density = 1.926243 g / cm^3
# Si number density = 19.306375 Si / 1000 Ang^3
#
#
#
# Elastic Constant Matrix: (Units=GPa)
#
#
# Indices 1 2 3 4 5 6 
#
# 1 88.4914 36.3321 24.5855 0.0000 0.0000 0.0000
# 2 36.3321 127.0033 53.7902 0.0000 0.0000 0.0000
# 3 24.5855 53.7902 68.3649 0.0000 0.0000 0.0000
# 4 0.0000 0.0000 0.0000 22.7819 0.0000 0.0000
# 5 0.0000 0.0000 0.0000 0.0000 19.9305 0.0000
# 6 0.0000 0.0000 0.0000 0.0000 0.0000 25.8164
#
#
#
# Elastic Compliance Matrix: (Units=1/GPa)
#
#
# Indices 1 2 3 4 5 6 
#
# 1 0.013116 -0.002631 -0.002647 0.000000 0.000000 0.000000
# 2 -0.002631 0.012337 -0.008761 0.000000 0.000000 0.000000
# 3 -0.002647 -0.008761 0.022472 0.000000 0.000000 0.000000
# 4 0.000000 0.000000 0.000000 0.043895 0.000000 0.000000
# 5 0.000000 0.000000 0.000000 0.000000 0.050174 0.000000
# 6 0.000000 0.000000 0.000000 0.000000 0.000000 0.038735
#
#
# Mechanical properties :
#
#
# Convention : Reuss Voigt Hill
#
# Bulk Modulus (GPa) = 50.38197 57.03059 53.70628
# Shear Modulus (GPa) = 23.21025 24.98254 24.09639
#
# Velocity S-wave (km/s) = 3.47105 3.60113 3.53669
# Velocity P-wave (km/s) = 6.49745 6.84797 6.67502
#
# Compressibility (1/GPa) = 0.01984837
#
# Stress axis : x y z
#
# Youngs Moduli (GPa) = 76.24193 81.05743 44.49974
#
# Poissons Ratio (x) = 0.21328 0.11777
# Poissons Ratio (y) = 0.20061 0.38984
# Poissons Ratio (z) = 0.20178 0.71011
#
# Static dielectric constant tensor:
#      x y z
#    x 3.618510 0.000000 0.000000 
#    y 0.000000 3.625370 0.000000 
#    z 0.000000 0.000000 3.325370 
# 
# 
# High freq. dielectric constant tensor:
#      x y z
#    x 1.754170 0.000000 0.000000 
#    y 0.000000 1.759310 0.000000 
#    z 0.000000 0.000000 1.716380 
# 
# From -- ./inp_files/4777.got.cif
#   From: 2010.06.25/outbox.cif.g09.slc.cpg/sg58_3_cif.got.tgz:4777.got - 2010.06.26 21:38:00.
