data_PCOD8237006
_publ_section_title
;
Structure prediction by ZEFSAII (Michael W. Deem and Ramdas Pophale) SiO2 
 PCOD8237006
Probable space group: P N N M
;
_chemical_formula_sum "Si O2"
_cell_formula_units_Z 64
_cell_length_a 24.331127
_cell_length_b 14.531622
_cell_length_c 9.432617
_cell_angle_alpha 90.000000
_cell_angle_beta 90.000000
_cell_angle_gamma 90.000000
_cell_volume 3335.097377
_symmetry_space_group_name_H-M "P N N M"
_symmetry_group_IT_number 58
_symmetry_cell_setting 'orthorhombic'
loop_
_space_group_symop_operation_xyz
x,y,z
-x,-y,z
1/2+x,1/2-y,1/2-z
1/2-x,1/2+y,1/2-z
-x,-y,-z
x,y,-z
1/2-x,1/2+y,1/2+z
1/2+x,1/2-y,1/2+z
loop_
_atom_site_type_symbol
_atom_site_label
_atom_site_fract_x
_atom_site_fract_y
_atom_site_fract_z
Si Si1 0.674335 0.479489 0.162964
Si Si2 0.248471 0.641309 0.332829
Si Si3 0.947192 0.558267 0.834393
Si Si4 0.948414 0.937452 0.663597
Si Si5 0.583011 0.756099 0.160704
Si Si6 0.804568 0.178377 0.332475
Si Si7 0.865829 0.448956 0.341055
Si Si8 0.476699 0.733811 0.666819
O O1 0.697748 0.396453 0.255692
O O2 0.608848 0.492367 0.184146
O O3 0.706034 0.572983 0.212772
O O4 0.687814 0.458044 0.000000
O O5 0.258047 0.635231 0.500000
O O6 0.241651 0.748360 0.282462
O O7 0.194259 0.583670 0.288181
O O8 0.890730 0.527028 0.759920
O O9 0.952749 0.665761 0.798387
O O10 0.000000 0.500000 0.779349
O O11 0.939795 0.540345 0.000000
O O12 0.956924 0.909129 0.500000
O O13 0.941368 0.845621 0.757697
O O14 0.000000 0.000000 0.714698
O O15 0.636540 0.708349 0.226796
O O16 0.591315 0.865219 0.161017
O O17 0.536874 0.725696 0.269011
O O18 0.569049 0.722519 0.000000
O O19 0.809711 0.187849 0.500000
O O20 0.861085 0.488700 0.500000
O O21 0.478617 0.715437 0.500000
#
# Coordination Sequence:
#
# PCOD8237006 Si02
#       8
#     8   8   8   8   8   8   8   8
#     4  10  20  37  61  86 109 141 187 231 276 334
#     4   9  19  37  58  82 112 142 178 229 282 328
#     4  10  20  34  50  75 116 156 187 225 278 336
#     4  10  22  41  63  84 109 145 187 235 285 337
#     4   9  16  30  54  79 104 139 187 232 267 316
#     4   8  16  34  59  81 103 139 183 222 268 329
#     4   9  18  32  53  79 105 143 192 235 273 319
#     4  11  22  34  51  80 115 150 183 222 280 336
#
# _framework density 19.189844000000001
#
# number of rings (size 3 to 8) (size 9 to 14) (size 15 to 20)
#    0.000    2.500    1.250    2.625    0.000    4.500 
#    2.250    4.375    0.000    0.000    0.000    0.000 
#    0.000    0.000    0.000    0.000    0.000    0.000 
#
# Total GULP energy -793309.644811 kJ/mol
# GULP energy per Si atom -12395.463200 kJ/mol
# Density = 1.914617 g / cm^3
# Si number density = 19.189844 Si / 1000 Ang^3
#
#
#
# Elastic Constant Matrix: (Units=GPa)
#
#
# Indices 1 2 3 4 5 6 
#
# 1 73.9694 39.1702 26.8954 0.0000 0.0000 0.0000
# 2 39.1702 113.0439 45.3174 0.0000 0.0000 0.0000
# 3 26.8954 45.3174 54.5052 0.0000 0.0000 0.0000
# 4 0.0000 0.0000 0.0000 29.3701 0.0000 0.0000
# 5 0.0000 0.0000 0.0000 0.0000 24.8603 0.0000
# 6 0.0000 0.0000 0.0000 0.0000 0.0000 29.0109
#
#
#
# Elastic Compliance Matrix: (Units=1/GPa)
#
#
# Indices 1 2 3 4 5 6 
#
# 1 0.017559 -0.003916 -0.005409 0.000000 0.000000 0.000000
# 2 -0.003916 0.014142 -0.009826 0.000000 0.000000 0.000000
# 3 -0.005409 -0.009826 0.029185 0.000000 0.000000 0.000000
# 4 0.000000 0.000000 0.000000 0.034048 0.000000 0.000000
# 5 0.000000 0.000000 0.000000 0.000000 0.040225 0.000000
# 6 0.000000 0.000000 0.000000 0.000000 0.000000 0.034470
#
#
# Mechanical properties :
#
#
# Convention : Reuss Voigt Hill
#
# Bulk Modulus (GPa) = 44.27598 51.58717 47.93158
# Shear Modulus (GPa) = 23.20626 25.32397 24.26512
#
# Velocity S-wave (km/s) = 3.48127 3.63665 3.55981
# Velocity P-wave (km/s) = 6.26751 6.67641 6.47519
#
# Compressibility (1/GPa) = 0.02258561
#
# Stress axis : x y z
#
# Youngs Moduli (GPa) = 56.94924 70.71099 34.26401
#
# Poissons Ratio (x) = 0.27692 0.18532
# Poissons Ratio (y) = 0.22303 0.33667
# Poissons Ratio (z) = 0.30802 0.69479
#
# Static dielectric constant tensor:
#      x y z
#    x 3.319360 0.000000 0.000000 
#    y 0.000000 3.644560 0.000000 
#    z 0.000000 0.000000 3.274480 
# 
# 
# High freq. dielectric constant tensor:
#      x y z
#    x 1.733820 0.000000 0.000000 
#    y 0.000000 1.749660 0.000000 
#    z 0.000000 0.000000 1.723580 
# 
# From -- ./inp_files/9946.got.cif
#   From: 2010.06.25/outbox.cif.g09.slc.cpg/sg58_5_cif.got.tgz:9946.got - 2010.06.26 21:38:00.
