data_PCOD8237519
_publ_section_title
;
Structure prediction by ZEFSAII (Michael W. Deem and Ramdas Pophale) SiO2 
 PCOD8237519
Probable space group: P N N M
;
_chemical_formula_sum "Si O2"
_cell_formula_units_Z 64
_cell_length_a 16.483490
_cell_length_b 22.049248
_cell_length_c 8.941222
_cell_angle_alpha 90.000000
_cell_angle_beta 90.000000
_cell_angle_gamma 90.000000
_cell_volume 3249.674251
_symmetry_space_group_name_H-M "P N N M"
_symmetry_group_IT_number 58
_symmetry_cell_setting 'orthorhombic'
loop_
_space_group_symop_operation_xyz
x,y,z
-x,-y,z
1/2+x,1/2-y,1/2-z
1/2-x,1/2+y,1/2-z
-x,-y,-z
x,y,-z
1/2-x,1/2+y,1/2+z
1/2+x,1/2-y,1/2+z
loop_
_atom_site_type_symbol
_atom_site_label
_atom_site_fract_x
_atom_site_fract_y
_atom_site_fract_z
Si Si1 0.814650 0.120235 0.322740
Si Si2 0.156058 0.758782 0.168226
Si Si3 0.154259 0.232630 0.334598
Si Si4 0.826312 0.884981 0.171801
Si Si5 0.643317 0.134826 0.176594
Si Si6 0.361889 0.138749 0.173779
Si Si7 0.407963 0.501097 0.176400
Si Si8 0.999273 0.428763 0.832587
O O1 0.812899 0.129277 0.500000
O O2 0.860890 0.177298 0.249123
O O3 0.723356 0.114003 0.263763
O O4 0.863586 0.060482 0.274040
O O5 0.250816 0.745980 0.163336
O O6 0.115031 0.705214 0.263540
O O7 0.120200 0.760528 0.000000
O O8 0.123976 0.214384 0.500000
O O9 0.130800 0.177450 0.225662
O O10 0.115129 0.296355 0.281728
O O11 0.730887 0.879402 0.201968
O O12 0.859868 0.942117 0.259233
O O13 0.847404 0.893828 0.000000
O O14 0.571082 0.091625 0.224408
O O15 0.660761 0.129584 0.000000
O O16 0.413568 0.089991 0.263565
O O17 0.384540 0.137494 0.000000
O O18 0.500000 0.500000 0.237854
O O19 0.407407 0.508487 0.000000
O O20 0.000000 0.500000 0.840240
O O21 0.009512 0.401637 0.000000
#
# Coordination Sequence:
#
# PCOD8237519 Si02
#       8
#     8   8   8   8   8   8   8   8
#     4  10  20  36  61  88 115 152 196 244 295 352
#     4   9  17  33  58  87 116 149 191 239 291 346
#     4   8  16  33  57  84 112 147 187 230 281 344
#     4  10  21  36  60  90 116 149 191 241 292 343
#     4  10  21  38  61  88 118 155 195 239 294 351
#     4  10  21  38  60  88 119 155 197 241 293 350
#     4  10  23  42  60  82 114 154 196 237 289 352
#     4  11  25  41  57  84 122 160 200 244 289 343
#
# _framework density 19.694282000000001
#
# number of rings (size 3 to 8) (size 9 to 14) (size 15 to 20)
#    0.000    2.250    0.000    3.000    1.750    7.250 
#    2.250    0.000    0.000    0.000    0.000    0.000 
#    0.000    0.000    0.000    0.000    0.000    0.000 
#
# Total GULP energy -793619.995378 kJ/mol
# GULP energy per Si atom -12400.312428 kJ/mol
# Density = 1.964946 g / cm^3
# Si number density = 19.694282 Si / 1000 Ang^3
#
#
#
# Elastic Constant Matrix: (Units=GPa)
#
#
# Indices 1 2 3 4 5 6 
#
# 1 53.3542 43.4473 26.8143 0.0000 0.0000 0.0000
# 2 43.4473 141.0469 55.6196 0.0000 0.0000 0.0000
# 3 26.8143 55.6196 72.5382 0.0000 0.0000 0.0000
# 4 0.0000 0.0000 0.0000 37.7507 0.0000 0.0000
# 5 0.0000 0.0000 0.0000 0.0000 14.3147 0.0000
# 6 0.0000 0.0000 0.0000 0.0000 0.0000 26.1520
#
#
#
# Elastic Compliance Matrix: (Units=1/GPa)
#
#
# Indices 1 2 3 4 5 6 
#
# 1 0.026234 -0.006102 -0.005019 0.000000 0.000000 0.000000
# 2 -0.006102 0.011582 -0.006625 0.000000 0.000000 0.000000
# 3 -0.005019 -0.006625 0.020721 0.000000 0.000000 0.000000
# 4 0.000000 0.000000 0.000000 0.026490 0.000000 0.000000
# 5 0.000000 0.000000 0.000000 0.000000 0.069858 0.000000
# 6 0.000000 0.000000 0.000000 0.000000 0.000000 0.038238
#
#
# Mechanical properties :
#
#
# Convention : Reuss Voigt Hill
#
# Bulk Modulus (GPa) = 43.39285 57.63353 50.51319
# Shear Modulus (GPa) = 21.15992 25.04734 23.10363
#
# Velocity S-wave (km/s) = 3.28139 3.57011 3.42879
# Velocity P-wave (km/s) = 6.03637 6.80602 6.43271
#
# Compressibility (1/GPa) = 0.02304527
#
# Stress axis : x y z
#
# Youngs Moduli (GPa) = 38.11870 86.34190 48.26049
#
# Poissons Ratio (x) = 0.52684 0.24221
# Poissons Ratio (y) = 0.23259 0.31972
# Poissons Ratio (z) = 0.19131 0.57201
#
# Static dielectric constant tensor:
#      x y z
#    x 3.388830 0.000000 0.000000 
#    y 0.000000 3.861260 0.000000 
#    z 0.000000 0.000000 3.730480 
# 
# 
# High freq. dielectric constant tensor:
#      x y z
#    x 1.745170 0.000000 0.000000 
#    y 0.000000 1.779500 0.000000 
#    z 0.000000 0.000000 1.777470 
# 
# From -- ./inp_files/8242.got.cif
#   From: 2010.06.25/outbox.cif.g09.slc.cpg/sg58_5_cif.got.tgz:8242.got - 2010.06.26 21:38:00.
