data_PCOD8237348
_publ_section_title
;
Structure prediction by ZEFSAII (Michael W. Deem and Ramdas Pophale) SiO2 
 PCOD8237348
Probable space group: P N N M
;
_chemical_formula_sum "Si O2"
_cell_formula_units_Z 56
_cell_length_a 9.390790
_cell_length_b 21.473454
_cell_length_c 13.711186
_cell_angle_alpha 90.000000
_cell_angle_beta 90.000000
_cell_angle_gamma 90.000000
_cell_volume 2764.897637
_symmetry_space_group_name_H-M "P N N M"
_symmetry_group_IT_number 58
_symmetry_cell_setting 'orthorhombic'
loop_
_space_group_symop_operation_xyz
x,y,z
-x,-y,z
1/2+x,1/2-y,1/2-z
1/2-x,1/2+y,1/2-z
-x,-y,-z
x,y,-z
1/2-x,1/2+y,1/2+z
1/2+x,1/2-y,1/2+z
loop_
_atom_site_type_symbol
_atom_site_label
_atom_site_fract_x
_atom_site_fract_y
_atom_site_fract_z
Si Si1 0.208263 0.614051 0.394546
Si Si2 0.467991 0.703077 0.389964
Si Si3 0.893939 0.669497 0.806320
Si Si4 0.892017 0.443073 0.208304
Si Si5 0.916189 0.165464 0.695170
Si Si6 0.030822 0.286277 0.394113
Si Si7 0.404106 0.558113 0.113106
O O1 0.239996 0.582185 0.500000
O O2 0.333560 0.660269 0.364253
O O3 0.182932 0.560250 0.314559
O O4 0.067622 0.654162 0.403608
O O5 0.524111 0.690614 0.500000
O O6 0.427888 0.775797 0.382310
O O7 0.584991 0.685196 0.309319
O O8 0.740870 0.638276 0.830710
O O9 0.869634 0.700549 0.698942
O O10 0.021306 0.620000 0.814256
O O11 0.764083 0.452653 0.131634
O O12 0.000000 0.500000 0.202634
O O13 0.939224 0.224690 0.626057
O O14 0.040154 0.116149 0.675278
O O15 0.110550 0.278237 0.500000
O O16 0.500000 0.500000 0.146122
O O17 0.426859 0.572481 0.000000
#
# Coordination Sequence:
#
# PCOD8237348 Si02
#       7
#     8   8   8   8   8   8   8
#     4   9  17  35  60  88 119 156 198 246 304 360
#     4  10  20  35  59  89 125 159 196 247 307 367
#     4  10  22  35  59  92 123 159 203 248 305 362
#     4  11  23  42  63  88 123 164 208 257 298 356
#     4  11  20  36  59  87 118 155 199 249 306 364
#     4   9  18  32  54  83 120 158 194 241 299 364
#     4  11  25  43  62  84 115 160 207 252 303 360
#
# _framework density 20.253913000000001
#
# number of rings (size 3 to 8) (size 9 to 14) (size 15 to 20)
#    0.000    1.857    2.857    1.286    0.000    2.286 
#    0.000    0.000    0.000    3.429    0.000    0.000 
#    0.000    0.000    0.000    0.000    0.000    0.000 
#
# Total GULP energy -694044.309715 kJ/mol
# GULP energy per Si atom -12393.648388 kJ/mol
# Density = 2.020781 g / cm^3
# Si number density = 20.253913 Si / 1000 Ang^3
#
#
#
# Elastic Constant Matrix: (Units=GPa)
#
#
# Indices 1 2 3 4 5 6 
#
# 1 101.4378 38.3487 11.5607 0.0000 0.0000 0.0000
# 2 38.3487 60.8356 34.8947 0.0000 0.0000 0.0000
# 3 11.5607 34.8947 91.3716 0.0000 0.0000 0.0000
# 4 0.0000 0.0000 0.0000 21.5271 0.0000 0.0000
# 5 0.0000 0.0000 0.0000 0.0000 24.6243 0.0000
# 6 0.0000 0.0000 0.0000 0.0000 0.0000 29.1407
#
#
#
# Elastic Compliance Matrix: (Units=1/GPa)
#
#
# Indices 1 2 3 4 5 6 
#
# 1 0.013203 -0.009431 0.001931 0.000000 0.000000 0.000000
# 2 -0.009431 0.027784 -0.009418 0.000000 0.000000 0.000000
# 3 0.001931 -0.009418 0.014297 0.000000 0.000000 0.000000
# 4 0.000000 0.000000 0.000000 0.046453 0.000000 0.000000
# 5 0.000000 0.000000 0.000000 0.000000 0.040610 0.000000
# 6 0.000000 0.000000 0.000000 0.000000 0.000000 0.034316
#
#
# Mechanical properties :
#
#
# Convention : Reuss Voigt Hill
#
# Bulk Modulus (GPa) = 46.62023 47.02811 46.82417
# Shear Modulus (GPa) = 22.97284 26.31449 24.64367
#
# Velocity S-wave (km/s) = 3.37151 3.60839 3.49196
# Velocity P-wave (km/s) = 6.18255 6.37419 6.27910
#
# Compressibility (1/GPa) = 0.02144992
#
# Stress axis : x y z
#
# Youngs Moduli (GPa) = 75.73791 35.99154 69.94686
#
# Poissons Ratio (x) = 0.33942 -0.13507
# Poissons Ratio (y) = 0.71425 0.65873
# Poissons Ratio (z) = -0.14625 0.33895
#
# Static dielectric constant tensor:
#      x y z
#    x 3.492860 0.000000 0.000000 
#    y 0.000000 3.455810 0.000000 
#    z 0.000000 0.000000 4.417370 
# 
# 
# High freq. dielectric constant tensor:
#      x y z
#    x 1.784650 0.000000 0.000000 
#    y 0.000000 1.769080 0.000000 
#    z 0.000000 0.000000 1.800760 
# 
# From -- ./inp_files/20100.got.cif
#   From: 2010.06.25/outbox.cif.g09.slc.cpg/sg58_11_cif.got.tgz:20100.got - 2010.06.26 21:38:00.
