data_PCOD8237981
_publ_section_title
;
Structure prediction by ZEFSAII (Michael W. Deem and Ramdas Pophale) SiO2 
 PCOD8237981
Probable space group: P N N M
;
_chemical_formula_sum "Si O2"
_cell_formula_units_Z 40
_cell_length_a 20.157654
_cell_length_b 11.767574
_cell_length_c 9.322990
_cell_angle_alpha 90.000000
_cell_angle_beta 90.000000
_cell_angle_gamma 90.000000
_cell_volume 2211.475553
_symmetry_space_group_name_H-M "P N N M"
_symmetry_group_IT_number 58
_symmetry_cell_setting 'orthorhombic'
loop_
_space_group_symop_operation_xyz
x,y,z
-x,-y,z
1/2+x,1/2-y,1/2-z
1/2-x,1/2+y,1/2-z
-x,-y,-z
x,y,-z
1/2-x,1/2+y,1/2+z
1/2+x,1/2-y,1/2+z
loop_
_atom_site_type_symbol
_atom_site_label
_atom_site_fract_x
_atom_site_fract_y
_atom_site_fract_z
Si Si1 0.919742 0.313954 0.838180
Si Si2 0.722710 0.858167 0.661477
Si Si3 0.521564 0.375315 0.330437
Si Si4 0.362394 0.736289 0.167981
Si Si5 0.866075 0.504254 0.668805
O O1 0.842007 0.274236 0.835845
O O2 0.965390 0.213255 0.777533
O O3 0.925172 0.427387 0.738594
O O4 0.941508 0.345966 0.000000
O O5 0.734280 0.904214 0.500000
O O6 0.787057 0.790771 0.715558
O O7 0.705242 0.965366 0.764560
O O8 0.500000 0.500000 0.280305
O O9 0.531762 0.369903 0.500000
O O10 0.590506 0.347478 0.254815
O O11 0.379166 0.865514 0.209817
O O12 0.372922 0.715958 0.000000
O O13 0.864188 0.484845 0.500000
#
# Coordination Sequence:
#
# PCOD8237981 Si02
#       5
#     8   8   8   8   8
#     4   8  17  36  56  75 107 145 177 218 272 323
#     4   8  17  35  54  75 108 146 177 218 275 322
#     4  10  22  38  57  81 108 146 188 226 271 326
#     4  10  21  36  56  83 114 144 177 227 280 324
#     4   9  18  33  55  82 106 138 183 225 269 318
#
# _framework density 18.087471000000001
#
# number of rings (size 3 to 8) (size 9 to 14) (size 15 to 20)
#    1.200    1.800    0.000    0.000    0.000    6.000 
#    0.000    8.000    0.000    0.000    0.000    0.000 
#    0.000    0.000    0.000    0.000    0.000    0.000 
#
# Total GULP energy -495595.231548 kJ/mol
# GULP energy per Si atom -12389.880789 kJ/mol
# Density = 1.804630 g / cm^3
# Si number density = 18.087471 Si / 1000 Ang^3
#
#
#
# Elastic Constant Matrix: (Units=GPa)
#
#
# Indices 1 2 3 4 5 6 
#
# 1 64.9674 17.2983 17.4751 0.0000 0.0000 0.0000
# 2 17.2983 86.8127 35.8098 0.0000 0.0000 0.0000
# 3 17.4751 35.8098 51.5700 0.0000 0.0000 0.0000
# 4 0.0000 0.0000 0.0000 27.2374 0.0000 0.0000
# 5 0.0000 0.0000 0.0000 0.0000 26.4644 0.0000
# 6 0.0000 0.0000 0.0000 0.0000 0.0000 33.3136
#
#
#
# Elastic Compliance Matrix: (Units=1/GPa)
#
#
# Indices 1 2 3 4 5 6 
#
# 1 0.017060 -0.001422 -0.004794 0.000000 0.000000 0.000000
# 2 -0.001422 0.016261 -0.010810 0.000000 0.000000 0.000000
# 3 -0.004794 -0.010810 0.028522 0.000000 0.000000 0.000000
# 4 0.000000 0.000000 0.000000 0.036714 0.000000 0.000000
# 5 0.000000 0.000000 0.000000 0.000000 0.037787 0.000000
# 6 0.000000 0.000000 0.000000 0.000000 0.000000 0.030018
#
#
# Mechanical properties :
#
#
# Convention : Reuss Voigt Hill
#
# Bulk Modulus (GPa) = 35.98112 38.27962 37.13037
# Shear Modulus (GPa) = 23.84610 26.25421 25.05016
#
# Velocity S-wave (km/s) = 3.63489 3.81401 3.72552
# Velocity P-wave (km/s) = 6.12801 6.37221 6.25131
#
# Compressibility (1/GPa) = 0.02779235
#
# Stress axis : x y z
#
# Youngs Moduli (GPa) = 58.61533 61.49497 35.06077
#
# Poissons Ratio (x) = 0.08745 0.16807
# Poissons Ratio (y) = 0.08336 0.37901
# Poissons Ratio (z) = 0.28098 0.66476
#
# Static dielectric constant tensor:
#      x y z
#    x 3.251150 0.000000 0.000000 
#    y 0.000000 3.204650 0.000000 
#    z 0.000000 0.000000 3.225510 
# 
# 
# High freq. dielectric constant tensor:
#      x y z
#    x 1.694770 0.000000 0.000000 
#    y 0.000000 1.683570 0.000000 
#    z 0.000000 0.000000 1.696440 
# 
# From -- ./inp_files/4016.got.cif
#   From: 2010.06.25/outbox.cif.g09.slc.cpg/sg58_3_cif.got.tgz:4016.got - 2010.06.26 21:38:00.
