data_PCOD8237903
_publ_section_title
;
Structure prediction by ZEFSAII (Michael W. Deem and Ramdas Pophale) SiO2 
 PCOD8237903
Probable space group: P N N M
;
_chemical_formula_sum "Si O2"
_cell_formula_units_Z 48
_cell_length_a 15.655003
_cell_length_b 8.509227
_cell_length_c 17.871077
_cell_angle_alpha 90.000000
_cell_angle_beta 90.000000
_cell_angle_gamma 90.000000
_cell_volume 2380.641448
_symmetry_space_group_name_H-M "P N N M"
_symmetry_group_IT_number 58
_symmetry_cell_setting 'orthorhombic'
loop_
_space_group_symop_operation_xyz
x,y,z
-x,-y,z
1/2+x,1/2-y,1/2-z
1/2-x,1/2+y,1/2-z
-x,-y,-z
x,y,-z
1/2-x,1/2+y,1/2+z
1/2+x,1/2-y,1/2+z
loop_
_atom_site_type_symbol
_atom_site_label
_atom_site_fract_x
_atom_site_fract_y
_atom_site_fract_z
Si Si1 0.335285 0.890187 0.315727
Si Si2 0.969977 0.673175 0.299063
Si Si3 0.072812 0.880291 0.201604
Si Si4 0.847252 0.343224 0.915645
Si Si5 0.673464 0.169843 0.914283
Si Si6 0.755548 0.935331 0.807988
O O1 0.421962 0.823201 0.280842
O O2 0.266353 0.750394 0.321393
O O3 0.353148 0.971010 0.395483
O O4 0.305974 0.034718 0.262339
O O5 0.907483 0.731571 0.365791
O O6 0.000000 0.500000 0.322277
O O7 0.047732 0.793376 0.280933
O O8 0.088654 0.755713 0.135679
O O9 0.156912 0.981546 0.214849
O O10 0.000000 0.000000 0.174781
O O11 0.747894 0.297576 0.906528
O O12 0.878582 0.318570 0.000000
O O13 0.711006 0.006272 0.882051
O O14 0.644936 0.144209 0.000000
#
# Coordination Sequence:
#
# PCOD8237903 Si02
#       6
#     8   8   8   8   8   8
#     4  11  20  37  56  88 111 151 202 238 290 338
#     4  11  21  35  60  87 116 153 193 245 286 344
#     4  11  21  36  58  88 115 151 195 235 294 342
#     4  10  22  40  59  81 118 155 191 238 290 351
#     4   9  21  40  59  85 118 157 194 237 294 348
#     4  10  21  34  62  83 114 152 196 248 279 350
#
# _framework density 20.162634000000001
#
# number of rings (size 3 to 8) (size 9 to 14) (size 15 to 20)
#    0.000    1.667    3.333    3.000    2.333    1.333 
#    0.000    1.667    0.000    0.500    0.000    0.000 
#    0.000    0.000    0.000    0.000    0.000    0.000 
#
# Total GULP energy -595075.338407 kJ/mol
# GULP energy per Si atom -12397.402883 kJ/mol
# Density = 2.011674 g / cm^3
# Si number density = 20.162634 Si / 1000 Ang^3
#
#
#
# Elastic Constant Matrix: (Units=GPa)
#
#
# Indices 1 2 3 4 5 6 
#
# 1 67.5280 12.5256 42.7383 0.0000 0.0000 0.0000
# 2 12.5256 97.3655 35.7721 0.0000 0.0000 0.0000
# 3 42.7383 35.7721 115.7836 0.0000 0.0000 0.0000
# 4 0.0000 0.0000 0.0000 18.5789 0.0000 0.0000
# 5 0.0000 0.0000 0.0000 0.0000 28.7025 0.0000
# 6 0.0000 0.0000 0.0000 0.0000 0.0000 25.4630
#
#
#
# Elastic Compliance Matrix: (Units=1/GPa)
#
#
# Indices 1 2 3 4 5 6 
#
# 1 0.019325 0.000152 -0.007180 0.000000 0.000000 0.000000
# 2 0.000152 0.011587 -0.003636 0.000000 0.000000 0.000000
# 3 -0.007180 -0.003636 0.012411 0.000000 0.000000 0.000000
# 4 0.000000 0.000000 0.000000 0.053825 0.000000 0.000000
# 5 0.000000 0.000000 0.000000 0.000000 0.034840 0.000000
# 6 0.000000 0.000000 0.000000 0.000000 0.000000 0.039273
#
#
# Mechanical properties :
#
#
# Convention : Reuss Voigt Hill
#
# Bulk Modulus (GPa) = 45.46719 51.41658 48.44188
# Shear Modulus (GPa) = 25.01012 27.19162 26.10087
#
# Velocity S-wave (km/s) = 3.52578 3.67633 3.60184
# Velocity P-wave (km/s) = 6.25891 6.60128 6.43237
#
# Compressibility (1/GPa) = 0.02199388
#
# Stress axis : x y z
#
# Youngs Moduli (GPa) = 51.74704 86.30462 80.57690
#
# Poissons Ratio (x) = -0.01311 0.57855
# Poissons Ratio (y) = -0.00786 0.29297
# Poissons Ratio (z) = 0.37155 0.31380
#
# Static dielectric constant tensor:
#      x y z
#    x 3.818800 0.000000 0.000000 
#    y 0.000000 3.723580 0.000000 
#    z 0.000000 0.000000 3.547320 
# 
# 
# High freq. dielectric constant tensor:
#      x y z
#    x 1.794720 0.000000 0.000000 
#    y 0.000000 1.786860 0.000000 
#    z 0.000000 0.000000 1.759340 
# 
# From -- ./inp_files/25264.got.cif
#   From: 2010.06.25/outbox.cif.g09.slc.cpg/sg58_13_cif.got.tgz:25264.got - 2010.06.26 21:38:00.
