data_PCOD8237426
_publ_section_title
;
Structure prediction by ZEFSAII (Michael W. Deem and Ramdas Pophale) SiO2 
 PCOD8237426
Probable space group: P N N M
;
_chemical_formula_sum "Si O2"
_cell_formula_units_Z 56
_cell_length_a 19.413059
_cell_length_b 9.453841
_cell_length_c 14.907657
_cell_angle_alpha 90.000000
_cell_angle_beta 90.000000
_cell_angle_gamma 90.000000
_cell_volume 2735.972073
_symmetry_space_group_name_H-M "P N N M"
_symmetry_group_IT_number 58
_symmetry_cell_setting 'orthorhombic'
loop_
_space_group_symop_operation_xyz
x,y,z
-x,-y,z
1/2+x,1/2-y,1/2-z
1/2-x,1/2+y,1/2-z
-x,-y,-z
x,y,-z
1/2-x,1/2+y,1/2+z
1/2+x,1/2-y,1/2+z
loop_
_atom_site_type_symbol
_atom_site_label
_atom_site_fract_x
_atom_site_fract_y
_atom_site_fract_z
Si Si1 0.857857 0.610015 0.102065
Si Si2 0.435612 0.898241 0.780184
Si Si3 0.811066 0.611421 0.596638
Si Si4 0.230973 0.136248 0.845569
Si Si5 0.502210 0.336543 0.103806
Si Si6 0.652320 0.685365 0.099355
Si Si7 0.726514 0.421934 0.145712
O O1 0.921239 0.603591 0.173151
O O2 0.826939 0.767912 0.107766
O O3 0.800968 0.490820 0.125073
O O4 0.884905 0.586142 0.000000
O O5 0.364423 0.944125 0.828000
O O6 0.449301 0.744752 0.825540
O O7 0.500000 0.000000 0.801188
O O8 0.848329 0.606204 0.500000
O O9 0.747424 0.501769 0.595755
O O10 0.777481 0.764684 0.608184
O O11 0.299152 0.233537 0.830672
O O12 0.207347 0.082214 0.749595
O O13 0.500000 0.500000 0.129585
O O14 0.426021 0.275422 0.118886
O O15 0.526092 0.314889 0.000000
O O16 0.665863 0.516455 0.102282
O O17 0.672664 0.739315 0.000000
#
# Coordination Sequence:
#
# PCOD8237426 Si02
#       7
#     8   8   8   8   8   8   8
#     4  11  24  44  64  86 121 166 209 250 297 359
#     4  12  25  41  60  89 124 167 210 251 291 353
#     4  12  22  36  62  96 127 151 187 253 318 367
#     4  11  20  37  59  91 119 152 194 248 312 362
#     4  10  22  39  61  90 124 162 199 240 302 370
#     4  10  20  36  58  84 120 160 192 235 302 371
#     4  11  20  38  62  94 122 155 196 248 307 367
#
# _framework density 20.468045
#
# number of rings (size 3 to 8) (size 9 to 14) (size 15 to 20)
#    0.000    1.000    2.857    6.429    0.000    3.714 
#    0.000    0.000    0.000    0.429    0.000    0.000 
#    0.000    0.000    0.000    0.000    0.000    0.000 
#
# Total GULP energy -694167.675094 kJ/mol
# GULP energy per Si atom -12395.851341 kJ/mol
# Density = 2.042146 g / cm^3
# Si number density = 20.468045 Si / 1000 Ang^3
#
#
#
# Elastic Constant Matrix: (Units=GPa)
#
#
# Indices 1 2 3 4 5 6 
#
# 1 53.5572 25.3209 26.1541 0.0000 0.0000 0.0000
# 2 25.3209 110.4301 20.6352 0.0000 0.0000 0.0000
# 3 26.1541 20.6352 129.1342 0.0000 0.0000 0.0000
# 4 0.0000 0.0000 0.0000 17.1029 0.0000 0.0000
# 5 0.0000 0.0000 0.0000 0.0000 20.1729 0.0000
# 6 0.0000 0.0000 0.0000 0.0000 0.0000 21.4596
#
#
#
# Elastic Compliance Matrix: (Units=1/GPa)
#
#
# Indices 1 2 3 4 5 6 
#
# 1 0.022682 -0.004476 -0.003879 0.000000 0.000000 0.000000
# 2 -0.004476 0.010218 -0.000726 0.000000 0.000000 0.000000
# 3 -0.003879 -0.000726 0.008645 0.000000 0.000000 0.000000
# 4 0.000000 0.000000 0.000000 0.058470 0.000000 0.000000
# 5 0.000000 0.000000 0.000000 0.000000 0.049571 0.000000
# 6 0.000000 0.000000 0.000000 0.000000 0.000000 0.046599
#
#
# Mechanical properties :
#
#
# Convention : Reuss Voigt Hill
#
# Bulk Modulus (GPa) = 42.76565 48.59353 45.67959
# Shear Modulus (GPa) = 22.50818 26.48115 24.49467
#
# Velocity S-wave (km/s) = 3.31973 3.60082 3.46313
# Velocity P-wave (km/s) = 5.96937 6.40941 6.19330
#
# Compressibility (1/GPa) = 0.02338325
#
# Stress axis : x y z
#
# Youngs Moduli (GPa) = 44.08802 97.87112 115.66741
#
# Poissons Ratio (x) = 0.43807 0.44863
# Poissons Ratio (y) = 0.19734 0.08399
# Poissons Ratio (z) = 0.17100 0.07107
#
# Static dielectric constant tensor:
#      x y z
#    x 3.539090 0.000000 0.000000 
#    y 0.000000 3.825440 0.000000 
#    z 0.000000 0.000000 3.801290 
# 
# 
# High freq. dielectric constant tensor:
#      x y z
#    x 1.774210 0.000000 0.000000 
#    y 0.000000 1.813500 0.000000 
#    z 0.000000 0.000000 1.797870 
# 
# From -- ./inp_files/23234.got.cif
#   From: 2010.06.25/outbox.cif.g09.slc.cpg/sg58_12_cif.got.tgz:23234.got - 2010.06.26 21:38:00.
