data_PCOD8237695
_publ_section_title
;
Structure prediction by ZEFSAII (Michael W. Deem and Ramdas Pophale) SiO2 
 PCOD8237695
Probable space group: P N N M
;
_chemical_formula_sum "Si O2"
_cell_formula_units_Z 48
_cell_length_a 15.778288
_cell_length_b 9.339449
_cell_length_c 15.310495
_cell_angle_alpha 90.000000
_cell_angle_beta 90.000000
_cell_angle_gamma 90.000000
_cell_volume 2256.162445
_symmetry_space_group_name_H-M "P N N M"
_symmetry_group_IT_number 58
_symmetry_cell_setting 'orthorhombic'
loop_
_space_group_symop_operation_xyz
x,y,z
-x,-y,z
1/2+x,1/2-y,1/2-z
1/2-x,1/2+y,1/2-z
-x,-y,-z
x,y,-z
1/2-x,1/2+y,1/2+z
1/2+x,1/2-y,1/2+z
loop_
_atom_site_type_symbol
_atom_site_label
_atom_site_fract_x
_atom_site_fract_y
_atom_site_fract_z
Si Si1 0.477827 0.164530 0.599670
Si Si2 0.108969 0.740131 0.602115
Si Si3 0.192095 0.479863 0.306677
Si Si4 0.447048 0.745241 0.226937
Si Si5 0.706899 0.741794 0.594499
Si Si6 0.683578 0.465312 0.840390
O O1 0.499893 0.212989 0.500000
O O2 0.528186 0.259086 0.670722
O O3 0.379562 0.181808 0.623705
O O4 0.500000 0.000000 0.613491
O O5 0.083154 0.732442 0.500000
O O6 0.167145 0.605245 0.626477
O O7 0.026079 0.741865 0.661833
O O8 0.164932 0.881183 0.618789
O O9 0.110309 0.383829 0.289194
O O10 0.270702 0.387298 0.341788
O O11 0.231904 0.542804 0.219119
O O12 0.399318 0.595995 0.208580
O O13 0.693863 0.672351 0.500000
O O14 0.785663 0.853780 0.585935
#
# Coordination Sequence:
#
# PCOD8237695 Si02
#       6
#     8   8   8   8   8   8
#     4  10  20  37  64  95 125 162 212 264 317 383
#     4  12  25  40  63  95 127 164 212 260 314 382
#     4  11  23  41  63  86 121 164 207 254 309 374
#     4  11  23  40  63  88 124 164 203 258 320 379
#     4  10  21  38  60  86 118 156 198 247 302 360
#     4  11  23  40  62  87 122 162 204 255 311 373
#
# _framework density 21.275064
#
# number of rings (size 3 to 8) (size 9 to 14) (size 15 to 20)
#    0.000    1.167    0.000    8.000    0.000    5.333 
#    0.000    5.833    0.000    4.000    0.000    0.000 
#    0.000    0.000    0.000    0.000    0.000    0.000 
#
# Total GULP energy -595111.835819 kJ/mol
# GULP energy per Si atom -12398.163246 kJ/mol
# Density = 2.122664 g / cm^3
# Si number density = 21.275064 Si / 1000 Ang^3
#
#
#
# Elastic Constant Matrix: (Units=GPa)
#
#
# Indices 1 2 3 4 5 6 
#
# 1 69.5446 37.8967 33.3533 0.0000 0.0000 0.0000
# 2 37.8967 98.7975 34.2898 0.0000 0.0000 0.0000
# 3 33.3533 34.2898 124.9610 0.0000 0.0000 0.0000
# 4 0.0000 0.0000 0.0000 23.8684 0.0000 0.0000
# 5 0.0000 0.0000 0.0000 0.0000 27.9478 0.0000
# 6 0.0000 0.0000 0.0000 0.0000 0.0000 43.7645
#
#
#
# Elastic Compliance Matrix: (Units=1/GPa)
#
#
# Indices 1 2 3 4 5 6 
#
# 1 0.019456 -0.006256 -0.003476 0.000000 0.000000 0.000000
# 2 -0.006256 0.013199 -0.001952 0.000000 0.000000 0.000000
# 3 -0.003476 -0.001952 0.009466 0.000000 0.000000 0.000000
# 4 0.000000 0.000000 0.000000 0.041896 0.000000 0.000000
# 5 0.000000 0.000000 0.000000 0.000000 0.035781 0.000000
# 6 0.000000 0.000000 0.000000 0.000000 0.000000 0.022850
#
#
# Mechanical properties :
#
#
# Convention : Reuss Voigt Hill
#
# Bulk Modulus (GPa) = 53.32852 56.04252 54.68552
# Shear Modulus (GPa) = 29.02471 31.63369 30.32920
#
# Velocity S-wave (km/s) = 3.69760 3.86021 3.77977
# Velocity P-wave (km/s) = 6.58409 6.80201 6.69394
#
# Compressibility (1/GPa) = 0.01875169
#
# Stress axis : x y z
#
# Youngs Moduli (GPa) = 51.39894 75.76337 105.64189
#
# Poissons Ratio (x) = 0.47400 0.36723
# Poissons Ratio (y) = 0.32157 0.20621
# Poissons Ratio (z) = 0.17867 0.14789
#
# Static dielectric constant tensor:
#      x y z
#    x 3.903140 0.000000 0.000000 
#    y 0.000000 3.810170 0.000000 
#    z 0.000000 0.000000 3.919770 
# 
# 
# High freq. dielectric constant tensor:
#      x y z
#    x 1.843380 0.000000 0.000000 
#    y 0.000000 1.834420 0.000000 
#    z 0.000000 0.000000 1.842540 
# 
# From -- ./inp_files/22754.got.cif
#   From: 2010.06.25/outbox.cif.g09.slc.cpg/sg58_12_cif.got.tgz:22754.got - 2010.06.26 21:38:00.
