data_PCOD8237673
_publ_section_title
;
Structure prediction by ZEFSAII (Michael W. Deem and Ramdas Pophale) SiO2 
 PCOD8237673
Probable space group: P N N M
;
_chemical_formula_sum "Si O2"
_cell_formula_units_Z 48
_cell_length_a 10.387964
_cell_length_b 13.631890
_cell_length_c 15.530921
_cell_angle_alpha 90.000000
_cell_angle_beta 90.000000
_cell_angle_gamma 90.000000
_cell_volume 2199.296178
_symmetry_space_group_name_H-M "P N N M"
_symmetry_group_IT_number 58
_symmetry_cell_setting 'orthorhombic'
loop_
_space_group_symop_operation_xyz
x,y,z
-x,-y,z
1/2+x,1/2-y,1/2-z
1/2-x,1/2+y,1/2-z
-x,-y,-z
x,y,-z
1/2-x,1/2+y,1/2+z
1/2+x,1/2-y,1/2+z
loop_
_atom_site_type_symbol
_atom_site_label
_atom_site_fract_x
_atom_site_fract_y
_atom_site_fract_z
Si Si1 0.759588 0.702751 0.404126
Si Si2 0.983647 0.385488 0.596926
Si Si3 0.770835 0.800999 0.164269
Si Si4 0.348776 0.395275 0.103601
Si Si5 0.989481 0.106304 0.902205
Si Si6 0.356153 0.613164 0.845740
O O1 0.760102 0.659892 0.500000
O O2 0.888904 0.660965 0.358624
O O3 0.628675 0.665744 0.356860
O O4 0.764896 0.821162 0.406991
O O5 0.962387 0.342881 0.500000
O O6 0.000000 0.500000 0.593921
O O7 0.860765 0.360045 0.653759
O O8 0.742700 0.685213 0.149924
O O9 0.878299 0.833248 0.095780
O O10 0.834492 0.835152 0.253552
O O11 0.496528 0.372124 0.125364
O O12 0.311953 0.500614 0.145078
O O13 0.329631 0.396210 0.000000
O O14 0.949316 0.087243 0.000000
O O15 0.000000 0.000000 0.854520
#
# Coordination Sequence:
#
# PCOD8237673 Si02
#       6
#     8   8   8   8   8   8
#     4  10  20  38  63  90 128 180 241 285 338 419
#     4  10  20  37  62  93 130 180 235 286 345 428
#     4  12  25  39  68 102 141 172 234 304 363 398
#     4  11  24  49  77 102 139 199 250 282 346 448
#     4  10  22  38  61  93 137 184 223 278 357 435
#     4  11  25  41  70 102 137 178 239 304 349 402
#
# _framework density 21.825163
#
# number of rings (size 3 to 8) (size 9 to 14) (size 15 to 20)
#    0.000    1.333    1.667    4.500    4.667    4.000 
#    0.000    0.833    0.000    3.000    0.000    0.000 
#    0.000    0.000    0.000    0.000    0.000    0.000 
#
# Total GULP energy -594771.264425 kJ/mol
# GULP energy per Si atom -12391.068009 kJ/mol
# Density = 2.177549 g / cm^3
# Si number density = 21.825163 Si / 1000 Ang^3
#
#
#
# Elastic Constant Matrix: (Units=GPa)
#
#
# Indices 1 2 3 4 5 6 
#
# 1 152.7376 82.6024 12.6709 0.0000 0.0000 0.0000
# 2 82.6024 187.6854 31.7425 0.0000 0.0000 0.0000
# 3 12.6709 31.7425 79.5737 0.0000 0.0000 0.0000
# 4 0.0000 0.0000 0.0000 27.8452 0.0000 0.0000
# 5 0.0000 0.0000 0.0000 0.0000 21.7225 0.0000
# 6 0.0000 0.0000 0.0000 0.0000 0.0000 44.0270
#
#
#
# Elastic Compliance Matrix: (Units=1/GPa)
#
#
# Indices 1 2 3 4 5 6 
#
# 1 0.008594 -0.003808 0.000150 0.000000 0.000000 0.000000
# 2 -0.003808 0.007401 -0.002346 0.000000 0.000000 0.000000
# 3 0.000150 -0.002346 0.013479 0.000000 0.000000 0.000000
# 4 0.000000 0.000000 0.000000 0.035913 0.000000 0.000000
# 5 0.000000 0.000000 0.000000 0.000000 0.046035 0.000000
# 6 0.000000 0.000000 0.000000 0.000000 0.000000 0.022713
#
#
# Mechanical properties :
#
#
# Convention : Reuss Voigt Hill
#
# Bulk Modulus (GPa) = 57.25028 74.89203 66.07115
# Shear Modulus (GPa) = 32.90267 38.25100 35.57683
#
# Velocity S-wave (km/s) = 3.88694 4.19096 4.04181
# Velocity P-wave (km/s) = 6.81415 7.60315 7.21944
#
# Compressibility (1/GPa) = 0.01746716
#
# Stress axis : x y z
#
# Youngs Moduli (GPa) = 116.36063 135.12339 74.19076
#
# Poissons Ratio (x) = 0.51452 -0.01116
# Poissons Ratio (y) = 0.44307 0.17404
# Poissons Ratio (z) = -0.01751 0.31698
#
# Static dielectric constant tensor:
#      x y z
#    x 4.101560 0.000000 0.000000 
#    y 0.000000 4.320090 0.000000 
#    z 0.000000 0.000000 3.892240 
# 
# 
# High freq. dielectric constant tensor:
#      x y z
#    x 1.857080 0.000000 0.000000 
#    y 0.000000 1.873100 0.000000 
#    z 0.000000 0.000000 1.840670 
# 
# From -- ./inp_files/25290.got.cif
#   From: 2010.06.25/outbox.cif.g09.slc.cpg/sg58_13_cif.got.tgz:25290.got - 2010.06.26 21:38:00.
