data_PCOD8237184
_publ_section_title
;
Structure prediction by ZEFSAII (Michael W. Deem and Ramdas Pophale) SiO2 
 PCOD8237184
Probable space group: P N N M
;
_chemical_formula_sum "Si O2"
_cell_formula_units_Z 64
_cell_length_a 19.763040
_cell_length_b 20.298936
_cell_length_c 8.841222
_cell_angle_alpha 90.000000
_cell_angle_beta 90.000000
_cell_angle_gamma 90.000000
_cell_volume 3546.821396
_symmetry_space_group_name_H-M "P N N M"
_symmetry_group_IT_number 58
_symmetry_cell_setting 'orthorhombic'
loop_
_space_group_symop_operation_xyz
x,y,z
-x,-y,z
1/2+x,1/2-y,1/2-z
1/2-x,1/2+y,1/2-z
-x,-y,-z
x,y,-z
1/2-x,1/2+y,1/2+z
1/2+x,1/2-y,1/2+z
loop_
_atom_site_type_symbol
_atom_site_label
_atom_site_fract_x
_atom_site_fract_y
_atom_site_fract_z
Si Si1 0.575091 0.316232 0.822694
Si Si2 0.178454 0.573614 0.678715
Si Si3 0.424707 0.819187 0.323918
Si Si4 0.081141 0.677872 0.177219
Si Si5 0.324859 0.428595 0.175933
Si Si6 0.320579 0.575080 0.180369
Si Si7 0.079363 0.815040 0.679377
Si Si8 0.828427 0.565228 0.822882
O O1 0.600391 0.247712 0.753608
O O2 0.621799 0.375313 0.760967
O O3 0.497920 0.331764 0.777107
O O4 0.583327 0.310020 0.000000
O O5 0.185223 0.574898 0.500000
O O6 0.120736 0.623089 0.731027
O O7 0.249063 0.596892 0.751040
O O8 0.156826 0.501148 0.732167
O O9 0.412216 0.809665 0.500000
O O10 0.502431 0.834046 0.286092
O O11 0.380014 0.879645 0.262411
O O12 0.103688 0.749326 0.236483
O O13 0.096862 0.672225 0.000000
O O14 0.339646 0.501827 0.240424
O O15 0.374856 0.374215 0.246974
O O16 0.247383 0.408874 0.209091
O O17 0.340680 0.429819 0.000000
O O18 0.313125 0.575034 0.000000
O O19 0.088274 0.804964 0.500000
O O20 0.838760 0.549997 0.000000
#
# Coordination Sequence:
#
# PCOD8237184 Si02
#       8
#     8   8   8   8   8   8   8   8
#     4   9  18  31  50  75 105 135 167 208 249 287
#     4  11  22  35  52  75  99 127 163 209 256 300
#     4   9  19  34  53  74 100 135 172 204 243 296
#     4  10  20  35  52  72 100 135 169 205 248 299
#     4   8  15  29  51  74 100 131 165 203 243 288
#     4   9  18  34  52  73 101 135 169 204 248 298
#     4   9  17  31  50  76 105 134 169 208 245 287
#     4   9  18  35  54  73  98 130 165 203 245 297
#
# _framework density 18.044326000000002
#
# number of rings (size 3 to 8) (size 9 to 14) (size 15 to 20)
#    0.000    2.750    0.000    2.250    0.000    3.500 
#    0.000    8.750    0.000    0.000    0.000    7.000 
#    0.000    0.000    0.000    0.000    0.000    0.000 
#
# Total GULP energy -793592.196797 kJ/mol
# GULP energy per Si atom -12399.878075 kJ/mol
# Density = 1.800326 g / cm^3
# Si number density = 18.044326 Si / 1000 Ang^3
#
#
#
# Elastic Constant Matrix: (Units=GPa)
#
#
# Indices 1 2 3 4 5 6 
#
# 1 96.5458 87.0175 29.9374 0.0000 0.0000 0.0000
# 2 87.0175 136.8566 37.7157 0.0000 0.0000 0.0000
# 3 29.9374 37.7157 41.3414 0.0000 0.0000 0.0000
# 4 0.0000 0.0000 0.0000 29.1227 0.0000 0.0000
# 5 0.0000 0.0000 0.0000 0.0000 18.9200 0.0000
# 6 0.0000 0.0000 0.0000 0.0000 0.0000 41.7652
#
#
#
# Elastic Compliance Matrix: (Units=1/GPa)
#
#
# Indices 1 2 3 4 5 6 
#
# 1 0.024956 -0.014544 -0.004803 0.000000 0.000000 0.000000
# 2 -0.014544 0.018237 -0.006106 0.000000 0.000000 0.000000
# 3 -0.004803 -0.006106 0.033237 0.000000 0.000000 0.000000
# 4 0.000000 0.000000 0.000000 0.034338 0.000000 0.000000
# 5 0.000000 0.000000 0.000000 0.000000 0.052854 0.000000
# 6 0.000000 0.000000 0.000000 0.000000 0.000000 0.023943
#
#
# Mechanical properties :
#
#
# Convention : Reuss Voigt Hill
#
# Bulk Modulus (GPa) = 39.17825 64.89833 52.03829
# Shear Modulus (GPa) = 20.24464 25.96644 23.10554
#
# Velocity S-wave (km/s) = 3.35317 3.79758 3.58227
# Velocity P-wave (km/s) = 6.06226 7.43458 6.78321
#
# Compressibility (1/GPa) = 0.02552437
#
# Stress axis : x y z
#
# Youngs Moduli (GPa) = 40.07098 54.83369 30.08662
#
# Poissons Ratio (x) = 0.79749 0.14452
# Poissons Ratio (y) = 0.58279 0.18370
# Poissons Ratio (z) = 0.19247 0.33479
#
# Static dielectric constant tensor:
#      x y z
#    x 3.442440 0.000000 0.000000 
#    y 0.000000 3.579400 0.000000 
#    z 0.000000 0.000000 3.134950 
# 
# 
# High freq. dielectric constant tensor:
#      x y z
#    x 1.699250 0.000000 0.000000 
#    y 0.000000 1.706210 0.000000 
#    z 0.000000 0.000000 1.679510 
# 
# From -- ./inp_files/8391.got.cif
#   From: 2010.06.25/outbox.cif.g09.slc.cpg/sg58_5_cif.got.tgz:8391.got - 2010.06.26 21:38:00.
