data_PCOD8237554
_publ_section_title
;
Structure prediction by ZEFSAII (Michael W. Deem and Ramdas Pophale) SiO2 
 PCOD8237554
Probable space group: P N N M
;
_chemical_formula_sum "Si O2"
_cell_formula_units_Z 48
_cell_length_a 8.849194
_cell_length_b 14.521693
_cell_length_c 17.967553
_cell_angle_alpha 90.000000
_cell_angle_beta 90.000000
_cell_angle_gamma 90.000000
_cell_volume 2308.925403
_symmetry_space_group_name_H-M "P N N M"
_symmetry_group_IT_number 58
_symmetry_cell_setting 'orthorhombic'
loop_
_space_group_symop_operation_xyz
x,y,z
-x,-y,z
1/2+x,1/2-y,1/2-z
1/2-x,1/2+y,1/2-z
-x,-y,-z
x,y,-z
1/2-x,1/2+y,1/2+z
1/2+x,1/2-y,1/2+z
loop_
_atom_site_type_symbol
_atom_site_label
_atom_site_fract_x
_atom_site_fract_y
_atom_site_fract_z
Si Si1 0.618061 0.776865 0.319295
Si Si2 0.852440 0.128506 0.414631
Si Si3 0.863624 0.801371 0.914497
Si Si4 0.453206 0.756513 0.830589
Si Si5 0.338415 0.045477 0.582706
Si Si6 0.584226 0.912498 0.086531
O O1 0.514854 0.704722 0.365265
O O2 0.549086 0.794222 0.238637
O O3 0.781344 0.733574 0.306275
O O4 0.650057 0.872013 0.360171
O O5 0.908836 0.124785 0.500000
O O6 0.722004 0.204559 0.405515
O O7 0.992653 0.155225 0.359875
O O8 0.785760 0.029550 0.390421
O O9 0.755273 0.885757 0.885885
O O10 0.911186 0.817114 0.000000
O O11 0.479072 0.824441 0.899942
O O12 0.294905 0.081974 0.500000
O O13 0.500000 0.000000 0.577984
O O14 0.500000 0.000000 0.125477
O O15 0.596961 0.931838 0.000000
#
# Coordination Sequence:
#
# PCOD8237554 Si02
#       6
#     8   8   8   8   8   8
#     4  12  24  38  57  85 125 163 202 252 308 375
#     4   9  18  37  63  91 121 152 196 252 308 374
#     4   9  17  34  61  87 115 152 196 245 297 360
#     4  11  24  39  57  85 123 164 204 248 310 369
#     4  10  20  36  65  96 119 154 203 252 312 381
#     4   9  19  39  64  86 111 151 204 250 297 359
#
# _framework density 20.788892000000001
#
# number of rings (size 3 to 8) (size 9 to 14) (size 15 to 20)
#    0.000    2.000    1.667    4.000    0.000    4.000 
#    0.000    2.500    3.667    3.000    0.000    0.000 
#    0.000    0.000    0.000    0.000    0.000    0.000 
#
# Total GULP energy -594858.054740 kJ/mol
# GULP energy per Si atom -12392.876140 kJ/mol
# Density = 2.074158 g / cm^3
# Si number density = 20.788892 Si / 1000 Ang^3
#
#
#
# Elastic Constant Matrix: (Units=GPa)
#
#
# Indices 1 2 3 4 5 6 
#
# 1 145.1273 50.5284 40.8384 0.0000 0.0000 0.0000
# 2 50.5284 107.7793 38.9689 0.0000 0.0000 0.0000
# 3 40.8384 38.9689 67.1407 0.0000 0.0000 0.0000
# 4 0.0000 0.0000 0.0000 12.3096 0.0000 0.0000
# 5 0.0000 0.0000 0.0000 0.0000 27.5122 0.0000
# 6 0.0000 0.0000 0.0000 0.0000 0.0000 34.5732
#
#
#
# Elastic Compliance Matrix: (Units=1/GPa)
#
#
# Indices 1 2 3 4 5 6 
#
# 1 0.008942 -0.002817 -0.003804 0.000000 0.000000 0.000000
# 2 -0.002817 0.012630 -0.005617 0.000000 0.000000 0.000000
# 3 -0.003804 -0.005617 0.020468 0.000000 0.000000 0.000000
# 4 0.000000 0.000000 0.000000 0.081237 0.000000 0.000000
# 5 0.000000 0.000000 0.000000 0.000000 0.036348 0.000000
# 6 0.000000 0.000000 0.000000 0.000000 0.000000 0.028924
#
#
# Mechanical properties :
#
#
# Convention : Reuss Voigt Hill
#
# Bulk Modulus (GPa) = 56.93484 64.52430 60.72957
# Shear Modulus (GPa) = 22.84374 27.52644 25.18509
#
# Velocity S-wave (km/s) = 3.31848 3.64276 3.48439
# Velocity P-wave (km/s) = 6.49074 6.98557 6.74269
#
# Compressibility (1/GPa) = 0.01756394
#
# Stress axis : x y z
#
# Youngs Moduli (GPa) = 111.83743 79.17913 48.85657
#
# Poissons Ratio (x) = 0.22301 0.18585
# Poissons Ratio (y) = 0.31500 0.27443
# Poissons Ratio (z) = 0.42543 0.44476
#
# Static dielectric constant tensor:
#      x y z
#    x 4.076470 0.000000 0.000000 
#    y 0.000000 4.017840 0.000000 
#    z 0.000000 0.000000 3.694170 
# 
# 
# High freq. dielectric constant tensor:
#      x y z
#    x 1.818120 0.000000 0.000000 
#    y 0.000000 1.792870 0.000000 
#    z 0.000000 0.000000 1.804100 
# 
# From -- ./inp_files/25280.got.cif
#   From: 2010.06.25/outbox.cif.g09.slc.cpg/sg58_13_cif.got.tgz:25280.got - 2010.06.26 21:38:00.
