data_PCOD8237217
_publ_section_title
;
Structure prediction by ZEFSAII (Michael W. Deem and Ramdas Pophale) SiO2 
 PCOD8237217
Probable space group: P N N M
;
_chemical_formula_sum "Si O2"
_cell_formula_units_Z 64
_cell_length_a 10.882519
_cell_length_b 16.441417
_cell_length_c 20.014225
_cell_angle_alpha 90.000000
_cell_angle_beta 90.000000
_cell_angle_gamma 90.000000
_cell_volume 3581.025852
_symmetry_space_group_name_H-M "P N N M"
_symmetry_group_IT_number 58
_symmetry_cell_setting 'orthorhombic'
loop_
_space_group_symop_operation_xyz
x,y,z
-x,-y,z
1/2+x,1/2-y,1/2-z
1/2-x,1/2+y,1/2-z
-x,-y,-z
x,y,-z
1/2-x,1/2+y,1/2+z
1/2+x,1/2-y,1/2+z
loop_
_atom_site_type_symbol
_atom_site_label
_atom_site_fract_x
_atom_site_fract_y
_atom_site_fract_z
Si Si1 0.622206 0.447562 0.426513
Si Si2 0.950243 0.244535 0.422677
Si Si3 0.691996 0.979324 0.183694
Si Si4 0.335832 0.737730 0.423468
Si Si5 0.805632 0.468201 0.833597
Si Si6 0.974146 0.632344 0.681706
Si Si7 0.581190 0.424317 0.076712
Si Si8 0.055030 0.370920 0.167835
O O1 0.500000 0.500000 0.425865
O O2 0.684584 0.455796 0.500000
O O3 0.701560 0.486893 0.369256
O O4 0.607698 0.351743 0.411521
O O5 0.969051 0.271030 0.500000
O O6 0.807225 0.253880 0.402150
O O7 0.037761 0.298296 0.374545
O O8 0.996410 0.153536 0.410008
O O9 0.745842 0.977906 0.258449
O O10 0.614996 0.896653 0.176838
O O11 0.610642 0.056521 0.165518
O O12 0.349088 0.764889 0.500000
O O13 0.422943 0.795417 0.380191
O O14 0.703666 0.427566 0.879758
O O15 0.846957 0.559497 0.853270
O O16 0.919807 0.407501 0.839448
O O17 0.934898 0.662025 0.755847
O O18 0.500000 0.500000 0.098325
O O19 0.623191 0.429166 0.000000
#
# Coordination Sequence:
#
# PCOD8237217 Si02
#       8
#     8   8   8   8   8   8   8   8
#     4  10  21  37  55  78 109 145 184 225 268 322
#     4  10  20  35  55  81 110 143 185 229 275 326
#     4   9  18  35  58  78 106 141 178 223 271 324
#     4  10  20  36  57  79 108 146 187 225 269 330
#     4   9  19  36  56  79 110 141 178 224 270 329
#     4   9  18  35  56  81 107 137 179 228 271 317
#     4  10  21  36  54  79 111 143 180 228 275 322
#     4   9  19  36  56  80 108 143 181 220 272 331
#
# _framework density 17.871974999999999
#
# number of rings (size 3 to 8) (size 9 to 14) (size 15 to 20)
#    0.000    2.500    1.250    2.250    0.000    4.000 
#    2.250    3.750    0.000    0.000    0.000    0.000 
#    0.000    0.000    0.000    0.000    0.000    0.000 
#
# Total GULP energy -793185.796696 kJ/mol
# GULP energy per Si atom -12393.528073 kJ/mol
# Density = 1.783130 g / cm^3
# Si number density = 17.871975 Si / 1000 Ang^3
#
#
#
# Elastic Constant Matrix: (Units=GPa)
#
#
# Indices 1 2 3 4 5 6 
#
# 1 67.0149 39.0580 50.8442 0.0000 0.0000 0.0000
# 2 39.0580 104.2507 58.8177 0.0000 0.0000 0.0000
# 3 50.8442 58.8177 96.1042 0.0000 0.0000 0.0000
# 4 0.0000 0.0000 0.0000 29.6325 0.0000 0.0000
# 5 0.0000 0.0000 0.0000 0.0000 31.7780 0.0000
# 6 0.0000 0.0000 0.0000 0.0000 0.0000 22.5093
#
#
#
# Elastic Compliance Matrix: (Units=1/GPa)
#
#
# Indices 1 2 3 4 5 6 
#
# 1 0.025515 -0.002968 -0.011682 0.000000 0.000000 0.000000
# 2 -0.002968 0.014997 -0.007608 0.000000 0.000000 0.000000
# 3 -0.011682 -0.007608 0.021242 0.000000 0.000000 0.000000
# 4 0.000000 0.000000 0.000000 0.033747 0.000000 0.000000
# 5 0.000000 0.000000 0.000000 0.000000 0.031468 0.000000
# 6 0.000000 0.000000 0.000000 0.000000 0.000000 0.044426
#
#
# Mechanical properties :
#
#
# Convention : Reuss Voigt Hill
#
# Bulk Modulus (GPa) = 58.01421 62.75661 60.38541
# Shear Modulus (GPa) = 22.55726 24.69397 23.62561
#
# Velocity S-wave (km/s) = 3.55654 3.72117 3.63979
# Velocity P-wave (km/s) = 7.02828 7.32486 7.17811
#
# Compressibility (1/GPa) = 0.01723716
#
# Stress axis : x y z
#
# Youngs Moduli (GPa) = 39.19190 66.68145 47.07634
#
# Poissons Ratio (x) = 0.19794 0.54996
# Poissons Ratio (y) = 0.11634 0.35815
# Poissons Ratio (z) = 0.45785 0.50730
#
# Static dielectric constant tensor:
#      x y z
#    x 3.145610 0.000000 0.000000 
#    y 0.000000 3.296080 0.000000 
#    z 0.000000 0.000000 3.416910 
# 
# 
# High freq. dielectric constant tensor:
#      x y z
#    x 1.675190 0.000000 0.000000 
#    y 0.000000 1.693740 0.000000 
#    z 0.000000 0.000000 1.699370 
# 
# From -- ./inp_files/26413.got.cif
#   From: 2010.06.25/outbox.cif.g09.slc.cpg/sg58_14_cif.got.tgz:26413.got - 2010.06.26 21:38:00.
