data_PCOD8237425
_publ_section_title
;
Structure prediction by ZEFSAII (Michael W. Deem and Ramdas Pophale) SiO2 
 PCOD8237425
Probable space group: P N N M
;
_chemical_formula_sum "Si O2"
_cell_formula_units_Z 56
_cell_length_a 14.656664
_cell_length_b 21.870202
_cell_length_c 9.027752
_cell_angle_alpha 90.000000
_cell_angle_beta 90.000000
_cell_angle_gamma 90.000000
_cell_volume 2893.793564
_symmetry_space_group_name_H-M "P N N M"
_symmetry_group_IT_number 58
_symmetry_cell_setting 'orthorhombic'
loop_
_space_group_symop_operation_xyz
x,y,z
-x,-y,z
1/2+x,1/2-y,1/2-z
1/2-x,1/2+y,1/2-z
-x,-y,-z
x,y,-z
1/2-x,1/2+y,1/2+z
1/2+x,1/2-y,1/2+z
loop_
_atom_site_type_symbol
_atom_site_label
_atom_site_fract_x
_atom_site_fract_y
_atom_site_fract_z
Si Si1 0.273791 0.488691 0.175934
Si Si2 0.409400 0.386633 0.173436
Si Si3 0.609664 0.749024 0.825018
Si Si4 0.933817 0.679696 0.675072
Si Si5 0.811305 0.774716 0.825346
Si Si6 0.384871 0.606753 0.827587
Si Si7 0.086632 0.460455 0.673767
O O1 0.335080 0.433232 0.241674
O O2 0.320364 0.552007 0.225503
O O3 0.173716 0.487034 0.242970
O O4 0.267976 0.484948 0.000000
O O5 0.397529 0.319150 0.244341
O O6 0.510695 0.412192 0.204599
O O7 0.390732 0.382651 0.000000
O O8 0.528350 0.791537 0.764107
O O9 0.705187 0.779703 0.780125
O O10 0.599696 0.743832 0.000000
O O11 0.923941 0.688435 0.500000
O O12 0.849938 0.712805 0.754445
O O13 0.931846 0.609079 0.721081
O O14 0.863523 0.833092 0.764701
O O15 0.824267 0.770703 0.000000
O O16 0.371206 0.622343 0.000000
O O17 0.104435 0.466747 0.500000
O O18 0.000000 0.500000 0.723951
#
# Coordination Sequence:
#
# PCOD8237425 Si02
#       7
#     8   8   8   8   8   8   8
#     4  10  21  36  59  87 113 148 194 242 285 330
#     4   9  16  33  59  84 109 143 188 229 275 340
#     4   9  18  32  56  82 107 144 185 228 278 336
#     4  10  20  39  61  81 110 152 194 232 280 343
#     4  11  22  35  57  89 117 146 188 239 289 334
#     4  10  20  36  58  84 115 152 191 230 282 346
#     4  10  23  40  60  83 113 156 198 234 284 349
#
# _framework density 19.351762000000001
#
# number of rings (size 3 to 8) (size 9 to 14) (size 15 to 20)
#    0.000    2.143    1.429    1.714    2.000    4.286 
#    0.000    2.143    0.000    1.714    0.000    0.000 
#    0.000    0.000    0.000    0.000    0.000    0.000 
#
# Total GULP energy -694487.726604 kJ/mol
# GULP energy per Si atom -12401.566546 kJ/mol
# Density = 1.930772 g / cm^3
# Si number density = 19.351762 Si / 1000 Ang^3
#
#
#
# Elastic Constant Matrix: (Units=GPa)
#
#
# Indices 1 2 3 4 5 6 
#
# 1 111.0917 45.4543 23.2330 0.0000 0.0000 0.0000
# 2 45.4543 118.2793 25.3734 0.0000 0.0000 0.0000
# 3 23.2330 25.3734 28.3159 0.0000 0.0000 0.0000
# 4 0.0000 0.0000 0.0000 15.9362 0.0000 0.0000
# 5 0.0000 0.0000 0.0000 0.0000 27.4915 0.0000
# 6 0.0000 0.0000 0.0000 0.0000 0.0000 36.0678
#
#
#
# Elastic Compliance Matrix: (Units=1/GPa)
#
#
# Indices 1 2 3 4 5 6 
#
# 1 0.011672 -0.003010 -0.006880 0.000000 0.000000 0.000000
# 2 -0.003010 0.011243 -0.007605 0.000000 0.000000 0.000000
# 3 -0.006880 -0.007605 0.047775 0.000000 0.000000 0.000000
# 4 0.000000 0.000000 0.000000 0.062750 0.000000 0.000000
# 5 0.000000 0.000000 0.000000 0.000000 0.036375 0.000000
# 6 0.000000 0.000000 0.000000 0.000000 0.000000 0.027726
#
#
# Mechanical properties :
#
#
# Convention : Reuss Voigt Hill
#
# Bulk Modulus (GPa) = 28.01039 49.53427 38.77233
# Shear Modulus (GPa) = 20.45582 26.80751 23.63166
#
# Velocity S-wave (km/s) = 3.25476 3.72597 3.49831
# Velocity P-wave (km/s) = 5.35074 6.64551 6.03296
#
# Compressibility (1/GPa) = 0.03570104
#
# Stress axis : x y z
#
# Youngs Moduli (GPa) = 85.67692 88.94790 20.93134
#
# Poissons Ratio (x) = 0.26769 0.14400
# Poissons Ratio (y) = 0.25785 0.15918
# Poissons Ratio (z) = 0.58944 0.67644
#
# Static dielectric constant tensor:
#      x y z
#    x 3.706830 0.000000 0.000000 
#    y 0.000000 3.720370 0.000000 
#    z 0.000000 0.000000 3.142100 
# 
# 
# High freq. dielectric constant tensor:
#      x y z
#    x 1.768850 0.000000 0.000000 
#    y 0.000000 1.765980 0.000000 
#    z 0.000000 0.000000 1.712100 
# 
# From -- ./inp_files/6455.got.cif
#   From: 2010.06.25/outbox.cif.g09.slc.cpg/sg58_4_cif.got.tgz:6455.got - 2010.06.26 21:38:00.
