data_PCOD8237798
_publ_section_title
;
Structure prediction by ZEFSAII (Michael W. Deem and Ramdas Pophale) SiO2 
 PCOD8237798
Probable space group: P N N M
;
_chemical_formula_sum "Si O2"
_cell_formula_units_Z 56
_cell_length_a 10.830786
_cell_length_b 19.163502
_cell_length_c 13.764919
_cell_angle_alpha 90.000000
_cell_angle_beta 90.000000
_cell_angle_gamma 90.000000
_cell_volume 2856.988626
_symmetry_space_group_name_H-M "P N N M"
_symmetry_group_IT_number 58
_symmetry_cell_setting 'orthorhombic'
loop_
_space_group_symop_operation_xyz
x,y,z
-x,-y,z
1/2+x,1/2-y,1/2-z
1/2-x,1/2+y,1/2-z
-x,-y,-z
x,y,-z
1/2-x,1/2+y,1/2+z
1/2+x,1/2-y,1/2+z
loop_
_atom_site_type_symbol
_atom_site_label
_atom_site_fract_x
_atom_site_fract_y
_atom_site_fract_z
Si Si1 0.134361 0.589445 0.389908
Si Si2 0.333756 0.708325 0.388761
Si Si3 0.764445 0.659894 0.777318
Si Si4 0.862334 0.510871 0.209333
Si Si5 0.008500 0.171899 0.714772
Si Si6 0.076030 0.304210 0.389715
Si Si7 0.381740 0.546226 0.113979
O O1 0.152279 0.560619 0.500000
O O2 0.232092 0.649762 0.367018
O O3 0.148475 0.525104 0.315733
O O4 0.999464 0.623731 0.379046
O O5 0.376065 0.707039 0.500000
O O6 0.283742 0.785436 0.364463
O O7 0.452330 0.692419 0.323298
O O8 0.852032 0.593749 0.787322
O O9 0.623603 0.634547 0.776777
O O10 0.799596 0.695541 0.674537
O O11 0.752283 0.484334 0.140390
O O12 0.000000 0.500000 0.165190
O O13 0.992298 0.240146 0.647666
O O14 0.107654 0.120189 0.667427
O O15 0.115479 0.290958 0.500000
O O16 0.500000 0.500000 0.146630
O O17 0.386356 0.558695 0.000000
#
# Coordination Sequence:
#
# PCOD8237798 Si02
#       7
#     8   8   8   8   8   8   8
#     4  10  20  38  65  92 120 160 208 255 313 378
#     4  10  22  40  64  91 122 159 205 259 317 374
#     4  11  23  37  63  92 126 164 207 261 313 379
#     4  12  24  41  63  92 132 169 212 263 319 371
#     4  11  21  39  65  91 122 159 210 265 316 370
#     4  10  21  38  61  91 121 158 206 261 315 373
#     4  11  24  41  63  89 121 166 212 255 309 379
#
# _framework density 19.601057999999998
#
# number of rings (size 3 to 8) (size 9 to 14) (size 15 to 20)
#    0.000    1.286    5.714    0.429    0.000    2.857 
#    0.000    0.000    0.000    2.571    0.000    0.000 
#    0.000    0.000    0.000    0.000    0.000    0.000 
#
# Total GULP energy -694325.148194 kJ/mol
# GULP energy per Si atom -12398.663361 kJ/mol
# Density = 1.955644 g / cm^3
# Si number density = 19.601058 Si / 1000 Ang^3
#
#
#
# Elastic Constant Matrix: (Units=GPa)
#
#
# Indices 1 2 3 4 5 6 
#
# 1 111.9958 33.7253 29.5779 0.0000 0.0000 0.0000
# 2 33.7253 87.2618 30.0110 0.0000 0.0000 0.0000
# 3 29.5779 30.0110 94.7063 0.0000 0.0000 0.0000
# 4 0.0000 0.0000 0.0000 27.7913 0.0000 0.0000
# 5 0.0000 0.0000 0.0000 0.0000 22.4436 0.0000
# 6 0.0000 0.0000 0.0000 0.0000 0.0000 31.5298
#
#
#
# Elastic Compliance Matrix: (Units=1/GPa)
#
#
# Indices 1 2 3 4 5 6 
#
# 1 0.010512 -0.003292 -0.002240 0.000000 0.000000 0.000000
# 2 -0.003292 0.013893 -0.003374 0.000000 0.000000 0.000000
# 3 -0.002240 -0.003374 0.012328 0.000000 0.000000 0.000000
# 4 0.000000 0.000000 0.000000 0.035982 0.000000 0.000000
# 5 0.000000 0.000000 0.000000 0.000000 0.044556 0.000000
# 6 0.000000 0.000000 0.000000 0.000000 0.000000 0.031716
#
#
# Mechanical properties :
#
#
# Convention : Reuss Voigt Hill
#
# Bulk Modulus (GPa) = 52.85476 53.39916 53.12696
# Shear Modulus (GPa) = 28.88409 29.72959 29.30684
#
# Velocity S-wave (km/s) = 3.84291 3.89875 3.87093
# Velocity P-wave (km/s) = 6.83480 6.89704 6.86599
#
# Compressibility (1/GPa) = 0.01891977
#
# Stress axis : x y z
#
# Youngs Moduli (GPa) = 95.13088 71.98049 81.11848
#
# Poissons Ratio (x) = 0.23699 0.18168
# Poissons Ratio (y) = 0.31321 0.27370
# Poissons Ratio (z) = 0.21306 0.24287
#
# Static dielectric constant tensor:
#      x y z
#    x 3.527510 0.000000 0.000000 
#    y 0.000000 3.562820 0.000000 
#    z 0.000000 0.000000 3.515590 
# 
# 
# High freq. dielectric constant tensor:
#      x y z
#    x 1.760560 0.000000 0.000000 
#    y 0.000000 1.770570 0.000000 
#    z 0.000000 0.000000 1.760200 
# 
# From -- ./inp_files/20146.got.cif
#   From: 2010.06.25/outbox.cif.g09.slc.cpg/sg58_11_cif.got.tgz:20146.got - 2010.06.26 21:38:00.
