data_PCOD8237496
_publ_section_title
;
Structure prediction by ZEFSAII (Michael W. Deem and Ramdas Pophale) SiO2 
 PCOD8237496
Probable space group: P N N M
;
_chemical_formula_sum "Si O2"
_cell_formula_units_Z 48
_cell_length_a 14.826791
_cell_length_b 18.791643
_cell_length_c 8.831161
_cell_angle_alpha 90.000000
_cell_angle_beta 90.000000
_cell_angle_gamma 90.000000
_cell_volume 2460.535988
_symmetry_space_group_name_H-M "P N N M"
_symmetry_group_IT_number 58
_symmetry_cell_setting 'orthorhombic'
loop_
_space_group_symop_operation_xyz
x,y,z
-x,-y,z
1/2+x,1/2-y,1/2-z
1/2-x,1/2+y,1/2-z
-x,-y,-z
x,y,-z
1/2-x,1/2+y,1/2+z
1/2+x,1/2-y,1/2+z
loop_
_atom_site_type_symbol
_atom_site_label
_atom_site_fract_x
_atom_site_fract_y
_atom_site_fract_z
Si Si1 0.904756 0.528685 0.319624
Si Si2 0.040969 0.793705 0.677882
Si Si3 0.388278 0.813116 0.179115
Si Si4 0.449108 0.572903 0.324010
Si Si5 0.286740 0.233823 0.679231
Si Si6 0.741385 0.915859 0.822063
O O1 0.907350 0.531139 0.500000
O O2 0.889835 0.607582 0.252160
O O3 0.822207 0.479705 0.263414
O O4 0.000000 0.500000 0.256578
O O5 0.060156 0.793785 0.500000
O O6 0.133176 0.785050 0.768250
O O7 0.978682 0.727588 0.726741
O O8 0.993596 0.866991 0.721839
O O9 0.303895 0.769493 0.244897
O O10 0.379174 0.817075 0.000000
O O11 0.500000 0.500000 0.286809
O O12 0.459319 0.593284 0.500000
O O13 0.344164 0.565679 0.277912
O O14 0.285866 0.228887 0.500000
O O15 0.295214 0.155170 0.744961
O O16 0.730477 0.905214 0.000000
#
# Coordination Sequence:
#
# PCOD8237496 Si02
#       6
#     8   8   8   8   8   8
#     4   9  17  31  55  84 110 142 187 238 284 338
#     4  11  22  39  61  87 116 152 198 247 297 354
#     4   9  19  35  57  84 114 146 190 239 289 347
#     4  10  22  38  58  86 119 157 200 246 296 351
#     4  11  22  37  59  85 117 155 194 240 294 353
#     4  10  20  36  60  86 115 151 195 243 290 347
#
# _framework density 19.507944999999999
#
# number of rings (size 3 to 8) (size 9 to 14) (size 15 to 20)
#    0.000    2.000    1.667    2.000    2.333    3.000 
#    0.000    0.000    0.000    5.500    0.000    0.000 
#    0.000    0.000    0.000    0.000    0.000    0.000 
#
# Total GULP energy -595324.363781 kJ/mol
# GULP energy per Si atom -12402.590912 kJ/mol
# Density = 1.946354 g / cm^3
# Si number density = 19.507945 Si / 1000 Ang^3
#
#
#
# Elastic Constant Matrix: (Units=GPa)
#
#
# Indices 1 2 3 4 5 6 
#
# 1 100.4464 30.1966 20.3181 0.0000 0.0000 0.0000
# 2 30.1966 126.5522 22.1460 0.0000 0.0000 0.0000
# 3 20.3181 22.1460 28.2171 0.0000 0.0000 0.0000
# 4 0.0000 0.0000 0.0000 27.5196 0.0000 0.0000
# 5 0.0000 0.0000 0.0000 0.0000 22.9729 0.0000
# 6 0.0000 0.0000 0.0000 0.0000 0.0000 41.2182
#
#
#
# Elastic Compliance Matrix: (Units=1/GPa)
#
#
# Indices 1 2 3 4 5 6 
#
# 1 0.011911 -0.001555 -0.007356 0.000000 0.000000 0.000000
# 2 -0.001555 0.009363 -0.006229 0.000000 0.000000 0.000000
# 3 -0.007356 -0.006229 0.045625 0.000000 0.000000 0.000000
# 4 0.000000 0.000000 0.000000 0.036338 0.000000 0.000000
# 5 0.000000 0.000000 0.000000 0.000000 0.043530 0.000000
# 6 0.000000 0.000000 0.000000 0.000000 0.000000 0.024261
#
#
# Mechanical properties :
#
#
# Convention : Reuss Voigt Hill
#
# Bulk Modulus (GPa) = 27.30816 44.50414 35.90615
# Shear Modulus (GPa) = 23.41764 30.51247 26.96506
#
# Velocity S-wave (km/s) = 3.46846 3.95917 3.72191
# Velocity P-wave (km/s) = 5.48354 6.61535 6.07585
#
# Compressibility (1/GPa) = 0.03661909
#
# Stress axis : x y z
#
# Youngs Moduli (GPa) = 83.95603 106.80477 21.91762
#
# Poissons Ratio (x) = 0.16605 0.16124
# Poissons Ratio (y) = 0.13053 0.13652
# Poissons Ratio (z) = 0.61762 0.66528
#
# Static dielectric constant tensor:
#      x y z
#    x 3.800350 0.000000 0.000000 
#    y 0.000000 3.731230 0.000000 
#    z 0.000000 0.000000 3.195310 
# 
# 
# High freq. dielectric constant tensor:
#      x y z
#    x 1.777250 0.000000 0.000000 
#    y 0.000000 1.772380 0.000000 
#    z 0.000000 0.000000 1.722570 
# 
# From -- ./inp_files/5853.got.cif
#   From: 2010.06.25/outbox.cif.g09.slc.cpg/sg58_3_cif.got.tgz:5853.got - 2010.06.26 21:38:00.
