data_PCOD8237591
_publ_section_title
;
Structure prediction by ZEFSAII (Michael W. Deem and Ramdas Pophale) SiO2 
 PCOD8237591
Probable space group: P N N M
;
_chemical_formula_sum "Si O2"
_cell_formula_units_Z 64
_cell_length_a 14.171578
_cell_length_b 25.418409
_cell_length_c 8.643010
_cell_angle_alpha 90.000000
_cell_angle_beta 90.000000
_cell_angle_gamma 90.000000
_cell_volume 3113.376123
_symmetry_space_group_name_H-M "P N N M"
_symmetry_group_IT_number 58
_symmetry_cell_setting 'orthorhombic'
loop_
_space_group_symop_operation_xyz
x,y,z
-x,-y,z
1/2+x,1/2-y,1/2-z
1/2-x,1/2+y,1/2-z
-x,-y,-z
x,y,-z
1/2-x,1/2+y,1/2+z
1/2+x,1/2-y,1/2+z
loop_
_atom_site_type_symbol
_atom_site_label
_atom_site_fract_x
_atom_site_fract_y
_atom_site_fract_z
Si Si1 0.549741 0.351827 0.681523
Si Si2 0.446978 0.948511 0.819471
Si Si3 0.236957 0.181864 0.674681
Si Si4 0.252779 0.907153 0.315969
Si Si5 0.052711 0.948780 0.318363
Si Si6 0.014711 0.259608 0.174817
Si Si7 0.569890 0.861798 0.677052
Si Si8 0.267789 0.787697 0.324417
O O1 0.533060 0.362128 0.500000
O O2 0.660145 0.341562 0.708675
O O3 0.513118 0.399623 0.781645
O O4 0.497571 0.298717 0.744664
O O5 0.346035 0.937546 0.740848
O O6 0.522869 0.903620 0.787894
O O7 0.500000 0.000000 0.752788
O O8 0.427109 0.954067 0.000000
O O9 0.197135 0.187056 0.500000
O O10 0.317267 0.136811 0.678925
O O11 0.277532 0.239722 0.725377
O O12 0.256538 0.906159 0.500000
O O13 0.159290 0.938432 0.254644
O O14 0.247670 0.846405 0.255439
O O15 0.059895 0.956354 0.500000
O O16 0.000000 0.000000 0.245112
O O17 0.121961 0.277399 0.184983
O O18 0.955297 0.305390 0.254710
O O19 0.979853 0.255833 0.000000
O O20 0.531041 0.868115 0.500000
O O21 0.230193 0.784520 0.500000
#
# Coordination Sequence:
#
# PCOD8237591 Si02
#       8
#     8   8   8   8   8   8   8   8
#     4  10  21  38  60  84 119 162 199 245 301 357
#     4  11  25  42  60  89 125 157 198 253 302 353
#     4  10  21  34  56  89 124 160 199 245 296 356
#     4  10  21  40  64  87 115 156 200 247 300 357
#     4  10  23  42  63  89 120 154 204 261 302 349
#     4   8  15  31  54  80 113 147 186 239 287 344
#     4  10  20  37  59  85 119 160 201 241 293 358
#     4   9  17  33  56  82 116 154 195 241 294 357
#
# _framework density 20.556463000000001
#
# number of rings (size 3 to 8) (size 9 to 14) (size 15 to 20)
#    0.000    2.250    1.250    1.875    1.750    4.250 
#    0.000    4.375    0.000    0.000    0.000    0.000 
#    0.000    0.000    0.000    0.000    0.000    0.000 
#
# Total GULP energy -792964.928778 kJ/mol
# GULP energy per Si atom -12390.077012 kJ/mol
# Density = 2.050968 g / cm^3
# Si number density = 20.556463 Si / 1000 Ang^3
#
#
#
# Elastic Constant Matrix: (Units=GPa)
#
#
# Indices 1 2 3 4 5 6 
#
# 1 85.0864 71.8550 13.9306 0.0000 0.0000 0.0000
# 2 71.8550 137.2678 3.7632 0.0000 0.0000 0.0000
# 3 13.9306 3.7632 20.4757 0.0000 0.0000 0.0000
# 4 0.0000 0.0000 0.0000 27.7547 0.0000 0.0000
# 5 0.0000 0.0000 0.0000 0.0000 22.3776 0.0000
# 6 0.0000 0.0000 0.0000 0.0000 0.0000 32.3606
#
#
#
# Elastic Compliance Matrix: (Units=1/GPa)
#
#
# Indices 1 2 3 4 5 6 
#
# 1 0.024721 -0.012543 -0.014514 0.000000 0.000000 0.000000
# 2 -0.012543 0.013686 0.006018 0.000000 0.000000 0.000000
# 3 -0.014514 0.006018 0.057607 0.000000 0.000000 0.000000
# 4 0.000000 0.000000 0.000000 0.036030 0.000000 0.000000
# 5 0.000000 0.000000 0.000000 0.000000 0.044688 0.000000
# 6 0.000000 0.000000 0.000000 0.000000 0.000000 0.030902
#
#
# Mechanical properties :
#
#
# Convention : Reuss Voigt Hill
#
# Bulk Modulus (GPa) = 18.54022 46.88085 32.71054
# Shear Modulus (GPa) = 18.67838 26.71733 22.69785
#
# Velocity S-wave (km/s) = 3.01763 3.60905 3.32651
# Velocity P-wave (km/s) = 4.60220 6.34211 5.54088
#
# Compressibility (1/GPa) = 0.05393678
#
# Stress axis : x y z
#
# Youngs Moduli (GPa) = 40.45073 73.06825 17.35910
#
# Poissons Ratio (x) = 0.91649 0.25195
# Poissons Ratio (y) = 0.50737 -0.10447
# Poissons Ratio (z) = 0.58710 -0.43974
#
# Static dielectric constant tensor:
#      x y z
#    x 3.750650 0.000000 0.000000 
#    y 0.000000 4.123870 0.000000 
#    z 0.000000 0.000000 3.482130 
# 
# 
# High freq. dielectric constant tensor:
#      x y z
#    x 1.806860 0.000000 0.000000 
#    y 0.000000 1.807260 0.000000 
#    z 0.000000 0.000000 1.776510 
# 
# From -- ./inp_files/6971.got.cif
#   From: 2010.06.25/outbox.cif.g09.slc.cpg/sg58_4_cif.got.tgz:6971.got - 2010.06.26 21:38:00.
