data_PCOD8237412
_publ_section_title
;
Structure prediction by ZEFSAII (Michael W. Deem and Ramdas Pophale) SiO2 
 PCOD8237412
Probable space group: P N N M
;
_chemical_formula_sum "Si O2"
_cell_formula_units_Z 56
_cell_length_a 21.167159
_cell_length_b 14.982884
_cell_length_c 9.537919
_cell_angle_alpha 90.000000
_cell_angle_beta 90.000000
_cell_angle_gamma 90.000000
_cell_volume 3024.904160
_symmetry_space_group_name_H-M "P N N M"
_symmetry_group_IT_number 58
_symmetry_cell_setting 'orthorhombic'
loop_
_space_group_symop_operation_xyz
x,y,z
-x,-y,z
1/2+x,1/2-y,1/2-z
1/2-x,1/2+y,1/2-z
-x,-y,-z
x,y,-z
1/2-x,1/2+y,1/2+z
1/2+x,1/2-y,1/2+z
loop_
_atom_site_type_symbol
_atom_site_label
_atom_site_fract_x
_atom_site_fract_y
_atom_site_fract_z
Si Si1 0.665846 0.186453 0.665861
Si Si2 0.315884 0.986351 0.835639
Si Si3 0.519500 0.205012 0.335207
Si Si4 0.603769 0.481437 0.153206
Si Si5 0.481027 0.363420 0.845830
Si Si6 0.553504 0.929933 0.847703
Si Si7 0.296682 0.616428 0.663525
O O1 0.673297 0.170235 0.500000
O O2 0.592155 0.190767 0.710945
O O3 0.700027 0.279550 0.712652
O O4 0.698816 0.104081 0.747935
O O5 0.384333 0.021312 0.789870
O O6 0.268896 0.068009 0.797730
O O7 0.312286 0.961947 0.000000
O O8 0.513194 0.200481 0.500000
O O9 0.493661 0.298276 0.281750
O O10 0.471087 0.135092 0.270898
O O11 0.584329 0.583903 0.186609
O O12 0.539228 0.429004 0.148423
O O13 0.648884 0.442785 0.269964
O O14 0.637038 0.475937 0.000000
O O15 0.475430 0.316229 0.000000
O O16 0.500000 0.000000 0.876907
O O17 0.568187 0.883575 0.000000
O O18 0.310474 0.614795 0.500000
#
# Coordination Sequence:
#
# PCOD8237412 Si02
#       7
#     8   8   8   8   8   8   8
#     4  10  21  37  58  83 112 147 185 229 285 340
#     4  10  22  40  61  82 109 149 193 235 280 337
#     4  11  21  33  55  85 112 143 181 226 283 339
#     4   9  18  33  55  82 110 145 187 230 274 324
#     4   9  18  33  53  80 113 146 185 229 271 324
#     4  10  20  36  58  82 108 142 183 232 286 332
#     4  10  21  39  59  82 115 152 190 232 284 342
#
# _framework density 18.512983999999999
#
# number of rings (size 3 to 8) (size 9 to 14) (size 15 to 20)
#    0.000    2.143    2.857    1.286    0.000    3.143 
#    2.571    1.429    0.000    0.000    0.000    0.000 
#    0.000    0.000    0.000    0.000    0.000    0.000 
#
# Total GULP energy -693977.395975 kJ/mol
# GULP energy per Si atom -12392.453500 kJ/mol
# Density = 1.847085 g / cm^3
# Si number density = 18.512984 Si / 1000 Ang^3
#
#
#
# Elastic Constant Matrix: (Units=GPa)
#
#
# Indices 1 2 3 4 5 6 
#
# 1 87.7680 51.2759 32.2192 0.0000 0.0000 0.0000
# 2 51.2759 109.6136 52.4321 0.0000 0.0000 0.0000
# 3 32.2192 52.4321 64.8895 0.0000 0.0000 0.0000
# 4 0.0000 0.0000 0.0000 37.4823 0.0000 0.0000
# 5 0.0000 0.0000 0.0000 0.0000 20.7378 0.0000
# 6 0.0000 0.0000 0.0000 0.0000 0.0000 27.5895
#
#
#
# Elastic Compliance Matrix: (Units=1/GPa)
#
#
# Indices 1 2 3 4 5 6 
#
# 1 0.016053 -0.006026 -0.003102 0.000000 0.000000 0.000000
# 2 -0.006026 0.017132 -0.010851 0.000000 0.000000 0.000000
# 3 -0.003102 -0.010851 0.025719 0.000000 0.000000 0.000000
# 4 0.000000 0.000000 0.000000 0.026679 0.000000 0.000000
# 5 0.000000 0.000000 0.000000 0.000000 0.048221 0.000000
# 6 0.000000 0.000000 0.000000 0.000000 0.000000 0.036246
#
#
# Mechanical properties :
#
#
# Convention : Reuss Voigt Hill
#
# Bulk Modulus (GPa) = 52.78007 59.34728 56.06367
# Shear Modulus (GPa) = 23.11363 25.58486 24.34925
#
# Velocity S-wave (km/s) = 3.53726 3.72155 3.63058
# Velocity P-wave (km/s) = 6.72715 7.11290 6.92271
#
# Compressibility (1/GPa) = 0.01894655
#
# Stress axis : x y z
#
# Youngs Moduli (GPa) = 62.29549 58.36950 38.88169
#
# Poissons Ratio (x) = 0.35171 0.12060
# Poissons Ratio (y) = 0.37536 0.42192
# Poissons Ratio (z) = 0.19322 0.63339
#
# Static dielectric constant tensor:
#      x y z
#    x 3.619450 0.000000 0.000000 
#    y 0.000000 3.409500 0.000000 
#    z 0.000000 0.000000 3.610580 
# 
# 
# High freq. dielectric constant tensor:
#      x y z
#    x 1.704050 0.000000 0.000000 
#    y 0.000000 1.719690 0.000000 
#    z 0.000000 0.000000 1.716430 
# 
# From -- ./inp_files/6338.got.cif
#   From: 2010.06.25/outbox.cif.g09.slc.cpg/sg58_4_cif.got.tgz:6338.got - 2010.06.26 21:38:00.
