data_PCOD8237869
_publ_section_title
;
Structure prediction by ZEFSAII (Michael W. Deem and Ramdas Pophale) SiO2 
 PCOD8237869
Probable space group: P N N M
;
_chemical_formula_sum "Si O2"
_cell_formula_units_Z 56
_cell_length_a 24.179300
_cell_length_b 8.353032
_cell_length_c 13.732543
_cell_angle_alpha 90.000000
_cell_angle_beta 90.000000
_cell_angle_gamma 90.000000
_cell_volume 2773.568118
_symmetry_space_group_name_H-M "P N N M"
_symmetry_group_IT_number 58
_symmetry_cell_setting 'orthorhombic'
loop_
_space_group_symop_operation_xyz
x,y,z
-x,-y,z
1/2+x,1/2-y,1/2-z
1/2-x,1/2+y,1/2-z
-x,-y,-z
x,y,-z
1/2-x,1/2+y,1/2+z
1/2+x,1/2-y,1/2+z
loop_
_atom_site_type_symbol
_atom_site_label
_atom_site_fract_x
_atom_site_fract_y
_atom_site_fract_z
Si Si1 0.399730 0.887786 0.886397
Si Si2 0.207528 0.279458 0.284782
Si Si3 0.348882 0.940453 0.389471
Si Si4 0.682860 0.557205 0.711524
Si Si5 0.409016 0.618406 0.605789
Si Si6 0.898706 0.315886 0.745971
Si Si7 0.985994 0.836144 0.278914
O O1 0.340651 0.812916 0.861772
O O2 0.448703 0.782891 0.841028
O O3 0.400133 0.067163 0.846038
O O4 0.409867 0.895395 0.000000
O O5 0.199127 0.373458 0.181958
O O6 0.266104 0.336473 0.329000
O O7 0.208570 0.088540 0.273085
O O8 0.326790 0.973405 0.500000
O O9 0.396272 0.806821 0.391606
O O10 0.377186 0.098939 0.344791
O O11 0.646586 0.485489 0.623564
O O12 0.643185 0.669736 0.777888
O O13 0.432084 0.569182 0.500000
O O14 0.453869 0.586799 0.687523
O O15 0.960691 0.255137 0.761879
O O16 0.000000 0.000000 0.339901
#
# Coordination Sequence:
#
# PCOD8237869 Si02
#       7
#     8   8   8   8   8   8   8
#     4  11  24  43  65  94 125 166 223 269 319 377
#     4  10  20  40  66  87 124 166 206 263 319 371
#     4   9  19  37  60  92 124 159 202 250 308 373
#     4  11  21  41  64  91 126 167 206 260 316 382
#     4  10  21  39  63  93 128 163 204 252 311 381
#     4  11  22  38  64  89 127 167 208 261 322 371
#     4  12  22  42  64  89 130 170 207 261 315 372
#
# _framework density 20.190597
#
# number of rings (size 3 to 8) (size 9 to 14) (size 15 to 20)
#    0.000    1.429    5.714    2.143    0.000    3.429 
#    0.000    9.286    0.000    0.000    0.000    0.000 
#    0.000    0.000    0.000    0.000    0.000    0.000 
#
# Total GULP energy -694125.969148 kJ/mol
# GULP energy per Si atom -12395.106592 kJ/mol
# Density = 2.014464 g / cm^3
# Si number density = 20.190597 Si / 1000 Ang^3
#
#
#
# Elastic Constant Matrix: (Units=GPa)
#
#
# Indices 1 2 3 4 5 6 
#
# 1 123.5419 56.7206 24.5981 0.0000 0.0000 0.0000
# 2 56.7206 130.6184 43.2619 0.0000 0.0000 0.0000
# 3 24.5981 43.2619 105.4453 0.0000 0.0000 0.0000
# 4 0.0000 0.0000 0.0000 5.7336 0.0000 0.0000
# 5 0.0000 0.0000 0.0000 0.0000 7.3105 0.0000
# 6 0.0000 0.0000 0.0000 0.0000 0.0000 47.2180
#
#
#
# Elastic Compliance Matrix: (Units=1/GPa)
#
#
# Indices 1 2 3 4 5 6 
#
# 1 0.010148 -0.004192 -0.000647 0.000000 0.000000 0.000000
# 2 -0.004192 0.010592 -0.003368 0.000000 0.000000 0.000000
# 3 -0.000647 -0.003368 0.011016 0.000000 0.000000 0.000000
# 4 0.000000 0.000000 0.000000 0.174410 0.000000 0.000000
# 5 0.000000 0.000000 0.000000 0.000000 0.136790 0.000000
# 6 0.000000 0.000000 0.000000 0.000000 0.000000 0.021178
#
#
# Mechanical properties :
#
#
# Convention : Reuss Voigt Hill
#
# Bulk Modulus (GPa) = 65.18223 67.64076 66.41149
# Shear Modulus (GPa) = 12.96469 27.72074 20.34272
#
# Velocity S-wave (km/s) = 2.53675 3.70936 3.17761
# Velocity P-wave (km/s) = 6.39794 7.20553 6.81371
#
# Compressibility (1/GPa) = 0.01534160
#
# Stress axis : x y z
#
# Youngs Moduli (GPa) = 98.54046 94.41265 90.77513
#
# Poissons Ratio (x) = 0.39582 0.05876
# Poissons Ratio (y) = 0.41312 0.30569
# Poissons Ratio (z) = 0.06378 0.31794
#
# Static dielectric constant tensor:
#      x y z
#    x 3.698930 0.000000 0.000000 
#    y 0.000000 4.021070 0.000000 
#    z 0.000000 0.000000 3.458440 
# 
# 
# High freq. dielectric constant tensor:
#      x y z
#    x 1.794440 0.000000 0.000000 
#    y 0.000000 1.812460 0.000000 
#    z 0.000000 0.000000 1.750520 
# 
# From -- ./inp_files/23259.got.cif
#   From: 2010.06.25/outbox.cif.g09.slc.cpg/sg58_12_cif.got.tgz:23259.got - 2010.06.26 21:38:00.
