data_PCOD8237177
_publ_section_title
;
Structure prediction by ZEFSAII (Michael W. Deem and Ramdas Pophale) SiO2 
 PCOD8237177
Probable space group: P N N M
;
_chemical_formula_sum "Si O2"
_cell_formula_units_Z 48
_cell_length_a 8.624366
_cell_length_b 9.365544
_cell_length_c 27.342765
_cell_angle_alpha 90.000000
_cell_angle_beta 90.000000
_cell_angle_gamma 90.000000
_cell_volume 2208.526513
_symmetry_space_group_name_H-M "P N N M"
_symmetry_group_IT_number 58
_symmetry_cell_setting 'orthorhombic'
loop_
_space_group_symop_operation_xyz
x,y,z
-x,-y,z
1/2+x,1/2-y,1/2-z
1/2-x,1/2+y,1/2-z
-x,-y,-z
x,y,-z
1/2-x,1/2+y,1/2+z
1/2+x,1/2-y,1/2+z
loop_
_atom_site_type_symbol
_atom_site_label
_atom_site_fract_x
_atom_site_fract_y
_atom_site_fract_z
Si Si1 0.935955 0.838549 0.500000
Si Si2 0.663077 0.539700 0.830331
Si Si3 0.619660 0.251970 0.718635
Si Si4 0.676675 0.036227 0.500000
Si Si5 0.675715 0.468035 0.635517
Si Si6 0.272229 0.244733 0.681677
Si Si7 0.837584 0.228475 0.577748
O O1 0.002079 0.752810 0.547208
O O2 0.753529 0.874561 0.500000
O O3 0.000000 0.000000 0.500000
O O4 0.500000 0.500000 0.803854
O O5 0.784711 0.608784 0.793066
O O6 0.747924 0.396764 0.851179
O O7 0.618493 0.645070 0.873724
O O8 0.685221 0.381720 0.686252
O O9 0.439075 0.240059 0.707070
O O10 0.641827 0.273730 0.776230
O O11 0.716313 0.132641 0.547259
O O12 0.500000 0.000000 0.500000
O O13 0.500000 0.500000 0.618498
O O14 0.758639 0.618793 0.647155
O O15 0.762683 0.382275 0.591927
#
# Coordination Sequence:
#
# PCOD8237177 Si02
#       7
#     4   8   8   4   8   8   8
#     4   8  16  36  62  86 114 148 184 229 283 348
#     4  11  21  35  57  82 111 149 193 242 289 344
#     4  10  21  36  54  79 112 153 200 247 292 344
#     4  10  20  34  64  96 116 146 194 241 288 356
#     4   9  20  36  55  82 118 155 193 243 299 346
#     4  11  21  36  57  82 114 155 199 245 295 350
#     4   9  19  38  59  84 116 151 189 236 291 348
#
# _framework density 21.733947000000001
#
# number of rings (size 3 to 8) (size 9 to 14) (size 15 to 20)
#    0.000    2.333    0.000    4.000    0.000    5.333 
#    0.000    8.333    0.000    8.000    0.000   23.333 
#    0.000    0.000    0.000    0.000    0.000    0.000 
#
# Total GULP energy -594789.255553 kJ/mol
# GULP energy per Si atom -12391.442824 kJ/mol
# Density = 2.168448 g / cm^3
# Si number density = 21.733947 Si / 1000 Ang^3
#
#
#
# Elastic Constant Matrix: (Units=GPa)
#
#
# Indices 1 2 3 4 5 6 
#
# 1 110.4925 50.5220 25.7496 0.0000 0.0000 0.0000
# 2 50.5220 139.0459 30.0179 0.0000 0.0000 0.0000
# 3 25.7496 30.0179 72.2538 0.0000 0.0000 0.0000
# 4 0.0000 0.0000 0.0000 30.3142 0.0000 0.0000
# 5 0.0000 0.0000 0.0000 0.0000 19.4187 0.0000
# 6 0.0000 0.0000 0.0000 0.0000 0.0000 30.9298
#
#
#
# Elastic Compliance Matrix: (Units=1/GPa)
#
#
# Indices 1 2 3 4 5 6 
#
# 1 0.011263 -0.003544 -0.002542 0.000000 0.000000 0.000000
# 2 -0.003544 0.009015 -0.002483 0.000000 0.000000 0.000000
# 3 -0.002542 -0.002483 0.015777 0.000000 0.000000 0.000000
# 4 0.000000 0.000000 0.000000 0.032988 0.000000 0.000000
# 5 0.000000 0.000000 0.000000 0.000000 0.051497 0.000000
# 6 0.000000 0.000000 0.000000 0.000000 0.000000 0.032331
#
#
# Mechanical properties :
#
#
# Convention : Reuss Voigt Hill
#
# Bulk Modulus (GPa) = 52.85444 59.37457 56.11451
# Shear Modulus (GPa) = 28.35851 30.49942 29.42896
#
# Velocity S-wave (km/s) = 3.61612 3.75014 3.68374
# Velocity P-wave (km/s) = 6.46582 6.79187 6.63085
#
# Compressibility (1/GPa) = 0.01891989
#
# Stress axis : x y z
#
# Youngs Moduli (GPa) = 88.78607 110.92125 63.38237
#
# Poissons Ratio (x) = 0.39307 0.16110
# Poissons Ratio (y) = 0.31463 0.15735
# Poissons Ratio (z) = 0.22566 0.27537
#
# Static dielectric constant tensor:
#      x y z
#    x 4.269550 0.000000 0.000000 
#    y 0.000000 4.255240 0.000000 
#    z 0.000000 0.000000 3.769630 
# 
# 
# High freq. dielectric constant tensor:
#      x y z
#    x 1.853280 0.000000 0.000000 
#    y 0.000000 1.856810 0.000000 
#    z 0.000000 0.000000 1.831510 
# 
# From -- ./inp_files/34645.got.cif
#   From: 2010.06.25/outbox.cif.g09.slc.cpg/sg58_18_cif.got.tgz:34645.got - 2010.06.26 21:38:00.
