data_PCOD8237904
_publ_section_title
;
Structure prediction by ZEFSAII (Michael W. Deem and Ramdas Pophale) SiO2 
 PCOD8237904
Probable space group: P N N M
;
_chemical_formula_sum "Si O2"
_cell_formula_units_Z 64
_cell_length_a 20.280931
_cell_length_b 9.450996
_cell_length_c 20.280495
_cell_angle_alpha 90.000000
_cell_angle_beta 90.000000
_cell_angle_gamma 90.000000
_cell_volume 3887.263834
_symmetry_space_group_name_H-M "P N N M"
_symmetry_group_IT_number 58
_symmetry_cell_setting 'orthorhombic'
loop_
_space_group_symop_operation_xyz
x,y,z
-x,-y,z
1/2+x,1/2-y,1/2-z
1/2-x,1/2+y,1/2-z
-x,-y,-z
x,y,-z
1/2-x,1/2+y,1/2+z
1/2+x,1/2-y,1/2+z
loop_
_atom_site_type_symbol
_atom_site_label
_atom_site_fract_x
_atom_site_fract_y
_atom_site_fract_z
Si Si1 0.461937 0.866990 0.827224
Si Si2 0.759804 0.721251 0.155464
Si Si3 0.853491 0.535796 0.231902
Si Si4 0.842206 0.044663 0.576644
Si Si5 0.662082 0.719558 0.724448
Si Si6 0.055169 0.886089 0.685862
Si Si7 0.350903 0.777405 0.074665
Si Si8 0.246827 0.462646 0.352727
O O1 0.422401 0.904766 0.760163
O O2 0.521699 0.764706 0.812075
O O3 0.414695 0.800017 0.881137
O O4 0.500000 0.000000 0.857813
O O5 0.827789 0.638960 0.173223
O O6 0.720400 0.634830 0.100028
O O7 0.718751 0.737787 0.221778
O O8 0.772629 0.880309 0.128060
O O9 0.863850 0.375957 0.204367
O O10 0.800183 0.530988 0.289711
O O11 0.856297 0.075885 0.500000
O O12 0.908162 0.086420 0.616486
O O13 0.824267 0.880415 0.589282
O O14 0.606721 0.615592 0.754156
O O15 0.690629 0.638398 0.660960
O O16 0.000000 0.000000 0.700640
O O17 0.294107 0.892676 0.087734
O O18 0.374424 0.793052 0.000000
#
# Coordination Sequence:
#
# PCOD8237904 Si02
#       8
#     8   8   8   8   8   8   8   8
#     4  11  21  34  47  69 100 131 165 198 235 283
#     4   9  18  30  48  70  88 116 156 203 249 282
#     4   9  17  30  48  65  92 122 152 196 244 290
#     4  10  21  35  49  66  94 132 170 202 236 281
#     4   9  17  30  47  67  91 121 154 195 245 288
#     4  11  21  32  48  70  98 133 165 199 233 278
#     4  10  21  35  49  66  94 132 168 203 238 279
#     4   9  18  30  48  70  89 114 157 204 248 284
#
# _framework density 16.464022
#
# number of rings (size 3 to 8) (size 9 to 14) (size 15 to 20)
#    0.000    2.250    2.500    0.750    3.500    4.500 
#    0.000    0.000    0.000    0.000    0.000    0.000 
#    0.000    2.000    0.000    0.125    0.000    0.000 
#
# Total GULP energy -793384.079732 kJ/mol
# GULP energy per Si atom -12396.626246 kJ/mol
# Density = 1.642655 g / cm^3
# Si number density = 16.464022 Si / 1000 Ang^3
#
#
#
# Elastic Constant Matrix: (Units=GPa)
#
#
# Indices 1 2 3 4 5 6 
#
# 1 48.4589 24.2467 31.0312 0.0000 0.0000 0.0000
# 2 24.2467 107.3703 20.7659 0.0000 0.0000 0.0000
# 3 31.0312 20.7659 26.4717 0.0000 0.0000 0.0000
# 4 0.0000 0.0000 0.0000 20.1523 0.0000 0.0000
# 5 0.0000 0.0000 0.0000 0.0000 5.3387 0.0000
# 6 0.0000 0.0000 0.0000 0.0000 0.0000 33.3585
#
#
#
# Elastic Compliance Matrix: (Units=1/GPa)
#
#
# Indices 1 2 3 4 5 6 
#
# 1 0.082762 0.000087 -0.097086 0.000000 0.000000 0.000000
# 2 0.000087 0.010979 -0.008715 0.000000 0.000000 0.000000
# 3 -0.097086 -0.008715 0.158420 0.000000 0.000000 0.000000
# 4 0.000000 0.000000 0.000000 0.049622 0.000000 0.000000
# 5 0.000000 0.000000 0.000000 0.000000 0.187313 0.000000
# 6 0.000000 0.000000 0.000000 0.000000 0.000000 0.029977
#
#
# Mechanical properties :
#
#
# Convention : Reuss Voigt Hill
#
# Bulk Modulus (GPa) = 24.54888 37.15428 30.85158
# Shear Modulus (GPa) = 6.71971 18.85370 12.78671
#
# Velocity S-wave (km/s) = 2.02245 3.38767 2.78986
# Velocity P-wave (km/s) = 4.51628 6.15773 5.39974
#
# Compressibility (1/GPa) = 0.04073505
#
# Stress axis : x y z
#
# Youngs Moduli (GPa) = 12.08279 91.07963 6.31232
#
# Poissons Ratio (x) = -0.00794 0.61284
# Poissons Ratio (y) = -0.00105 0.05501
# Poissons Ratio (z) = 1.17307 0.79376
#
# Static dielectric constant tensor:
#      x y z
#    x 3.018630 0.000000 0.000000 
#    y 0.000000 3.392180 0.000000 
#    z 0.000000 0.000000 2.768840 
# 
# 
# High freq. dielectric constant tensor:
#      x y z
#    x 1.616900 0.000000 0.000000 
#    y 0.000000 1.659160 0.000000 
#    z 0.000000 0.000000 1.586740 
# 
# From -- ./inp_files/25642.got.cif
#   From: 2010.06.25/outbox.cif.g09.slc.cpg/sg58_13_cif.got.tgz:25642.got - 2010.06.26 21:38:00.
