data_PCOD8237704
_publ_section_title
;
Structure prediction by ZEFSAII (Michael W. Deem and Ramdas Pophale) SiO2 
 PCOD8237704
Probable space group: P N N M
;
_chemical_formula_sum "Si O2"
_cell_formula_units_Z 40
_cell_length_a 7.846601
_cell_length_b 15.406645
_cell_length_c 14.709983
_cell_angle_alpha 90.000000
_cell_angle_beta 90.000000
_cell_angle_gamma 90.000000
_cell_volume 1778.286845
_symmetry_space_group_name_H-M "P N N M"
_symmetry_group_IT_number 58
_symmetry_cell_setting 'orthorhombic'
loop_
_space_group_symop_operation_xyz
x,y,z
-x,-y,z
1/2+x,1/2-y,1/2-z
1/2-x,1/2+y,1/2-z
-x,-y,-z
x,y,-z
1/2-x,1/2+y,1/2+z
1/2+x,1/2-y,1/2+z
loop_
_atom_site_type_symbol
_atom_site_label
_atom_site_fract_x
_atom_site_fract_y
_atom_site_fract_z
Si Si1 0.747041 0.697348 0.500000
Si Si2 0.880052 0.282514 0.500000
Si Si3 0.485865 0.147297 0.303836
Si Si4 0.352572 0.064294 0.864860
Si Si5 0.000000 0.000000 0.829894
Si Si6 0.949607 0.667976 0.000000
Si Si7 0.324770 0.336282 0.304459
O O1 0.575726 0.751696 0.500000
O O2 0.740802 0.641191 0.407126
O O3 0.924535 0.753413 0.500000
O O4 0.858661 0.341859 0.588897
O O5 0.745359 0.203924 0.500000
O O6 0.375979 0.079031 0.244498
O O7 0.508830 0.113656 0.408143
O O8 0.402987 0.241714 0.300199
O O9 0.672196 0.156445 0.264320
O O10 0.500000 0.000000 0.901659
O O11 0.169652 0.022195 0.887765
O O12 0.041723 0.911741 0.773584
#
# Coordination Sequence:
#
# PCOD8237704 Si02
#       7
#     4   4   8   8   4   4   8
#     4  10  20  38  56  98 124 166 206 249 323 389
#     4  12  21  39  65  99 136 167 201 260 337 399
#     4  11  22  43  63  94 125 174 219 268 321 378
#     4  12  24  41  65  97 136 170 212 264 326 395
#     4  12  24  41  62  97 130 170 208 259 324 391
#     4  10  24  39  64  92 127 169 221 272 314 382
#     4  11  22  38  65  89 131 164 212 265 320 392
#
# _framework density 22.493561
#
# number of rings (size 3 to 8) (size 9 to 14) (size 15 to 20)
#    0.000    0.800    4.000    5.100    0.000    1.600 
#    0.000    0.500    0.000    1.200    0.000    0.000 
#    0.000    0.000    0.000    0.000    0.000    0.000 
#
# Total GULP energy -495529.296442 kJ/mol
# GULP energy per Si atom -12388.232411 kJ/mol
# Density = 2.244236 g / cm^3
# Si number density = 22.493561 Si / 1000 Ang^3
#
#
#
# Elastic Constant Matrix: (Units=GPa)
#
#
# Indices 1 2 3 4 5 6 
#
# 1 144.6641 10.5947 13.2347 0.0000 0.0000 0.0000
# 2 10.5947 34.4561 -0.8347 0.0000 0.0000 0.0000
# 3 13.2347 -0.8347 153.2223 0.0000 0.0000 0.0000
# 4 0.0000 0.0000 0.0000 4.5428 0.0000 0.0000
# 5 0.0000 0.0000 0.0000 0.0000 24.2622 0.0000
# 6 0.0000 0.0000 0.0000 0.0000 0.0000 13.5641
#
#
#
# Elastic Compliance Matrix: (Units=1/GPa)
#
#
# Indices 1 2 3 4 5 6 
#
# 1 0.007132 -0.002208 -0.000628 0.000000 0.000000 0.000000
# 2 -0.002208 0.029710 0.000353 0.000000 0.000000 0.000000
# 3 -0.000628 0.000353 0.006583 0.000000 0.000000 0.000000
# 4 0.000000 0.000000 0.000000 0.220128 0.000000 0.000000
# 5 0.000000 0.000000 0.000000 0.000000 0.041216 0.000000
# 6 0.000000 0.000000 0.000000 0.000000 0.000000 0.073724
#
#
# Mechanical properties :
#
#
# Convention : Reuss Voigt Hill
#
# Bulk Modulus (GPa) = 26.00294 42.03687 34.01990
# Shear Modulus (GPa) = 12.61736 29.09700 20.85718
#
# Velocity S-wave (km/s) = 2.37097 3.60053 3.04838
# Velocity P-wave (km/s) = 4.36813 6.00117 5.24855
#
# Compressibility (1/GPa) = 0.03845720
#
# Stress axis : x y z
#
# Youngs Moduli (GPa) = 140.21833 33.65873 151.91486
#
# Poissons Ratio (x) = 0.07432 0.09541
# Poissons Ratio (y) = 0.30962 -0.05356
# Poissons Ratio (z) = 0.08806 -0.01187
#
# Static dielectric constant tensor:
#      x y z
#    x 4.342320 0.000000 0.000000 
#    y 0.000000 3.582370 0.000000 
#    z 0.000000 0.000000 4.508090 
# 
# 
# High freq. dielectric constant tensor:
#      x y z
#    x 1.908740 0.000000 0.000000 
#    y 0.000000 1.859240 0.000000 
#    z 0.000000 0.000000 1.874980 
# 
# From -- ./inp_files/19547.got.cif
#   From: 2010.06.25/outbox.cif.g09.slc.cpg/sg58_10_cif.got.tgz:19547.got - 2010.06.26 21:38:00.
