data_PCOD8237346
_publ_section_title
;
Structure prediction by ZEFSAII (Michael W. Deem and Ramdas Pophale) SiO2 
 PCOD8237346
Probable space group: P N N M
;
_chemical_formula_sum "Si O2"
_cell_formula_units_Z 64
_cell_length_a 12.566705
_cell_length_b 27.280038
_cell_length_c 9.094209
_cell_angle_alpha 90.000000
_cell_angle_beta 90.000000
_cell_angle_gamma 90.000000
_cell_volume 3117.678457
_symmetry_space_group_name_H-M "P N N M"
_symmetry_group_IT_number 58
_symmetry_cell_setting 'orthorhombic'
loop_
_space_group_symop_operation_xyz
x,y,z
-x,-y,z
1/2+x,1/2-y,1/2-z
1/2-x,1/2+y,1/2-z
-x,-y,-z
x,y,-z
1/2-x,1/2+y,1/2+z
1/2+x,1/2-y,1/2+z
loop_
_atom_site_type_symbol
_atom_site_label
_atom_site_fract_x
_atom_site_fract_y
_atom_site_fract_z
Si Si1 0.968330 0.055223 0.174254
Si Si2 0.858465 0.688842 0.827328
Si Si3 0.150875 0.111023 0.669040
Si Si4 0.237460 0.220140 0.329339
Si Si5 0.929213 0.310235 0.662063
Si Si6 0.342772 0.087510 0.841708
Si Si7 0.758939 0.090455 0.330116
Si Si8 0.032860 0.445627 0.841858
O O1 0.850712 0.069373 0.227212
O O2 0.045979 0.096073 0.242596
O O3 0.973774 0.059767 0.000000
O O4 0.000000 0.000000 0.224759
O O5 0.834272 0.739975 0.750447
O O6 0.768832 0.647546 0.796411
O O7 0.969306 0.671479 0.755021
O O8 0.873715 0.697258 0.000000
O O9 0.133486 0.097662 0.500000
O O10 0.177644 0.168187 0.690781
O O11 0.247460 0.076658 0.728360
O O12 0.249492 0.232826 0.500000
O O13 0.355555 0.225881 0.258635
O O14 0.960355 0.288046 0.500000
O O15 0.849292 0.354757 0.633901
O O16 0.457782 0.072860 0.785488
O O17 0.319537 0.061917 0.000000
O O18 0.793014 0.084275 0.500000
O O19 0.654931 0.058224 0.291042
O O20 0.000000 0.500000 0.874927
O O21 0.021055 0.416601 0.000000
#
# Coordination Sequence:
#
# PCOD8237346 Si02
#       8
#     8   8   8   8   8   8   8   8
#     4  11  26  45  65  92 127 167 214 269 325 381
#     4  11  22  38  62  90 124 162 204 255 310 371
#     4  10  22  41  65  89 119 162 211 259 308 372
#     4  10  22  39  61  91 123 160 208 259 314 376
#     4  10  20  36  58  85 118 156 197 243 302 367
#     4  10  20  35  59  89 121 154 192 245 306 359
#     4  10  23  42  63  91 126 165 210 255 306 373
#     4  10  21  37  59  90 123 157 201 248 300 365
#
# _framework density 20.528093999999999
#
# number of rings (size 3 to 8) (size 9 to 14) (size 15 to 20)
#    0.000    1.750    1.250    2.250    1.750    6.250 
#    0.000    1.250    0.000    0.000    0.000    0.000 
#    0.000    0.000    0.000    0.000    0.000    0.000 
#
# Total GULP energy -793225.382086 kJ/mol
# GULP energy per Si atom -12394.146595 kJ/mol
# Density = 2.048137 g / cm^3
# Si number density = 20.528094 Si / 1000 Ang^3
#
#
#
# Elastic Constant Matrix: (Units=GPa)
#
#
# Indices 1 2 3 4 5 6 
#
# 1 124.8310 37.0009 64.9909 0.0000 0.0000 0.0000
# 2 37.0009 63.9006 49.1975 0.0000 0.0000 0.0000
# 3 64.9909 49.1975 151.6051 0.0000 0.0000 0.0000
# 4 0.0000 0.0000 0.0000 24.8300 0.0000 0.0000
# 5 0.0000 0.0000 0.0000 0.0000 38.5649 0.0000
# 6 0.0000 0.0000 0.0000 0.0000 0.0000 24.8829
#
#
#
# Elastic Compliance Matrix: (Units=1/GPa)
#
#
# Indices 1 2 3 4 5 6 
#
# 1 0.010906 -0.003620 -0.003501 0.000000 0.000000 0.000000
# 2 -0.003620 0.022063 -0.005608 0.000000 0.000000 0.000000
# 3 -0.003501 -0.005608 0.009917 0.000000 0.000000 0.000000
# 4 0.000000 0.000000 0.000000 0.040274 0.000000 0.000000
# 5 0.000000 0.000000 0.000000 0.000000 0.025930 0.000000
# 6 0.000000 0.000000 0.000000 0.000000 0.000000 0.040188
#
#
# Mechanical properties :
#
#
# Convention : Reuss Voigt Hill
#
# Bulk Modulus (GPa) = 57.37607 71.41283 64.39445
# Shear Modulus (GPa) = 27.69392 30.26537 28.97965
#
# Velocity S-wave (km/s) = 3.67696 3.84388 3.76134
# Velocity P-wave (km/s) = 6.78509 7.38674 7.09230
#
# Compressibility (1/GPa) = 0.01742887
#
# Stress axis : x y z
#
# Youngs Moduli (GPa) = 91.68930 45.32488 100.84141
#
# Poissons Ratio (x) = 0.16408 0.35301
# Poissons Ratio (y) = 0.33192 0.56550
# Poissons Ratio (z) = 0.32097 0.25417
#
# Static dielectric constant tensor:
#      x y z
#    x 3.614000 0.000000 0.000000 
#    y 0.000000 3.182620 0.000000 
#    z 0.000000 0.000000 3.983260 
# 
# 
# High freq. dielectric constant tensor:
#      x y z
#    x 1.803520 0.000000 0.000000 
#    y 0.000000 1.786710 0.000000 
#    z 0.000000 0.000000 1.818200 
# 
# From -- ./inp_files/4638.got.cif
#   From: 2010.06.25/outbox.cif.g09.slc.cpg/sg58_3_cif.got.tgz:4638.got - 2010.06.26 21:38:00.
