data_PCOD8237605
_publ_section_title
;
Structure prediction by ZEFSAII (Michael W. Deem and Ramdas Pophale) SiO2 
 PCOD8237605
Probable space group: P N N M
;
_chemical_formula_sum "Si O2"
_cell_formula_units_Z 48
_cell_length_a 15.294794
_cell_length_b 18.873645
_cell_length_c 8.507980
_cell_angle_alpha 90.000000
_cell_angle_beta 90.000000
_cell_angle_gamma 90.000000
_cell_volume 2455.985929
_symmetry_space_group_name_H-M "P N N M"
_symmetry_group_IT_number 58
_symmetry_cell_setting 'orthorhombic'
loop_
_space_group_symop_operation_xyz
x,y,z
-x,-y,z
1/2+x,1/2-y,1/2-z
1/2-x,1/2+y,1/2-z
-x,-y,-z
x,y,-z
1/2-x,1/2+y,1/2+z
1/2+x,1/2-y,1/2+z
loop_
_atom_site_type_symbol
_atom_site_label
_atom_site_fract_x
_atom_site_fract_y
_atom_site_fract_z
Si Si1 0.101782 0.924889 0.686802
Si Si2 0.240268 0.330925 0.815247
Si Si3 0.748746 0.322921 0.185627
Si Si4 0.406256 0.074035 0.683417
Si Si5 0.591300 0.417075 0.813339
Si Si6 0.092811 0.423710 0.316896
O O1 0.104468 0.924394 0.500000
O O2 0.177784 0.875041 0.754487
O O3 0.006576 0.896271 0.742942
O O4 0.115860 0.004683 0.750468
O O5 0.258462 0.249752 0.777544
O O6 0.152326 0.357444 0.731721
O O7 0.230050 0.342104 0.000000
O O8 0.830026 0.372333 0.231347
O O9 0.660615 0.360202 0.250006
O O10 0.744518 0.308910 0.000000
O O11 0.427352 0.077978 0.500000
O O12 0.492831 0.095854 0.777960
O O13 0.376685 0.994119 0.724624
O O14 0.596237 0.419498 0.000000
O O15 0.101529 0.438908 0.500000
#
# Coordination Sequence:
#
# PCOD8237605 Si02
#       6
#     8   8   8   8   8   8
#     4   8  15  29  52  78 100 128 170 218 264 312
#     4  11  22  35  52  78 112 148 183 220 269 326
#     4  10  21  35  53  80 113 146 177 216 270 332
#     4  10  20  37  60  84 111 143 182 229 282 336
#     4   8  14  29  53  78 101 127 167 217 265 314
#     4  11  22  37  58  82 108 142 188 236 280 328
#
# _framework density 19.544086
#
# number of rings (size 3 to 8) (size 9 to 14) (size 15 to 20)
#    0.000    2.333    0.000    5.500    0.000    5.333 
#    0.000    1.667    0.000    1.000    0.000    7.000 
#    0.000    0.000    0.000    0.000    0.000    0.000 
#
# Total GULP energy -595199.041493 kJ/mol
# GULP energy per Si atom -12399.980031 kJ/mol
# Density = 1.949960 g / cm^3
# Si number density = 19.544086 Si / 1000 Ang^3
#
#
#
# Elastic Constant Matrix: (Units=GPa)
#
#
# Indices 1 2 3 4 5 6 
#
# 1 116.6913 59.9751 23.7724 0.0000 0.0000 0.0000
# 2 59.9751 96.1653 15.0711 0.0000 0.0000 0.0000
# 3 23.7724 15.0711 40.3967 0.0000 0.0000 0.0000
# 4 0.0000 0.0000 0.0000 30.3500 0.0000 0.0000
# 5 0.0000 0.0000 0.0000 0.0000 16.4926 0.0000
# 6 0.0000 0.0000 0.0000 0.0000 0.0000 22.7654
#
#
#
# Elastic Compliance Matrix: (Units=1/GPa)
#
#
# Indices 1 2 3 4 5 6 
#
# 1 0.013540 -0.007643 -0.005117 0.000000 0.000000 0.000000
# 2 -0.007643 0.015358 -0.001232 0.000000 0.000000 0.000000
# 3 -0.005117 -0.001232 0.028225 0.000000 0.000000 0.000000
# 4 0.000000 0.000000 0.000000 0.032949 0.000000 0.000000
# 5 0.000000 0.000000 0.000000 0.000000 0.060633 0.000000
# 6 0.000000 0.000000 0.000000 0.000000 0.000000 0.043926
#
#
# Mechanical properties :
#
#
# Convention : Reuss Voigt Hill
#
# Bulk Modulus (GPa) = 34.31666 50.09896 42.20781
# Shear Modulus (GPa) = 21.52122 24.21723 22.86923
#
# Velocity S-wave (km/s) = 3.32198 3.52392 3.42444
# Velocity P-wave (km/s) = 5.68426 6.49975 6.10563
#
# Compressibility (1/GPa) = 0.02914036
#
# Stress axis : x y z
#
# Youngs Moduli (GPa) = 73.85537 65.11131 35.42921
#
# Poissons Ratio (x) = 0.49762 0.18128
# Poissons Ratio (y) = 0.56444 0.04366
# Poissons Ratio (z) = 0.37789 0.08024
#
# Static dielectric constant tensor:
#      x y z
#    x 3.897300 0.000000 0.000000 
#    y 0.000000 3.540700 0.000000 
#    z 0.000000 0.000000 3.198540 
# 
# 
# High freq. dielectric constant tensor:
#      x y z
#    x 1.776490 0.000000 0.000000 
#    y 0.000000 1.756040 0.000000 
#    z 0.000000 0.000000 1.731310 
# 
# From -- ./inp_files/5822.got.cif
#   From: 2010.06.25/outbox.cif.g09.slc.cpg/sg58_3_cif.got.tgz:5822.got - 2010.06.26 21:38:00.
