data_PCOD8237559
_publ_section_title
;
Structure prediction by ZEFSAII (Michael W. Deem and Ramdas Pophale) SiO2 
 PCOD8237559
Probable space group: P N N M
;
_chemical_formula_sum "Si O2"
_cell_formula_units_Z 64
_cell_length_a 16.158933
_cell_length_b 6.142984
_cell_length_c 30.145858
_cell_angle_alpha 90.000000
_cell_angle_beta 90.000000
_cell_angle_gamma 90.000000
_cell_volume 2992.400465
_symmetry_space_group_name_H-M "P N N M"
_symmetry_group_IT_number 58
_symmetry_cell_setting 'orthorhombic'
loop_
_space_group_symop_operation_xyz
x,y,z
-x,-y,z
1/2+x,1/2-y,1/2-z
1/2-x,1/2+y,1/2-z
-x,-y,-z
x,y,-z
1/2-x,1/2+y,1/2+z
1/2+x,1/2-y,1/2+z
loop_
_atom_site_type_symbol
_atom_site_label
_atom_site_fract_x
_atom_site_fract_y
_atom_site_fract_z
Si Si1 0.417257 0.629653 0.177929
Si Si2 0.308751 0.109359 0.595534
Si Si3 0.588238 0.507436 0.427202
Si Si4 0.744780 0.779316 0.950556
Si Si5 0.875226 0.612894 0.239711
Si Si6 0.303706 0.252242 0.790033
Si Si7 0.571132 0.162178 0.355835
Si Si8 0.815158 0.551946 0.372303
O O1 0.500000 0.500000 0.164776
O O2 0.428476 0.769338 0.222207
O O3 0.342210 0.464751 0.187298
O O4 0.396257 0.797598 0.137230
O O5 0.385460 0.239063 0.573611
O O6 0.260604 0.287911 0.622603
O O7 0.251559 0.979036 0.560241
O O8 0.339472 0.932993 0.630867
O O9 0.500000 0.500000 0.453560
O O10 0.661437 0.372312 0.450399
O O11 0.566623 0.399604 0.378654
O O12 0.681217 0.901086 0.916650
O O13 0.708113 0.806987 0.000000
O O14 0.783058 0.708193 0.234173
O O15 0.865090 0.357611 0.253287
O O16 0.931409 0.663291 0.197219
O O17 0.290231 0.082114 0.829364
O O18 0.500000 0.000000 0.373614
#
# Coordination Sequence:
#
# PCOD8237559 Si02
#       8
#     8   8   8   8   8   8   8   8
#     4  11  25  41  60  91 127 163 209 262 314 372
#     4  10  20  37  60  85 117 159 208 255 312 373
#     4  10  20  37  54  83 124 168 208 255 313 368
#     4  10  22  38  62  93 117 150 208 262 317 392
#     4  11  23  35  56  84 120 166 214 263 303 357
#     4  11  22  41  60  86 119 167 212 251 311 368
#     4  11  22  33  54  82 118 169 218 261 301 351
#     4  10  22  41  66  84 119 164 200 254 314 384
#
# _framework density 21.387512000000001
#
# number of rings (size 3 to 8) (size 9 to 14) (size 15 to 20)
#    0.000    1.500    2.500    3.750    3.500    5.250 
#    0.000    0.625    0.000    0.375    0.000    3.500 
#    0.000    0.000    0.000    0.000    0.000    0.000 
#
# Total GULP energy -793009.521269 kJ/mol
# GULP energy per Si atom -12390.773770 kJ/mol
# Density = 2.133883 g / cm^3
# Si number density = 21.387512 Si / 1000 Ang^3
#
#
#
# Elastic Constant Matrix: (Units=GPa)
#
#
# Indices 1 2 3 4 5 6 
#
# 1 58.9137 16.2000 15.0054 0.0000 0.0000 0.0000
# 2 16.2000 108.8858 36.3765 0.0000 0.0000 0.0000
# 3 15.0054 36.3765 107.5036 0.0000 0.0000 0.0000
# 4 0.0000 0.0000 0.0000 17.2147 0.0000 0.0000
# 5 0.0000 0.0000 0.0000 0.0000 12.7251 0.0000
# 6 0.0000 0.0000 0.0000 0.0000 0.0000 37.6122
#
#
#
# Elastic Compliance Matrix: (Units=1/GPa)
#
#
# Indices 1 2 3 4 5 6 
#
# 1 0.018006 -0.002074 -0.001812 0.000000 0.000000 0.000000
# 2 -0.002074 0.010593 -0.003295 0.000000 0.000000 0.000000
# 3 -0.001812 -0.003295 0.010670 0.000000 0.000000 0.000000
# 4 0.000000 0.000000 0.000000 0.058090 0.000000 0.000000
# 5 0.000000 0.000000 0.000000 0.000000 0.078585 0.000000
# 6 0.000000 0.000000 0.000000 0.000000 0.000000 0.026587
#
#
# Mechanical properties :
#
#
# Convention : Reuss Voigt Hill
#
# Bulk Modulus (GPa) = 40.14751 45.60746 42.87749
# Shear Modulus (GPa) = 22.20310 27.35848 24.78079
#
# Velocity S-wave (km/s) = 3.22550 3.58044 3.40760
# Velocity P-wave (km/s) = 5.71700 6.20189 5.96437
#
# Compressibility (1/GPa) = 0.02490814
#
# Stress axis : x y z
#
# Youngs Moduli (GPa) = 55.53828 94.39968 93.72223
#
# Poissons Ratio (x) = 0.19575 0.16978
# Poissons Ratio (y) = 0.11517 0.30882
# Poissons Ratio (z) = 0.10061 0.31105
#
# Static dielectric constant tensor:
#      x y z
#    x 3.701240 0.000000 0.000000 
#    y 0.000000 4.360930 0.000000 
#    z 0.000000 0.000000 3.698220 
# 
# 
# High freq. dielectric constant tensor:
#      x y z
#    x 1.810680 0.000000 0.000000 
#    y 0.000000 1.857510 0.000000 
#    z 0.000000 0.000000 1.812800 
# 
# From -- ./inp_files/35150.got.cif
#   From: 2010.06.25/outbox.cif.g09.slc.cpg/sg58_18_cif.got.tgz:35150.got - 2010.06.26 21:38:00.
