data_PCOD8237872
_publ_section_title
;
Structure prediction by ZEFSAII (Michael W. Deem and Ramdas Pophale) SiO2 
 PCOD8237872
Probable space group: P N N M
;
_chemical_formula_sum "Si O2"
_cell_formula_units_Z 48
_cell_length_a 9.729563
_cell_length_b 26.834152
_cell_length_c 9.080468
_cell_angle_alpha 90.000000
_cell_angle_beta 90.000000
_cell_angle_gamma 90.000000
_cell_volume 2370.770105
_symmetry_space_group_name_H-M "P N N M"
_symmetry_group_IT_number 58
_symmetry_cell_setting 'orthorhombic'
loop_
_space_group_symop_operation_xyz
x,y,z
-x,-y,z
1/2+x,1/2-y,1/2-z
1/2-x,1/2+y,1/2-z
-x,-y,-z
x,y,-z
1/2-x,1/2+y,1/2+z
1/2+x,1/2-y,1/2+z
loop_
_atom_site_type_symbol
_atom_site_label
_atom_site_fract_x
_atom_site_fract_y
_atom_site_fract_z
Si Si1 0.493126 0.588682 0.332239
Si Si2 0.232137 0.434876 0.826161
Si Si3 0.064477 0.202597 0.170824
Si Si4 0.288357 0.035297 0.830590
Si Si5 0.500438 0.120471 0.173541
Si Si6 0.130495 0.723555 0.674373
O O1 0.547344 0.584199 0.500000
O O2 0.611353 0.573371 0.220508
O O3 0.439953 0.643932 0.299377
O O4 0.368745 0.550819 0.305534
O O5 0.175785 0.487558 0.767422
O O6 0.141552 0.390457 0.758197
O O7 0.220366 0.433614 0.000000
O O8 0.211569 0.222403 0.228286
O O9 0.941400 0.228153 0.258798
O O10 0.044544 0.214899 0.000000
O O11 0.386337 0.080116 0.781472
O O12 0.314892 0.020948 0.000000
O O13 0.447604 0.174013 0.228318
O O14 0.528507 0.120184 0.000000
O O15 0.125910 0.726725 0.500000
#
# Coordination Sequence:
#
# PCOD8237872 Si02
#       6
#     8   8   8   8   8   8
#     4  10  21  41  65  87 116 158 205 247 288 348
#     4  12  26  38  55  90 129 159 192 245 301 356
#     4  10  22  41  64  91 121 153 196 246 295 350
#     4  10  20  40  67  88 111 155 208 251 291 346
#     4  10  21  41  65  87 116 158 205 247 288 348
#     4  10  22  41  64  91 121 153 196 246 295 350
#
# _framework density 20.246586000000001
#
# number of rings (size 3 to 8) (size 9 to 14) (size 15 to 20)
#    0.000    1.667    1.667    2.500    2.333    7.333 
#    0.000    0.000    0.000    0.000    0.000    0.000 
#    0.000    0.000    0.000    0.000    0.000    0.000 
#
# Total GULP energy -595481.571263 kJ/mol
# GULP energy per Si atom -12405.866068 kJ/mol
# Density = 2.020050 g / cm^3
# Si number density = 20.246586 Si / 1000 Ang^3
#
#
#
# Elastic Constant Matrix: (Units=GPa)
#
#
# Indices 1 2 3 4 5 6 
#
# 1 55.0633 -0.3685 18.7601 0.0000 0.0000 0.0000
# 2 -0.3685 45.7340 13.4290 0.0000 0.0000 0.0000
# 3 18.7601 13.4290 52.3277 0.0000 0.0000 0.0000
# 4 0.0000 0.0000 0.0000 21.7397 0.0000 0.0000
# 5 0.0000 0.0000 0.0000 0.0000 9.4834 0.0000
# 6 0.0000 0.0000 0.0000 0.0000 0.0000 38.4551
#
#
#
# Elastic Compliance Matrix: (Units=1/GPa)
#
#
# Indices 1 2 3 4 5 6 
#
# 1 0.020963 0.002569 -0.008175 0.000000 0.000000 0.000000
# 2 0.002569 0.023962 -0.007071 0.000000 0.000000 0.000000
# 3 -0.008175 -0.007071 0.023856 0.000000 0.000000 0.000000
# 4 0.000000 0.000000 0.000000 0.045999 0.000000 0.000000
# 5 0.000000 0.000000 0.000000 0.000000 0.105448 0.000000
# 6 0.000000 0.000000 0.000000 0.000000 0.000000 0.026004
#
#
# Mechanical properties :
#
#
# Convention : Reuss Voigt Hill
#
# Bulk Modulus (GPa) = 23.02617 24.08515 23.55566
# Shear Modulus (GPa) = 17.47877 22.02260 19.75068
#
# Velocity S-wave (km/s) = 2.94138 3.30164 3.12670
# Velocity P-wave (km/s) = 4.78886 5.14355 4.96937
#
# Compressibility (1/GPa) = 0.04342885
#
# Stress axis : x y z
#
# Youngs Moduli (GPa) = 47.70230 41.73195 41.91863
#
# Poissons Ratio (x) = -0.10722 0.34268
# Poissons Ratio (y) = -0.12257 0.29639
# Poissons Ratio (z) = 0.38997 0.29507
#
# Static dielectric constant tensor:
#      x y z
#    x 3.786720 0.000000 0.000000 
#    y 0.000000 3.736280 0.000000 
#    z 0.000000 0.000000 3.406660 
# 
# 
# High freq. dielectric constant tensor:
#      x y z
#    x 1.804860 0.000000 0.000000 
#    y 0.000000 1.800600 0.000000 
#    z 0.000000 0.000000 1.767610 
# 
# From -- ./inp_files/2993.got.cif
#   From: 2010.06.25/outbox.cif.g09.slc.cpg/sg58_2_cif.got.tgz:2993.got - 2010.06.26 21:38:00.
