data_PCOD8237295
_publ_section_title
;
Structure prediction by ZEFSAII (Michael W. Deem and Ramdas Pophale) SiO2 
 PCOD8237295
Probable space group: P N N M
;
_chemical_formula_sum "Si O2"
_cell_formula_units_Z 64
_cell_length_a 23.059687
_cell_length_b 9.004121
_cell_length_c 15.219433
_cell_angle_alpha 90.000000
_cell_angle_beta 90.000000
_cell_angle_gamma 90.000000
_cell_volume 3160.044539
_symmetry_space_group_name_H-M "P N N M"
_symmetry_group_IT_number 58
_symmetry_cell_setting 'orthorhombic'
loop_
_space_group_symop_operation_xyz
x,y,z
-x,-y,z
1/2+x,1/2-y,1/2-z
1/2-x,1/2+y,1/2-z
-x,-y,-z
x,y,-z
1/2-x,1/2+y,1/2+z
1/2+x,1/2-y,1/2+z
loop_
_atom_site_type_symbol
_atom_site_label
_atom_site_fract_x
_atom_site_fract_y
_atom_site_fract_z
Si Si1 0.121108 0.919702 0.397745
Si Si2 0.769212 0.892337 0.404353
Si Si3 0.058865 0.075925 0.758874
Si Si4 0.159428 0.089904 0.102417
Si Si5 0.271585 0.923910 0.159835
Si Si6 0.323738 0.920394 0.655959
Si Si7 0.942362 0.576849 0.755864
Si Si8 0.883181 0.423637 0.598475
O O1 0.103410 0.944544 0.500000
O O2 0.121652 0.747135 0.372218
O O3 0.185241 0.980325 0.377383
O O4 0.076768 0.005180 0.334342
O O5 0.784375 0.828050 0.500000
O O6 0.775552 0.754410 0.339640
O O7 0.704479 0.963706 0.411796
O O8 0.104943 0.050451 0.836529
O O9 0.048130 0.249252 0.742631
O O10 0.000000 0.000000 0.791743
O O11 0.183624 0.253917 0.121362
O O12 0.209083 0.973081 0.126166
O O13 0.141824 0.075348 0.000000
O O14 0.283762 0.961336 0.260409
O O15 0.320110 0.000979 0.099946
O O16 0.390989 0.955453 0.674762
O O17 0.927859 0.507661 0.661420
O O18 0.000000 0.500000 0.794218
O O19 0.907861 0.435816 0.500000
#
# Coordination Sequence:
#
# PCOD8237295 Si02
#       8
#     8   8   8   8   8   8   8   8
#     4  10  21  37  59  89 123 158 194 238 298 365
#     4  11  21  34  55  85 118 146 180 228 284 344
#     4  11  24  41  62  84 113 155 201 252 303 352
#     4  11  23  40  61  86 119 159 203 246 294 353
#     4  11  21  35  56  87 119 150 189 234 289 348
#     4  10  21  37  59  82 112 152 191 236 290 349
#     4  10  22  39  58  81 108 146 194 243 292 345
#     4  10  20  35  57  85 118 153 188 231 288 357
#
# _framework density 20.252880999999999
#
# number of rings (size 3 to 8) (size 9 to 14) (size 15 to 20)
#    0.000    1.500    0.000    6.750    0.000    7.250 
#    0.000    0.000    0.000    9.375    0.000    0.000 
#    0.000    0.000    0.000    0.000    0.000    0.000 
#
# Total GULP energy -793648.417443 kJ/mol
# GULP energy per Si atom -12400.756523 kJ/mol
# Density = 2.020678 g / cm^3
# Si number density = 20.252881 Si / 1000 Ang^3
#
#
#
# Elastic Constant Matrix: (Units=GPa)
#
#
# Indices 1 2 3 4 5 6 
#
# 1 106.0715 49.0594 33.2299 0.0000 0.0000 0.0000
# 2 49.0594 117.3977 28.3597 0.0000 0.0000 0.0000
# 3 33.2299 28.3597 81.8872 0.0000 0.0000 0.0000
# 4 0.0000 0.0000 0.0000 28.4262 0.0000 0.0000
# 5 0.0000 0.0000 0.0000 0.0000 20.6908 0.0000
# 6 0.0000 0.0000 0.0000 0.0000 0.0000 39.1893
#
#
#
# Elastic Compliance Matrix: (Units=1/GPa)
#
#
# Indices 1 2 3 4 5 6 
#
# 1 0.012582 -0.004392 -0.003585 0.000000 0.000000 0.000000
# 2 -0.004392 0.010829 -0.001968 0.000000 0.000000 0.000000
# 3 -0.003585 -0.001968 0.014348 0.000000 0.000000 0.000000
# 4 0.000000 0.000000 0.000000 0.035179 0.000000 0.000000
# 5 0.000000 0.000000 0.000000 0.000000 0.048331 0.000000
# 6 0.000000 0.000000 0.000000 0.000000 0.000000 0.025517
#
#
# Mechanical properties :
#
#
# Convention : Reuss Voigt Hill
#
# Bulk Modulus (GPa) = 55.96111 58.51714 57.23913
# Shear Modulus (GPa) = 28.96345 30.64178 29.80261
#
# Velocity S-wave (km/s) = 3.78576 3.89390 3.84021
# Velocity P-wave (km/s) = 6.84108 7.01231 6.92723
#
# Compressibility (1/GPa) = 0.01786955
#
# Stress axis : x y z
#
# Youngs Moduli (GPa) = 79.47903 92.34612 69.69518
#
# Poissons Ratio (x) = 0.40558 0.24984
# Poissons Ratio (y) = 0.34907 0.13716
# Poissons Ratio (z) = 0.28491 0.18174
#
# Static dielectric constant tensor:
#      x y z
#    x 3.618310 0.000000 0.000000 
#    y 0.000000 3.690600 0.000000 
#    z 0.000000 0.000000 3.641500 
# 
# 
# High freq. dielectric constant tensor:
#      x y z
#    x 1.783590 0.000000 0.000000 
#    y 0.000000 1.802440 0.000000 
#    z 0.000000 0.000000 1.790140 
# 
# From -- ./inp_files/23525.got.cif
#   From: 2010.06.25/outbox.cif.g09.slc.cpg/sg58_12_cif.got.tgz:23525.got - 2010.06.26 21:38:00.
