data_PCOD8237093
_publ_section_title
;
Structure prediction by ZEFSAII (Michael W. Deem and Ramdas Pophale) SiO2 
 PCOD8237093
Probable space group: P N N M
;
_chemical_formula_sum "Si O2"
_cell_formula_units_Z 48
_cell_length_a 14.808767
_cell_length_b 19.841781
_cell_length_c 8.668057
_cell_angle_alpha 90.000000
_cell_angle_beta 90.000000
_cell_angle_gamma 90.000000
_cell_volume 2546.955226
_symmetry_space_group_name_H-M "P N N M"
_symmetry_group_IT_number 58
_symmetry_cell_setting 'orthorhombic'
loop_
_space_group_symop_operation_xyz
x,y,z
-x,-y,z
1/2+x,1/2-y,1/2-z
1/2-x,1/2+y,1/2-z
-x,-y,-z
x,y,-z
1/2-x,1/2+y,1/2+z
1/2+x,1/2-y,1/2+z
loop_
_atom_site_type_symbol
_atom_site_label
_atom_site_fract_x
_atom_site_fract_y
_atom_site_fract_z
Si Si1 0.918831 0.952456 0.321102
Si Si2 0.113535 0.188984 0.819466
Si Si3 0.511632 0.801398 0.817645
Si Si4 0.302463 0.168527 0.682105
Si Si5 0.719794 0.984277 0.676704
Si Si6 0.935254 0.557887 0.681485
O O1 0.927630 0.930674 0.500000
O O2 0.919708 0.886300 0.216742
O O3 0.826419 0.993849 0.295321
O O4 0.000000 0.000000 0.267466
O O5 0.216028 0.201303 0.764958
O O6 0.049625 0.238896 0.726489
O O7 0.105535 0.203353 0.000000
O O8 0.608792 0.792397 0.737274
O O9 0.464300 0.869421 0.753368
O O10 0.526004 0.804014 0.000000
O O11 0.288193 0.175574 0.500000
O O12 0.310070 0.090270 0.731635
O O13 0.693741 0.995081 0.500000
O O14 0.667721 0.041127 0.773472
O O15 0.944081 0.558916 0.500000
O O16 0.000000 0.500000 0.752815
#
# Coordination Sequence:
#
# PCOD8237093 Si02
#       6
#     8   8   8   8   8   8
#     4   9  19  39  63  85 113 150 191 237 290 344
#     4  11  23  39  59  85 116 153 195 238 286 349
#     4  11  22  38  59  83 116 155 192 240 291 341
#     4  10  20  37  60  84 111 148 191 235 287 347
#     4   9  18  32  55  84 111 144 184 231 281 338
#     4  10  20  34  54  83 115 148 186 229 282 337
#
# _framework density 18.846032000000001
#
# number of rings (size 3 to 8) (size 9 to 14) (size 15 to 20)
#    0.000    2.000    1.667    3.500    0.000    4.667 
#    3.000    0.000    0.000    0.000    0.000    0.000 
#    0.000    0.000    0.000    0.000    0.000    0.000 
#
# Total GULP energy -595343.444865 kJ/mol
# GULP energy per Si atom -12402.988435 kJ/mol
# Density = 1.880314 g / cm^3
# Si number density = 18.846032 Si / 1000 Ang^3
#
#
#
# Elastic Constant Matrix: (Units=GPa)
#
#
# Indices 1 2 3 4 5 6 
#
# 1 124.3549 49.4227 10.9357 0.0000 0.0000 0.0000
# 2 49.4227 61.4844 10.6306 0.0000 0.0000 0.0000
# 3 10.9357 10.6306 41.6974 0.0000 0.0000 0.0000
# 4 0.0000 0.0000 0.0000 24.5829 0.0000 0.0000
# 5 0.0000 0.0000 0.0000 0.0000 33.7243 0.0000
# 6 0.0000 0.0000 0.0000 0.0000 0.0000 35.1906
#
#
#
# Elastic Compliance Matrix: (Units=1/GPa)
#
#
# Indices 1 2 3 4 5 6 
#
# 1 0.011837 -0.009392 -0.000710 0.000000 0.000000 0.000000
# 2 -0.009392 0.024466 -0.003774 0.000000 0.000000 0.000000
# 3 -0.000710 -0.003774 0.025131 0.000000 0.000000 0.000000
# 4 0.000000 0.000000 0.000000 0.040679 0.000000 0.000000
# 5 0.000000 0.000000 0.000000 0.000000 0.029652 0.000000
# 6 0.000000 0.000000 0.000000 0.000000 0.000000 0.028417
#
#
# Mechanical properties :
#
#
# Convention : Reuss Voigt Hill
#
# Bulk Modulus (GPa) = 29.69008 41.05720 35.37364
# Shear Modulus (GPa) = 25.10540 29.13607 27.12074
#
# Velocity S-wave (km/s) = 3.65380 3.93619 3.79762
# Velocity P-wave (km/s) = 5.79556 6.51852 6.16764
#
# Compressibility (1/GPa) = 0.03368129
#
# Stress axis : x y z
#
# Youngs Moduli (GPa) = 84.48435 40.87274 39.79183
#
# Poissons Ratio (x) = 0.38387 0.02825
# Poissons Ratio (y) = 0.79345 0.15019
# Poissons Ratio (z) = 0.05998 0.15427
#
# Static dielectric constant tensor:
#      x y z
#    x 3.553130 0.000000 0.000000 
#    y 0.000000 3.328780 0.000000 
#    z 0.000000 0.000000 3.322030 
# 
# 
# High freq. dielectric constant tensor:
#      x y z
#    x 1.742860 0.000000 0.000000 
#    y 0.000000 1.712900 0.000000 
#    z 0.000000 0.000000 1.729850 
# 
# From -- ./inp_files/5831.got.cif
#   From: 2010.06.25/outbox.cif.g09.slc.cpg/sg58_3_cif.got.tgz:5831.got - 2010.06.26 21:38:00.
