data_PCOD8237585
_publ_section_title
;
Structure prediction by ZEFSAII (Michael W. Deem and Ramdas Pophale) SiO2 
 PCOD8237585
Probable space group: P N N M
;
_chemical_formula_sum "Si O2"
_cell_formula_units_Z 64
_cell_length_a 12.793683
_cell_length_b 27.671866
_cell_length_c 9.492681
_cell_angle_alpha 90.000000
_cell_angle_beta 90.000000
_cell_angle_gamma 90.000000
_cell_volume 3360.647166
_symmetry_space_group_name_H-M "P N N M"
_symmetry_group_IT_number 58
_symmetry_cell_setting 'orthorhombic'
loop_
_space_group_symop_operation_xyz
x,y,z
-x,-y,z
1/2+x,1/2-y,1/2-z
1/2-x,1/2+y,1/2-z
-x,-y,-z
x,y,-z
1/2-x,1/2+y,1/2+z
1/2+x,1/2-y,1/2+z
loop_
_atom_site_type_symbol
_atom_site_label
_atom_site_fract_x
_atom_site_fract_y
_atom_site_fract_z
Si Si1 0.862353 0.876467 0.843088
Si Si2 0.764575 0.703017 0.667386
Si Si3 0.979876 0.655374 0.666416
Si Si4 0.405030 0.373208 0.660461
Si Si5 0.691882 0.794645 0.838183
Si Si6 0.242508 0.050463 0.341333
Si Si7 0.407000 0.466953 0.841622
Si Si8 0.450227 0.050905 0.166272
O O1 0.774697 0.836893 0.824325
O O2 0.849858 0.916922 0.723641
O O3 0.977107 0.853196 0.822155
O O4 0.854851 0.899562 0.000000
O O5 0.766624 0.711258 0.500000
O O6 0.874795 0.681093 0.723033
O O7 0.673474 0.667146 0.716559
O O8 0.737994 0.752862 0.741818
O O9 0.981936 0.657463 0.500000
O O10 0.081236 0.685071 0.721660
O O11 0.981794 0.598290 0.710622
O O12 0.377662 0.385907 0.500000
O O13 0.386589 0.421297 0.746633
O O14 0.680990 0.777084 0.000000
O O15 0.268803 0.067679 0.500000
O O16 0.341013 0.056472 0.242389
O O17 0.202168 0.995756 0.342239
O O18 0.500000 0.500000 0.778818
O O19 0.437765 0.450831 0.000000
O O20 0.500000 0.000000 0.215795
O O21 0.429628 0.050418 0.000000
#
# Coordination Sequence:
#
# PCOD8237585 Si02
#       8
#     8   8   8   8   8   8   8   8
#     4  10  20  37  59  84 114 147 192 241 286 343
#     4  10  23  40  59  86 117 147 189 241 290 341
#     4   9  19  39  60  84 116 149 189 237 283 339
#     4  10  22  37  58  86 115 150 192 246 292 332
#     4  10  21  39  62  83 111 150 190 235 289 346
#     4  11  22  36  56  84 118 154 191 236 289 338
#     4  10  21  37  54  79 119 158 188 227 280 344
#     4  10  21  38  63  87 112 155 199 236 287 349
#
# _framework density 19.043949999999999
#
# number of rings (size 3 to 8) (size 9 to 14) (size 15 to 20)
#    0.000    2.000    2.500    0.375    3.500    2.500 
#    0.000    0.625    0.000    0.000    0.000    0.000 
#    0.000    0.000    0.000    0.000    0.000    0.000 
#
# Total GULP energy -793478.630463 kJ/mol
# GULP energy per Si atom -12398.103601 kJ/mol
# Density = 1.900060 g / cm^3
# Si number density = 19.043950 Si / 1000 Ang^3
#
#
#
# Elastic Constant Matrix: (Units=GPa)
#
#
# Indices 1 2 3 4 5 6 
#
# 1 119.4219 36.5717 20.8975 0.0000 0.0000 0.0000
# 2 36.5717 65.8688 22.2675 0.0000 0.0000 0.0000
# 3 20.8975 22.2675 41.2305 0.0000 0.0000 0.0000
# 4 0.0000 0.0000 0.0000 31.3790 0.0000 0.0000
# 5 0.0000 0.0000 0.0000 0.0000 18.3520 0.0000
# 6 0.0000 0.0000 0.0000 0.0000 0.0000 30.5462
#
#
#
# Elastic Compliance Matrix: (Units=1/GPa)
#
#
# Indices 1 2 3 4 5 6 
#
# 1 0.010314 -0.004844 -0.002612 0.000000 0.000000 0.000000
# 2 -0.004844 0.020847 -0.008804 0.000000 0.000000 0.000000
# 3 -0.002612 -0.008804 0.030332 0.000000 0.000000 0.000000
# 4 0.000000 0.000000 0.000000 0.031868 0.000000 0.000000
# 5 0.000000 0.000000 0.000000 0.000000 0.054490 0.000000
# 6 0.000000 0.000000 0.000000 0.000000 0.000000 0.032737
#
#
# Mechanical properties :
#
#
# Convention : Reuss Voigt Hill
#
# Bulk Modulus (GPa) = 34.51262 42.88830 38.70046
# Shear Modulus (GPa) = 22.44501 25.84107 24.14304
#
# Velocity S-wave (km/s) = 3.43678 3.68763 3.56442
# Velocity P-wave (km/s) = 5.82328 6.37974 6.10785
#
# Compressibility (1/GPa) = 0.02897491
#
# Stress axis : x y z
#
# Youngs Moduli (GPa) = 96.95562 47.96791 32.96798
#
# Poissons Ratio (x) = 0.23234 0.08610
# Poissons Ratio (y) = 0.46962 0.29025
# Poissons Ratio (z) = 0.25322 0.42231
#
# Static dielectric constant tensor:
#      x y z
#    x 3.800420 0.000000 0.000000 
#    y 0.000000 3.693650 0.000000 
#    z 0.000000 0.000000 3.379360 
# 
# 
# High freq. dielectric constant tensor:
#      x y z
#    x 1.752850 0.000000 0.000000 
#    y 0.000000 1.736570 0.000000 
#    z 0.000000 0.000000 1.723350 
# 
# From -- ./inp_files/4824.got.cif
#   From: 2010.06.25/outbox.cif.g09.slc.cpg/sg58_3_cif.got.tgz:4824.got - 2010.06.26 21:38:00.
