data_PCOD8237696
_publ_section_title
;
Structure prediction by ZEFSAII (Michael W. Deem and Ramdas Pophale) SiO2 
 PCOD8237696
Probable space group: P N N M
;
_chemical_formula_sum "Si O2"
_cell_formula_units_Z 64
_cell_length_a 11.346986
_cell_length_b 10.932822
_cell_length_c 23.994119
_cell_angle_alpha 90.000000
_cell_angle_beta 90.000000
_cell_angle_gamma 90.000000
_cell_volume 2976.580311
_symmetry_space_group_name_H-M "P N N M"
_symmetry_group_IT_number 58
_symmetry_cell_setting 'orthorhombic'
loop_
_space_group_symop_operation_xyz
x,y,z
-x,-y,z
1/2+x,1/2-y,1/2-z
1/2-x,1/2+y,1/2-z
-x,-y,-z
x,y,-z
1/2-x,1/2+y,1/2+z
1/2+x,1/2-y,1/2+z
loop_
_atom_site_type_symbol
_atom_site_label
_atom_site_fract_x
_atom_site_fract_y
_atom_site_fract_z
Si Si1 0.664130 0.584652 0.435000
Si Si2 0.663428 0.232494 0.134105
Si Si3 0.235849 0.366058 0.861869
Si Si4 0.577217 0.322330 0.601595
Si Si5 0.074562 0.105472 0.780129
Si Si6 0.938680 0.272120 0.298534
Si Si7 0.128910 0.044730 0.440141
Si Si8 0.798169 0.416039 0.785962
O O1 0.695768 0.599370 0.500000
O O2 0.770863 0.618178 0.394353
O O3 0.555915 0.677947 0.420939
O O4 0.637145 0.443314 0.422817
O O5 0.544707 0.177342 0.162410
O O6 0.625446 0.319670 0.084104
O O7 0.751834 0.302555 0.176404
O O8 0.151523 0.301709 0.909536
O O9 0.319658 0.266966 0.830670
O O10 0.317245 0.454456 0.896175
O O11 0.168287 0.458795 0.818864
O O12 0.590787 0.301762 0.668991
O O13 0.195644 0.049974 0.757616
O O14 0.995900 0.152570 0.729278
O O15 0.000000 0.000000 0.810967
O O16 0.909691 0.371372 0.250516
O O17 0.196255 0.047494 0.500000
O O18 0.000000 0.000000 0.451749
#
# Coordination Sequence:
#
# PCOD8237696 Si02
#       8
#     8   8   8   8   8   8   8   8
#     4  11  24  45  71  93 122 171 230 280 338 397
#     4  10  22  40  68  93 133 169 221 274 328 390
#     4  11  22  39  63  98 134 170 217 274 326 394
#     4  11  23  41  67  92 125 172 226 277 328 399
#     4  11  19  34  62  86 129 173 217 257 310 385
#     4  11  21  38  63  96 130 178 211 259 328 397
#     4  10  20  37  64  95 129 174 222 273 331 390
#     4  10  22  36  63  96 134 174 214 260 323 392
#
# _framework density 21.501182
#
# number of rings (size 3 to 8) (size 9 to 14) (size 15 to 20)
#    0.000    1.375    5.000    1.875    0.000    1.000 
#    0.000    7.500    0.000    4.500    0.000    0.000 
#    0.000    0.000    0.000    0.000    0.000    0.000 
#
# Total GULP energy -793052.825460 kJ/mol
# GULP energy per Si atom -12391.450398 kJ/mol
# Density = 2.145224 g / cm^3
# Si number density = 21.501182 Si / 1000 Ang^3
#
#
#
# Elastic Constant Matrix: (Units=GPa)
#
#
# Indices 1 2 3 4 5 6 
#
# 1 86.7970 44.5122 31.9014 0.0000 0.0000 0.0000
# 2 44.5122 72.9432 24.0617 0.0000 0.0000 0.0000
# 3 31.9014 24.0617 106.2426 0.0000 0.0000 0.0000
# 4 0.0000 0.0000 0.0000 26.2156 0.0000 0.0000
# 5 0.0000 0.0000 0.0000 0.0000 28.5845 0.0000
# 6 0.0000 0.0000 0.0000 0.0000 0.0000 27.4138
#
#
#
# Elastic Compliance Matrix: (Units=1/GPa)
#
#
# Indices 1 2 3 4 5 6 
#
# 1 0.017662 -0.009757 -0.003094 0.000000 0.000000 0.000000
# 2 -0.009757 0.020207 -0.001647 0.000000 0.000000 0.000000
# 3 -0.003094 -0.001647 0.010714 0.000000 0.000000 0.000000
# 4 0.000000 0.000000 0.000000 0.038145 0.000000 0.000000
# 5 0.000000 0.000000 0.000000 0.000000 0.034984 0.000000
# 6 0.000000 0.000000 0.000000 0.000000 0.000000 0.036478
#
#
# Mechanical properties :
#
#
# Convention : Reuss Voigt Hill
#
# Bulk Modulus (GPa) = 51.05173 51.88150 51.46662
# Shear Modulus (GPa) = 25.81117 27.47662 26.64389
#
# Velocity S-wave (km/s) = 3.46851 3.57867 3.52402
# Velocity P-wave (km/s) = 6.31158 6.42322 6.36765
#
# Compressibility (1/GPa) = 0.01958798
#
# Stress axis : x y z
#
# Youngs Moduli (GPa) = 56.61850 49.48838 93.33402
#
# Poissons Ratio (x) = 0.48288 0.28873
# Poissons Ratio (y) = 0.55245 0.15368
# Poissons Ratio (z) = 0.17515 0.08148
#
# Static dielectric constant tensor:
#      x y z
#    x 3.956570 0.000000 0.000000 
#    y 0.000000 3.667220 0.000000 
#    z 0.000000 0.000000 4.104580 
# 
# 
# High freq. dielectric constant tensor:
#      x y z
#    x 1.837920 0.000000 0.000000 
#    y 0.000000 1.830220 0.000000 
#    z 0.000000 0.000000 1.848230 
# 
# From -- ./inp_files/32054.got.cif
#   From: 2010.06.25/outbox.cif.g09.slc.cpg/sg58_17_cif.got.tgz:32054.got - 2010.06.26 21:38:00.
