data_PCOD8237929
_publ_section_title
;
Structure prediction by ZEFSAII (Michael W. Deem and Ramdas Pophale) SiO2 
 PCOD8237929
Probable space group: P N N M
;
_chemical_formula_sum "Si O2"
_cell_formula_units_Z 48
_cell_length_a 11.987021
_cell_length_b 23.609454
_cell_length_c 8.838861
_cell_angle_alpha 90.000000
_cell_angle_beta 90.000000
_cell_angle_gamma 90.000000
_cell_volume 2501.459720
_symmetry_space_group_name_H-M "P N N M"
_symmetry_group_IT_number 58
_symmetry_cell_setting 'orthorhombic'
loop_
_space_group_symop_operation_xyz
x,y,z
-x,-y,z
1/2+x,1/2-y,1/2-z
1/2-x,1/2+y,1/2-z
-x,-y,-z
x,y,-z
1/2-x,1/2+y,1/2+z
1/2+x,1/2-y,1/2+z
loop_
_atom_site_type_symbol
_atom_site_label
_atom_site_fract_x
_atom_site_fract_y
_atom_site_fract_z
Si Si1 0.152656 0.281879 0.322822
Si Si2 0.204219 0.583575 0.325393
Si Si3 0.854842 0.141014 0.176783
Si Si4 0.098056 0.166080 0.175922
Si Si5 0.985847 0.621495 0.178292
Si Si6 0.693602 0.045574 0.179066
O O1 0.128173 0.285069 0.500000
O O2 0.275468 0.305924 0.284575
O O3 0.150519 0.218056 0.266051
O O4 0.058819 0.318929 0.240369
O O5 0.166816 0.587067 0.500000
O O6 0.324330 0.611652 0.299917
O O7 0.214939 0.518666 0.272043
O O8 0.114671 0.616250 0.224058
O O9 0.797371 0.083510 0.239322
O O10 0.976950 0.151233 0.247764
O O11 0.872316 0.133511 0.000000
O O12 0.089486 0.183016 0.000000
O O13 0.920110 0.567890 0.246442
O O14 0.973529 0.621225 0.000000
O O15 0.679736 0.052829 0.000000
#
# Coordination Sequence:
#
# PCOD8237929 Si02
#       6
#     8   8   8   8   8   8
#     4  10  21  38  58  80 109 146 186 230 284 337
#     4  10  21  35  55  85 118 148 184 228 277 335
#     4   8  17  35  57  79 107 143 184 225 271 328
#     4  10  21  36  55  84 115 146 185 229 276 332
#     4  11  22  36  57  83 111 147 191 237 282 327
#     4   9  18  36  59  82 112 150 186 227 280 334
#
# _framework density 19.188796
#
# number of rings (size 3 to 8) (size 9 to 14) (size 15 to 20)
#    0.000    2.333    0.000    3.500    2.333    4.000 
#    0.000    6.667    0.000    0.000    0.000    7.000 
#    0.000    0.000    0.000    0.000    0.000    0.000 
#
# Total GULP energy -595285.809095 kJ/mol
# GULP energy per Si atom -12401.787689 kJ/mol
# Density = 1.914512 g / cm^3
# Si number density = 19.188796 Si / 1000 Ang^3
#
#
#
# Elastic Constant Matrix: (Units=GPa)
#
#
# Indices 1 2 3 4 5 6 
#
# 1 125.7764 36.2192 28.2582 0.0000 0.0000 0.0000
# 2 36.2192 86.2836 20.6590 0.0000 0.0000 0.0000
# 3 28.2582 20.6590 57.5659 0.0000 0.0000 0.0000
# 4 0.0000 0.0000 0.0000 26.7539 0.0000 0.0000
# 5 0.0000 0.0000 0.0000 0.0000 17.1640 0.0000
# 6 0.0000 0.0000 0.0000 0.0000 0.0000 21.0052
#
#
#
# Elastic Compliance Matrix: (Units=1/GPa)
#
#
# Indices 1 2 3 4 5 6 
#
# 1 0.009682 -0.003201 -0.003604 0.000000 0.000000 0.000000
# 2 -0.003201 0.013738 -0.003359 0.000000 0.000000 0.000000
# 3 -0.003604 -0.003359 0.020346 0.000000 0.000000 0.000000
# 4 0.000000 0.000000 0.000000 0.037378 0.000000 0.000000
# 5 0.000000 0.000000 0.000000 0.000000 0.058261 0.000000
# 6 0.000000 0.000000 0.000000 0.000000 0.000000 0.047607
#
#
# Mechanical properties :
#
#
# Convention : Reuss Voigt Hill
#
# Bulk Modulus (GPa) = 42.66604 48.87764 45.77184
# Shear Modulus (GPa) = 23.23932 25.28394 24.26163
#
# Velocity S-wave (km/s) = 3.48384 3.63387 3.55965
# Velocity P-wave (km/s) = 6.20210 6.56764 6.38749
#
# Compressibility (1/GPa) = 0.02343784
#
# Stress axis : x y z
#
# Youngs Moduli (GPa) = 103.28228 72.79248 49.15005
#
# Poissons Ratio (x) = 0.23304 0.17713
# Poissons Ratio (y) = 0.33065 0.16508
# Poissons Ratio (z) = 0.37222 0.24448
#
# Static dielectric constant tensor:
#      x y z
#    x 3.668320 0.000000 0.000000 
#    y 0.000000 3.586230 0.000000 
#    z 0.000000 0.000000 3.281070 
# 
# 
# High freq. dielectric constant tensor:
#      x y z
#    x 1.750560 0.000000 0.000000 
#    y 0.000000 1.751730 0.000000 
#    z 0.000000 0.000000 1.722570 
# 
# From -- ./inp_files/4205.got.cif
#   From: 2010.06.25/outbox.cif.g09.slc.cpg/sg58_3_cif.got.tgz:4205.got - 2010.06.26 21:38:00.
