data_PCOD8237132
_publ_section_title
;
Structure prediction by ZEFSAII (Michael W. Deem and Ramdas Pophale) SiO2 
 PCOD8237132
Probable space group: P N N M
;
_chemical_formula_sum "Si O2"
_cell_formula_units_Z 64
_cell_length_a 22.619245
_cell_length_b 15.738996
_cell_length_c 9.211981
_cell_angle_alpha 90.000000
_cell_angle_beta 90.000000
_cell_angle_gamma 90.000000
_cell_volume 3279.503987
_symmetry_space_group_name_H-M "P N N M"
_symmetry_group_IT_number 58
_symmetry_cell_setting 'orthorhombic'
loop_
_space_group_symop_operation_xyz
x,y,z
-x,-y,z
1/2+x,1/2-y,1/2-z
1/2-x,1/2+y,1/2-z
-x,-y,-z
x,y,-z
1/2-x,1/2+y,1/2+z
1/2+x,1/2-y,1/2+z
loop_
_atom_site_type_symbol
_atom_site_label
_atom_site_fract_x
_atom_site_fract_y
_atom_site_fract_z
Si Si1 0.229389 0.460937 0.840307
Si Si2 0.449467 0.568383 0.169457
Si Si3 0.958452 0.738148 0.668429
Si Si4 0.843129 0.373223 0.841464
Si Si5 0.974742 0.410642 0.170190
Si Si6 0.250980 0.700031 0.337445
Si Si7 0.170752 0.324256 0.330873
Si Si8 0.329046 0.531890 0.335518
O O1 0.205654 0.554820 0.860533
O O2 0.177445 0.412364 0.754336
O O3 0.291285 0.461011 0.751710
O O4 0.240531 0.420542 0.000000
O O5 0.500000 0.500000 0.206917
O O6 0.472054 0.663584 0.210336
O O7 0.391976 0.544896 0.260653
O O8 0.432194 0.565888 0.000000
O O9 0.971311 0.721593 0.500000
O O10 0.890590 0.720324 0.708046
O O11 0.997931 0.673083 0.758234
O O12 0.905674 0.410585 0.791488
O O13 0.816708 0.313221 0.716067
O O14 0.850117 0.327939 0.000000
O O15 0.000000 0.500000 0.232886
O O16 0.988240 0.405367 0.000000
O O17 0.248217 0.737394 0.500000
O O18 0.276174 0.766353 0.223616
O O19 0.291900 0.617809 0.335524
O O20 0.177458 0.341986 0.500000
O O21 0.339292 0.500041 0.500000
#
# Coordination Sequence:
#
# PCOD8237132 Si02
#       8
#     8   8   8   8   8   8   8   8
#     4  10  20  35  58  85 114 149 190 234 289 354
#     4  10  21  40  63  84 113 158 207 254 305 361
#     4  10  22  38  59  88 118 156 204 252 303 355
#     4   9  19  36  56  79 111 152 188 228 285 344
#     4  10  21  38  60  87 120 159 201 243 295 360
#     4  10  20  34  56  82 109 145 186 232 285 345
#     4  11  21  35  56  83 115 146 187 239 293 351
#     4  10  20  36  58  85 115 146 189 241 296 353
#
# _framework density 19.515146999999999
#
# number of rings (size 3 to 8) (size 9 to 14) (size 15 to 20)
#    0.000    2.000    1.250    2.250    0.000    5.000 
#    2.250    0.000    0.000    0.000    0.000    0.000 
#    0.000    0.000    0.000    0.000    0.000    0.000 
#
# Total GULP energy -793373.443504 kJ/mol
# GULP energy per Si atom -12396.460055 kJ/mol
# Density = 1.947073 g / cm^3
# Si number density = 19.515147 Si / 1000 Ang^3
#
#
#
# Elastic Constant Matrix: (Units=GPa)
#
#
# Indices 1 2 3 4 5 6 
#
# 1 115.9674 37.4678 58.0819 0.0000 0.0000 0.0000
# 2 37.4678 81.1385 37.4204 0.0000 0.0000 0.0000
# 3 58.0819 37.4204 107.1274 0.0000 0.0000 0.0000
# 4 0.0000 0.0000 0.0000 29.9883 0.0000 0.0000
# 5 0.0000 0.0000 0.0000 0.0000 29.8905 0.0000
# 6 0.0000 0.0000 0.0000 0.0000 0.0000 28.7430
#
#
#
# Elastic Compliance Matrix: (Units=1/GPa)
#
#
# Indices 1 2 3 4 5 6 
#
# 1 0.012478 -0.003149 -0.005665 0.000000 0.000000 0.000000
# 2 -0.003149 0.015486 -0.003702 0.000000 0.000000 0.000000
# 3 -0.005665 -0.003702 0.013699 0.000000 0.000000 0.000000
# 4 0.000000 0.000000 0.000000 0.033346 0.000000 0.000000
# 5 0.000000 0.000000 0.000000 0.000000 0.033455 0.000000
# 6 0.000000 0.000000 0.000000 0.000000 0.000000 0.034791
#
#
# Mechanical properties :
#
#
# Convention : Reuss Voigt Hill
#
# Bulk Modulus (GPa) = 60.13011 63.35262 61.74136
# Shear Modulus (GPa) = 28.76324 29.14190 28.95257
#
# Velocity S-wave (km/s) = 3.84330 3.86851 3.85592
# Velocity P-wave (km/s) = 7.11150 7.24483 7.17848
#
# Compressibility (1/GPa) = 0.01663060
#
# Stress axis : x y z
#
# Youngs Moduli (GPa) = 80.14083 64.57365 72.99613
#
# Poissons Ratio (x) = 0.20336 0.41354
# Poissons Ratio (y) = 0.25239 0.27023
# Poissons Ratio (z) = 0.45402 0.23905
#
# Static dielectric constant tensor:
#      x y z
#    x 3.551280 0.000000 0.000000 
#    y 0.000000 3.561530 0.000000 
#    z 0.000000 0.000000 3.801020 
# 
# 
# High freq. dielectric constant tensor:
#      x y z
#    x 1.755940 0.000000 0.000000 
#    y 0.000000 1.748780 0.000000 
#    z 0.000000 0.000000 1.767040 
# 
# From -- ./inp_files/9231.got.cif
#   From: 2010.06.25/outbox.cif.g09.slc.cpg/sg58_5_cif.got.tgz:9231.got - 2010.06.26 21:38:00.
