data_PCOD8237003
_publ_section_title
;
Structure prediction by ZEFSAII (Michael W. Deem and Ramdas Pophale) SiO2 
 PCOD8237003
Probable space group: P N N M
;
_chemical_formula_sum "Si O2"
_cell_formula_units_Z 56
_cell_length_a 14.978989
_cell_length_b 21.350608
_cell_length_c 9.621029
_cell_angle_alpha 90.000000
_cell_angle_beta 90.000000
_cell_angle_gamma 90.000000
_cell_volume 3076.906310
_symmetry_space_group_name_H-M "P N N M"
_symmetry_group_IT_number 58
_symmetry_cell_setting 'orthorhombic'
loop_
_space_group_symop_operation_xyz
x,y,z
-x,-y,z
1/2+x,1/2-y,1/2-z
1/2-x,1/2+y,1/2-z
-x,-y,-z
x,y,-z
1/2-x,1/2+y,1/2+z
1/2+x,1/2-y,1/2+z
loop_
_atom_site_type_symbol
_atom_site_label
_atom_site_fract_x
_atom_site_fract_y
_atom_site_fract_z
Si Si1 0.480306 0.069464 0.834932
Si Si2 0.535645 0.596663 0.336106
Si Si3 0.727029 0.259291 0.338897
Si Si4 0.576626 0.712156 0.155304
Si Si5 0.711876 0.893714 0.165575
Si Si6 0.076582 0.308597 0.340807
Si Si7 0.633775 0.478706 0.664252
O O1 0.386428 0.094486 0.772205
O O2 0.558759 0.118928 0.795323
O O3 0.500000 0.000000 0.774070
O O4 0.471768 0.065461 0.000000
O O5 0.533465 0.607964 0.500000
O O6 0.542585 0.663113 0.265934
O O7 0.445551 0.564953 0.279075
O O8 0.618327 0.551107 0.291987
O O9 0.697887 0.260068 0.500000
O O10 0.819915 0.224194 0.316968
O O11 0.741517 0.329810 0.280835
O O12 0.650946 0.223438 0.254017
O O13 0.519310 0.775085 0.174594
O O14 0.563042 0.685625 0.000000
O O15 0.771690 0.952515 0.217326
O O16 0.706210 0.889139 0.000000
O O17 0.110259 0.305646 0.500000
O O18 0.628321 0.474619 0.500000
#
# Coordination Sequence:
#
# PCOD8237003 Si02
#       7
#     8   8   8   8   8   8   8
#     4   9  17  30  50  75 102 132 170 216 264 308
#     4   9  17  30  48  75 104 130 166 214 259 298
#     4  10  20  34  54  76 101 139 177 206 254 320
#     4  10  20  34  50  72 106 139 165 204 257 311
#     4   9  15  28  49  71  97 135 175 207 252 314
#     4  10  20  35  53  78 108 133 169 224 266 299
#     4   8  15  27  46  72 102 130 165 215 259 297
#
# _framework density 18.200099999999999
#
# number of rings (size 3 to 8) (size 9 to 14) (size 15 to 20)
#    0.000    2.714    1.429    1.714    0.000    3.429 
#    0.000    4.286    0.000    1.286    0.000    0.000 
#    0.000    0.000    0.000    0.000    0.000    0.000 
#
# Total GULP energy -694013.848226 kJ/mol
# GULP energy per Si atom -12393.104433 kJ/mol
# Density = 1.815868 g / cm^3
# Si number density = 18.200100 Si / 1000 Ang^3
#
#
#
# Elastic Constant Matrix: (Units=GPa)
#
#
# Indices 1 2 3 4 5 6 
#
# 1 100.7882 40.9487 28.6921 0.0000 0.0000 0.0000
# 2 40.9487 117.1134 29.6335 0.0000 0.0000 0.0000
# 3 28.6921 29.6335 37.5229 0.0000 0.0000 0.0000
# 4 0.0000 0.0000 0.0000 21.3675 0.0000 0.0000
# 5 0.0000 0.0000 0.0000 0.0000 22.5723 0.0000
# 6 0.0000 0.0000 0.0000 0.0000 0.0000 29.4073
#
#
#
# Elastic Compliance Matrix: (Units=1/GPa)
#
#
# Indices 1 2 3 4 5 6 
#
# 1 0.013284 -0.002593 -0.008110 0.000000 0.000000 0.000000
# 2 -0.002593 0.011177 -0.006845 0.000000 0.000000 0.000000
# 3 -0.008110 -0.006845 0.038257 0.000000 0.000000 0.000000
# 4 0.000000 0.000000 0.000000 0.046800 0.000000 0.000000
# 5 0.000000 0.000000 0.000000 0.000000 0.044302 0.000000
# 6 0.000000 0.000000 0.000000 0.000000 0.000000 0.034005
#
#
# Mechanical properties :
#
#
# Convention : Reuss Voigt Hill
#
# Bulk Modulus (GPa) = 36.20083 50.44146 43.32114
# Shear Modulus (GPa) = 21.53981 25.07943 23.30962
#
# Velocity S-wave (km/s) = 3.44394 3.71615 3.58263
# Velocity P-wave (km/s) = 5.97895 6.79618 6.40062
#
# Compressibility (1/GPa) = 0.02762367
#
# Stress axis : x y z
#
# Youngs Moduli (GPa) = 75.27915 89.46821 26.13877
#
# Poissons Ratio (x) = 0.23195 0.21199
# Poissons Ratio (y) = 0.19517 0.17891
# Poissons Ratio (z) = 0.61052 0.61238
#
# Static dielectric constant tensor:
#      x y z
#    x 3.509840 0.000000 0.000000 
#    y 0.000000 3.553360 0.000000 
#    z 0.000000 0.000000 2.857530 
# 
# 
# High freq. dielectric constant tensor:
#      x y z
#    x 1.710620 0.000000 0.000000 
#    y 0.000000 1.716430 0.000000 
#    z 0.000000 0.000000 1.645150 
# 
# From -- ./inp_files/6250.got.cif
#   From: 2010.06.25/outbox.cif.g09.slc.cpg/sg58_4_cif.got.tgz:6250.got - 2010.06.26 21:38:00.
