data_PCOD8237415
_publ_section_title
;
Structure prediction by ZEFSAII (Michael W. Deem and Ramdas Pophale) SiO2 
 PCOD8237415
Probable space group: P N N M
;
_chemical_formula_sum "Si O2"
_cell_formula_units_Z 48
_cell_length_a 21.904172
_cell_length_b 12.625789
_cell_length_c 8.851643
_cell_angle_alpha 90.000000
_cell_angle_beta 90.000000
_cell_angle_gamma 90.000000
_cell_volume 2447.987851
_symmetry_space_group_name_H-M "P N N M"
_symmetry_group_IT_number 58
_symmetry_cell_setting 'orthorhombic'
loop_
_space_group_symop_operation_xyz
x,y,z
-x,-y,z
1/2+x,1/2-y,1/2-z
1/2-x,1/2+y,1/2-z
-x,-y,-z
x,y,-z
1/2-x,1/2+y,1/2+z
1/2+x,1/2-y,1/2+z
loop_
_atom_site_type_symbol
_atom_site_label
_atom_site_fract_x
_atom_site_fract_y
_atom_site_fract_z
Si Si1 0.996018 0.719964 0.328516
Si Si2 0.634711 0.280462 0.177005
Si Si3 0.306713 0.506060 0.179751
Si Si4 0.120364 0.803945 0.328830
Si Si5 0.905299 0.399606 0.822614
Si Si6 0.318370 0.944310 0.823502
O O1 0.984650 0.679872 0.500000
O O2 0.932936 0.760084 0.253944
O O3 0.046130 0.815791 0.327093
O O4 0.024835 0.622311 0.231784
O O5 0.664684 0.385826 0.247821
O O6 0.678483 0.180976 0.211292
O O7 0.626227 0.298496 0.000000
O O8 0.348330 0.408786 0.238490
O O9 0.238730 0.494595 0.239415
O O10 0.304765 0.510048 0.000000
O O11 0.143392 0.783492 0.500000
O O12 0.137403 0.701158 0.226860
O O13 0.880336 0.503814 0.739664
O O14 0.902481 0.416593 0.000000
O O15 0.313016 0.967132 0.000000
#
# Coordination Sequence:
#
# PCOD8237415 Si02
#       6
#     8   8   8   8   8   8
#     4   8  16  35  59  86 113 144 183 230 280 338
#     4   9  20  37  59  85 113 146 188 229 280 342
#     4  10  21  38  59  86 114 147 187 235 281 335
#     4   8  17  34  59  85 112 144 185 227 279 336
#     4  10  20  36  58  82 111 149 188 230 279 329
#     4  11  23  38  56  82 114 153 190 229 279 337
#
# _framework density 19.607941
#
# number of rings (size 3 to 8) (size 9 to 14) (size 15 to 20)
#    1.000    1.667    0.000    1.500    2.333    2.000 
#    0.000   10.000    0.000    1.000    0.000    0.000 
#    0.000    0.000    0.000    0.000    0.000    0.000 
#
# Total GULP energy -594832.169103 kJ/mol
# GULP energy per Si atom -12392.336856 kJ/mol
# Density = 1.956331 g / cm^3
# Si number density = 19.607941 Si / 1000 Ang^3
#
#
#
# Elastic Constant Matrix: (Units=GPa)
#
#
# Indices 1 2 3 4 5 6 
#
# 1 62.0734 -4.7003 0.9121 0.0000 0.0000 0.0000
# 2 -4.7003 59.8363 17.7825 0.0000 0.0000 0.0000
# 3 0.9121 17.7825 36.5151 0.0000 0.0000 0.0000
# 4 0.0000 0.0000 0.0000 18.7725 0.0000 0.0000
# 5 0.0000 0.0000 0.0000 0.0000 25.7966 0.0000
# 6 0.0000 0.0000 0.0000 0.0000 0.0000 29.2869
#
#
#
# Elastic Compliance Matrix: (Units=1/GPa)
#
#
# Indices 1 2 3 4 5 6 
#
# 1 0.016251 0.001634 -0.001202 0.000000 0.000000 0.000000
# 2 0.001634 0.019705 -0.009637 0.000000 0.000000 0.000000
# 3 -0.001202 -0.009637 0.032109 0.000000 0.000000 0.000000
# 4 0.000000 0.000000 0.000000 0.053269 0.000000 0.000000
# 5 0.000000 0.000000 0.000000 0.000000 0.038765 0.000000
# 6 0.000000 0.000000 0.000000 0.000000 0.000000 0.034145
#
#
# Mechanical properties :
#
#
# Convention : Reuss Voigt Hill
#
# Bulk Modulus (GPa) = 20.13872 20.71260 20.42566
# Shear Modulus (GPa) = 21.81454 24.39989 23.10721
#
# Velocity S-wave (km/s) = 3.33909 3.53142 3.43660
# Velocity P-wave (km/s) = 5.01588 5.21672 5.11728
#
# Compressibility (1/GPa) = 0.04965560
#
# Stress axis : x y z
#
# Youngs Moduli (GPa) = 61.53346 50.74983 31.14401
#
# Poissons Ratio (x) = -0.08291 0.03742
# Poissons Ratio (y) = -0.10053 0.30013
# Poissons Ratio (z) = 0.07393 0.48906
#
# Static dielectric constant tensor:
#      x y z
#    x 3.559780 0.000000 0.000000 
#    y 0.000000 3.611210 0.000000 
#    z 0.000000 0.000000 3.204820 
# 
# 
# High freq. dielectric constant tensor:
#      x y z
#    x 1.761560 0.000000 0.000000 
#    y 0.000000 1.758330 0.000000 
#    z 0.000000 0.000000 1.734670 
# 
# From -- ./inp_files/9710.got.cif
#   From: 2010.06.25/outbox.cif.g09.slc.cpg/sg58_5_cif.got.tgz:9710.got - 2010.06.26 21:38:00.
