data_PCOD8237614
_publ_section_title
;
Structure prediction by ZEFSAII (Michael W. Deem and Ramdas Pophale) SiO2 
 PCOD8237614
Probable space group: P N N M
;
_chemical_formula_sum "Si O2"
_cell_formula_units_Z 56
_cell_length_a 21.596845
_cell_length_b 14.642803
_cell_length_c 9.018319
_cell_angle_alpha 90.000000
_cell_angle_beta 90.000000
_cell_angle_gamma 90.000000
_cell_volume 2851.938291
_symmetry_space_group_name_H-M "P N N M"
_symmetry_group_IT_number 58
_symmetry_cell_setting 'orthorhombic'
loop_
_space_group_symop_operation_xyz
x,y,z
-x,-y,z
1/2+x,1/2-y,1/2-z
1/2-x,1/2+y,1/2-z
-x,-y,-z
x,y,-z
1/2-x,1/2+y,1/2+z
1/2+x,1/2-y,1/2+z
loop_
_atom_site_type_symbol
_atom_site_label
_atom_site_fract_x
_atom_site_fract_y
_atom_site_fract_z
Si Si1 0.025856 0.216333 0.828765
Si Si2 0.450744 0.923430 0.328884
Si Si3 0.907297 0.101055 0.174918
Si Si4 0.113713 0.083307 0.325295
Si Si5 0.753783 0.380529 0.175039
Si Si6 0.175782 0.463853 0.324394
Si Si7 0.277394 0.322304 0.675961
O O1 0.019580 0.324208 0.799399
O O2 0.081812 0.175615 0.732653
O O3 0.961621 0.170051 0.779595
O O4 0.040192 0.195645 0.000000
O O5 0.430966 0.935072 0.500000
O O6 0.391826 0.934517 0.225318
O O7 0.500000 0.000000 0.282605
O O8 0.843659 0.144142 0.236271
O O9 0.919287 0.003797 0.251693
O O10 0.904728 0.084466 0.000000
O O11 0.105289 0.078630 0.500000
O O12 0.185700 0.085010 0.279483
O O13 0.806237 0.439603 0.254208
O O14 0.762907 0.278341 0.235940
O O15 0.764168 0.385942 0.000000
O O16 0.177866 0.471973 0.500000
O O17 0.224137 0.388902 0.263682
O O18 0.277619 0.321965 0.500000
#
# Coordination Sequence:
#
# PCOD8237614 Si02
#       7
#     8   8   8   8   8   8   8
#     4  10  22  38  60  87 114 155 204 246 289 346
#     4  10  23  42  64  88 117 156 202 247 291 345
#     4  10  20  37  60  85 115 153 201 248 291 350
#     4  11  22  37  58  88 124 158 192 240 302 355
#     4  10  21  37  60  86 115 156 199 239 287 350
#     4  11  22  39  62  90 121 155 191 239 300 351
#     4   9  19  36  60  85 115 155 197 242 293 346
#
# _framework density 19.635770000000001
#
# number of rings (size 3 to 8) (size 9 to 14) (size 15 to 20)
#    0.000    1.857    1.429    2.143    2.000    4.857 
#    0.000    2.143    0.000    0.000    0.000    0.000 
#    0.000    0.000    0.000    0.000    0.000    0.000 
#
# Total GULP energy -694695.789255 kJ/mol
# GULP energy per Si atom -12405.281951 kJ/mol
# Density = 1.959108 g / cm^3
# Si number density = 19.635770 Si / 1000 Ang^3
#
#
#
# Elastic Constant Matrix: (Units=GPa)
#
#
# Indices 1 2 3 4 5 6 
#
# 1 99.1794 42.4168 30.0268 0.0000 0.0000 0.0000
# 2 42.4168 139.1054 31.3224 0.0000 0.0000 0.0000
# 3 30.0268 31.3224 43.0157 0.0000 0.0000 0.0000
# 4 0.0000 0.0000 0.0000 25.8241 0.0000 0.0000
# 5 0.0000 0.0000 0.0000 0.0000 31.4919 0.0000
# 6 0.0000 0.0000 0.0000 0.0000 0.0000 38.4729
#
#
#
# Elastic Compliance Matrix: (Units=1/GPa)
#
#
# Indices 1 2 3 4 5 6 
#
# 1 0.013407 -0.002369 -0.007633 0.000000 0.000000 0.000000
# 2 -0.002369 0.009017 -0.004912 0.000000 0.000000 0.000000
# 3 -0.007633 -0.004912 0.032153 0.000000 0.000000 0.000000
# 4 0.000000 0.000000 0.000000 0.038724 0.000000 0.000000
# 5 0.000000 0.000000 0.000000 0.000000 0.031754 0.000000
# 6 0.000000 0.000000 0.000000 0.000000 0.000000 0.025992
#
#
# Mechanical properties :
#
#
# Convention : Reuss Voigt Hill
#
# Bulk Modulus (GPa) = 40.40872 54.31474 47.36173
# Shear Modulus (GPa) = 26.43736 30.99340 28.71538
#
# Velocity S-wave (km/s) = 3.67330 3.97724 3.82828
# Velocity P-wave (km/s) = 6.21407 6.98659 6.61162
#
# Compressibility (1/GPa) = 0.02474713
#
# Stress axis : x y z
#
# Youngs Moduli (GPa) = 74.58731 110.89737 31.10159
#
# Poissons Ratio (x) = 0.26275 0.23741
# Poissons Ratio (y) = 0.17672 0.15278
# Poissons Ratio (z) = 0.56936 0.54475
#
# Static dielectric constant tensor:
#      x y z
#    x 3.637680 0.000000 0.000000 
#    y 0.000000 3.746460 0.000000 
#    z 0.000000 0.000000 3.313010 
# 
# 
# High freq. dielectric constant tensor:
#      x y z
#    x 1.772370 0.000000 0.000000 
#    y 0.000000 1.780210 0.000000 
#    z 0.000000 0.000000 1.743500 
# 
# From -- ./inp_files/9032.got.cif
#   From: 2010.06.25/outbox.cif.g09.slc.cpg/sg58_5_cif.got.tgz:9032.got - 2010.06.26 21:38:00.
