data_PCOD8237420
_publ_section_title
;
Structure prediction by ZEFSAII (Michael W. Deem and Ramdas Pophale) SiO2 
 PCOD8237420
Probable space group: P N N M
;
_chemical_formula_sum "Si O2"
_cell_formula_units_Z 48
_cell_length_a 23.482399
_cell_length_b 11.859218
_cell_length_c 9.146730
_cell_angle_alpha 90.000000
_cell_angle_beta 90.000000
_cell_angle_gamma 90.000000
_cell_volume 2547.207794
_symmetry_space_group_name_H-M "P N N M"
_symmetry_group_IT_number 58
_symmetry_cell_setting 'orthorhombic'
loop_
_space_group_symop_operation_xyz
x,y,z
-x,-y,z
1/2+x,1/2-y,1/2-z
1/2-x,1/2+y,1/2-z
-x,-y,-z
x,y,-z
1/2-x,1/2+y,1/2+z
1/2+x,1/2-y,1/2+z
loop_
_atom_site_type_symbol
_atom_site_label
_atom_site_fract_x
_atom_site_fract_y
_atom_site_fract_z
Si Si1 0.096910 0.032613 0.830386
Si Si2 0.966743 0.779519 0.671873
Si Si3 0.144112 0.359023 0.330101
Si Si4 0.793952 0.827948 0.168988
Si Si5 0.918792 0.226567 0.172135
Si Si6 0.666788 0.888232 0.828370
O O1 0.049803 0.098600 0.736424
O O2 0.159800 0.076776 0.789860
O O3 0.094362 0.902457 0.788100
O O4 0.082245 0.052801 0.000000
O O5 0.977015 0.791033 0.500000
O O6 0.917924 0.689091 0.709970
O O7 0.023535 0.734071 0.748704
O O8 0.157235 0.348888 0.500000
O O9 0.193593 0.288080 0.252471
O O10 0.146523 0.488053 0.279153
O O11 0.732865 0.876242 0.213343
O O12 0.796817 0.797577 0.000000
O O13 0.867035 0.298522 0.233541
O O14 0.924826 0.245954 0.000000
O O15 0.655765 0.867450 0.000000
#
# Coordination Sequence:
#
# PCOD8237420 Si02
#       6
#     8   8   8   8   8   8
#     4   9  19  36  57  82 111 145 183 225 279 331
#     4  10  20  36  58  83 111 146 186 231 277 326
#     4   9  20  38  59  80 108 147 185 224 275 331
#     4   9  19  36  58  81 107 141 180 227 275 324
#     4  11  23  36  55  83 114 148 185 229 277 328
#     4  10  22  38  56  80 111 147 185 226 273 326
#
# _framework density 18.844163000000002
#
# number of rings (size 3 to 8) (size 9 to 14) (size 15 to 20)
#    0.000    2.333    0.000    1.500    2.333    6.000 
#    0.000    3.333    0.000    0.000    0.000    0.000 
#    0.000    0.000    0.000    0.000    0.000    0.000 
#
# Total GULP energy -595411.774653 kJ/mol
# GULP energy per Si atom -12404.411972 kJ/mol
# Density = 1.880127 g / cm^3
# Si number density = 18.844163 Si / 1000 Ang^3
#
#
#
# Elastic Constant Matrix: (Units=GPa)
#
#
# Indices 1 2 3 4 5 6 
#
# 1 100.2832 31.4926 39.7644 0.0000 0.0000 0.0000
# 2 31.4926 75.1122 30.0591 0.0000 0.0000 0.0000
# 3 39.7644 30.0591 58.8292 0.0000 0.0000 0.0000
# 4 0.0000 0.0000 0.0000 31.1026 0.0000 0.0000
# 5 0.0000 0.0000 0.0000 0.0000 33.8407 0.0000
# 6 0.0000 0.0000 0.0000 0.0000 0.0000 22.1275
#
#
#
# Elastic Compliance Matrix: (Units=1/GPa)
#
#
# Indices 1 2 3 4 5 6 
#
# 1 0.014022 -0.002622 -0.008138 0.000000 0.000000 0.000000
# 2 -0.002622 0.017226 -0.007029 0.000000 0.000000 0.000000
# 3 -0.008138 -0.007029 0.026091 0.000000 0.000000 0.000000
# 4 0.000000 0.000000 0.000000 0.032152 0.000000 0.000000
# 5 0.000000 0.000000 0.000000 0.000000 0.029550 0.000000
# 6 0.000000 0.000000 0.000000 0.000000 0.000000 0.045193
#
#
# Mechanical properties :
#
#
# Convention : Reuss Voigt Hill
#
# Bulk Modulus (GPa) = 45.95670 48.53964 47.24817
# Shear Modulus (GPa) = 24.14692 26.27474 25.21083
#
# Velocity S-wave (km/s) = 3.58355 3.73811 3.66164
# Velocity P-wave (km/s) = 6.44695 6.66675 6.55777
#
# Compressibility (1/GPa) = 0.02175961
#
# Stress axis : x y z
#
# Youngs Moduli (GPa) = 71.31537 58.05216 38.32778
#
# Poissons Ratio (x) = 0.15223 0.31192
# Poissons Ratio (y) = 0.18702 0.26941
# Poissons Ratio (z) = 0.58037 0.40806
#
# Static dielectric constant tensor:
#      x y z
#    x 3.587550 0.000000 0.000000 
#    y 0.000000 3.472440 0.000000 
#    z 0.000000 0.000000 3.424010 
# 
# 
# High freq. dielectric constant tensor:
#      x y z
#    x 1.740940 0.000000 0.000000 
#    y 0.000000 1.730870 0.000000 
#    z 0.000000 0.000000 1.730560 
# 
# From -- ./inp_files/4183.got.cif
#   From: 2010.06.25/outbox.cif.g09.slc.cpg/sg58_3_cif.got.tgz:4183.got - 2010.06.26 21:38:00.
