data_PCOD8237620
_publ_section_title
;
Structure prediction by ZEFSAII (Michael W. Deem and Ramdas Pophale) SiO2 
 PCOD8237620
Probable space group: P N N M
;
_chemical_formula_sum "Si O2"
_cell_formula_units_Z 40
_cell_length_a 9.861472
_cell_length_b 18.166589
_cell_length_c 8.921830
_cell_angle_alpha 90.000000
_cell_angle_beta 90.000000
_cell_angle_gamma 90.000000
_cell_volume 1598.339677
_symmetry_space_group_name_H-M "P N N M"
_symmetry_group_IT_number 58
_symmetry_cell_setting 'orthorhombic'
loop_
_space_group_symop_operation_xyz
x,y,z
-x,-y,z
1/2+x,1/2-y,1/2-z
1/2-x,1/2+y,1/2-z
-x,-y,-z
x,y,-z
1/2-x,1/2+y,1/2+z
1/2+x,1/2-y,1/2+z
loop_
_atom_site_type_symbol
_atom_site_label
_atom_site_fract_x
_atom_site_fract_y
_atom_site_fract_z
Si Si1 0.893668 0.694584 0.825013
Si Si2 0.468886 0.320328 0.167864
Si Si3 0.263231 0.418451 0.670310
Si Si4 0.273034 0.191659 0.332033
Si Si5 0.113099 0.556652 0.328550
O O1 0.878849 0.618394 0.732991
O O2 0.749871 0.736748 0.779788
O O3 0.026222 0.743743 0.772316
O O4 0.898752 0.679861 0.000000
O O5 0.390024 0.389625 0.235125
O O6 0.625006 0.346406 0.163928
O O7 0.417537 0.302155 0.000000
O O8 0.281330 0.392784 0.500000
O O9 0.251265 0.507014 0.682043
O O10 0.315324 0.216137 0.500000
O O11 0.378411 0.129082 0.275499
O O12 0.088327 0.581886 0.500000
O O13 0.000000 0.500000 0.272386
#
# Coordination Sequence:
#
# PCOD8237620 Si02
#       5
#     8   8   8   8   8
#     4  10  20  37  60  86 119 158 197 245 303 358
#     4   9  20  38  59  87 118 152 197 247 302 356
#     4  11  22  37  60  90 122 157 204 251 297 362
#     4   9  20  39  61  86 118 155 198 246 298 360
#     4  10  23  41  60  86 121 162 202 245 303 364
#
# _framework density 25.025967999999999
#
# number of rings (size 3 to 8) (size 9 to 14) (size 15 to 20)
#    1.200    1.000    0.000    3.000    0.000    4.400 
#    0.000   10.000    0.000    0.000    0.000    0.000 
#    0.000    0.000    0.000    0.000    0.000    0.000 
#
# Total GULP energy -495915.263574 kJ/mol
# GULP energy per Si atom -12397.881589 kJ/mol
# Density = 2.496901 g / cm^3
# Si number density = 25.025968 Si / 1000 Ang^3
#
#
#
# Elastic Constant Matrix: (Units=GPa)
#
#
# Indices 1 2 3 4 5 6 
#
# 1 49.7554 6.8496 4.9731 0.0000 0.0000 0.0000
# 2 6.8496 103.8331 41.0032 0.0000 0.0000 0.0000
# 3 4.9731 41.0032 167.7729 0.0000 0.0000 0.0000
# 4 0.0000 0.0000 0.0000 37.2443 0.0000 0.0000
# 5 0.0000 0.0000 0.0000 0.0000 37.3192 0.0000
# 6 0.0000 0.0000 0.0000 0.0000 0.0000 28.4655
#
#
#
# Elastic Compliance Matrix: (Units=1/GPa)
#
#
# Indices 1 2 3 4 5 6 
#
# 1 0.020296 -0.001219 -0.000304 0.000000 0.000000 0.000000
# 2 -0.001219 0.010733 -0.002587 0.000000 0.000000 0.000000
# 3 -0.000304 -0.002587 0.006602 0.000000 0.000000 0.000000
# 4 0.000000 0.000000 0.000000 0.026850 0.000000 0.000000
# 5 0.000000 0.000000 0.000000 0.000000 0.026796 0.000000
# 6 0.000000 0.000000 0.000000 0.000000 0.000000 0.035130
#
#
# Mechanical properties :
#
#
# Convention : Reuss Voigt Hill
#
# Bulk Modulus (GPa) = 34.00005 47.44593 40.72299
# Shear Modulus (GPa) = 34.61884 38.50815 36.56350
#
# Velocity S-wave (km/s) = 3.72333 3.92692 3.82648
# Velocity P-wave (km/s) = 5.66566 6.28973 5.98583
#
# Compressibility (1/GPa) = 0.02941172
#
# Stress axis : x y z
#
# Youngs Moduli (GPa) = 49.26965 93.17212 151.47649
#
# Poissons Ratio (x) = 0.11357 0.04601
# Poissons Ratio (y) = 0.06006 0.39186
# Poissons Ratio (z) = 0.01496 0.24103
#
# Static dielectric constant tensor:
#      x y z
#    x 5.162230 0.000000 0.000000 
#    y 0.000000 4.383910 0.000000 
#    z 0.000000 0.000000 4.212700 
# 
# 
# High freq. dielectric constant tensor:
#      x y z
#    x 2.051130 0.000000 0.000000 
#    y 0.000000 1.992590 0.000000 
#    z 0.000000 0.000000 1.988190 
# 
# From -- ./inp_files/3812.got.cif
#   From: 2010.06.25/outbox.cif.g09.slc.cpg/sg58_2_cif.got.tgz:3812.got - 2010.06.26 21:38:00.
