data_PCOD8237689
_publ_section_title
;
Structure prediction by ZEFSAII (Michael W. Deem and Ramdas Pophale) SiO2 
 PCOD8237689
Probable space group: P N N M
;
_chemical_formula_sum "Si O2"
_cell_formula_units_Z 64
_cell_length_a 23.818090
_cell_length_b 13.995978
_cell_length_c 8.716481
_cell_angle_alpha 90.000000
_cell_angle_beta 90.000000
_cell_angle_gamma 90.000000
_cell_volume 2905.703998
_symmetry_space_group_name_H-M "P N N M"
_symmetry_group_IT_number 58
_symmetry_cell_setting 'orthorhombic'
loop_
_space_group_symop_operation_xyz
x,y,z
-x,-y,z
1/2+x,1/2-y,1/2-z
1/2-x,1/2+y,1/2-z
-x,-y,-z
x,y,-z
1/2-x,1/2+y,1/2+z
1/2+x,1/2-y,1/2+z
loop_
_atom_site_type_symbol
_atom_site_label
_atom_site_fract_x
_atom_site_fract_y
_atom_site_fract_z
Si Si1 0.169357 0.367458 0.181082
Si Si2 0.437346 0.151071 0.679791
Si Si3 0.722826 0.327682 0.319244
Si Si4 0.330950 0.062712 0.180177
Si Si5 0.863246 0.982018 0.176918
Si Si6 0.538395 0.390609 0.831513
Si Si7 0.551440 0.165658 0.172512
Si Si8 0.415595 0.351195 0.175029
O O1 0.204072 0.275610 0.245894
O O2 0.194244 0.461034 0.264910
O O3 0.103867 0.357774 0.220211
O O4 0.176908 0.378232 0.000000
O O5 0.446206 0.143525 0.500000
O O6 0.389115 0.078475 0.732428
O O7 0.494997 0.117671 0.760382
O O8 0.418295 0.257885 0.721300
O O9 0.712578 0.326745 0.500000
O O10 0.787079 0.352579 0.277324
O O11 0.683867 0.412364 0.251147
O O12 0.341823 0.060566 0.000000
O O13 0.923122 0.929623 0.195646
O O14 0.864093 0.082431 0.268757
O O15 0.852149 0.004680 0.000000
O O16 0.539825 0.277119 0.828454
O O17 0.472302 0.416569 0.807722
O O18 0.559135 0.427064 0.000000
O O19 0.562683 0.127431 0.000000
O O20 0.405889 0.318319 0.000000
#
# Coordination Sequence:
#
# PCOD8237689 Si02
#       8
#     8   8   8   8   8   8   8   8
#     4  11  22  42  68  97 127 162 208 262 315 370
#     4  11  23  41  63  92 126 164 210 264 316 374
#     4   9  22  42  64  90 126 165 208 262 317 369
#     4  11  24  45  67  91 125 167 209 256 314 377
#     4  11  20  33  55  86 120 161 209 257 308 363
#     4   9  18  32  51  80 121 162 204 248 300 365
#     4  10  20  37  63  95 128 167 207 253 316 382
#     4  10  21  36  54  83 124 167 206 250 306 371
#
# _framework density 22.025644
#
# number of rings (size 3 to 8) (size 9 to 14) (size 15 to 20)
#    0.000    1.750    1.250    4.125    0.000    5.500 
#    0.000   10.000    0.000    0.000    0.000    0.000 
#    0.000    0.000    0.000    0.000    0.000    0.000 
#
# Total GULP energy -793668.406243 kJ/mol
# GULP energy per Si atom -12401.068848 kJ/mol
# Density = 2.197551 g / cm^3
# Si number density = 22.025644 Si / 1000 Ang^3
#
#
#
# Elastic Constant Matrix: (Units=GPa)
#
#
# Indices 1 2 3 4 5 6 
#
# 1 76.3665 39.2630 14.9713 0.0000 0.0000 0.0000
# 2 39.2630 61.7697 13.8310 0.0000 0.0000 0.0000
# 3 14.9713 13.8310 78.0504 0.0000 0.0000 0.0000
# 4 0.0000 0.0000 0.0000 33.3637 0.0000 0.0000
# 5 0.0000 0.0000 0.0000 0.0000 25.1913 0.0000
# 6 0.0000 0.0000 0.0000 0.0000 0.0000 31.8736
#
#
#
# Elastic Compliance Matrix: (Units=1/GPa)
#
#
# Indices 1 2 3 4 5 6 
#
# 1 0.019646 -0.012125 -0.001620 0.000000 0.000000 0.000000
# 2 -0.012125 0.024341 -0.001988 0.000000 0.000000 0.000000
# 3 -0.001620 -0.001988 0.013475 0.000000 0.000000 0.000000
# 4 0.000000 0.000000 0.000000 0.029973 0.000000 0.000000
# 5 0.000000 0.000000 0.000000 0.000000 0.039696 0.000000
# 6 0.000000 0.000000 0.000000 0.000000 0.000000 0.031374
#
#
# Mechanical properties :
#
#
# Convention : Reuss Voigt Hill
#
# Bulk Modulus (GPa) = 38.46511 39.14637 38.80574
# Shear Modulus (GPa) = 25.17152 27.96046 26.56599
#
# Velocity S-wave (km/s) = 3.38424 3.56680 3.47672
# Velocity P-wave (km/s) = 5.72473 5.89698 5.81149
#
# Compressibility (1/GPa) = 0.02599759
#
# Stress axis : x y z
#
# Youngs Moduli (GPa) = 50.90001 41.08219 74.21065
#
# Poissons Ratio (x) = 0.49813 0.12021
# Poissons Ratio (y) = 0.61717 0.14750
# Poissons Ratio (z) = 0.08245 0.08166
#
# Static dielectric constant tensor:
#      x y z
#    x 3.930090 0.000000 0.000000 
#    y 0.000000 4.140740 0.000000 
#    z 0.000000 0.000000 3.770140 
# 
# 
# High freq. dielectric constant tensor:
#      x y z
#    x 1.855280 0.000000 0.000000 
#    y 0.000000 1.879530 0.000000 
#    z 0.000000 0.000000 1.851570 
# 
# From -- ./inp_files/9981.got.cif
#   From: 2010.06.25/outbox.cif.g09.slc.cpg/sg58_5_cif.got.tgz:9981.got - 2010.06.26 21:38:00.
