data_PCOD8237352
_publ_section_title
;
Structure prediction by ZEFSAII (Michael W. Deem and Ramdas Pophale) SiO2 
 PCOD8237352
Probable space group: P N N M
;
_chemical_formula_sum "Si O2"
_cell_formula_units_Z 48
_cell_length_a 5.171272
_cell_length_b 22.305294
_cell_length_c 23.075879
_cell_angle_alpha 90.000000
_cell_angle_beta 90.000000
_cell_angle_gamma 90.000000
_cell_volume 2661.727469
_symmetry_space_group_name_H-M "P N N M"
_symmetry_group_IT_number 58
_symmetry_cell_setting 'orthorhombic'
loop_
_space_group_symop_operation_xyz
x,y,z
-x,-y,z
1/2+x,1/2-y,1/2-z
1/2-x,1/2+y,1/2-z
-x,-y,-z
x,y,-z
1/2-x,1/2+y,1/2+z
1/2+x,1/2-y,1/2+z
loop_
_atom_site_type_symbol
_atom_site_label
_atom_site_fract_x
_atom_site_fract_y
_atom_site_fract_z
Si Si1 0.746604 0.539755 0.598416
Si Si2 0.895767 0.242521 0.621627
Si Si3 0.249514 0.461018 0.269013
Si Si4 0.222676 0.716577 0.500000
Si Si5 0.906996 0.234763 0.181883
Si Si6 0.732394 0.636517 0.500000
Si Si7 0.776854 0.662177 0.211640
O O1 0.500000 0.500000 0.584407
O O2 0.739564 0.562925 0.664878
O O3 0.721997 0.597344 0.558035
O O4 0.000000 0.500000 0.585158
O O5 0.832625 0.239459 0.553916
O O6 0.673423 0.284953 0.650180
O O7 0.876854 0.176286 0.651304
O O8 0.175325 0.270612 0.635447
O O9 0.500000 0.500000 0.253363
O O10 0.211001 0.408022 0.222737
O O11 0.000000 0.500000 0.260000
O O12 0.508279 0.687138 0.500000
O O13 0.016414 0.663881 0.500000
O O14 0.879444 0.191418 0.235702
O O15 0.943812 0.303778 0.206111
#
# Coordination Sequence:
#
# PCOD8237352 Si02
#       7
#     8   8   8   4   8   4   8
#     4  10  21  39  53  74 107 150 202 239 275 320
#     4  10  22  37  53  85 113 149 179 237 287 346
#     4  10  24  36  55  86 117 149 188 244 289 342
#     4  12  26  37  54  88 120 138 201 234 292 345
#     4  10  20  35  60  86 108 149 190 231 290 355
#     4  12  24  37  58  76 106 163 191 245 274 337
#     4  10  21  36  62  82 117 146 190 235 299 353
#
# _framework density 18.033401999999999
#
# number of rings (size 3 to 8) (size 9 to 14) (size 15 to 20)
#    1.000    0.667    1.667    2.500    7.000    0.000 
#    0.000    0.000    0.000    0.000    0.000    1.167 
#    0.000    0.000    0.000    0.000    0.000    0.000 
#
# Total GULP energy -594717.131479 kJ/mol
# GULP energy per Si atom -12389.940239 kJ/mol
# Density = 1.799236 g / cm^3
# Si number density = 18.033402 Si / 1000 Ang^3
#
#
#
# Elastic Constant Matrix: (Units=GPa)
#
#
# Indices 1 2 3 4 5 6 
#
# 1 116.6447 12.3796 17.6399 0.0000 0.0000 0.0000
# 2 12.3796 61.6508 34.1696 0.0000 0.0000 0.0000
# 3 17.6399 34.1696 98.6587 0.0000 0.0000 0.0000
# 4 0.0000 0.0000 0.0000 16.7508 0.0000 0.0000
# 5 0.0000 0.0000 0.0000 0.0000 21.6554 0.0000
# 6 0.0000 0.0000 0.0000 0.0000 0.0000 17.4771
#
#
#
# Elastic Compliance Matrix: (Units=1/GPa)
#
#
# Indices 1 2 3 4 5 6 
#
# 1 0.008873 -0.001117 -0.001200 0.000000 0.000000 0.000000
# 2 -0.001117 0.020214 -0.006801 0.000000 0.000000 0.000000
# 3 -0.001200 -0.006801 0.012706 0.000000 0.000000 0.000000
# 4 0.000000 0.000000 0.000000 0.059699 0.000000 0.000000
# 5 0.000000 0.000000 0.000000 0.000000 0.046178 0.000000
# 6 0.000000 0.000000 0.000000 0.000000 0.000000 0.057218
#
#
# Mechanical properties :
#
#
# Convention : Reuss Voigt Hill
#
# Bulk Modulus (GPa) = 42.44908 45.03692 43.74300
# Shear Modulus (GPa) = 21.64731 25.36100 23.50415
#
# Velocity S-wave (km/s) = 3.46844 3.75418 3.61414
# Velocity P-wave (km/s) = 6.29526 6.61968 6.45951
#
# Compressibility (1/GPa) = 0.02355764
#
# Stress axis : x y z
#
# Youngs Moduli (GPa) = 112.70150 49.47006 78.70276
#
# Poissons Ratio (x) = 0.05525 0.09442
# Poissons Ratio (y) = 0.12587 0.53528
# Poissons Ratio (z) = 0.13520 0.33646
#
# Static dielectric constant tensor:
#      x y z
#    x 3.544280 0.000000 0.000000 
#    y 0.000000 2.999760 0.000000 
#    z 0.000000 0.000000 3.450800 
# 
# 
# High freq. dielectric constant tensor:
#      x y z
#    x 1.720160 0.000000 0.000000 
#    y 0.000000 1.657790 0.000000 
#    z 0.000000 0.000000 1.690300 
# 
# From -- ./inp_files/31020.got.cif
#   From: 2010.06.25/outbox.cif.g09.slc.cpg/sg58_16_cif.got.tgz:31020.got - 2010.06.26 21:38:00.
