data_PCOD8237751
_publ_section_title
;
Structure prediction by ZEFSAII (Michael W. Deem and Ramdas Pophale) SiO2 
 PCOD8237751
Probable space group: P N N M
;
_chemical_formula_sum "Si O2"
_cell_formula_units_Z 48
_cell_length_a 9.010839
_cell_length_b 30.276798
_cell_length_c 8.650809
_cell_angle_alpha 90.000000
_cell_angle_beta 90.000000
_cell_angle_gamma 90.000000
_cell_volume 2360.108108
_symmetry_space_group_name_H-M "P N N M"
_symmetry_group_IT_number 58
_symmetry_cell_setting 'orthorhombic'
loop_
_space_group_symop_operation_xyz
x,y,z
-x,-y,z
1/2+x,1/2-y,1/2-z
1/2-x,1/2+y,1/2-z
-x,-y,-z
x,y,-z
1/2-x,1/2+y,1/2+z
1/2+x,1/2-y,1/2+z
loop_
_atom_site_type_symbol
_atom_site_label
_atom_site_fract_x
_atom_site_fract_y
_atom_site_fract_z
Si Si1 0.161814 0.782246 0.320644
Si Si2 0.838347 0.379754 0.320678
Si Si3 0.177069 0.200879 0.679418
Si Si4 0.143715 0.950075 0.181184
Si Si5 0.328364 0.542599 0.818513
Si Si6 0.324008 0.863533 0.179683
O O1 0.180537 0.769825 0.500000
O O2 0.221860 0.742764 0.216548
O O3 0.250006 0.826792 0.285815
O O4 0.991038 0.788317 0.275647
O O5 0.823725 0.391414 0.500000
O O6 0.725162 0.340939 0.279534
O O7 0.801940 0.423771 0.225158
O O8 0.003267 0.364434 0.277949
O O9 0.193191 0.188717 0.500000
O O10 0.253933 0.910535 0.222729
O O11 0.982683 0.939362 0.250195
O O12 0.212178 0.994551 0.252417
O O13 0.126094 0.956863 0.000000
O O14 0.345339 0.538837 0.000000
O O15 0.298463 0.851803 0.000000
#
# Coordination Sequence:
#
# PCOD8237751 Si02
#       6
#     8   8   8   8   8   8
#     4  11  24  40  61  88 118 152 190 235 286 341
#     4  11  23  40  60  85 117 153 194 238 287 342
#     4  11  24  41  61  88 119 151 192 238 285 341
#     4  10  20  38  62  86 114 153 196 240 292 344
#     4  11  22  37  58  87 119 152 193 240 289 344
#     4  10  23  40  60  86 116 151 194 241 286 340
#
# _framework density 20.338049999999999
#
# number of rings (size 3 to 8) (size 9 to 14) (size 15 to 20)
#    0.000    1.333    0.000    6.500    0.000   12.667 
#    0.000    3.333    0.000    0.000    0.000    0.000 
#    0.000    0.000    0.000    0.000    0.000    0.000 
#
# Total GULP energy -595565.766417 kJ/mol
# GULP energy per Si atom -12407.620134 kJ/mol
# Density = 2.029176 g / cm^3
# Si number density = 20.338050 Si / 1000 Ang^3
#
#
#
# Elastic Constant Matrix: (Units=GPa)
#
#
# Indices 1 2 3 4 5 6 
#
# 1 33.3085 6.8908 7.3563 0.0000 0.0000 0.0000
# 2 6.8908 84.2681 18.0409 0.0000 0.0000 0.0000
# 3 7.3563 18.0409 74.3250 0.0000 0.0000 0.0000
# 4 0.0000 0.0000 0.0000 32.6867 0.0000 0.0000
# 5 0.0000 0.0000 0.0000 0.0000 20.2678 0.0000
# 6 0.0000 0.0000 0.0000 0.0000 0.0000 38.8586
#
#
#
# Elastic Compliance Matrix: (Units=1/GPa)
#
#
# Indices 1 2 3 4 5 6 
#
# 1 0.031004 -0.001981 -0.002588 0.000000 0.000000 0.000000
# 2 -0.001981 0.012644 -0.002873 0.000000 0.000000 0.000000
# 3 -0.002588 -0.002873 0.014408 0.000000 0.000000 0.000000
# 4 0.000000 0.000000 0.000000 0.030594 0.000000 0.000000
# 5 0.000000 0.000000 0.000000 0.000000 0.049339 0.000000
# 6 0.000000 0.000000 0.000000 0.000000 0.000000 0.025734
#
#
# Mechanical properties :
#
#
# Convention : Reuss Voigt Hill
#
# Bulk Modulus (GPa) = 23.16329 28.49752 25.83040
# Shear Modulus (GPa) = 25.90712 29.00353 27.45532
#
# Velocity S-wave (km/s) = 3.57294 3.78043 3.67815
# Velocity P-wave (km/s) = 5.33245 5.75308 5.54676
#
# Compressibility (1/GPa) = 0.04317177
#
# Stress axis : x y z
#
# Youngs Moduli (GPa) = 32.25417 79.08903 69.40638
#
# Poissons Ratio (x) = 0.15669 0.17960
# Poissons Ratio (y) = 0.06390 0.19940
# Poissons Ratio (z) = 0.08346 0.22722
#
# Static dielectric constant tensor:
#      x y z
#    x 3.771180 0.000000 0.000000 
#    y 0.000000 3.852590 0.000000 
#    z 0.000000 0.000000 3.703380 
# 
# 
# High freq. dielectric constant tensor:
#      x y z
#    x 1.799060 0.000000 0.000000 
#    y 0.000000 1.808290 0.000000 
#    z 0.000000 0.000000 1.803180 
# 
# From -- ./inp_files/2846.got.cif
#   From: 2010.06.25/outbox.cif.g09.slc.cpg/sg58_2_cif.got.tgz:2846.got - 2010.06.26 21:38:00.
