data_PCOD8237106
_publ_section_title
;
Structure prediction by ZEFSAII (Michael W. Deem and Ramdas Pophale) SiO2 
 PCOD8237106
Probable space group: P N N M
;
_chemical_formula_sum "Si O2"
_cell_formula_units_Z 32
_cell_length_a 9.443930
_cell_length_b 12.828906
_cell_length_c 12.663997
_cell_angle_alpha 90.000000
_cell_angle_beta 90.000000
_cell_angle_gamma 90.000000
_cell_volume 1534.310232
_symmetry_space_group_name_H-M "P N N M"
_symmetry_group_IT_number 58
_symmetry_cell_setting 'orthorhombic'
loop_
_space_group_symop_operation_xyz
x,y,z
-x,-y,z
1/2+x,1/2-y,1/2-z
1/2-x,1/2+y,1/2-z
-x,-y,-z
x,y,-z
1/2-x,1/2+y,1/2+z
1/2+x,1/2-y,1/2+z
loop_
_atom_site_type_symbol
_atom_site_label
_atom_site_fract_x
_atom_site_fract_y
_atom_site_fract_z
Si Si1 0.715876 0.801744 0.878068
Si Si2 0.598170 0.242865 0.191282
Si Si3 0.151383 0.037185 0.381734
Si Si4 0.840327 0.519834 0.698817
O O1 0.572566 0.759807 0.821253
O O2 0.852758 0.759091 0.813943
O O3 0.719072 0.928826 0.876961
O O4 0.722199 0.764804 0.000000
O O5 0.663260 0.337509 0.124369
O O6 0.666710 0.135140 0.146183
O O7 0.178919 0.999064 0.500000
O O8 0.262293 0.977501 0.310336
O O9 0.000000 0.000000 0.340093
O O10 0.000000 0.500000 0.730915
#
# Coordination Sequence:
#
# PCOD8237106 Si02
#       4
#     8   8   8   8
#     4  10  21  38  59  82 112 149 186 230 281 329
#     4  10  20  36  58  84 113 147 188 230 275 332
#     4  10  20  34  55  81 109 144 183 226 278 329
#     4   9  20  35  53  79 109 141 184 229 270 328
#
# _framework density 20.856275
#
# number of rings (size 3 to 8) (size 9 to 14) (size 15 to 20)
#    0.000    2.250    0.000    2.250    0.000    9.000 
#    0.000   11.250    0.000   25.500    0.000    0.000 
#    0.000    0.000    0.000    0.000    0.000    0.000 
#
# Total GULP energy -396575.719571 kJ/mol
# GULP energy per Si atom -12392.991237 kJ/mol
# Density = 2.080881 g / cm^3
# Si number density = 20.856275 Si / 1000 Ang^3
#
#
#
# Elastic Constant Matrix: (Units=GPa)
#
#
# Indices 1 2 3 4 5 6 
#
# 1 62.2466 14.3564 52.7209 0.0000 0.0000 0.0000
# 2 14.3564 91.3084 2.7444 0.0000 0.0000 0.0000
# 3 52.7209 2.7444 103.5848 0.0000 0.0000 0.0000
# 4 0.0000 0.0000 0.0000 2.3640 0.0000 0.0000
# 5 0.0000 0.0000 0.0000 0.0000 23.0613 0.0000
# 6 0.0000 0.0000 0.0000 0.0000 0.0000 26.6931
#
#
#
# Elastic Compliance Matrix: (Units=1/GPa)
#
#
# Indices 1 2 3 4 5 6 
#
# 1 0.029786 -0.004231 -0.015048 0.000000 0.000000 0.000000
# 2 -0.004231 0.011562 0.001847 0.000000 0.000000 0.000000
# 3 -0.015048 0.001847 0.017264 0.000000 0.000000 0.000000
# 4 0.000000 0.000000 0.000000 0.423019 0.000000 0.000000
# 5 0.000000 0.000000 0.000000 0.000000 0.043363 0.000000
# 6 0.000000 0.000000 0.000000 0.000000 0.000000 0.037463
#
#
# Mechanical properties :
#
#
# Convention : Reuss Voigt Hill
#
# Bulk Modulus (GPa) = 42.10899 44.08704 43.09801
# Shear Modulus (GPa) = 8.26124 22.91155 15.58639
#
# Velocity S-wave (km/s) = 1.99239 3.31803 2.73669
# Velocity P-wave (km/s) = 5.05240 5.98861 5.54032
#
# Compressibility (1/GPa) = 0.02374790
#
# Stress axis : x y z
#
# Youngs Moduli (GPa) = 33.57265 86.49308 57.92446
#
# Poissons Ratio (x) = 0.36595 0.87165
# Poissons Ratio (y) = 0.14205 -0.10699
# Poissons Ratio (z) = 0.50520 -0.15976
#
# Static dielectric constant tensor:
#      x y z
#    x 3.692310 0.000000 0.000000 
#    y 0.000000 4.369550 0.000000 
#    z 0.000000 0.000000 3.450870 
# 
# 
# High freq. dielectric constant tensor:
#      x y z
#    x 1.800170 0.000000 0.000000 
#    y 0.000000 1.844880 0.000000 
#    z 0.000000 0.000000 1.787590 
# 
# From -- ./inp_files/12349.got.cif
#   From: 2010.06.25/outbox.cif.g09.slc.cpg/sg58_7_cif.got.tgz:12349.got - 2010.06.26 21:38:00.
