data_PCOD8237931
_publ_section_title
;
Structure prediction by ZEFSAII (Michael W. Deem and Ramdas Pophale) SiO2 
 PCOD8237931
Probable space group: P N N M
;
_chemical_formula_sum "Si O2"
_cell_formula_units_Z 32
_cell_length_a 16.445606
_cell_length_b 5.113481
_cell_length_c 18.963847
_cell_angle_alpha 90.000000
_cell_angle_beta 90.000000
_cell_angle_gamma 90.000000
_cell_volume 1594.751321
_symmetry_space_group_name_H-M "P N N M"
_symmetry_group_IT_number 58
_symmetry_cell_setting 'orthorhombic'
loop_
_space_group_symop_operation_xyz
x,y,z
-x,-y,z
1/2+x,1/2-y,1/2-z
1/2-x,1/2+y,1/2-z
-x,-y,-z
x,y,-z
1/2-x,1/2+y,1/2+z
1/2+x,1/2-y,1/2+z
loop_
_atom_site_type_symbol
_atom_site_label
_atom_site_fract_x
_atom_site_fract_y
_atom_site_fract_z
Si Si1 0.000000 0.000000 0.186062
Si Si2 0.000000 0.500000 0.280340
Si Si3 0.230162 0.501189 0.842679
Si Si4 0.579879 0.824279 0.420175
Si Si5 0.325296 0.003080 0.183283
O O1 0.976110 0.752589 0.233461
O O2 0.075120 0.921431 0.134235
O O3 0.921597 0.450526 0.329430
O O4 0.161344 0.516590 0.902684
O O5 0.276725 0.231751 0.855708
O O6 0.187730 0.518058 0.766960
O O7 0.296063 0.732081 0.850201
O O8 0.583704 0.719005 0.500000
O O9 0.500000 0.000000 0.408312
#
# Coordination Sequence:
#
# PCOD8237931 Si02
#       5
#     4   4   8   8   8
#     4  12  21  36  56  84 118 152 195 232 272 346
#     4  12  22  36  63  86 113 156 190 236 302 344
#     4  10  21  36  53  81 114 146 188 234 282 333
#     4  11  24  39  58  84 119 163 197 226 275 348
#     4  10  21  35  56  81 111 145 188 237 288 340
#
# _framework density 20.065826000000001
#
# number of rings (size 3 to 8) (size 9 to 14) (size 15 to 20)
#    0.000    1.250    3.750    1.875   10.500    0.000 
#    0.000    0.000    0.000    0.000    0.000    5.250 
#    0.000    0.000    0.000    0.000    0.000    0.000 
#
# Total GULP energy -396833.060508 kJ/mol
# GULP energy per Si atom -12401.033141 kJ/mol
# Density = 2.002016 g / cm^3
# Si number density = 20.065826 Si / 1000 Ang^3
#
#
#
# Elastic Constant Matrix: (Units=GPa)
#
#
# Indices 1 2 3 4 5 6 
#
# 1 135.2681 16.2003 21.3372 0.0000 0.0000 0.0000
# 2 16.2003 89.9735 7.7482 0.0000 0.0000 0.0000
# 3 21.3372 7.7482 37.1226 0.0000 0.0000 0.0000
# 4 0.0000 0.0000 0.0000 10.0539 0.0000 0.0000
# 5 0.0000 0.0000 0.0000 0.0000 17.4550 0.0000
# 6 0.0000 0.0000 0.0000 0.0000 0.0000 31.5375
#
#
#
# Elastic Compliance Matrix: (Units=1/GPa)
#
#
# Indices 1 2 3 4 5 6 
#
# 1 0.008234 -0.001095 -0.004504 0.000000 0.000000 0.000000
# 2 -0.001095 0.011463 -0.001763 0.000000 0.000000 0.000000
# 3 -0.004504 -0.001763 0.029895 0.000000 0.000000 0.000000
# 4 0.000000 0.000000 0.000000 0.099464 0.000000 0.000000
# 5 0.000000 0.000000 0.000000 0.000000 0.057290 0.000000
# 6 0.000000 0.000000 0.000000 0.000000 0.000000 0.031708
#
#
# Mechanical properties :
#
#
# Convention : Reuss Voigt Hill
#
# Bulk Modulus (GPa) = 28.68001 39.21504 33.94752
# Shear Modulus (GPa) = 18.91054 26.28118 22.59586
#
# Velocity S-wave (km/s) = 3.07322 3.62297 3.35936
# Velocity P-wave (km/s) = 5.18815 6.08990 5.65702
#
# Compressibility (1/GPa) = 0.03486750
#
# Stress axis : x y z
#
# Youngs Moduli (GPa) = 121.44222 87.23446 33.45053
#
# Poissons Ratio (x) = 0.09550 0.15068
# Poissons Ratio (y) = 0.13295 0.05899
# Poissons Ratio (z) = 0.54703 0.15383
#
# Static dielectric constant tensor:
#      x y z
#    x 3.684890 0.000000 0.000000 
#    y 0.000000 3.866800 0.000000 
#    z 0.000000 0.000000 3.147690 
# 
# 
# High freq. dielectric constant tensor:
#      x y z
#    x 1.786300 0.000000 0.000000 
#    y 0.000000 1.798870 0.000000 
#    z 0.000000 0.000000 1.718700 
# 
# From -- ./inp_files/26584.got.cif
#   From: 2010.06.25/outbox.cif.g09.slc.cpg/sg58_14_cif.got.tgz:26584.got - 2010.06.26 21:38:00.
