data_PCOD8237583
_publ_section_title
;
Structure prediction by ZEFSAII (Michael W. Deem and Ramdas Pophale) SiO2 
 PCOD8237583
Probable space group: P N N M
;
_chemical_formula_sum "Si O2"
_cell_formula_units_Z 64
_cell_length_a 18.416552
_cell_length_b 19.641725
_cell_length_c 8.891858
_cell_angle_alpha 90.000000
_cell_angle_beta 90.000000
_cell_angle_gamma 90.000000
_cell_volume 3216.477135
_symmetry_space_group_name_H-M "P N N M"
_symmetry_group_IT_number 58
_symmetry_cell_setting 'orthorhombic'
loop_
_space_group_symop_operation_xyz
x,y,z
-x,-y,z
1/2+x,1/2-y,1/2-z
1/2-x,1/2+y,1/2-z
-x,-y,-z
x,y,-z
1/2-x,1/2+y,1/2+z
1/2+x,1/2-y,1/2+z
loop_
_atom_site_type_symbol
_atom_site_label
_atom_site_fract_x
_atom_site_fract_y
_atom_site_fract_z
Si Si1 0.522413 0.299250 0.674978
Si Si2 0.249426 0.371157 0.822798
Si Si3 0.944861 0.938982 0.325021
Si Si4 0.396140 0.819293 0.178268
Si Si5 0.838301 0.378463 0.826045
Si Si6 0.857549 0.225025 0.171913
Si Si7 0.984456 0.424993 0.321873
Si Si8 0.213353 0.021138 0.677893
O O1 0.540942 0.295460 0.500000
O O2 0.525898 0.376218 0.730110
O O3 0.581517 0.254881 0.763360
O O4 0.442631 0.269917 0.709711
O O5 0.182657 0.337244 0.738503
O O6 0.321440 0.328637 0.784175
O O7 0.260218 0.447900 0.761508
O O8 0.235676 0.369651 0.000000
O O9 0.940692 0.918526 0.500000
O O10 0.866376 0.960974 0.260199
O O11 0.000000 0.000000 0.297940
O O12 0.453349 0.874813 0.240272
O O13 0.393323 0.817534 0.000000
O O14 0.821819 0.298924 0.801172
O O15 0.768932 0.420683 0.767723
O O16 0.906558 0.400646 0.729954
O O17 0.854953 0.394240 0.000000
O O18 0.845616 0.201139 0.000000
O O19 0.985691 0.425425 0.500000
O O20 0.000000 0.500000 0.256535
O O21 0.209009 0.017430 0.500000
#
# Coordination Sequence:
#
# PCOD8237583 Si02
#       8
#     8   8   8   8   8   8   8   8
#     4  11  23  40  61  90 123 156 206 258 304 361
#     4  11  23  39  62  90 121 154 200 253 299 358
#     4  10  21  39  64  91 121 161 207 253 311 375
#     4  11  23  39  60  87 122 163 200 243 304 366
#     4  10  20  37  59  83 115 157 201 243 293 355
#     4  10  22  39  60  86 120 160 200 248 305 363
#     4  10  21  37  58  86 119 153 193 241 294 353
#     4   9  20  38  60  88 119 156 201 248 299 365
#
# _framework density 19.897545999999998
#
# number of rings (size 3 to 8) (size 9 to 14) (size 15 to 20)
#    0.000    1.750    1.250    2.625    1.750    3.500 
#    0.000    2.500    0.000    0.000    0.000    0.000 
#    0.000    0.000    0.000    0.000    0.000    0.000 
#
# Total GULP energy -793929.044520 kJ/mol
# GULP energy per Si atom -12405.141321 kJ/mol
# Density = 1.985226 g / cm^3
# Si number density = 19.897546 Si / 1000 Ang^3
#
#
#
# Elastic Constant Matrix: (Units=GPa)
#
#
# Indices 1 2 3 4 5 6 
#
# 1 100.3717 39.5228 29.9885 0.0000 0.0000 0.0000
# 2 39.5228 121.1425 34.2252 0.0000 0.0000 0.0000
# 3 29.9885 34.2252 48.5743 0.0000 0.0000 0.0000
# 4 0.0000 0.0000 0.0000 27.8284 0.0000 0.0000
# 5 0.0000 0.0000 0.0000 0.0000 32.8006 0.0000
# 6 0.0000 0.0000 0.0000 0.0000 0.0000 39.9620
#
#
#
# Elastic Compliance Matrix: (Units=1/GPa)
#
#
# Indices 1 2 3 4 5 6 
#
# 1 0.012760 -0.002419 -0.006173 0.000000 0.000000 0.000000
# 2 -0.002419 0.010765 -0.006092 0.000000 0.000000 0.000000
# 3 -0.006173 -0.006092 0.028690 0.000000 0.000000 0.000000
# 4 0.000000 0.000000 0.000000 0.035934 0.000000 0.000000
# 5 0.000000 0.000000 0.000000 0.000000 0.030487 0.000000
# 6 0.000000 0.000000 0.000000 0.000000 0.000000 0.025024
#
#
# Mechanical properties :
#
#
# Convention : Reuss Voigt Hill
#
# Bulk Modulus (GPa) = 43.76810 53.06238 48.41524
# Shear Modulus (GPa) = 27.67876 31.20832 29.44354
#
# Velocity S-wave (km/s) = 3.73374 3.96466 3.85093
# Velocity P-wave (km/s) = 6.37434 6.90534 6.64515
#
# Compressibility (1/GPa) = 0.02284769
#
# Stress axis : x y z
#
# Youngs Moduli (GPa) = 78.37086 92.89469 34.85488
#
# Poissons Ratio (x) = 0.22470 0.21517
# Poissons Ratio (y) = 0.18956 0.21232
# Poissons Ratio (z) = 0.48381 0.56588
#
# Static dielectric constant tensor:
#      x y z
#    x 3.708090 0.000000 0.000000 
#    y 0.000000 3.867400 0.000000 
#    z 0.000000 0.000000 3.400980 
# 
# 
# High freq. dielectric constant tensor:
#      x y z
#    x 1.785850 0.000000 0.000000 
#    y 0.000000 1.791450 0.000000 
#    z 0.000000 0.000000 1.758450 
# 
# From -- ./inp_files/8257.got.cif
#   From: 2010.06.25/outbox.cif.g09.slc.cpg/sg58_5_cif.got.tgz:8257.got - 2010.06.26 21:38:00.
