data_PCOD8237213
_publ_section_title
;
Structure prediction by ZEFSAII (Michael W. Deem and Ramdas Pophale) SiO2 
 PCOD8237213
Probable space group: P N N M
;
_chemical_formula_sum "Si O2"
_cell_formula_units_Z 64
_cell_length_a 19.309171
_cell_length_b 19.821579
_cell_length_c 8.993316
_cell_angle_alpha 90.000000
_cell_angle_beta 90.000000
_cell_angle_gamma 90.000000
_cell_volume 3442.086103
_symmetry_space_group_name_H-M "P N N M"
_symmetry_group_IT_number 58
_symmetry_cell_setting 'orthorhombic'
loop_
_space_group_symop_operation_xyz
x,y,z
-x,-y,z
1/2+x,1/2-y,1/2-z
1/2-x,1/2+y,1/2-z
-x,-y,-z
x,y,-z
1/2-x,1/2+y,1/2+z
1/2+x,1/2-y,1/2+z
loop_
_atom_site_type_symbol
_atom_site_label
_atom_site_fract_x
_atom_site_fract_y
_atom_site_fract_z
Si Si1 0.206666 0.007421 0.826204
Si Si2 0.461445 0.931782 0.675248
Si Si3 0.062099 0.670432 0.676577
Si Si4 0.599840 0.684393 0.175616
Si Si5 0.822741 0.600175 0.327054
Si Si6 0.247677 0.284360 0.824953
Si Si7 0.714929 0.862244 0.824881
Si Si8 0.068632 0.962659 0.323421
O O1 0.253984 0.942736 0.794877
O O2 0.134529 0.000633 0.742293
O O3 0.245404 0.073195 0.758825
O O4 0.191521 0.016505 0.000000
O O5 0.455864 0.923545 0.500000
O O6 0.500873 0.867515 0.740804
O O7 0.385475 0.936252 0.744350
O O8 0.500000 0.000000 0.722112
O O9 0.053983 0.661300 0.500000
O O10 0.056406 0.749508 0.724093
O O11 0.136069 0.641955 0.734775
O O12 0.678303 0.689142 0.234747
O O13 0.565241 0.615110 0.233764
O O14 0.604740 0.684590 0.000000
O O15 0.840670 0.604389 0.500000
O O16 0.811764 0.675352 0.262759
O O17 0.241887 0.205150 0.784744
O O18 0.238160 0.296884 0.000000
O O19 0.708641 0.869549 0.000000
O O20 0.074320 0.965693 0.500000
O O21 0.000000 0.000000 0.265400
#
# Coordination Sequence:
#
# PCOD8237213 Si02
#       8
#     8   8   8   8   8   8   8   8
#     4  10  20  35  55  81 110 137 176 225 272 321
#     4  11  24  39  54  78 112 147 183 226 275 326
#     4   9  17  34  59  81 106 146 189 225 264 320
#     4   8  15  31  56  80 104 142 183 217 261 320
#     4  11  22  35  56  83 109 142 182 228 272 322
#     4   9  16  32  57  78 103 140 179 218 264 321
#     4   8  16  32  56  82 107 141 180 218 268 324
#     4  10  20  35  55  79 108 143 181 220 269 328
#
# _framework density 18.593375000000002
#
# number of rings (size 3 to 8) (size 9 to 14) (size 15 to 20)
#    0.000    2.500    1.250    3.000    0.000    2.750 
#    2.250    4.375    0.000    0.000    0.000    0.000 
#    0.000    0.000    0.000    0.000    0.000    0.000 
#
# Total GULP energy -793489.799632 kJ/mol
# GULP energy per Si atom -12398.278119 kJ/mol
# Density = 1.855106 g / cm^3
# Si number density = 18.593375 Si / 1000 Ang^3
#
#
#
# Elastic Constant Matrix: (Units=GPa)
#
#
# Indices 1 2 3 4 5 6 
#
# 1 87.7550 36.4058 26.9396 0.0000 0.0000 0.0000
# 2 36.4058 111.9392 25.3495 0.0000 0.0000 0.0000
# 3 26.9396 25.3495 41.1260 0.0000 0.0000 0.0000
# 4 0.0000 0.0000 0.0000 20.3096 0.0000 0.0000
# 5 0.0000 0.0000 0.0000 0.0000 26.7940 0.0000
# 6 0.0000 0.0000 0.0000 0.0000 0.0000 33.7266
#
#
#
# Elastic Compliance Matrix: (Units=1/GPa)
#
#
# Indices 1 2 3 4 5 6 
#
# 1 0.015143 -0.003113 -0.008000 0.000000 0.000000 0.000000
# 2 -0.003113 0.011023 -0.004755 0.000000 0.000000 0.000000
# 3 -0.008000 -0.004755 0.032487 0.000000 0.000000 0.000000
# 4 0.000000 0.000000 0.000000 0.049238 0.000000 0.000000
# 5 0.000000 0.000000 0.000000 0.000000 0.037322 0.000000
# 6 0.000000 0.000000 0.000000 0.000000 0.000000 0.029650
#
#
# Mechanical properties :
#
#
# Convention : Reuss Voigt Hill
#
# Bulk Modulus (GPa) = 37.15325 46.46778 41.81052
# Shear Modulus (GPa) = 23.19417 26.30775 24.75096
#
# Velocity S-wave (km/s) = 3.53575 3.76559 3.65248
# Velocity P-wave (km/s) = 6.05756 6.62964 6.35005
#
# Compressibility (1/GPa) = 0.02691555
#
# Stress axis : x y z
#
# Youngs Moduli (GPa) = 66.03756 90.72182 30.78143
#
# Poissons Ratio (x) = 0.28243 0.24627
# Poissons Ratio (y) = 0.20558 0.14637
# Poissons Ratio (z) = 0.52833 0.43138
#
# Static dielectric constant tensor:
#      x y z
#    x 3.323010 0.000000 0.000000 
#    y 0.000000 3.828640 0.000000 
#    z 0.000000 0.000000 3.083190 
# 
# 
# High freq. dielectric constant tensor:
#      x y z
#    x 1.710920 0.000000 0.000000 
#    y 0.000000 1.736460 0.000000 
#    z 0.000000 0.000000 1.692000 
# 
# From -- ./inp_files/8406.got.cif
#   From: 2010.06.25/outbox.cif.g09.slc.cpg/sg58_5_cif.got.tgz:8406.got - 2010.06.26 21:38:00.
