data_PCOD8237057
_publ_section_title
;
Structure prediction by ZEFSAII (Michael W. Deem and Ramdas Pophale) SiO2 
 PCOD8237057
Probable space group: P N N M
;
_chemical_formula_sum "Si O2"
_cell_formula_units_Z 64
_cell_length_a 10.829387
_cell_length_b 35.050393
_cell_length_c 8.933618
_cell_angle_alpha 90.000000
_cell_angle_beta 90.000000
_cell_angle_gamma 90.000000
_cell_volume 3390.971533
_symmetry_space_group_name_H-M "P N N M"
_symmetry_group_IT_number 58
_symmetry_cell_setting 'orthorhombic'
loop_
_space_group_symop_operation_xyz
x,y,z
-x,-y,z
1/2+x,1/2-y,1/2-z
1/2-x,1/2+y,1/2-z
-x,-y,-z
x,y,-z
1/2-x,1/2+y,1/2+z
1/2+x,1/2-y,1/2+z
loop_
_atom_site_type_symbol
_atom_site_label
_atom_site_fract_x
_atom_site_fract_y
_atom_site_fract_z
Si Si1 0.846823 0.149373 0.830267
Si Si2 0.858505 0.008389 0.834300
Si Si3 0.629946 0.357030 0.329331
Si Si4 0.236894 0.567878 0.323173
Si Si5 0.366200 0.271539 0.177051
Si Si6 0.149020 0.222195 0.323134
Si Si7 0.008731 0.542743 0.831220
Si Si8 0.257849 0.421896 0.831500
O O1 0.829856 0.186313 0.728327
O O2 0.760507 0.116179 0.767029
O O3 0.985549 0.133914 0.824212
O O4 0.807252 0.159324 0.000000
O O5 0.845921 0.045352 0.731861
O O6 0.795022 0.971324 0.758448
O O7 0.801670 0.016454 0.000000
O O8 0.000000 0.000000 0.852387
O O9 0.671936 0.348168 0.500000
O O10 0.696544 0.394266 0.260988
O O11 0.664110 0.321495 0.225529
O O12 0.250675 0.567983 0.500000
O O13 0.095836 0.568869 0.271044
O O14 0.264046 0.244058 0.249322
O O15 0.510377 0.262730 0.225068
O O16 0.353908 0.268450 0.000000
O O17 0.163127 0.225439 0.500000
O O18 0.000000 0.500000 0.764055
O O19 0.879284 0.563001 0.826066
O O20 0.061415 0.540638 0.000000
O O21 0.300458 0.412404 0.000000
#
# Coordination Sequence:
#
# PCOD8237057 Si02
#       8
#     8   8   8   8   8   8   8   8
#     4  10  20  37  61  85 114 148 184 229 283 336
#     4  10  20  34  53  78 107 138 177 226 278 332
#     4   9  19  37  59  84 114 147 181 229 285 332
#     4  10  20  34  55  80 105 139 185 228 273 330
#     4  10  21  39  63  91 123 155 193 238 284 344
#     4  10  21  38  62  92 121 155 196 234 283 345
#     4  10  21  38  54  71 105 148 186 229 280 330
#     4  11  22  36  54  77 107 144 187 230 278 332
#
# _framework density 18.873647999999999
#
# number of rings (size 3 to 8) (size 9 to 14) (size 15 to 20)
#    0.000    2.000    1.250    2.250    0.000    6.000 
#    2.250    1.250    0.000    0.000    0.000    0.000 
#    0.000    0.000    0.000    0.000    0.000    0.000 
#
# Total GULP energy -793508.199882 kJ/mol
# GULP energy per Si atom -12398.565623 kJ/mol
# Density = 1.883069 g / cm^3
# Si number density = 18.873648 Si / 1000 Ang^3
#
#
#
# Elastic Constant Matrix: (Units=GPa)
#
#
# Indices 1 2 3 4 5 6 
#
# 1 71.3455 40.7212 32.6301 0.0000 0.0000 0.0000
# 2 40.7212 97.1843 33.5019 0.0000 0.0000 0.0000
# 3 32.6301 33.5019 61.8200 0.0000 0.0000 0.0000
# 4 0.0000 0.0000 0.0000 29.2523 0.0000 0.0000
# 5 0.0000 0.0000 0.0000 0.0000 17.7683 0.0000
# 6 0.0000 0.0000 0.0000 0.0000 0.0000 36.0515
#
#
#
# Elastic Compliance Matrix: (Units=1/GPa)
#
#
# Indices 1 2 3 4 5 6 
#
# 1 0.021094 -0.006149 -0.007802 0.000000 0.000000 0.000000
# 2 -0.006149 0.014446 -0.004583 0.000000 0.000000 0.000000
# 3 -0.007802 -0.004583 0.022778 0.000000 0.000000 0.000000
# 4 0.000000 0.000000 0.000000 0.034185 0.000000 0.000000
# 5 0.000000 0.000000 0.000000 0.000000 0.056280 0.000000
# 6 0.000000 0.000000 0.000000 0.000000 0.000000 0.027738
#
#
# Mechanical properties :
#
#
# Convention : Reuss Voigt Hill
#
# Bulk Modulus (GPa) = 47.05851 49.33958 48.19905
# Shear Modulus (GPa) = 22.65804 24.84754 23.75279
#
# Velocity S-wave (km/s) = 3.46860 3.63232 3.55141
# Velocity P-wave (km/s) = 6.40540 6.61744 6.51228
#
# Compressibility (1/GPa) = 0.02125014
#
# Stress axis : x y z
#
# Youngs Moduli (GPa) = 47.40659 69.22225 43.90294
#
# Poissons Ratio (x) = 0.42567 0.34251
# Poissons Ratio (y) = 0.29152 0.20121
# Poissons Ratio (z) = 0.36984 0.31725
#
# Static dielectric constant tensor:
#      x y z
#    x 3.471570 0.000000 0.000000 
#    y 0.000000 3.379140 0.000000 
#    z 0.000000 0.000000 3.620840 
# 
# 
# High freq. dielectric constant tensor:
#      x y z
#    x 1.730210 0.000000 0.000000 
#    y 0.000000 1.732830 0.000000 
#    z 0.000000 0.000000 1.734080 
# 
# From -- ./inp_files/4721.got.cif
#   From: 2010.06.25/outbox.cif.g09.slc.cpg/sg58_3_cif.got.tgz:4721.got - 2010.06.26 21:38:00.
