data_PCOD8237424
_publ_section_title
;
Structure prediction by ZEFSAII (Michael W. Deem and Ramdas Pophale) SiO2 
 PCOD8237424
Probable space group: P N N M
;
_chemical_formula_sum "Si O2"
_cell_formula_units_Z 48
_cell_length_a 29.440162
_cell_length_b 9.264556
_cell_length_c 7.878604
_cell_angle_alpha 90.000000
_cell_angle_beta 90.000000
_cell_angle_gamma 90.000000
_cell_volume 2148.889473
_symmetry_space_group_name_H-M "P N N M"
_symmetry_group_IT_number 58
_symmetry_cell_setting 'orthorhombic'
loop_
_space_group_symop_operation_xyz
x,y,z
-x,-y,z
1/2+x,1/2-y,1/2-z
1/2-x,1/2+y,1/2-z
-x,-y,-z
x,y,-z
1/2-x,1/2+y,1/2+z
1/2+x,1/2-y,1/2+z
loop_
_atom_site_type_symbol
_atom_site_label
_atom_site_fract_x
_atom_site_fract_y
_atom_site_fract_z
Si Si1 0.867912 0.398155 0.801256
Si Si2 0.491021 0.829296 0.000000
Si Si3 0.548925 0.573223 0.000000
Si Si4 0.385737 0.422833 0.697784
Si Si5 0.453631 0.914088 0.683467
Si Si6 0.294285 0.588864 0.304405
Si Si7 0.711964 0.090680 0.694729
O O1 0.868559 0.233614 0.736282
O O2 0.914877 0.476232 0.754946
O O3 0.825835 0.486551 0.717823
O O4 0.859942 0.391174 0.000000
O O5 0.538526 0.744913 0.000000
O O6 0.461299 0.793196 0.830018
O O7 0.500000 0.000000 0.000000
O O8 0.500000 0.500000 0.000000
O O9 0.574737 0.528709 0.827068
O O10 0.402663 0.417355 0.500000
O O11 0.345821 0.538216 0.718859
O O12 0.440709 0.842654 0.500000
O O13 0.500000 0.000000 0.658924
O O14 0.279460 0.586213 0.500000
O O15 0.289061 0.748956 0.223128
O O16 0.261549 0.478351 0.207902
O O17 0.698287 0.112622 0.500000
#
# Coordination Sequence:
#
# PCOD8237424 Si02
#       7
#     8   4   4   8   8   8   8
#     4   9  18  35  60  92 123 163 215 260 321 382
#     4  10  20  36  58  84 114 152 204 254 300 369
#     4  12  28  44  62  96 130 166 218 266 327 389
#     4  10  22  43  67  88 125 171 211 266 323 388
#     4   9  17  31  55  85 117 154 200 253 305 359
#     4  10  22  40  61  93 126 164 214 257 325 392
#     4  10  21  38  63  92 129 166 207 268 318 388
#
# _framework density 22.337119999999999
#
# number of rings (size 3 to 8) (size 9 to 14) (size 15 to 20)
#    0.000    2.167    0.000    3.000    1.167    5.667 
#    3.000    1.667    0.000    0.000    0.000    0.000 
#    0.000    0.000    0.000    0.000    0.000    0.000 
#
# Total GULP energy -594888.968368 kJ/mol
# GULP energy per Si atom -12393.520174 kJ/mol
# Density = 2.228628 g / cm^3
# Si number density = 22.337120 Si / 1000 Ang^3
#
#
#
# Elastic Constant Matrix: (Units=GPa)
#
#
# Indices 1 2 3 4 5 6 
#
# 1 123.2639 56.0774 38.7286 0.0000 0.0000 0.0000
# 2 56.0774 109.8615 26.9532 0.0000 0.0000 0.0000
# 3 38.7286 26.9532 105.1480 0.0000 0.0000 0.0000
# 4 0.0000 0.0000 0.0000 17.9941 0.0000 0.0000
# 5 0.0000 0.0000 0.0000 0.0000 166.8637 0.0000
# 6 0.0000 0.0000 0.0000 0.0000 0.0000 45.1895
#
#
#
# Elastic Compliance Matrix: (Units=1/GPa)
#
#
# Indices 1 2 3 4 5 6 
#
# 1 0.011324 -0.005076 -0.002870 0.000000 0.000000 0.000000
# 2 -0.005076 0.011989 -0.001204 0.000000 0.000000 0.000000
# 3 -0.002870 -0.001204 0.010876 0.000000 0.000000 0.000000
# 4 0.000000 0.000000 0.000000 0.055574 0.000000 0.000000
# 5 0.000000 0.000000 0.000000 0.000000 0.005993 0.000000
# 6 0.000000 0.000000 0.000000 0.000000 0.000000 0.022129
#
#
# Mechanical properties :
#
#
# Convention : Reuss Voigt Hill
#
# Bulk Modulus (GPa) = 62.93312 64.64354 63.78833
# Shear Modulus (GPa) = 35.34107 60.44373 47.89240
#
# Velocity S-wave (km/s) = 3.98196 5.20754 4.63544
# Velocity P-wave (km/s) = 7.02686 8.07222 7.56761
#
# Compressibility (1/GPa) = 0.01588989
#
# Stress axis : x y z
#
# Youngs Moduli (GPa) = 88.31182 83.41271 91.94691
#
# Poissons Ratio (x) = 0.42340 0.26385
# Poissons Ratio (y) = 0.44826 0.11066
# Poissons Ratio (z) = 0.25342 0.10039
#
# Static dielectric constant tensor:
#      x y z
#    x 4.053670 0.000000 0.000000 
#    y 0.000000 4.251910 0.000000 
#    z 0.000000 0.000000 5.732330 
# 
# 
# High freq. dielectric constant tensor:
#      x y z
#    x 1.877340 0.000000 0.000000 
#    y 0.000000 1.870160 0.000000 
#    z 0.000000 0.000000 1.872650 
# 
# From -- ./inp_files/10765.got.cif
#   From: 2010.06.25/outbox.cif.g09.slc.cpg/sg58_6_cif.got.tgz:10765.got - 2010.06.26 21:38:00.
