data_PCOD8237137
_publ_section_title
;
Structure prediction by ZEFSAII (Michael W. Deem and Ramdas Pophale) SiO2 
 PCOD8237137
Probable space group: P N N M
;
_chemical_formula_sum "Si O2"
_cell_formula_units_Z 48
_cell_length_a 12.167698
_cell_length_b 11.528883
_cell_length_c 18.035587
_cell_angle_alpha 90.000000
_cell_angle_beta 90.000000
_cell_angle_gamma 90.000000
_cell_volume 2530.031542
_symmetry_space_group_name_H-M "P N N M"
_symmetry_group_IT_number 58
_symmetry_cell_setting 'orthorhombic'
loop_
_space_group_symop_operation_xyz
x,y,z
-x,-y,z
1/2+x,1/2-y,1/2-z
1/2-x,1/2+y,1/2-z
-x,-y,-z
x,y,-z
1/2-x,1/2+y,1/2+z
1/2+x,1/2-y,1/2+z
loop_
_atom_site_type_symbol
_atom_site_label
_atom_site_fract_x
_atom_site_fract_y
_atom_site_fract_z
Si Si1 0.500000 0.000000 0.225478
Si Si2 0.464760 0.362884 0.000000
Si Si3 0.375491 0.970868 0.500000
Si Si4 0.989348 0.263105 0.653991
Si Si5 0.107886 0.070676 0.738256
Si Si6 0.190160 0.471643 0.161501
Si Si7 0.257251 0.715372 0.657229
Si Si8 0.740994 0.245564 0.500000
O O1 0.525752 0.104160 0.167865
O O2 0.604204 0.973511 0.279667
O O3 0.500000 0.500000 0.000000
O O4 0.505374 0.288793 0.928766
O O5 0.332548 0.359072 0.000000
O O6 0.325466 0.020986 0.422414
O O7 0.369852 0.830224 0.500000
O O8 0.500000 0.000000 0.500000
O O9 0.865082 0.256091 0.685566
O O10 0.071315 0.190892 0.703998
O O11 0.185079 0.104661 0.806769
O O12 0.182809 0.998537 0.681300
O O13 0.000000 0.000000 0.763090
O O14 0.171600 0.332815 0.163530
O O15 0.247295 0.674035 0.571582
#
# Coordination Sequence:
#
# PCOD8237137 Si02
#       8
#     4   4   4   8   8   8   8   4
#     4  12  22  38  60  88 124 168 204 254 314 386
#     4  10  22  39  61  90 123 153 202 257 314 374
#     4  10  20  34  56  83 115 164 207 249 300 360
#     4  11  23  37  61  88 122 163 203 256 316 378
#     4  12  23  36  62  95 124 158 215 269 321 379
#     4  11  22  37  58  88 126 162 210 261 312 380
#     4  10  20  39  57  86 119 161 202 252 318 380
#     4   8  20  36  58  81 116 156 201 243 307 375
#
# _framework density 18.972096000000001
#
# number of rings (size 3 to 8) (size 9 to 14) (size 15 to 20)
#    0.000    1.333    5.833    0.500    4.667    0.333 
#    0.000    0.833    0.000    0.000    0.000    0.000 
#    0.000    0.000    0.000    0.000    0.000    0.000 
#
# Total GULP energy -594633.703321 kJ/mol
# GULP energy per Si atom -12388.202153 kJ/mol
# Density = 1.892891 g / cm^3
# Si number density = 18.972096 Si / 1000 Ang^3
#
#
#
# Elastic Constant Matrix: (Units=GPa)
#
#
# Indices 1 2 3 4 5 6 
#
# 1 95.9715 21.6808 42.5095 0.0000 0.0000 0.0000
# 2 21.6808 95.8273 56.1763 0.0000 0.0000 0.0000
# 3 42.5095 56.1763 126.8461 0.0000 0.0000 0.0000
# 4 0.0000 0.0000 0.0000 15.5181 0.0000 0.0000
# 5 0.0000 0.0000 0.0000 0.0000 22.4153 0.0000
# 6 0.0000 0.0000 0.0000 0.0000 0.0000 30.2867
#
#
#
# Elastic Compliance Matrix: (Units=1/GPa)
#
#
# Indices 1 2 3 4 5 6 
#
# 1 0.012253 -0.000493 -0.003888 0.000000 0.000000 0.000000
# 2 -0.000493 0.014115 -0.006086 0.000000 0.000000 0.000000
# 3 -0.003888 -0.006086 0.011882 0.000000 0.000000 0.000000
# 4 0.000000 0.000000 0.000000 0.064441 0.000000 0.000000
# 5 0.000000 0.000000 0.000000 0.000000 0.044612 0.000000
# 6 0.000000 0.000000 0.000000 0.000000 0.000000 0.033018
#
#
# Mechanical properties :
#
#
# Convention : Reuss Voigt Hill
#
# Bulk Modulus (GPa) = 57.74987 62.15312 59.95150
# Shear Modulus (GPa) = 24.15154 26.86257 25.50705
#
# Velocity S-wave (km/s) = 3.57179 3.76693 3.67065
# Velocity P-wave (km/s) = 6.89316 7.19382 7.04509
#
# Compressibility (1/GPa) = 0.01731606
#
# Stress axis : x y z
#
# Youngs Moduli (GPa) = 81.61056 70.84884 84.16284
#
# Poissons Ratio (x) = 0.03493 0.32723
# Poissons Ratio (y) = 0.04024 0.51219
# Poissons Ratio (z) = 0.31731 0.43116
#
# Static dielectric constant tensor:
#      x y z
#    x 3.480030 0.000000 0.000000 
#    y 0.000000 1.872940 0.000000 
#    z 0.000000 0.000000 3.771410 
# 
# 
# High freq. dielectric constant tensor:
#      x y z
#    x 1.740390 0.000000 0.000000 
#    y 0.000000 1.713660 0.000000 
#    z 0.000000 0.000000 1.741480 
# 
# From -- ./inp_files/29584.got.cif
#   From: 2010.06.25/outbox.cif.g09.slc.cpg/sg58_15_cif.got.tgz:29584.got - 2010.06.26 21:38:00.
