data_PCOD8237062
_publ_section_title
;
Structure prediction by ZEFSAII (Michael W. Deem and Ramdas Pophale) SiO2 
 PCOD8237062
Probable space group: P N N M
;
_chemical_formula_sum "Si O2"
_cell_formula_units_Z 64
_cell_length_a 8.822186
_cell_length_b 24.539022
_cell_length_c 14.191378
_cell_angle_alpha 90.000000
_cell_angle_beta 90.000000
_cell_angle_gamma 90.000000
_cell_volume 3072.260434
_symmetry_space_group_name_H-M "P N N M"
_symmetry_group_IT_number 58
_symmetry_cell_setting 'orthorhombic'
loop_
_space_group_symop_operation_xyz
x,y,z
-x,-y,z
1/2+x,1/2-y,1/2-z
1/2-x,1/2+y,1/2-z
-x,-y,-z
x,y,-z
1/2-x,1/2+y,1/2+z
1/2+x,1/2-y,1/2+z
loop_
_atom_site_type_symbol
_atom_site_label
_atom_site_fract_x
_atom_site_fract_y
_atom_site_fract_z
Si Si1 0.909518 0.839104 0.736156
Si Si2 0.902292 0.735394 0.605852
Si Si3 0.317977 0.155798 0.895928
Si Si4 0.203300 0.591420 0.104354
Si Si5 0.358969 0.880462 0.609248
Si Si6 0.039178 0.438068 0.388958
Si Si7 0.257134 0.355049 0.709405
Si Si8 0.656289 0.519708 0.894092
O O1 0.931663 0.786272 0.672685
O O2 0.812102 0.824302 0.827016
O O3 0.822559 0.883926 0.675861
O O4 0.065140 0.864645 0.774106
O O5 0.862175 0.755266 0.500000
O O6 0.765246 0.696834 0.641190
O O7 0.053389 0.700782 0.606476
O O8 0.388895 0.097346 0.866915
O O9 0.246768 0.151564 0.000000
O O10 0.217082 0.526678 0.108351
O O11 0.030632 0.603547 0.129146
O O12 0.241472 0.613746 0.000000
O O13 0.333050 0.862467 0.500000
O O14 0.319044 0.836191 0.689326
O O15 0.241328 0.927267 0.644967
O O16 0.079307 0.436307 0.500000
O O17 0.180800 0.410580 0.333099
O O18 0.000000 0.500000 0.356158
O O19 0.500000 0.500000 0.841710
O O20 0.608279 0.535337 0.000000
#
# Coordination Sequence:
#
# PCOD8237062 Si02
#       8
#     8   8   8   8   8   8   8   8
#     4  12  23  37  59  89 122 154 193 247 311 366
#     4  10  22  43  65  84 113 156 203 249 303 365
#     4   9  20  39  61  86 118 154 195 246 301 359
#     4  10  20  34  53  78 112 156 202 243 286 347
#     4  10  21  36  54  79 116 160 201 241 290 357
#     4   9  19  40  67  89 116 162 212 252 295 351
#     4  11  23  37  60  90 120 153 199 254 305 358
#     4   9  17  31  51  76 109 148 191 241 294 341
#
# _framework density 20.831567
#
# number of rings (size 3 to 8) (size 9 to 14) (size 15 to 20)
#    0.000    2.000    0.000    4.875    0.000    6.500 
#    0.000    2.500    0.000    2.250    0.000    0.000 
#    0.000    0.000    0.000    0.000    0.000    0.000 
#
# Total GULP energy -793108.671115 kJ/mol
# GULP energy per Si atom -12392.322986 kJ/mol
# Density = 2.078415 g / cm^3
# Si number density = 20.831567 Si / 1000 Ang^3
#
#
#
# Elastic Constant Matrix: (Units=GPa)
#
#
# Indices 1 2 3 4 5 6 
#
# 1 111.4395 16.7450 56.1065 0.0000 0.0000 0.0000
# 2 16.7450 84.5924 35.6317 0.0000 0.0000 0.0000
# 3 56.1065 35.6317 115.3658 0.0000 0.0000 0.0000
# 4 0.0000 0.0000 0.0000 28.6342 0.0000 0.0000
# 5 0.0000 0.0000 0.0000 0.0000 25.3460 0.0000
# 6 0.0000 0.0000 0.0000 0.0000 0.0000 16.0464
#
#
#
# Elastic Compliance Matrix: (Units=1/GPa)
#
#
# Indices 1 2 3 4 5 6 
#
# 1 0.011884 0.000094 -0.005809 0.000000 0.000000 0.000000
# 2 0.000094 0.013590 -0.004243 0.000000 0.000000 0.000000
# 3 -0.005809 -0.004243 0.012804 0.000000 0.000000 0.000000
# 4 0.000000 0.000000 0.000000 0.034923 0.000000 0.000000
# 5 0.000000 0.000000 0.000000 0.000000 0.039454 0.000000
# 6 0.000000 0.000000 0.000000 0.000000 0.000000 0.062319
#
#
# Mechanical properties :
#
#
# Convention : Reuss Voigt Hill
#
# Bulk Modulus (GPa) = 54.45958 58.70713 56.58335
# Shear Modulus (GPa) = 24.87440 27.53295 26.20368
#
# Velocity S-wave (km/s) = 3.45928 3.63945 3.55051
# Velocity P-wave (km/s) = 6.49270 6.77524 6.63547
#
# Compressibility (1/GPa) = 0.01836224
#
# Stress axis : x y z
#
# Youngs Moduli (GPa) = 84.14830 73.58317 78.10305
#
# Poissons Ratio (x) = -0.00694 0.45367
# Poissons Ratio (y) = -0.00794 0.33141
# Poissons Ratio (z) = 0.48879 0.31223
#
# Static dielectric constant tensor:
#      x y z
#    x 3.760200 0.000000 0.000000 
#    y 0.000000 3.697420 0.000000 
#    z 0.000000 0.000000 4.101570 
# 
# 
# High freq. dielectric constant tensor:
#      x y z
#    x 1.811610 0.000000 0.000000 
#    y 0.000000 1.801060 0.000000 
#    z 0.000000 0.000000 1.825810 
# 
# From -- ./inp_files/20269.got.cif
#   From: 2010.06.25/outbox.cif.g09.slc.cpg/sg58_11_cif.got.tgz:20269.got - 2010.06.26 21:38:00.
