data_PCOD8237892
_publ_section_title
;
Structure prediction by ZEFSAII (Michael W. Deem and Ramdas Pophale) SiO2 
 PCOD8237892
Probable space group: P N N M
;
_chemical_formula_sum "Si O2"
_cell_formula_units_Z 64
_cell_length_a 23.026976
_cell_length_b 15.643531
_cell_length_c 9.852283
_cell_angle_alpha 90.000000
_cell_angle_beta 90.000000
_cell_angle_gamma 90.000000
_cell_volume 3549.021037
_symmetry_space_group_name_H-M "P N N M"
_symmetry_group_IT_number 58
_symmetry_cell_setting 'orthorhombic'
loop_
_space_group_symop_operation_xyz
x,y,z
-x,-y,z
1/2+x,1/2-y,1/2-z
1/2-x,1/2+y,1/2-z
-x,-y,-z
x,y,-z
1/2-x,1/2+y,1/2+z
1/2+x,1/2-y,1/2+z
loop_
_atom_site_type_symbol
_atom_site_label
_atom_site_fract_x
_atom_site_fract_y
_atom_site_fract_z
Si Si1 0.567988 0.253388 0.839795
Si Si2 0.377443 0.365340 0.348353
Si Si3 0.708335 0.485437 0.652978
Si Si4 0.839117 0.462601 0.343926
Si Si5 0.483072 0.403634 0.840126
Si Si6 0.048714 0.435130 0.339673
Si Si7 0.182919 0.687967 0.153145
Si Si8 0.686412 0.333195 0.157659
O O1 0.530546 0.334570 0.787808
O O2 0.544720 0.162226 0.779928
O O3 0.635432 0.267824 0.797891
O O4 0.563057 0.248070 0.000000
O O5 0.403575 0.378045 0.500000
O O6 0.322102 0.424722 0.326190
O O7 0.423883 0.383948 0.234630
O O8 0.355037 0.270799 0.327683
O O9 0.700336 0.449819 0.500000
O O10 0.776051 0.503052 0.683321
O O11 0.679482 0.419310 0.756317
O O12 0.847676 0.435197 0.500000
O O13 0.887587 0.530809 0.300586
O O14 0.846397 0.378826 0.253754
O O15 0.500000 0.500000 0.800302
O O16 0.472758 0.395124 0.000000
O O17 0.040001 0.431165 0.500000
O O18 0.000000 0.500000 0.277878
O O19 0.250530 0.707735 0.188368
O O20 0.179273 0.652146 0.000000
O O21 0.678824 0.357975 0.000000
#
# Coordination Sequence:
#
# PCOD8237892 Si02
#       8
#     8   8   8   8   8   8   8   8
#     4   9  18  31  51  77 104 133 169 214 256 298
#     4  10  21  34  51  75 104 138 173 207 250 309
#     4   9  18  32  50  75 105 133 164 208 254 301
#     4   9  18  32  53  76 100 130 167 210 257 300
#     4  10  21  36  54  78 107 136 171 216 261 304
#     4   9  18  30  48  76 103 128 167 214 255 299
#     4   9  19  33  51  75 104 134 166 206 253 309
#     4   9  17  32  54  76 100 132 168 206 255 305
#
# _framework density 18.033142000000002
#
# number of rings (size 3 to 8) (size 9 to 14) (size 15 to 20)
#    0.000    2.750    0.000    0.750    3.500    2.250 
#    0.000    0.625    0.000    1.875    0.000    0.000 
#    0.000    0.000    0.000    0.000    0.000    0.000 
#
# Total GULP energy -793348.455801 kJ/mol
# GULP energy per Si atom -12396.069622 kJ/mol
# Density = 1.799210 g / cm^3
# Si number density = 18.033142 Si / 1000 Ang^3
#
#
#
# Elastic Constant Matrix: (Units=GPa)
#
#
# Indices 1 2 3 4 5 6 
#
# 1 92.9138 63.9585 30.7264 0.0000 0.0000 0.0000
# 2 63.9585 126.1533 33.7023 0.0000 0.0000 0.0000
# 3 30.7264 33.7023 39.8817 0.0000 0.0000 0.0000
# 4 0.0000 0.0000 0.0000 17.7115 0.0000 0.0000
# 5 0.0000 0.0000 0.0000 0.0000 24.6542 0.0000
# 6 0.0000 0.0000 0.0000 0.0000 0.0000 26.7756
#
#
#
# Elastic Compliance Matrix: (Units=1/GPa)
#
#
# Indices 1 2 3 4 5 6 
#
# 1 0.018361 -0.007142 -0.008111 0.000000 0.000000 0.000000
# 2 -0.007142 0.013016 -0.005497 0.000000 0.000000 0.000000
# 3 -0.008111 -0.005497 0.035968 0.000000 0.000000 0.000000
# 4 0.000000 0.000000 0.000000 0.056460 0.000000 0.000000
# 5 0.000000 0.000000 0.000000 0.000000 0.040561 0.000000
# 6 0.000000 0.000000 0.000000 0.000000 0.000000 0.037347
#
#
# Mechanical properties :
#
#
# Convention : Reuss Voigt Hill
#
# Bulk Modulus (GPa) = 38.69045 57.30257 47.99651
# Shear Modulus (GPa) = 19.85468 22.53238 21.19353
#
# Velocity S-wave (km/s) = 3.32175 3.53866 3.43192
# Velocity P-wave (km/s) = 6.01779 6.96716 6.50981
#
# Compressibility (1/GPa) = 0.02584617
#
# Stress axis : x y z
#
# Youngs Moduli (GPa) = 54.46250 76.82599 27.80234
#
# Poissons Ratio (x) = 0.54871 0.22550
# Poissons Ratio (y) = 0.38898 0.15283
# Poissons Ratio (z) = 0.44173 0.42231
#
# Static dielectric constant tensor:
#      x y z
#    x 3.418080 0.000000 0.000000 
#    y 0.000000 3.653080 0.000000 
#    z 0.000000 0.000000 3.183270 
# 
# 
# High freq. dielectric constant tensor:
#      x y z
#    x 1.706300 0.000000 0.000000 
#    y 0.000000 1.699580 0.000000 
#    z 0.000000 0.000000 1.667740 
# 
# From -- ./inp_files/10042.got.cif
#   From: 2010.06.25/outbox.cif.g09.slc.cpg/sg58_6_cif.got.tgz:10042.got - 2010.06.26 21:38:00.
