data_PCOD8237277
_publ_section_title
;
Structure prediction by ZEFSAII (Michael W. Deem and Ramdas Pophale) SiO2 
 PCOD8237277
Probable space group: P N N M
;
_chemical_formula_sum "Si O2"
_cell_formula_units_Z 56
_cell_length_a 20.037274
_cell_length_b 16.240499
_cell_length_c 8.994543
_cell_angle_alpha 90.000000
_cell_angle_beta 90.000000
_cell_angle_gamma 90.000000
_cell_volume 2926.962164
_symmetry_space_group_name_H-M "P N N M"
_symmetry_group_IT_number 58
_symmetry_cell_setting 'orthorhombic'
loop_
_space_group_symop_operation_xyz
x,y,z
-x,-y,z
1/2+x,1/2-y,1/2-z
1/2-x,1/2+y,1/2-z
-x,-y,-z
x,y,-z
1/2-x,1/2+y,1/2+z
1/2+x,1/2-y,1/2+z
loop_
_atom_site_type_symbol
_atom_site_label
_atom_site_fract_x
_atom_site_fract_y
_atom_site_fract_z
Si Si1 0.052539 0.069064 0.825814
Si Si2 0.178548 0.520231 0.324819
Si Si3 0.682415 0.491786 0.824774
Si Si4 0.102571 0.684452 0.325295
Si Si5 0.025605 0.254017 0.172723
Si Si6 0.801308 0.177169 0.674204
Si Si7 0.655024 0.146576 0.324674
O O1 0.120960 0.060198 0.736713
O O2 0.022025 0.157813 0.785105
O O3 0.068633 0.061726 0.000000
O O4 0.000000 0.000000 0.773997
O O5 0.189017 0.510590 0.500000
O O6 0.249925 0.539243 0.251471
O O7 0.129568 0.594822 0.284402
O O8 0.143324 0.439389 0.259067
O O9 0.670120 0.587467 0.784193
O O10 0.689255 0.478592 0.000000
O O11 0.097155 0.697333 0.500000
O O12 0.151910 0.753141 0.252670
O O13 0.029305 0.694407 0.259546
O O14 0.097686 0.289397 0.218534
O O15 0.012383 0.267346 0.000000
O O16 0.801322 0.191665 0.500000
O O17 0.725088 0.185524 0.731190
O O18 0.657775 0.127627 0.500000
#
# Coordination Sequence:
#
# PCOD8237277 Si02
#       7
#     8   8   8   8   8   8   8
#     4  10  21  36  56  84 118 150 184 230 284 336
#     4  10  21  36  57  83 110 143 184 236 289 329
#     4  10  20  35  57  83 111 146 187 229 273 333
#     4  10  21  36  57  81 108 145 185 229 280 336
#     4  10  22  37  56  81 112 151 186 228 281 336
#     4   8  16  33  56  78 103 140 184 224 267 325
#     4   9  19  37  58  78 106 146 189 229 275 336
#
# _framework density 19.132463000000001
#
# number of rings (size 3 to 8) (size 9 to 14) (size 15 to 20)
#    0.000    2.429    0.000    2.571    2.000    3.143 
#    0.000    5.714    0.000    0.000    0.000    0.000 
#    0.000    0.000    0.000    0.000    0.000    0.000 
#
# Total GULP energy -694483.184931 kJ/mol
# GULP energy per Si atom -12401.485445 kJ/mol
# Density = 1.908892 g / cm^3
# Si number density = 19.132463 Si / 1000 Ang^3
#
#
#
# Elastic Constant Matrix: (Units=GPa)
#
#
# Indices 1 2 3 4 5 6 
#
# 1 96.7459 43.9914 30.8743 0.0000 0.0000 0.0000
# 2 43.9914 78.6827 29.2252 0.0000 0.0000 0.0000
# 3 30.8743 29.2252 44.2703 0.0000 0.0000 0.0000
# 4 0.0000 0.0000 0.0000 26.8444 0.0000 0.0000
# 5 0.0000 0.0000 0.0000 0.0000 33.8444 0.0000
# 6 0.0000 0.0000 0.0000 0.0000 0.0000 35.4433
#
#
#
# Elastic Compliance Matrix: (Units=1/GPa)
#
#
# Indices 1 2 3 4 5 6 
#
# 1 0.015191 -0.006039 -0.006608 0.000000 0.000000 0.000000
# 2 -0.006039 0.019239 -0.008489 0.000000 0.000000 0.000000
# 3 -0.006608 -0.008489 0.032801 0.000000 0.000000 0.000000
# 4 0.000000 0.000000 0.000000 0.037252 0.000000 0.000000
# 5 0.000000 0.000000 0.000000 0.000000 0.029547 0.000000
# 6 0.000000 0.000000 0.000000 0.000000 0.000000 0.028214
#
#
# Mechanical properties :
#
#
# Convention : Reuss Voigt Hill
#
# Bulk Modulus (GPa) = 40.06508 47.54230 43.80369
# Shear Modulus (GPa) = 23.49247 26.93362 25.21304
#
# Velocity S-wave (km/s) = 3.50792 3.75606 3.63411
# Velocity P-wave (km/s) = 6.11504 6.61163 6.36818
#
# Compressibility (1/GPa) = 0.02495939
#
# Stress axis : x y z
#
# Youngs Moduli (GPa) = 65.82827 51.97852 30.48711
#
# Poissons Ratio (x) = 0.31390 0.20145
# Poissons Ratio (y) = 0.39754 0.25880
# Poissons Ratio (z) = 0.43497 0.44124
#
# Static dielectric constant tensor:
#      x y z
#    x 3.575780 0.000000 0.000000 
#    y 0.000000 3.608900 0.000000 
#    z 0.000000 0.000000 3.302990 
# 
# 
# High freq. dielectric constant tensor:
#      x y z
#    x 1.750750 0.000000 0.000000 
#    y 0.000000 1.748570 0.000000 
#    z 0.000000 0.000000 1.726340 
# 
# From -- ./inp_files/9025.got.cif
#   From: 2010.06.25/outbox.cif.g09.slc.cpg/sg58_5_cif.got.tgz:9025.got - 2010.06.26 21:38:00.
