data_PCOD8237661
_publ_section_title
;
Structure prediction by ZEFSAII (Michael W. Deem and Ramdas Pophale) SiO2 
 PCOD8237661
Probable space group: P N N M
;
_chemical_formula_sum "Si O2"
_cell_formula_units_Z 56
_cell_length_a 14.677462
_cell_length_b 21.729426
_cell_length_c 8.795002
_cell_angle_alpha 90.000000
_cell_angle_beta 90.000000
_cell_angle_gamma 90.000000
_cell_volume 2805.014828
_symmetry_space_group_name_H-M "P N N M"
_symmetry_group_IT_number 58
_symmetry_cell_setting 'orthorhombic'
loop_
_space_group_symop_operation_xyz
x,y,z
-x,-y,z
1/2+x,1/2-y,1/2-z
1/2-x,1/2+y,1/2-z
-x,-y,-z
x,y,-z
1/2-x,1/2+y,1/2+z
1/2+x,1/2-y,1/2+z
loop_
_atom_site_type_symbol
_atom_site_label
_atom_site_fract_x
_atom_site_fract_y
_atom_site_fract_z
Si Si1 0.082432 0.884990 0.820747
Si Si2 0.528427 0.179949 0.677470
Si Si3 0.078134 0.455711 0.819474
Si Si4 0.379640 0.256160 0.177396
Si Si5 0.106046 0.095926 0.321753
Si Si6 0.219330 0.977617 0.679495
Si Si7 0.176918 0.217765 0.175576
O O1 0.084989 0.814194 0.771664
O O2 0.168882 0.920227 0.754764
O O3 0.989451 0.915524 0.761502
O O4 0.083471 0.888989 0.000000
O O5 0.502678 0.178918 0.500000
O O6 0.560072 0.113473 0.736253
O O7 0.439828 0.197859 0.774081
O O8 0.609514 0.226772 0.712377
O O9 0.176771 0.478118 0.760752
O O10 0.000000 0.500000 0.750890
O O11 0.076345 0.458675 0.000000
O O12 0.276388 0.241199 0.220279
O O13 0.391004 0.270593 0.000000
O O14 0.087081 0.094493 0.500000
O O15 0.152040 0.160074 0.278771
O O16 0.173777 0.041615 0.271033
O O17 0.215073 0.967346 0.500000
O O18 0.170985 0.197525 0.000000
#
# Coordination Sequence:
#
# PCOD8237661 Si02
#       7
#     8   8   8   8   8   8   8
#     4  12  24  40  62  90 123 163 206 251 309 367
#     4  10  20  37  62  89 119 158 201 247 299 360
#     4   9  19  37  63  91 122 160 204 251 301 360
#     4  11  23  39  62  90 122 161 201 248 306 361
#     4  11  23  38  62  93 123 156 202 256 306 367
#     4  10  22  40  62  90 122 161 207 254 306 362
#     4  10  22  39  59  87 124 164 202 248 308 367
#
# _framework density 19.964244000000001
#
# number of rings (size 3 to 8) (size 9 to 14) (size 15 to 20)
#    0.000    1.571    1.429    3.429    2.000    6.286 
#    0.000    2.143    0.000    0.857    0.000    0.000 
#    0.000    0.000    0.000    0.000    0.000    0.000 
#
# Total GULP energy -694730.631054 kJ/mol
# GULP energy per Si atom -12405.904126 kJ/mol
# Density = 1.991880 g / cm^3
# Si number density = 19.964244 Si / 1000 Ang^3
#
#
#
# Elastic Constant Matrix: (Units=GPa)
#
#
# Indices 1 2 3 4 5 6 
#
# 1 137.0333 57.8738 40.2360 0.0000 0.0000 0.0000
# 2 57.8738 117.1297 21.7737 0.0000 0.0000 0.0000
# 3 40.2360 21.7737 43.9045 0.0000 0.0000 0.0000
# 4 0.0000 0.0000 0.0000 24.5500 0.0000 0.0000
# 5 0.0000 0.0000 0.0000 0.0000 26.5143 0.0000
# 6 0.0000 0.0000 0.0000 0.0000 0.0000 36.1460
#
#
#
# Elastic Compliance Matrix: (Units=1/GPa)
#
#
# Indices 1 2 3 4 5 6 
#
# 1 0.011542 -0.004116 -0.008537 0.000000 0.000000 0.000000
# 2 -0.004116 0.010872 -0.001620 0.000000 0.000000 0.000000
# 3 -0.008537 -0.001620 0.031403 0.000000 0.000000 0.000000
# 4 0.000000 0.000000 0.000000 0.040733 0.000000 0.000000
# 5 0.000000 0.000000 0.000000 0.000000 0.037715 0.000000
# 6 0.000000 0.000000 0.000000 0.000000 0.000000 0.027666
#
#
# Mechanical properties :
#
#
# Convention : Reuss Voigt Hill
#
# Bulk Modulus (GPa) = 39.56780 59.75940 49.66360
# Shear Modulus (GPa) = 25.39332 29.32099 27.35715
#
# Velocity S-wave (km/s) = 3.57030 3.83649 3.70578
# Velocity P-wave (km/s) = 6.07111 7.04436 6.57577
#
# Compressibility (1/GPa) = 0.02527307
#
# Stress axis : x y z
#
# Youngs Moduli (GPa) = 86.63656 91.97542 31.84372
#
# Poissons Ratio (x) = 0.37859 0.27184
# Poissons Ratio (y) = 0.35662 0.05158
# Poissons Ratio (z) = 0.73959 0.14898
#
# Static dielectric constant tensor:
#      x y z
#    x 3.901540 0.000000 0.000000 
#    y 0.000000 3.754830 0.000000 
#    z 0.000000 0.000000 3.410050 
# 
# 
# High freq. dielectric constant tensor:
#      x y z
#    x 1.796540 0.000000 0.000000 
#    y 0.000000 1.788550 0.000000 
#    z 0.000000 0.000000 1.759100 
# 
# From -- ./inp_files/6317.got.cif
#   From: 2010.06.25/outbox.cif.g09.slc.cpg/sg58_4_cif.got.tgz:6317.got - 2010.06.26 21:38:00.
