data_PCOD8237545
_publ_section_title
;
Structure prediction by ZEFSAII (Michael W. Deem and Ramdas Pophale) SiO2 
 PCOD8237545
Probable space group: P N N M
;
_chemical_formula_sum "Si O2"
_cell_formula_units_Z 48
_cell_length_a 8.788454
_cell_length_b 18.431951
_cell_length_c 14.810131
_cell_angle_alpha 90.000000
_cell_angle_beta 90.000000
_cell_angle_gamma 90.000000
_cell_volume 2399.068736
_symmetry_space_group_name_H-M "P N N M"
_symmetry_group_IT_number 58
_symmetry_cell_setting 'orthorhombic'
loop_
_space_group_symop_operation_xyz
x,y,z
-x,-y,z
1/2+x,1/2-y,1/2-z
1/2-x,1/2+y,1/2-z
-x,-y,-z
x,y,-z
1/2-x,1/2+y,1/2+z
1/2+x,1/2-y,1/2+z
loop_
_atom_site_type_symbol
_atom_site_label
_atom_site_fract_x
_atom_site_fract_y
_atom_site_fract_z
Si Si1 0.156019 0.460274 0.319526
Si Si2 0.733064 0.322470 0.500000
Si Si3 0.601326 0.427594 0.000000
Si Si4 0.321980 0.013815 0.000000
Si Si5 0.064113 0.186933 0.813384
Si Si6 0.457866 0.735190 0.000000
Si Si7 0.797763 0.703862 0.322959
Si Si8 0.145620 0.048299 0.693393
O O1 0.254677 0.476977 0.410854
O O2 0.129835 0.375232 0.310066
O O3 0.227113 0.495021 0.230909
O O4 0.000000 0.500000 0.335716
O O5 0.801595 0.401402 0.500000
O O6 0.627938 0.311888 0.586367
O O7 0.874151 0.267817 0.500000
O O8 0.500000 0.500000 0.000000
O O9 0.509831 0.351276 0.000000
O O10 0.700126 0.425651 0.906831
O O11 0.500000 0.000000 0.000000
O O12 0.143390 0.252802 0.762772
O O13 0.107804 0.113366 0.761361
O O14 0.883949 0.198376 0.819688
O O15 0.359416 0.759454 0.913794
O O16 0.000000 0.000000 0.678485
#
# Coordination Sequence:
#
# PCOD8237545 Si02
#       8
#     8   4   4   4   8   4   8   8
#     4  11  23  40  67  98 134 176 222 278 344 407
#     4  12  25  42  69 101 137 179 213 283 343 421
#     4  10  24  41  71  92 124 173 233 276 329 404
#     4  10  20  36  62  97 133 168 210 261 334 412
#     4  12  26  43  66  98 138 176 233 277 347 410
#     4  12  23  43  69 101 140 179 224 279 354 407
#     4  12  26  43  67  99 137 183 227 284 341 415
#     4  11  22  45  67  94 128 175 228 278 340 407
#
# _framework density 20.007763000000001
#
# number of rings (size 3 to 8) (size 9 to 14) (size 15 to 20)
#    0.000    0.667    5.000    4.000    2.333    0.000 
#    0.000    2.083    0.000    0.000    0.000    0.000 
#    0.000    0.000    0.000    0.000    0.000    0.000 
#
# Total GULP energy -594965.176467 kJ/mol
# GULP energy per Si atom -12395.107843 kJ/mol
# Density = 1.996222 g / cm^3
# Si number density = 20.007763 Si / 1000 Ang^3
#
#
#
# Elastic Constant Matrix: (Units=GPa)
#
#
# Indices 1 2 3 4 5 6 
#
# 1 67.3535 32.8155 37.5366 0.0000 0.0000 0.0000
# 2 32.8155 167.3989 58.4942 0.0000 0.0000 0.0000
# 3 37.5366 58.4942 186.1787 0.0000 0.0000 0.0000
# 4 0.0000 0.0000 0.0000 45.5393 0.0000 0.0000
# 5 0.0000 0.0000 0.0000 0.0000 29.6583 0.0000
# 6 0.0000 0.0000 0.0000 0.0000 0.0000 26.1927
#
#
#
# Elastic Compliance Matrix: (Units=1/GPa)
#
#
# Indices 1 2 3 4 5 6 
#
# 1 0.017599 -0.002483 -0.002768 0.000000 0.000000 0.000000
# 2 -0.002483 0.007061 -0.001718 0.000000 0.000000 0.000000
# 3 -0.002768 -0.001718 0.006469 0.000000 0.000000 0.000000
# 4 0.000000 0.000000 0.000000 0.021959 0.000000 0.000000
# 5 0.000000 0.000000 0.000000 0.000000 0.033717 0.000000
# 6 0.000000 0.000000 0.000000 0.000000 0.000000 0.038179
#
#
# Mechanical properties :
#
#
# Convention : Reuss Voigt Hill
#
# Bulk Modulus (GPa) = 58.16817 75.40262 66.78540
# Shear Modulus (GPa) = 34.56562 39.75037 37.15800
#
# Velocity S-wave (km/s) = 4.16096 4.46213 4.31418
# Velocity P-wave (km/s) = 7.22639 8.01972 7.63337
#
# Compressibility (1/GPa) = 0.01719153
#
# Stress axis : x y z
#
# Youngs Moduli (GPa) = 56.81994 141.62915 154.58293
#
# Poissons Ratio (x) = 0.35163 0.42793
# Poissons Ratio (y) = 0.14107 0.26554
# Poissons Ratio (z) = 0.15730 0.24329
#
# Static dielectric constant tensor:
#      x y z
#    x 3.421220 0.000000 0.000000 
#    y 0.000000 3.856660 0.000000 
#    z 0.000000 0.000000 4.596330 
# 
# 
# High freq. dielectric constant tensor:
#      x y z
#    x 1.757970 0.000000 0.000000 
#    y 0.000000 1.801690 0.000000 
#    z 0.000000 0.000000 1.809740 
# 
# From -- ./inp_files/19906.got.cif
#   From: 2010.06.25/outbox.cif.g09.slc.cpg/sg58_10_cif.got.tgz:19906.got - 2010.06.26 21:38:00.
