data_PCOD8237454
_publ_section_title
;
Structure prediction by ZEFSAII (Michael W. Deem and Ramdas Pophale) SiO2 
 PCOD8237454
Probable space group: P N N M
;
_chemical_formula_sum "Si O2"
_cell_formula_units_Z 64
_cell_length_a 17.171108
_cell_length_b 15.548784
_cell_length_c 13.231212
_cell_angle_alpha 90.000000
_cell_angle_beta 90.000000
_cell_angle_gamma 90.000000
_cell_volume 3532.599298
_symmetry_space_group_name_H-M "P N N M"
_symmetry_group_IT_number 58
_symmetry_cell_setting 'orthorhombic'
loop_
_space_group_symop_operation_xyz
x,y,z
-x,-y,z
1/2+x,1/2-y,1/2-z
1/2-x,1/2+y,1/2-z
-x,-y,-z
x,y,-z
1/2-x,1/2+y,1/2+z
1/2+x,1/2-y,1/2+z
loop_
_atom_site_type_symbol
_atom_site_label
_atom_site_fract_x
_atom_site_fract_y
_atom_site_fract_z
Si Si1 0.577994 0.554751 0.889909
Si Si2 0.713785 0.534175 0.618909
Si Si3 0.878911 0.490656 0.703141
Si Si4 0.005418 0.198096 0.717237
Si Si5 0.001613 0.379657 0.618748
Si Si6 0.685232 0.885135 0.617960
Si Si7 0.158176 0.085918 0.274025
Si Si8 0.112180 0.801382 0.114941
O O1 0.500000 0.500000 0.894216
O O2 0.560286 0.645954 0.841920
O O3 0.642410 0.504343 0.828446
O O4 0.613046 0.571046 0.000000
O O5 0.714584 0.527799 0.500000
O O6 0.801720 0.534821 0.659548
O O7 0.675108 0.445362 0.659770
O O8 0.667908 0.620789 0.654078
O O9 0.944163 0.564373 0.693772
O O10 0.864202 0.456057 0.818038
O O11 0.911849 0.409522 0.637393
O O12 0.015926 0.283361 0.652981
O O13 0.088559 0.152977 0.724165
O O14 0.970802 0.206711 0.829072
O O15 0.023092 0.391106 0.500000
O O16 0.688162 0.913925 0.500000
O O17 0.769904 0.873031 0.667191
O O18 0.652361 0.789979 0.628686
O O19 0.090242 0.820539 0.000000
#
# Coordination Sequence:
#
# PCOD8237454 Si02
#       8
#     8   8   8   8   8   8   8   8
#     4   9  17  31  49  73 107 141 176 223 276 330
#     4  10  20  36  59  84 113 152 191 234 288 340
#     4  10  21  39  59  85 113 148 190 245 283 343
#     4  11  21  36  53  86 117 149 191 234 287 339
#     4  11  22  37  59  86 117 152 192 239 289 338
#     4  10  21  39  60  85 114 152 193 236 287 340
#     4  10  21  34  57  82 114 147 191 237 280 345
#     4  10  21  37  58  83 116 153 192 234 283 345
#
# _framework density 18.116970999999999
#
# number of rings (size 3 to 8) (size 9 to 14) (size 15 to 20)
#    0.000    1.875    2.500    2.250    1.750    2.000 
#    0.000    3.125    0.000    0.000    0.000    0.000 
#    0.000    0.000    0.000    0.000    0.000    0.000 
#
# Total GULP energy -793098.376529 kJ/mol
# GULP energy per Si atom -12392.162133 kJ/mol
# Density = 1.807574 g / cm^3
# Si number density = 18.116971 Si / 1000 Ang^3
#
#
#
# Elastic Constant Matrix: (Units=GPa)
#
#
# Indices 1 2 3 4 5 6 
#
# 1 72.2345 28.1393 40.2424 0.0000 0.0000 0.0000
# 2 28.1393 90.9010 44.2766 0.0000 0.0000 0.0000
# 3 40.2424 44.2766 108.7516 0.0000 0.0000 0.0000
# 4 0.0000 0.0000 0.0000 27.4049 0.0000 0.0000
# 5 0.0000 0.0000 0.0000 0.0000 20.4738 0.0000
# 6 0.0000 0.0000 0.0000 0.0000 0.0000 24.8456
#
#
#
# Elastic Compliance Matrix: (Units=1/GPa)
#
#
# Indices 1 2 3 4 5 6 
#
# 1 0.018035 -0.002909 -0.005489 0.000000 0.000000 0.000000
# 2 -0.002909 0.014192 -0.004701 0.000000 0.000000 0.000000
# 3 -0.005489 -0.004701 0.013141 0.000000 0.000000 0.000000
# 4 0.000000 0.000000 0.000000 0.036490 0.000000 0.000000
# 5 0.000000 0.000000 0.000000 0.000000 0.048843 0.000000
# 6 0.000000 0.000000 0.000000 0.000000 0.000000 0.040249
#
#
# Mechanical properties :
#
#
# Convention : Reuss Voigt Hill
#
# Bulk Modulus (GPa) = 52.17132 55.24488 53.70810
# Shear Modulus (GPa) = 24.56550 25.16012 24.86281
#
# Velocity S-wave (km/s) = 3.68630 3.73065 3.70854
# Velocity P-wave (km/s) = 6.85404 7.00833 6.93161
#
# Compressibility (1/GPa) = 0.01916762
#
# Stress axis : x y z
#
# Youngs Moduli (GPa) = 55.44704 70.46465 76.09994
#
# Poissons Ratio (x) = 0.20500 0.41774
# Poissons Ratio (y) = 0.16131 0.35777
# Poissons Ratio (z) = 0.30437 0.33128
#
# Static dielectric constant tensor:
#      x y z
#    x 2.154530 0.000000 0.000000 
#    y 0.000000 3.438930 0.000000 
#    z 0.000000 0.000000 3.534710 
# 
# 
# High freq. dielectric constant tensor:
#      x y z
#    x 1.699030 0.000000 0.000000 
#    y 0.000000 1.704320 0.000000 
#    z 0.000000 0.000000 1.706340 
# 
# From -- ./inp_files/16537.got.cif
#   From: 2010.06.25/outbox.cif.g09.slc.cpg/sg58_9_cif.got.tgz:16537.got - 2010.06.26 21:38:00.
