data_PCOD8237868
_publ_section_title
;
Structure prediction by ZEFSAII (Michael W. Deem and Ramdas Pophale) SiO2 
 PCOD8237868
Probable space group: P N N M
;
_chemical_formula_sum "Si O2"
_cell_formula_units_Z 48
_cell_length_a 11.221630
_cell_length_b 13.540988
_cell_length_c 14.771246
_cell_angle_alpha 90.000000
_cell_angle_beta 90.000000
_cell_angle_gamma 90.000000
_cell_volume 2244.519740
_symmetry_space_group_name_H-M "P N N M"
_symmetry_group_IT_number 58
_symmetry_cell_setting 'orthorhombic'
loop_
_space_group_symop_operation_xyz
x,y,z
-x,-y,z
1/2+x,1/2-y,1/2-z
1/2-x,1/2+y,1/2-z
-x,-y,-z
x,y,-z
1/2-x,1/2+y,1/2+z
1/2+x,1/2-y,1/2+z
loop_
_atom_site_type_symbol
_atom_site_label
_atom_site_fract_x
_atom_site_fract_y
_atom_site_fract_z
Si Si1 0.497579 0.606248 0.164926
Si Si2 0.292822 0.405933 0.305520
Si Si3 0.401535 0.197867 0.897354
Si Si4 0.167802 0.124399 0.175758
Si Si5 0.464566 0.892471 0.741995
Si Si6 0.546938 0.729455 0.601085
O O1 0.500000 0.500000 0.112337
O O2 0.592830 0.592987 0.243036
O O3 0.536462 0.694153 0.099105
O O4 0.373006 0.631411 0.217808
O O5 0.280362 0.515596 0.347801
O O6 0.176969 0.377671 0.247185
O O7 0.324677 0.323354 0.381399
O O8 0.274581 0.201609 0.845162
O O9 0.486093 0.122754 0.843352
O O10 0.386047 0.160618 0.000000
O O11 0.058780 0.149107 0.108943
O O12 0.523276 0.815171 0.673687
O O13 0.500000 0.000000 0.705907
O O14 0.548886 0.774227 0.500000
#
# Coordination Sequence:
#
# PCOD8237868 Si02
#       6
#     8   8   8   8   8   8
#     4   9  20  39  66  93 123 170 213 257 313 379
#     4  10  21  40  67  93 129 168 210 263 326 384
#     4  12  24  39  64  95 127 166 209 260 320 381
#     4  10  20  40  65  95 126 163 214 261 322 381
#     4  12  25  43  65  90 133 176 213 265 326 393
#     4  11  24  41  69  98 125 166 218 274 326 383
#
# _framework density 21.385421000000001
#
# number of rings (size 3 to 8) (size 9 to 14) (size 15 to 20)
#    0.000    1.333    5.000    3.000    0.000    3.667 
#    0.000    0.000    0.000    1.000    0.000    0.000 
#    0.000    0.000    0.000    0.000    0.000    0.000 
#
# Total GULP energy -594954.882427 kJ/mol
# GULP energy per Si atom -12394.893384 kJ/mol
# Density = 2.133675 g / cm^3
# Si number density = 21.385421 Si / 1000 Ang^3
#
#
#
# Elastic Constant Matrix: (Units=GPa)
#
#
# Indices 1 2 3 4 5 6 
#
# 1 97.6198 42.6739 30.3378 0.0000 0.0000 0.0000
# 2 42.6739 122.9197 41.5285 0.0000 0.0000 0.0000
# 3 30.3378 41.5285 88.8934 0.0000 0.0000 0.0000
# 4 0.0000 0.0000 0.0000 11.7106 0.0000 0.0000
# 5 0.0000 0.0000 0.0000 0.0000 17.2311 0.0000
# 6 0.0000 0.0000 0.0000 0.0000 0.0000 28.5641
#
#
#
# Elastic Compliance Matrix: (Units=1/GPa)
#
#
# Indices 1 2 3 4 5 6 
#
# 1 0.012591 -0.003467 -0.002678 0.000000 0.000000 0.000000
# 2 -0.003467 0.010615 -0.003776 0.000000 0.000000 0.000000
# 3 -0.002678 -0.003776 0.013927 0.000000 0.000000 0.000000
# 4 0.000000 0.000000 0.000000 0.085393 0.000000 0.000000
# 5 0.000000 0.000000 0.000000 0.000000 0.058035 0.000000
# 6 0.000000 0.000000 0.000000 0.000000 0.000000 0.035009
#
#
# Mechanical properties :
#
#
# Convention : Reuss Voigt Hill
#
# Bulk Modulus (GPa) = 57.82692 59.83481 58.83087
# Shear Modulus (GPa) = 20.73192 24.49401 22.61297
#
# Velocity S-wave (km/s) = 3.11696 3.38799 3.25530
# Velocity P-wave (km/s) = 6.32874 6.58366 6.45746
#
# Compressibility (1/GPa) = 0.01729298
#
# Stress axis : x y z
#
# Youngs Moduli (GPa) = 79.41907 94.21038 71.80210
#
# Poissons Ratio (x) = 0.32660 0.19226
# Poissons Ratio (y) = 0.27532 0.27110
# Poissons Ratio (z) = 0.21266 0.35571
#
# Static dielectric constant tensor:
#      x y z
#    x 4.075660 0.000000 0.000000 
#    y 0.000000 4.378740 0.000000 
#    z 0.000000 0.000000 3.431490 
# 
# 
# High freq. dielectric constant tensor:
#      x y z
#    x 1.843210 0.000000 0.000000 
#    y 0.000000 1.849820 0.000000 
#    z 0.000000 0.000000 1.796830 
# 
# From -- ./inp_files/21137.got.cif
#   From: 2010.06.25/outbox.cif.g09.slc.cpg/sg58_11_cif.got.tgz:21137.got - 2010.06.26 21:38:00.
