data_PCOD8237499
_publ_section_title
;
Structure prediction by ZEFSAII (Michael W. Deem and Ramdas Pophale) SiO2 
 PCOD8237499
Probable space group: P N N M
;
_chemical_formula_sum "Si O2"
_cell_formula_units_Z 64
_cell_length_a 24.359747
_cell_length_b 15.063659
_cell_length_c 9.081695
_cell_angle_alpha 90.000000
_cell_angle_beta 90.000000
_cell_angle_gamma 90.000000
_cell_volume 3332.500028
_symmetry_space_group_name_H-M "P N N M"
_symmetry_group_IT_number 58
_symmetry_cell_setting 'orthorhombic'
loop_
_space_group_symop_operation_xyz
x,y,z
-x,-y,z
1/2+x,1/2-y,1/2-z
1/2-x,1/2+y,1/2-z
-x,-y,-z
x,y,-z
1/2-x,1/2+y,1/2+z
1/2+x,1/2-y,1/2+z
loop_
_atom_site_type_symbol
_atom_site_label
_atom_site_fract_x
_atom_site_fract_y
_atom_site_fract_z
Si Si1 0.215916 0.535102 0.332855
Si Si2 0.890837 0.494360 0.173894
Si Si3 0.648730 0.302801 0.172683
Si Si4 0.065737 0.678485 0.669777
Si Si5 0.659563 0.484147 0.673389
Si Si6 0.257126 0.233643 0.832838
Si Si7 0.638058 0.657021 0.171111
Si Si8 0.060225 0.342824 0.668618
O O1 0.203744 0.506112 0.500000
O O2 0.171252 0.487827 0.229447
O O3 0.276453 0.504704 0.284251
O O4 0.210727 0.640993 0.314216
O O5 0.912760 0.401154 0.231515
O O6 0.930469 0.571724 0.230455
O O7 0.891274 0.494027 0.000000
O O8 0.636212 0.394880 0.254374
O O9 0.705878 0.258712 0.223635
O O10 0.600145 0.236485 0.215940
O O11 0.651803 0.321231 0.000000
O O12 0.080962 0.657621 0.500000
O O13 0.094250 0.769468 0.721740
O O14 0.001180 0.691764 0.692166
O O15 0.651220 0.476397 0.500000
O O16 0.626604 0.568334 0.735776
O O17 0.300201 0.310323 0.794708
O O18 0.234914 0.240899 0.000000
O O19 0.630794 0.634558 0.000000
O O20 0.070626 0.371203 0.500000
#
# Coordination Sequence:
#
# PCOD8237499 Si02
#       8
#     8   8   8   8   8   8   8   8
#     4   9  18  36  56  78 113 154 192 225 271 339
#     4  12  24  35  55  88 121 151 187 235 290 342
#     4  10  21  38  59  85 114 148 194 242 285 337
#     4  10  21  42  64  82 112 154 196 238 282 336
#     4  10  22  38  58  84 118 156 190 234 290 344
#     4   9  18  34  56  83 114 149 184 230 289 340
#     4  10  20  36  60  87 114 148 193 240 286 339
#     4  10  23  41  62  83 109 153 201 238 281 339
#
# _framework density 19.204801
#
# number of rings (size 3 to 8) (size 9 to 14) (size 15 to 20)
#    0.000    2.000    1.250    3.000    1.750    6.500 
#    0.000    0.625    0.000    3.750    0.000    0.000 
#    0.000    0.000    0.000    0.000    0.000    0.000 
#
# Total GULP energy -793864.205552 kJ/mol
# GULP energy per Si atom -12404.128212 kJ/mol
# Density = 1.916109 g / cm^3
# Si number density = 19.204801 Si / 1000 Ang^3
#
#
#
# Elastic Constant Matrix: (Units=GPa)
#
#
# Indices 1 2 3 4 5 6 
#
# 1 81.9089 42.8732 39.9421 0.0000 0.0000 0.0000
# 2 42.8732 89.7288 48.8997 0.0000 0.0000 0.0000
# 3 39.9421 48.8997 88.9703 0.0000 0.0000 0.0000
# 4 0.0000 0.0000 0.0000 22.2348 0.0000 0.0000
# 5 0.0000 0.0000 0.0000 0.0000 22.4685 0.0000
# 6 0.0000 0.0000 0.0000 0.0000 0.0000 24.8624
#
#
#
# Elastic Compliance Matrix: (Units=1/GPa)
#
#
# Indices 1 2 3 4 5 6 
#
# 1 0.017540 -0.005838 -0.004666 0.000000 0.000000 0.000000
# 2 -0.005838 0.017853 -0.007192 0.000000 0.000000 0.000000
# 3 -0.004666 -0.007192 0.017287 0.000000 0.000000 0.000000
# 4 0.000000 0.000000 0.000000 0.044974 0.000000 0.000000
# 5 0.000000 0.000000 0.000000 0.000000 0.044507 0.000000
# 6 0.000000 0.000000 0.000000 0.000000 0.000000 0.040221
#
#
# Mechanical properties :
#
#
# Convention : Reuss Voigt Hill
#
# Bulk Modulus (GPa) = 57.83844 58.22644 58.03244
# Shear Modulus (GPa) = 22.36778 22.50601 22.43689
#
# Velocity S-wave (km/s) = 3.41647 3.42701 3.42174
# Velocity P-wave (km/s) = 6.76351 6.78555 6.77454
#
# Compressibility (1/GPa) = 0.01728954
#
# Stress axis : x y z
#
# Youngs Moduli (GPa) = 57.01413 56.01179 57.84729
#
# Poissons Ratio (x) = 0.32699 0.26989
# Poissons Ratio (y) = 0.33285 0.41602
# Poissons Ratio (z) = 0.26600 0.40282
#
# Static dielectric constant tensor:
#      x y z
#    x 3.498250 0.000000 0.000000 
#    y 0.000000 3.467660 0.000000 
#    z 0.000000 0.000000 3.406080 
# 
# 
# High freq. dielectric constant tensor:
#      x y z
#    x 1.739230 0.000000 0.000000 
#    y 0.000000 1.747780 0.000000 
#    z 0.000000 0.000000 1.741450 
# 
# From -- ./inp_files/10016.got.cif
#   From: 2010.06.25/outbox.cif.g09.slc.cpg/sg58_6_cif.got.tgz:10016.got - 2010.06.26 21:38:00.
