data_PCOD8237092
_publ_section_title
;
Structure prediction by ZEFSAII (Michael W. Deem and Ramdas Pophale) SiO2 
 PCOD8237092
Probable space group: P N N M
;
_chemical_formula_sum "Si O2"
_cell_formula_units_Z 64
_cell_length_a 29.560294
_cell_length_b 12.011674
_cell_length_c 8.910738
_cell_angle_alpha 90.000000
_cell_angle_beta 90.000000
_cell_angle_gamma 90.000000
_cell_volume 3163.923399
_symmetry_space_group_name_H-M "P N N M"
_symmetry_group_IT_number 58
_symmetry_cell_setting 'orthorhombic'
loop_
_space_group_symop_operation_xyz
x,y,z
-x,-y,z
1/2+x,1/2-y,1/2-z
1/2-x,1/2+y,1/2-z
-x,-y,-z
x,y,-z
1/2-x,1/2+y,1/2+z
1/2+x,1/2-y,1/2+z
loop_
_atom_site_type_symbol
_atom_site_label
_atom_site_fract_x
_atom_site_fract_y
_atom_site_fract_z
Si Si1 0.723436 0.535990 0.677686
Si Si2 0.031402 0.270024 0.173149
Si Si3 0.337375 0.259564 0.677231
Si Si4 0.076417 0.038730 0.830515
Si Si5 0.840331 0.875359 0.325698
Si Si6 0.685170 0.986879 0.676675
Si Si7 0.563089 0.707034 0.325199
Si Si8 0.882738 0.641871 0.323606
O O1 0.727063 0.536663 0.500000
O O2 0.693226 0.639053 0.739259
O O3 0.703120 0.418404 0.734194
O O4 0.773455 0.549645 0.744115
O O5 0.042067 0.139448 0.190319
O O6 0.065288 0.344190 0.271524
O O7 0.979593 0.280388 0.235616
O O8 0.035774 0.307733 0.000000
O O9 0.341646 0.274309 0.500000
O O10 0.388265 0.262274 0.747989
O O11 0.313868 0.143442 0.719733
O O12 0.117637 0.046170 0.714466
O O13 0.051462 0.922817 0.797037
O O14 0.096764 0.038078 0.000000
O O15 0.828696 0.884067 0.500000
O O16 0.852890 0.749636 0.278945
O O17 0.688052 0.005335 0.500000
O O18 0.638298 0.037412 0.737484
O O19 0.565439 0.733207 0.500000
O O20 0.882291 0.620683 0.500000
#
# Coordination Sequence:
#
# PCOD8237092 Si02
#       8
#     8   8   8   8   8   8   8   8
#     4  11  22  39  62  87 115 149 185 229 295 355
#     4   9  17  29  54  87 114 146 194 241 284 341
#     4   9  20  38  60  85 116 150 185 234 289 343
#     4   9  15  27  49  80 116 150 183 231 287 340
#     4  10  20  34  54  82 114 150 188 231 278 334
#     4  11  24  41  61  85 112 147 195 242 284 340
#     4   9  15  29  54  84 115 149 189 235 289 344
#     4  10  22  40  58  79 116 158 195 237 289 338
#
# _framework density 20.228048999999999
#
# number of rings (size 3 to 8) (size 9 to 14) (size 15 to 20)
#    0.000    2.250    1.250    1.875    1.750    3.000 
#    0.000    3.125    0.000    6.750    0.000    0.000 
#    0.000    0.000    0.000    0.000    0.000    0.000 
#
# Total GULP energy -793387.932881 kJ/mol
# GULP energy per Si atom -12396.686451 kJ/mol
# Density = 2.018201 g / cm^3
# Si number density = 20.228049 Si / 1000 Ang^3
#
#
#
# Elastic Constant Matrix: (Units=GPa)
#
#
# Indices 1 2 3 4 5 6 
#
# 1 115.4527 34.1397 27.5612 0.0000 0.0000 0.0000
# 2 34.1397 59.5190 25.2123 0.0000 0.0000 0.0000
# 3 27.5612 25.2123 59.0179 0.0000 0.0000 0.0000
# 4 0.0000 0.0000 0.0000 18.7526 0.0000 0.0000
# 5 0.0000 0.0000 0.0000 0.0000 29.0839 0.0000
# 6 0.0000 0.0000 0.0000 0.0000 0.0000 22.9908
#
#
#
# Elastic Compliance Matrix: (Units=1/GPa)
#
#
# Indices 1 2 3 4 5 6 
#
# 1 0.010832 -0.004970 -0.002935 0.000000 0.000000 0.000000
# 2 -0.004970 0.022794 -0.007417 0.000000 0.000000 0.000000
# 3 -0.002935 -0.007417 0.021483 0.000000 0.000000 0.000000
# 4 0.000000 0.000000 0.000000 0.053326 0.000000 0.000000
# 5 0.000000 0.000000 0.000000 0.000000 0.034383 0.000000
# 6 0.000000 0.000000 0.000000 0.000000 0.000000 0.043496
#
#
# Mechanical properties :
#
#
# Convention : Reuss Voigt Hill
#
# Bulk Modulus (GPa) = 40.87408 45.31288 43.09348
# Shear Modulus (GPa) = 22.21118 23.97054 23.09086
#
# Velocity S-wave (km/s) = 3.31726 3.44614 3.38231
# Velocity P-wave (km/s) = 5.90955 6.18742 6.05008
#
# Compressibility (1/GPa) = 0.02446538
#
# Stress axis : x y z
#
# Youngs Moduli (GPa) = 92.32042 43.87212 46.54807
#
# Poissons Ratio (x) = 0.21803 0.13664
# Poissons Ratio (y) = 0.45880 0.34522
# Poissons Ratio (z) = 0.27100 0.32538
#
# Static dielectric constant tensor:
#      x y z
#    x 3.871190 0.000000 0.000000 
#    y 0.000000 3.562210 0.000000 
#    z 0.000000 0.000000 3.356410 
# 
# 
# High freq. dielectric constant tensor:
#      x y z
#    x 1.799740 0.000000 0.000000 
#    y 0.000000 1.775080 0.000000 
#    z 0.000000 0.000000 1.756690 
# 
# From -- ./inp_files/11091.got.cif
#   From: 2010.06.25/outbox.cif.g09.slc.cpg/sg58_6_cif.got.tgz:11091.got - 2010.06.26 21:38:00.
