data_PCOD8237880
_publ_section_title
;
Structure prediction by ZEFSAII (Michael W. Deem and Ramdas Pophale) SiO2 
 PCOD8237880
Probable space group: P N N M
;
_chemical_formula_sum "Si O2"
_cell_formula_units_Z 32
_cell_length_a 9.701323
_cell_length_b 11.941509
_cell_length_c 13.152041
_cell_angle_alpha 90.000000
_cell_angle_beta 90.000000
_cell_angle_gamma 90.000000
_cell_volume 1523.643379
_symmetry_space_group_name_H-M "P N N M"
_symmetry_group_IT_number 58
_symmetry_cell_setting 'orthorhombic'
loop_
_space_group_symop_operation_xyz
x,y,z
-x,-y,z
1/2+x,1/2-y,1/2-z
1/2-x,1/2+y,1/2-z
-x,-y,-z
x,y,-z
1/2-x,1/2+y,1/2+z
1/2+x,1/2-y,1/2+z
loop_
_atom_site_type_symbol
_atom_site_label
_atom_site_fract_x
_atom_site_fract_y
_atom_site_fract_z
Si Si1 0.406279 0.894401 0.891374
Si Si2 0.880417 0.084858 0.199311
Si Si3 0.529022 0.831336 0.688102
Si Si4 0.786969 0.529433 0.883435
O O1 0.257063 0.942861 0.862358
O O2 0.472445 0.819166 0.803300
O O3 0.500000 0.000000 0.905982
O O4 0.399769 0.828721 0.000000
O O5 0.923609 0.207711 0.161087
O O6 0.845810 0.073036 0.320207
O O7 0.000000 0.000000 0.167595
O O8 0.404686 0.874564 0.616919
O O9 0.656233 0.917276 0.672851
O O10 0.744936 0.504554 0.000000
#
# Coordination Sequence:
#
# PCOD8237880 Si02
#       4
#     8   8   8   8
#     4  10  21  40  64  90 124 168 210 257 324 389
#     4  11  25  40  63  98 134 165 211 275 324 377
#     4  10  20  41  66  87 128 174 208 267 321 379
#     4  10  22  42  67  93 125 172 219 259 320 386
#
# _framework density 21.002289999999999
#
# number of rings (size 3 to 8) (size 9 to 14) (size 15 to 20)
#    0.000    1.750    5.000    1.500    7.000    4.000 
#    0.000    2.500    0.000    0.000    0.000    0.000 
#    0.000    0.000    0.000    0.000    0.000    0.000 
#
# Total GULP energy -396559.211344 kJ/mol
# GULP energy per Si atom -12392.475354 kJ/mol
# Density = 2.095449 g / cm^3
# Si number density = 21.002290 Si / 1000 Ang^3
#
#
#
# Elastic Constant Matrix: (Units=GPa)
#
#
# Indices 1 2 3 4 5 6 
#
# 1 88.4847 59.5064 19.0845 0.0000 0.0000 0.0000
# 2 59.5064 128.8139 16.9775 0.0000 0.0000 0.0000
# 3 19.0845 16.9775 129.2870 0.0000 0.0000 0.0000
# 4 0.0000 0.0000 0.0000 416.6280 0.0000 0.0000
# 5 0.0000 0.0000 0.0000 0.0000 10.1620 0.0000
# 6 0.0000 0.0000 0.0000 0.0000 0.0000 18.6137
#
#
#
# Elastic Compliance Matrix: (Units=1/GPa)
#
#
# Indices 1 2 3 4 5 6 
#
# 1 0.016666 -0.007505 -0.001475 0.000000 0.000000 0.000000
# 2 -0.007505 0.011279 -0.000373 0.000000 0.000000 0.000000
# 3 -0.001475 -0.000373 0.008001 0.000000 0.000000 0.000000
# 4 0.000000 0.000000 0.000000 0.002400 0.000000 0.000000
# 5 0.000000 0.000000 0.000000 0.000000 0.098406 0.000000
# 6 0.000000 0.000000 0.000000 0.000000 0.000000 0.053724
#
#
# Mechanical properties :
#
#
# Convention : Reuss Voigt Hill
#
# Bulk Modulus (GPa) = 57.99972 59.74693 58.87333
# Shear Modulus (GPa) = 23.26340 105.81523 64.53931
#
# Velocity S-wave (km/s) = 3.33176 7.10578 5.54945
# Velocity P-wave (km/s) = 6.51742 9.78940 8.31592
#
# Compressibility (1/GPa) = 0.01724146
#
# Stress axis : x y z
#
# Youngs Moduli (GPa) = 60.00070 88.65849 124.97756
#
# Poissons Ratio (x) = 0.66537 0.18430
# Poissons Ratio (y) = 0.45029 0.04666
# Poissons Ratio (z) = 0.08848 0.03310
#
# Static dielectric constant tensor:
#      x y z
#    x 3.931560 0.000000 0.000000 
#    y 0.000000 3.445010 0.000000 
#    z 0.000000 0.000000 4.596040 
# 
# 
# High freq. dielectric constant tensor:
#      x y z
#    x 1.821300 0.000000 0.000000 
#    y 0.000000 1.796220 0.000000 
#    z 0.000000 0.000000 1.826540 
# 
# From -- ./inp_files/19177.got.cif
#   From: 2010.06.25/outbox.cif.g09.slc.cpg/sg58_10_cif.got.tgz:19177.got - 2010.06.26 21:38:00.
