data_PCOD8237700
_publ_section_title
;
Structure prediction by ZEFSAII (Michael W. Deem and Ramdas Pophale) SiO2 
 PCOD8237700
Probable space group: P N N M
;
_chemical_formula_sum "Si O2"
_cell_formula_units_Z 36
_cell_length_a 14.812800
_cell_length_b 5.038627
_cell_length_c 24.581737
_cell_angle_alpha 90.000000
_cell_angle_beta 90.000000
_cell_angle_gamma 90.000000
_cell_volume 1834.686801
_symmetry_space_group_name_H-M "P N N M"
_symmetry_group_IT_number 58
_symmetry_cell_setting 'orthorhombic'
loop_
_space_group_symop_operation_xyz
x,y,z
-x,-y,z
1/2+x,1/2-y,1/2-z
1/2-x,1/2+y,1/2-z
-x,-y,-z
x,y,-z
1/2-x,1/2+y,1/2+z
1/2+x,1/2-y,1/2+z
loop_
_atom_site_type_symbol
_atom_site_label
_atom_site_fract_x
_atom_site_fract_y
_atom_site_fract_z
Si Si1 0.395792 0.993152 0.707737
Si Si2 0.765838 0.859279 0.940107
Si Si3 0.240670 0.116863 0.628252
Si Si4 0.563637 0.255535 0.500000
Si Si5 0.604014 0.503304 0.777443
O O1 0.373865 0.699618 0.728877
O O2 0.500000 0.000000 0.690178
O O3 0.336688 0.047897 0.654877
O O4 0.371386 0.204132 0.755472
O O5 0.716969 0.596077 0.918281
O O6 0.747260 0.093281 0.897764
O O7 0.726484 0.934739 0.000000
O O8 0.872233 0.779577 0.946491
O O9 0.161261 0.093690 0.671618
O O10 0.500000 0.500000 0.500000
O O11 0.500000 0.000000 0.500000
O O12 0.500000 0.500000 0.795471
#
# Coordination Sequence:
#
# PCOD8237700 Si02
#       5
#     8   8   8   4   8
#     4  10  21  35  54  85 119 144 185 235 284 351
#     4  10  24  37  55  83 111 150 192 239 282 332
#     4  12  20  37  61  81 112 155 194 233 286 349
#     4  10  20  38  56  76 111 148 183 228 282 328
#     4  10  21  37  57  84 115 148 187 238 293 345
#
# _framework density 19.621879
#
# number of rings (size 3 to 8) (size 9 to 14) (size 15 to 20)
#    0.667    0.889    0.000    6.000    0.000    2.667 
#    0.000    0.000    0.000    4.000    0.000    0.000 
#    0.000    0.000    0.000    0.000    0.000    0.000 
#
# Total GULP energy -446260.850727 kJ/mol
# GULP energy per Si atom -12396.134742 kJ/mol
# Density = 1.957722 g / cm^3
# Si number density = 19.621879 Si / 1000 Ang^3
#
#
#
# Elastic Constant Matrix: (Units=GPa)
#
#
# Indices 1 2 3 4 5 6 
#
# 1 53.3057 19.0735 30.0012 0.0000 0.0000 0.0000
# 2 19.0735 110.8425 16.1128 0.0000 0.0000 0.0000
# 3 30.0012 16.1128 78.8793 0.0000 0.0000 0.0000
# 4 0.0000 0.0000 0.0000 31.5794 0.0000 0.0000
# 5 0.0000 0.0000 0.0000 0.0000 18.6303 0.0000
# 6 0.0000 0.0000 0.0000 0.0000 0.0000 25.7075
#
#
#
# Elastic Compliance Matrix: (Units=1/GPa)
#
#
# Indices 1 2 3 4 5 6 
#
# 1 0.024791 -0.002984 -0.008820 0.000000 0.000000 0.000000
# 2 -0.002984 0.009657 -0.000838 0.000000 0.000000 0.000000
# 3 -0.008820 -0.000838 0.016203 0.000000 0.000000 0.000000
# 4 0.000000 0.000000 0.000000 0.031666 0.000000 0.000000
# 5 0.000000 0.000000 0.000000 0.000000 0.053676 0.000000
# 6 0.000000 0.000000 0.000000 0.000000 0.000000 0.038899
#
#
# Mechanical properties :
#
#
# Convention : Reuss Voigt Hill
#
# Bulk Modulus (GPa) = 39.41838 41.48916 40.45377
# Shear Modulus (GPa) = 23.96565 27.03942 25.50253
#
# Velocity S-wave (km/s) = 3.49861 3.71620 3.60904
# Velocity P-wave (km/s) = 6.03763 6.29315 6.16671
#
# Compressibility (1/GPa) = 0.02536888
#
# Stress axis : x y z
#
# Youngs Moduli (GPa) = 40.33681 103.55119 61.71609
#
# Poissons Ratio (x) = 0.30899 0.54431
# Poissons Ratio (y) = 0.12036 0.05170
# Poissons Ratio (z) = 0.35576 0.08675
#
# Static dielectric constant tensor:
#      x y z
#    x 3.493550 0.000000 0.000000 
#    y 0.000000 3.727970 0.000000 
#    z 0.000000 0.000000 3.233570 
# 
# 
# High freq. dielectric constant tensor:
#      x y z
#    x 1.745690 0.000000 0.000000 
#    y 0.000000 1.786690 0.000000 
#    z 0.000000 0.000000 1.757930 
# 
# From -- ./inp_files/29834.got.cif
#   From: 2010.06.25/outbox.cif.g09.slc.cpg/sg58_15_cif.got.tgz:29834.got - 2010.06.26 21:38:00.
