data_PCOD8237257
_publ_section_title
;
Structure prediction by ZEFSAII (Michael W. Deem and Ramdas Pophale) SiO2 
 PCOD8237257
Probable space group: P N N M
;
_chemical_formula_sum "Si O2"
_cell_formula_units_Z 64
_cell_length_a 11.202772
_cell_length_b 32.850294
_cell_length_c 8.559666
_cell_angle_alpha 90.000000
_cell_angle_beta 90.000000
_cell_angle_gamma 90.000000
_cell_volume 3150.079952
_symmetry_space_group_name_H-M "P N N M"
_symmetry_group_IT_number 58
_symmetry_cell_setting 'orthorhombic'
loop_
_space_group_symop_operation_xyz
x,y,z
-x,-y,z
1/2+x,1/2-y,1/2-z
1/2-x,1/2+y,1/2-z
-x,-y,-z
x,y,-z
1/2-x,1/2+y,1/2+z
1/2+x,1/2-y,1/2+z
loop_
_atom_site_type_symbol
_atom_site_label
_atom_site_fract_x
_atom_site_fract_y
_atom_site_fract_z
Si Si1 0.382059 0.641419 0.317311
Si Si2 0.407585 0.405041 0.823587
Si Si3 0.484543 0.280019 0.319163
Si Si4 0.136146 0.988174 0.184859
Si Si5 0.638218 0.883131 0.682213
Si Si6 0.617876 0.974333 0.314157
Si Si7 0.487001 0.809460 0.685301
Si Si8 0.776698 0.176337 0.674129
O O1 0.350147 0.642257 0.500000
O O2 0.485647 0.608720 0.288813
O O3 0.421004 0.686398 0.253299
O O4 0.275514 0.624883 0.214820
O O5 0.341966 0.443080 0.747142
O O6 0.307394 0.370822 0.827161
O O7 0.453442 0.414148 0.000000
O O8 0.512119 0.275594 0.500000
O O9 0.490520 0.235408 0.240152
O O10 0.353153 0.297172 0.293331
O O11 0.250819 0.013048 0.249391
O O12 0.141609 0.991219 0.000000
O O13 0.000000 0.000000 0.242257
O O14 0.612698 0.882575 0.500000
O O15 0.597881 0.927639 0.744304
O O16 0.568269 0.845047 0.760884
O O17 0.626839 0.977487 0.500000
O O18 0.500000 0.000000 0.256004
O O19 0.507064 0.807682 0.500000
O O20 0.355771 0.821275 0.735698
O O21 0.791636 0.194943 0.500000
#
# Coordination Sequence:
#
# PCOD8237257 Si02
#       8
#     8   8   8   8   8   8   8   8
#     4  10  20  35  56  83 120 155 187 230 283 341
#     4  10  20  35  60  88 113 146 190 237 284 334
#     4   9  19  35  54  79 112 149 183 226 280 329
#     4  11  24  40  61  89 121 155 193 242 298 357
#     4  10  21  37  59  83 111 148 191 234 282 339
#     4  10  23  41  63  89 118 154 199 249 299 356
#     4   9  19  35  56  80 109 146 185 228 278 332
#     4   9  19  35  57  81 109 143 186 232 275 329
#
# _framework density 20.316945
#
# number of rings (size 3 to 8) (size 9 to 14) (size 15 to 20)
#    0.000    2.250    0.000    1.875    3.500    4.750 
#    0.000    1.250    0.000    0.000    0.000    0.000 
#    0.000    0.000    0.000    0.000    0.000    0.000 
#
# Total GULP energy -793022.404017 kJ/mol
# GULP energy per Si atom -12390.975063 kJ/mol
# Density = 2.027070 g / cm^3
# Si number density = 20.316945 Si / 1000 Ang^3
#
#
#
# Elastic Constant Matrix: (Units=GPa)
#
#
# Indices 1 2 3 4 5 6 
#
# 1 94.8522 62.7537 14.0393 0.0000 0.0000 0.0000
# 2 62.7537 158.6670 22.7246 0.0000 0.0000 0.0000
# 3 14.0393 22.7246 21.8033 0.0000 0.0000 0.0000
# 4 0.0000 0.0000 0.0000 18.3328 0.0000 0.0000
# 5 0.0000 0.0000 0.0000 0.0000 24.4861 0.0000
# 6 0.0000 0.0000 0.0000 0.0000 0.0000 21.1116
#
#
#
# Elastic Compliance Matrix: (Units=1/GPa)
#
#
# Indices 1 2 3 4 5 6 
#
# 1 0.014565 -0.005192 -0.003967 0.000000 0.000000 0.000000
# 2 -0.005192 0.009260 -0.006307 0.000000 0.000000 0.000000
# 3 -0.003967 -0.006307 0.054993 0.000000 0.000000 0.000000
# 4 0.000000 0.000000 0.000000 0.054547 0.000000 0.000000
# 5 0.000000 0.000000 0.000000 0.000000 0.040840 0.000000
# 6 0.000000 0.000000 0.000000 0.000000 0.000000 0.047367
#
#
# Mechanical properties :
#
#
# Convention : Reuss Voigt Hill
#
# Bulk Modulus (GPa) = 20.88363 52.70640 36.79502
# Shear Modulus (GPa) = 18.62433 24.50641 21.56537
#
# Velocity S-wave (km/s) = 3.03097 3.47681 3.26152
# Velocity P-wave (km/s) = 4.74872 6.48969 5.68623
#
# Compressibility (1/GPa) = 0.04788440
#
# Stress axis : x y z
#
# Youngs Moduli (GPa) = 68.65701 107.99710 18.18420
#
# Poissons Ratio (x) = 0.56077 0.07213
# Poissons Ratio (y) = 0.35650 0.11469
# Poissons Ratio (z) = 0.27234 0.68117
#
# Static dielectric constant tensor:
#      x y z
#    x 3.689890 0.000000 0.000000 
#    y 0.000000 4.168980 0.000000 
#    z 0.000000 0.000000 3.429750 
# 
# 
# High freq. dielectric constant tensor:
#      x y z
#    x 1.793490 0.000000 0.000000 
#    y 0.000000 1.812400 0.000000 
#    z 0.000000 0.000000 1.764890 
# 
# From -- ./inp_files/4771.got.cif
#   From: 2010.06.25/outbox.cif.g09.slc.cpg/sg58_3_cif.got.tgz:4771.got - 2010.06.26 21:38:00.
