data_PCOD8237802
_publ_section_title
;
Structure prediction by ZEFSAII (Michael W. Deem and Ramdas Pophale) SiO2 
 PCOD8237802
Probable space group: P N N M
;
_chemical_formula_sum "Si O2"
_cell_formula_units_Z 64
_cell_length_a 19.272520
_cell_length_b 12.088674
_cell_length_c 13.034873
_cell_angle_alpha 90.000000
_cell_angle_beta 90.000000
_cell_angle_gamma 90.000000
_cell_volume 3036.854433
_symmetry_space_group_name_H-M "P N N M"
_symmetry_group_IT_number 58
_symmetry_cell_setting 'orthorhombic'
loop_
_space_group_symop_operation_xyz
x,y,z
-x,-y,z
1/2+x,1/2-y,1/2-z
1/2-x,1/2+y,1/2-z
-x,-y,-z
x,y,-z
1/2-x,1/2+y,1/2+z
1/2+x,1/2-y,1/2+z
loop_
_atom_site_type_symbol
_atom_site_label
_atom_site_fract_x
_atom_site_fract_y
_atom_site_fract_z
Si Si1 0.171250 0.707497 0.381260
Si Si2 0.788503 0.425118 0.883292
Si Si3 0.177016 0.387636 0.261579
Si Si4 0.854481 0.043927 0.616516
Si Si5 0.924003 0.484219 0.621104
Si Si6 0.419806 0.489223 0.681072
Si Si7 0.174402 0.187670 0.116601
Si Si8 0.190719 0.823929 0.879880
O O1 0.155681 0.717781 0.500000
O O2 0.171319 0.835018 0.341222
O O3 0.111972 0.627929 0.333964
O O4 0.246098 0.650589 0.361387
O O5 0.831204 0.512537 0.818426
O O6 0.707001 0.454683 0.877132
O O7 0.804575 0.302618 0.838847
O O8 0.814618 0.431866 0.000000
O O9 0.119848 0.407184 0.349144
O O10 0.155062 0.278347 0.200738
O O11 0.251890 0.390943 0.315973
O O12 0.883556 0.049720 0.500000
O O13 0.914037 0.003708 0.694773
O O14 0.928093 0.477860 0.500000
O O15 0.000000 0.500000 0.669598
O O16 0.500000 0.500000 0.648718
O O17 0.377056 0.585667 0.626329
O O18 0.385814 0.374865 0.639926
O O19 0.169661 0.235184 0.000000
O O20 0.209426 0.828021 0.000000
#
# Coordination Sequence:
#
# PCOD8237802 Si02
#       8
#     8   8   8   8   8   8   8   8
#     4   9  18  35  63  90 120 162 205 256 314 376
#     4  10  21  39  65  97 129 154 198 269 329 372
#     4  12  22  37  69  95 123 161 210 262 322 381
#     4  10  20  38  65  99 130 159 205 265 328 383
#     4  10  23  40  59  90 132 171 210 257 313 379
#     4  12  26  42  63  89 127 176 220 256 312 380
#     4  11  23  41  64  92 122 162 217 268 315 379
#     4  11  24  41  64  95 127 163 211 268 319 370
#
# _framework density 21.074438000000001
#
# number of rings (size 3 to 8) (size 9 to 14) (size 15 to 20)
#    0.000    1.375    2.500    2.625    3.500    3.250 
#    0.000    0.625    0.000    0.750    0.000    0.000 
#    0.000    0.000    0.000    0.000    0.000    0.000 
#
# Total GULP energy -793484.376103 kJ/mol
# GULP energy per Si atom -12398.193377 kJ/mol
# Density = 2.102647 g / cm^3
# Si number density = 21.074438 Si / 1000 Ang^3
#
#
#
# Elastic Constant Matrix: (Units=GPa)
#
#
# Indices 1 2 3 4 5 6 
#
# 1 135.9253 61.5620 25.7066 0.0000 0.0000 0.0000
# 2 61.5620 129.8847 29.5552 0.0000 0.0000 0.0000
# 3 25.7066 29.5552 49.2605 0.0000 0.0000 0.0000
# 4 0.0000 0.0000 0.0000 31.2233 0.0000 0.0000
# 5 0.0000 0.0000 0.0000 0.0000 25.4726 0.0000
# 6 0.0000 0.0000 0.0000 0.0000 0.0000 16.2942
#
#
#
# Elastic Compliance Matrix: (Units=1/GPa)
#
#
# Indices 1 2 3 4 5 6 
#
# 1 0.009659 -0.003974 -0.002656 0.000000 0.000000 0.000000
# 2 -0.003974 0.010551 -0.004257 0.000000 0.000000 0.000000
# 3 -0.002656 -0.004257 0.024241 0.000000 0.000000 0.000000
# 4 0.000000 0.000000 0.000000 0.032027 0.000000 0.000000
# 5 0.000000 0.000000 0.000000 0.000000 0.039258 0.000000
# 6 0.000000 0.000000 0.000000 0.000000 0.000000 0.061372
#
#
# Mechanical properties :
#
#
# Convention : Reuss Voigt Hill
#
# Bulk Modulus (GPa) = 44.09781 60.96868 52.53325
# Shear Modulus (GPa) = 24.22004 27.81446 26.01725
#
# Velocity S-wave (km/s) = 3.39375 3.63687 3.51741
# Velocity P-wave (km/s) = 6.02719 6.82853 6.44033
#
# Compressibility (1/GPa) = 0.02267686
#
# Stress axis : x y z
#
# Youngs Moduli (GPa) = 103.52920 94.77594 41.25324
#
# Poissons Ratio (x) = 0.37661 0.10959
# Poissons Ratio (y) = 0.41139 0.17561
# Poissons Ratio (z) = 0.27502 0.40344
#
# Static dielectric constant tensor:
#      x y z
#    x 3.591160 0.000000 0.000000 
#    y 0.000000 3.989460 0.000000 
#    z 0.000000 0.000000 4.138880 
# 
# 
# High freq. dielectric constant tensor:
#      x y z
#    x 1.784500 0.000000 0.000000 
#    y 0.000000 1.827470 0.000000 
#    z 0.000000 0.000000 1.852250 
# 
# From -- ./inp_files/22954.got.cif
#   From: 2010.06.25/outbox.cif.g09.slc.cpg/sg58_12_cif.got.tgz:22954.got - 2010.06.26 21:38:00.
