data_PCOD8237674
_publ_section_title
;
Structure prediction by ZEFSAII (Michael W. Deem and Ramdas Pophale) SiO2 
 PCOD8237674
Probable space group: P N N M
;
_chemical_formula_sum "Si O2"
_cell_formula_units_Z 28
_cell_length_a 7.539933
_cell_length_b 17.160299
_cell_length_c 10.510683
_cell_angle_alpha 90.000000
_cell_angle_beta 90.000000
_cell_angle_gamma 90.000000
_cell_volume 1359.951046
_symmetry_space_group_name_H-M "P N N M"
_symmetry_group_IT_number 58
_symmetry_cell_setting 'orthorhombic'
loop_
_space_group_symop_operation_xyz
x,y,z
-x,-y,z
1/2+x,1/2-y,1/2-z
1/2-x,1/2+y,1/2-z
-x,-y,-z
x,y,-z
1/2-x,1/2+y,1/2+z
1/2+x,1/2-y,1/2+z
loop_
_atom_site_type_symbol
_atom_site_label
_atom_site_fract_x
_atom_site_fract_y
_atom_site_fract_z
Si Si1 0.000000 0.500000 0.287006
Si Si2 0.572786 0.695450 0.143483
Si Si3 0.147717 0.341830 0.640029
Si Si4 0.656384 0.447651 0.144812
O O1 0.920151 0.569632 0.370632
O O2 0.846418 0.461265 0.204563
O O3 0.714131 0.667559 0.246449
O O4 0.517735 0.784588 0.167460
O O5 0.396241 0.642967 0.159008
O O6 0.651461 0.684741 0.000000
O O7 0.229648 0.321578 0.500000
O O8 0.500000 0.500000 0.208790
O O9 0.675222 0.474418 0.000000
#
# Coordination Sequence:
#
# PCOD8237674 Si02
#       4
#     4   8   8   8
#     4  12  22  38  64  92 131 172 199 256 323 378
#     4  10  22  42  64  89 125 164 213 264 305 369
#     4  11  24  41  62  92 129 165 208 259 316 380
#     4  10  20  37  62  94 124 159 213 262 301 363
#
# _framework density 20.588975000000001
#
# number of rings (size 3 to 8) (size 9 to 14) (size 15 to 20)
#    0.000    1.429    2.857    2.571    0.000    2.286 
#    0.000    4.286    0.000    0.000    0.000    0.000 
#    0.000    0.000    0.000    0.000    0.000    0.000 
#
# Total GULP energy -347096.387794 kJ/mol
# GULP energy per Si atom -12396.299564 kJ/mol
# Density = 2.054211 g / cm^3
# Si number density = 20.588975 Si / 1000 Ang^3
#
#
#
# Elastic Constant Matrix: (Units=GPa)
#
#
# Indices 1 2 3 4 5 6 
#
# 1 97.6262 26.7986 70.3327 0.0000 0.0000 0.0000
# 2 26.7986 132.1029 40.8610 0.0000 0.0000 0.0000
# 3 70.3327 40.8610 128.1523 0.0000 0.0000 0.0000
# 4 0.0000 0.0000 0.0000 30.0761 0.0000 0.0000
# 5 0.0000 0.0000 0.0000 0.0000 26.1021 0.0000
# 6 0.0000 0.0000 0.0000 0.0000 0.0000 32.7531
#
#
#
# Elastic Compliance Matrix: (Units=1/GPa)
#
#
# Indices 1 2 3 4 5 6 
#
# 1 0.016988 -0.000624 -0.009124 0.000000 0.000000 0.000000
# 2 -0.000624 0.008421 -0.002343 0.000000 0.000000 0.000000
# 3 -0.009124 -0.002343 0.013558 0.000000 0.000000 0.000000
# 4 0.000000 0.000000 0.000000 0.033249 0.000000 0.000000
# 5 0.000000 0.000000 0.000000 0.000000 0.038311 0.000000
# 6 0.000000 0.000000 0.000000 0.000000 0.000000 0.030531
#
#
# Mechanical properties :
#
#
# Convention : Reuss Voigt Hill
#
# Bulk Modulus (GPa) = 67.63648 70.42956 69.03302
# Shear Modulus (GPa) = 29.38266 32.44553 30.91410
#
# Velocity S-wave (km/s) = 3.78180 3.97403 3.87911
# Velocity P-wave (km/s) = 7.21052 7.43901 7.32565
#
# Compressibility (1/GPa) = 0.01478492
#
# Stress axis : x y z
#
# Youngs Moduli (GPa) = 58.86544 118.75050 73.75824
#
# Poissons Ratio (x) = 0.07409 0.67300
# Poissons Ratio (y) = 0.03673 0.17279
# Poissons Ratio (z) = 0.53711 0.27819
#
# Static dielectric constant tensor:
#      x y z
#    x 3.478470 0.000000 0.000000 
#    y 0.000000 4.148790 0.000000 
#    z 0.000000 0.000000 3.619380 
# 
# 
# High freq. dielectric constant tensor:
#      x y z
#    x 1.784070 0.000000 0.000000 
#    y 0.000000 1.830090 0.000000 
#    z 0.000000 0.000000 1.799410 
# 
# From -- ./inp_files/1950.got.cif
#   From: 2010.06.25/outbox.cif.g09.slc.cpg/sg58_1_cif.got.tgz:1950.got - 2010.06.26 21:38:00.
