data_PCOD8237887
_publ_section_title
;
Structure prediction by ZEFSAII (Michael W. Deem and Ramdas Pophale) SiO2 
 PCOD8237887
Probable space group: P N N M
;
_chemical_formula_sum "Si O2"
_cell_formula_units_Z 40
_cell_length_a 4.879078
_cell_length_b 27.609284
_cell_length_c 17.169400
_cell_angle_alpha 90.000000
_cell_angle_beta 90.000000
_cell_angle_gamma 90.000000
_cell_volume 2312.852963
_symmetry_space_group_name_H-M "P N N M"
_symmetry_group_IT_number 58
_symmetry_cell_setting 'orthorhombic'
loop_
_space_group_symop_operation_xyz
x,y,z
-x,-y,z
1/2+x,1/2-y,1/2-z
1/2-x,1/2+y,1/2-z
-x,-y,-z
x,y,-z
1/2-x,1/2+y,1/2+z
1/2+x,1/2-y,1/2+z
loop_
_atom_site_type_symbol
_atom_site_label
_atom_site_fract_x
_atom_site_fract_y
_atom_site_fract_z
Si Si1 0.933621 0.611353 0.871855
Si Si2 0.103554 0.748379 0.500000
Si Si3 0.293993 0.717339 0.338733
Si Si4 0.582586 0.447425 0.088145
Si Si5 0.803470 0.685033 0.250288
Si Si6 0.416033 0.183785 0.500000
O O1 0.173053 0.571980 0.855722
O O2 0.795488 0.633627 0.793797
O O3 0.103007 0.651371 0.922471
O O4 0.681930 0.587117 0.916359
O O5 0.186495 0.714526 0.427032
O O6 0.277617 0.796751 0.500000
O O7 0.791638 0.769674 0.500000
O O8 0.103689 0.684824 0.285427
O O9 0.269511 0.773380 0.314423
O O10 0.591980 0.693886 0.321910
O O11 0.500000 0.500000 0.121066
O O12 0.699030 0.451659 0.000000
#
# Coordination Sequence:
#
# PCOD8237887 Si02
#       6
#     8   4   8   8   8   4
#     4  12  21  35  52  71 102 138 178 221 252 300
#     4  12  22  34  52  70 103 136 175 222 250 294
#     4  10  21  34  47  71  98 130 167 213 257 291
#     4  11  22  35  50  73 102 135 175 220 264 302
#     4  10  21  33  49  69  99 129 169 212 256 293
#     4  12  22  30  49  80  94 134 188 210 247 294
#
# _framework density 17.294657999999998
#
# number of rings (size 3 to 8) (size 9 to 14) (size 15 to 20)
#    0.000    1.000    4.000    4.200    5.600    1.600 
#    0.000    0.000    0.000    0.000    0.000    0.000 
#    0.000    0.000    0.000   63.000    0.000    0.000 
#
# Total GULP energy -495720.997000 kJ/mol
# GULP energy per Si atom -12393.024925 kJ/mol
# Density = 1.725529 g / cm^3
# Si number density = 17.294658 Si / 1000 Ang^3
#
#
#
# Elastic Constant Matrix: (Units=GPa)
#
#
# Indices 1 2 3 4 5 6 
#
# 1 78.4336 20.3494 9.4704 0.0000 0.0000 0.0000
# 2 20.3494 61.3369 29.3290 0.0000 0.0000 0.0000
# 3 9.4704 29.3290 72.3492 0.0000 0.0000 0.0000
# 4 0.0000 0.0000 0.0000 18.9768 0.0000 0.0000
# 5 0.0000 0.0000 0.0000 0.0000 -3.9949 0.0000
# 6 0.0000 0.0000 0.0000 0.0000 0.0000 24.0717
#
#
#
# Elastic Compliance Matrix: (Units=1/GPa)
#
#
# Indices 1 2 3 4 5 6 
#
# 1 0.013951 -0.004658 0.000062 0.000000 0.000000 0.000000
# 2 -0.004658 0.021779 -0.008219 0.000000 0.000000 0.000000
# 3 0.000062 -0.008219 0.017146 0.000000 0.000000 0.000000
# 4 0.000000 0.000000 0.000000 0.052696 0.000000 0.000000
# 5 0.000000 0.000000 0.000000 0.000000 -0.250317 0.000000
# 6 0.000000 0.000000 0.000000 0.000000 0.000000 0.041543
#
#
# Mechanical properties :
#
#
# Convention : Reuss Voigt Hill
#
# Bulk Modulus (GPa) = 36.70365 36.71303 36.70834
# Shear Modulus (GPa) = -73.00146 18.00877 -27.49635
#
# Velocity S-wave (km/s) = -6.50400 3.23040 -3.99165
# Velocity P-wave (km/s) = 5.92740 5.93195 0.16423
#
# Compressibility (1/GPa) = 0.02724524
#
# Stress axis : x y z
#
# Youngs Moduli (GPa) = 71.68122 45.91624 58.32423
#
# Poissons Ratio (x) = 0.21388 -0.00363
# Poissons Ratio (y) = 0.33389 0.47937
# Poissons Ratio (z) = -0.00446 0.37738
#
# Static dielectric constant tensor:
#      x y z
#    x 3.366600 0.000000 0.000000 
#    y 0.000000 3.083730 0.000000 
#    z 0.000000 0.000000 2.985610 
# 
# 
# High freq. dielectric constant tensor:
#      x y z
#    x 1.693100 0.000000 0.000000 
#    y 0.000000 1.631630 0.000000 
#    z 0.000000 0.000000 1.632150 
# 
# From -- ./inp_files/18528.got.cif
#   From: 2010.06.25/outbox.cif.g09.slc.cpg/sg58_10_cif.got.tgz:18528.got - 2010.06.26 21:38:00.
