data_PCOD8237582
_publ_section_title
;
Structure prediction by ZEFSAII (Michael W. Deem and Ramdas Pophale) SiO2 
 PCOD8237582
Probable space group: P N N M
;
_chemical_formula_sum "Si O2"
_cell_formula_units_Z 48
_cell_length_a 30.304780
_cell_length_b 8.989511
_cell_length_c 8.867695
_cell_angle_alpha 90.000000
_cell_angle_beta 90.000000
_cell_angle_gamma 90.000000
_cell_volume 2415.783169
_symmetry_space_group_name_H-M "P N N M"
_symmetry_group_IT_number 58
_symmetry_cell_setting 'orthorhombic'
loop_
_space_group_symop_operation_xyz
x,y,z
-x,-y,z
1/2+x,1/2-y,1/2-z
1/2-x,1/2+y,1/2-z
-x,-y,-z
x,y,-z
1/2-x,1/2+y,1/2+z
1/2+x,1/2-y,1/2+z
loop_
_atom_site_type_symbol
_atom_site_label
_atom_site_fract_x
_atom_site_fract_y
_atom_site_fract_z
Si Si1 0.699827 0.318586 0.323903
Si Si2 0.377776 0.845968 0.822110
Si Si3 0.946104 0.146636 0.822024
Si Si4 0.865673 0.341370 0.822987
Si Si5 0.955364 0.813490 0.821785
Si Si6 0.221196 0.844761 0.174646
O O1 0.690184 0.300468 0.500000
O O2 0.655252 0.280667 0.235866
O O3 0.738853 0.208661 0.277460
O O4 0.712560 0.485593 0.281208
O O5 0.426730 0.810495 0.762470
O O6 0.361487 0.003990 0.762145
O O7 0.377833 0.849118 0.000000
O O8 0.907343 0.249773 0.756131
O O9 0.993541 0.215710 0.778619
O O10 0.941671 0.977625 0.762324
O O11 0.941508 0.137449 0.000000
O O12 0.821990 0.249293 0.787093
O O13 0.871418 0.371588 0.000000
O O14 0.947951 0.798144 0.000000
O O15 0.234563 0.828532 0.000000
#
# Coordination Sequence:
#
# PCOD8237582 Si02
#       6
#     8   8   8   8   8   8
#     4  11  23  40  62  85 112 147 185 227 276 331
#     4  12  25  38  53  80 116 151 190 233 277 327
#     4   8  16  33  61  89 110 140 187 235 275 330
#     4  10  20  37  59  83 113 149 187 227 275 328
#     4   9  17  35  61  86 111 143 186 233 281 331
#     4  10  22  39  61  89 116 142 180 229 277 329
#
# _framework density 19.869330999999999
#
# number of rings (size 3 to 8) (size 9 to 14) (size 15 to 20)
#    0.000    2.000    0.000    5.000    0.000    8.000 
#    0.000    8.333    0.000    0.000    0.000    0.000 
#    0.000    0.000    0.000    0.000    0.000    0.000 
#
# Total GULP energy -595364.517018 kJ/mol
# GULP energy per Si atom -12403.427438 kJ/mol
# Density = 1.982411 g / cm^3
# Si number density = 19.869331 Si / 1000 Ang^3
#
#
#
# Elastic Constant Matrix: (Units=GPa)
#
#
# Indices 1 2 3 4 5 6 
#
# 1 82.1571 11.2441 21.1913 0.0000 0.0000 0.0000
# 2 11.2441 68.1524 18.4115 0.0000 0.0000 0.0000
# 3 21.1913 18.4115 60.1658 0.0000 0.0000 0.0000
# 4 0.0000 0.0000 0.0000 21.9620 0.0000 0.0000
# 5 0.0000 0.0000 0.0000 0.0000 23.3376 0.0000
# 6 0.0000 0.0000 0.0000 0.0000 0.0000 36.9060
#
#
#
# Elastic Compliance Matrix: (Units=1/GPa)
#
#
# Indices 1 2 3 4 5 6 
#
# 1 0.013453 -0.001024 -0.004425 0.000000 0.000000 0.000000
# 2 -0.001024 0.016073 -0.004558 0.000000 0.000000 0.000000
# 3 -0.004425 -0.004558 0.019574 0.000000 0.000000 0.000000
# 4 0.000000 0.000000 0.000000 0.045533 0.000000 0.000000
# 5 0.000000 0.000000 0.000000 0.000000 0.042849 0.000000
# 6 0.000000 0.000000 0.000000 0.000000 0.000000 0.027096
#
#
# Mechanical properties :
#
#
# Convention : Reuss Voigt Hill
#
# Bulk Modulus (GPa) = 34.38023 34.68544 34.53284
# Shear Modulus (GPa) = 25.73488 27.08302 26.40895
#
# Velocity S-wave (km/s) = 3.60280 3.69596 3.64968
# Velocity P-wave (km/s) = 5.88622 5.97563 5.93110
#
# Compressibility (1/GPa) = 0.02908648
#
# Stress axis : x y z
#
# Youngs Moduli (GPa) = 74.33090 62.21493 51.08792
#
# Poissons Ratio (x) = 0.06372 0.22607
# Poissons Ratio (y) = 0.07613 0.23285
# Poissons Ratio (z) = 0.32892 0.28357
#
# Static dielectric constant tensor:
#      x y z
#    x 3.862760 0.000000 0.000000 
#    y 0.000000 3.734250 0.000000 
#    z 0.000000 0.000000 3.305990 
# 
# 
# High freq. dielectric constant tensor:
#      x y z
#    x 1.791500 0.000000 0.000000 
#    y 0.000000 1.781700 0.000000 
#    z 0.000000 0.000000 1.746050 
# 
# From -- ./inp_files/2899.got.cif
#   From: 2010.06.25/outbox.cif.g09.slc.cpg/sg58_2_cif.got.tgz:2899.got - 2010.06.26 21:38:00.
