data_PCOD8237180
_publ_section_title
;
Structure prediction by ZEFSAII (Michael W. Deem and Ramdas Pophale) SiO2 
 PCOD8237180
Probable space group: P N N M
;
_chemical_formula_sum "Si O2"
_cell_formula_units_Z 64
_cell_length_a 13.106637
_cell_length_b 9.631883
_cell_length_c 31.556236
_cell_angle_alpha 90.000000
_cell_angle_beta 90.000000
_cell_angle_gamma 90.000000
_cell_volume 3983.709537
_symmetry_space_group_name_H-M "P N N M"
_symmetry_group_IT_number 58
_symmetry_cell_setting 'orthorhombic'
loop_
_space_group_symop_operation_xyz
x,y,z
-x,-y,z
1/2+x,1/2-y,1/2-z
1/2-x,1/2+y,1/2-z
-x,-y,-z
x,y,-z
1/2-x,1/2+y,1/2+z
1/2+x,1/2-y,1/2+z
loop_
_atom_site_type_symbol
_atom_site_label
_atom_site_fract_x
_atom_site_fract_y
_atom_site_fract_z
Si Si1 0.614037 0.660192 0.730758
Si Si2 0.601719 0.088264 0.953978
Si Si3 0.379987 0.017824 0.867418
Si Si4 0.383560 0.663004 0.273683
Si Si5 0.188888 0.279762 0.311781
Si Si6 0.899579 0.910423 0.545244
Si Si7 0.305518 0.268958 0.180495
Si Si8 0.878455 0.972201 0.364797
O O1 0.641289 0.497414 0.736504
O O2 0.500915 0.680688 0.712345
O O3 0.689738 0.731201 0.696872
O O4 0.628196 0.734787 0.776294
O O5 0.573194 0.249299 0.946087
O O6 0.500000 0.000000 0.956866
O O7 0.666276 0.029463 0.913507
O O8 0.659234 0.072668 0.000000
O O9 0.354489 0.176324 0.856624
O O10 0.500000 0.000000 0.869792
O O11 0.333156 0.933591 0.828311
O O12 0.369934 0.755046 0.231912
O O13 0.310940 0.722480 0.310622
O O14 0.147378 0.178482 0.347393
O O15 0.838795 0.924123 0.500000
O O16 0.840883 0.971558 0.586128
O O17 0.000000 0.000000 0.540508
O O18 0.308652 0.422774 0.161453
O O19 0.000000 0.000000 0.360033
#
# Coordination Sequence:
#
# PCOD8237180 Si02
#       8
#     8   8   8   8   8   8   8   8
#     4  10  20  35  52  68  96 129 160 205 249 285
#     4   9  18  30  44  66  99 131 160 200 241 283
#     4  11  20  30  46  72  98 127 165 201 231 284
#     4  10  20  35  51  69  96 128 160 205 253 281
#     4  11  20  33  49  71  93 127 167 197 237 288
#     4   9  18  30  45  67  95 132 166 192 237 294
#     4  11  22  33  49  73  95 128 168 201 238 289
#     4  11  20  32  50  70 100 135 159 199 239 286
#
# _framework density 16.065429000000002
#
# number of rings (size 3 to 8) (size 9 to 14) (size 15 to 20)
#    0.000    1.750    3.750    2.250    5.250    0.000 
#    0.000    1.875    0.000    0.000    0.000    0.000 
#    0.000    6.000    0.000    0.000    0.000    0.000 
#
# Total GULP energy -793067.118767 kJ/mol
# GULP energy per Si atom -12391.673731 kJ/mol
# Density = 1.602886 g / cm^3
# Si number density = 16.065429 Si / 1000 Ang^3
#
#
#
# Elastic Constant Matrix: (Units=GPa)
#
#
# Indices 1 2 3 4 5 6 
#
# 1 71.0234 17.4057 33.1732 0.0000 0.0000 0.0000
# 2 17.4057 48.1298 17.6038 0.0000 0.0000 0.0000
# 3 33.1732 17.6038 105.1376 0.0000 0.0000 0.0000
# 4 0.0000 0.0000 0.0000 17.2581 0.0000 0.0000
# 5 0.0000 0.0000 0.0000 0.0000 11.2732 0.0000
# 6 0.0000 0.0000 0.0000 0.0000 0.0000 23.2945
#
#
#
# Elastic Compliance Matrix: (Units=1/GPa)
#
#
# Indices 1 2 3 4 5 6 
#
# 1 0.017407 -0.004566 -0.004728 0.000000 0.000000 0.000000
# 2 -0.004566 0.023330 -0.002466 0.000000 0.000000 0.000000
# 3 -0.004728 -0.002466 0.011416 0.000000 0.000000 0.000000
# 4 0.000000 0.000000 0.000000 0.057944 0.000000 0.000000
# 5 0.000000 0.000000 0.000000 0.000000 0.088706 0.000000
# 6 0.000000 0.000000 0.000000 0.000000 0.000000 0.042929
#
#
# Mechanical properties :
#
#
# Convention : Reuss Voigt Hill
#
# Bulk Modulus (GPa) = 34.92297 40.07290 37.49794
# Shear Modulus (GPa) = 18.19539 20.77237 19.48388
#
# Velocity S-wave (km/s) = 3.36903 3.59971 3.48628
# Velocity P-wave (km/s) = 6.07610 6.50192 6.29261
#
# Compressibility (1/GPa) = 0.02863445
#
# Stress axis : x y z
#
# Youngs Moduli (GPa) = 57.44791 42.86286 87.59701
#
# Poissons Ratio (x) = 0.19571 0.41414
# Poissons Ratio (y) = 0.26230 0.21599
# Poissons Ratio (z) = 0.27160 0.10569
#
# Static dielectric constant tensor:
#      x y z
#    x 2.747930 0.000000 0.000000 
#    y 0.000000 3.182480 0.000000 
#    z 0.000000 0.000000 3.670830 
# 
# 
# High freq. dielectric constant tensor:
#      x y z
#    x 1.564650 0.000000 0.000000 
#    y 0.000000 1.633760 0.000000 
#    z 0.000000 0.000000 1.624360 
# 
# From -- ./inp_files/35103.got.cif
#   From: 2010.06.25/outbox.cif.g09.slc.cpg/sg58_18_cif.got.tgz:35103.got - 2010.06.26 21:38:00.
