data_PCOD8237317
_publ_section_title
;
Structure prediction by ZEFSAII (Michael W. Deem and Ramdas Pophale) SiO2 
 PCOD8237317
Probable space group: P N N M
;
_chemical_formula_sum "Si O2"
_cell_formula_units_Z 56
_cell_length_a 8.617100
_cell_length_b 13.544784
_cell_length_c 23.549775
_cell_angle_alpha 90.000000
_cell_angle_beta 90.000000
_cell_angle_gamma 90.000000
_cell_volume 2748.653394
_symmetry_space_group_name_H-M "P N N M"
_symmetry_group_IT_number 58
_symmetry_cell_setting 'orthorhombic'
loop_
_space_group_symop_operation_xyz
x,y,z
-x,-y,z
1/2+x,1/2-y,1/2-z
1/2-x,1/2+y,1/2-z
-x,-y,-z
x,y,-z
1/2-x,1/2+y,1/2+z
1/2+x,1/2-y,1/2+z
loop_
_atom_site_type_symbol
_atom_site_label
_atom_site_fract_x
_atom_site_fract_y
_atom_site_fract_z
Si Si1 0.433012 0.790751 0.131546
Si Si2 0.625105 0.179580 0.438190
Si Si3 0.559765 0.607219 0.933847
Si Si4 0.313812 0.117042 0.063138
Si Si5 0.083345 0.604562 0.262916
Si Si6 0.410173 0.237411 0.653731
Si Si7 0.625420 0.420272 0.665840
O O1 0.481354 0.681455 0.111391
O O2 0.508984 0.868710 0.086493
O O3 0.496900 0.821574 0.193454
O O4 0.246450 0.794560 0.134983
O O5 0.552900 0.162398 0.500000
O O6 0.754840 0.098149 0.422962
O O7 0.726973 0.279146 0.437221
O O8 0.475868 0.173137 0.398265
O O9 0.500000 0.500000 0.919151
O O10 0.525904 0.638369 0.000000
O O11 0.212997 0.050658 0.106615
O O12 0.319522 0.069644 0.000000
O O13 0.111459 0.663626 0.205354
O O14 0.253171 0.577714 0.283798
O O15 0.000000 0.500000 0.252599
O O16 0.545790 0.314306 0.666337
O O17 0.500000 0.500000 0.680886
#
# Coordination Sequence:
#
# PCOD8237317 Si02
#       7
#     8   8   8   8   8   8   8
#     4  10  20  35  58  84 115 152 192 237 291 350
#     4   8  16  32  54  80 112 148 185 230 280 333
#     4   9  18  35  59  86 119 159 197 234 284 348
#     4   8  16  33  56  83 117 154 188 226 279 344
#     4  11  24  42  60  80 112 152 196 246 297 352
#     4  11  22  37  58  87 116 149 193 241 296 354
#     4  10  21  38  61  85 115 153 194 245 296 345
#
# _framework density 20.373612000000001
#
# number of rings (size 3 to 8) (size 9 to 14) (size 15 to 20)
#    0.000    2.429    0.000    3.857    0.000    2.571 
#    0.000    5.714    0.000   24.857    0.000    0.000 
#    0.000    0.000    0.000    0.000    0.000    0.000 
#
# Total GULP energy -693944.555578 kJ/mol
# GULP energy per Si atom -12391.867064 kJ/mol
# Density = 2.032724 g / cm^3
# Si number density = 20.373612 Si / 1000 Ang^3
#
#
#
# Elastic Constant Matrix: (Units=GPa)
#
#
# Indices 1 2 3 4 5 6 
#
# 1 145.3763 27.3804 61.9863 0.0000 0.0000 0.0000
# 2 27.3804 54.9203 21.8906 0.0000 0.0000 0.0000
# 3 61.9863 21.8906 118.7457 0.0000 0.0000 0.0000
# 4 0.0000 0.0000 0.0000 0.3908 0.0000 0.0000
# 5 0.0000 0.0000 0.0000 0.0000 21.7488 0.0000
# 6 0.0000 0.0000 0.0000 0.0000 0.0000 33.2147
#
#
#
# Elastic Compliance Matrix: (Units=1/GPa)
#
#
# Indices 1 2 3 4 5 6 
#
# 1 0.009258 -0.002902 -0.004298 0.000000 0.000000 0.000000
# 2 -0.002902 0.020562 -0.002275 0.000000 0.000000 0.000000
# 3 -0.004298 -0.002275 0.011084 0.000000 0.000000 0.000000
# 4 0.000000 0.000000 0.000000 2.558698 0.000000 0.000000
# 5 0.000000 0.000000 0.000000 0.000000 0.045980 0.000000
# 6 0.000000 0.000000 0.000000 0.000000 0.000000 0.030107
#
#
# Mechanical properties :
#
#
# Convention : Reuss Voigt Hill
#
# Bulk Modulus (GPa) = 45.55162 60.17298 52.86230
# Shear Modulus (GPa) = 1.85051 24.92318 13.38684
#
# Velocity S-wave (km/s) = 0.95408 3.50137 2.56611
# Velocity P-wave (km/s) = 4.86008 6.77828 5.89769
#
# Compressibility (1/GPa) = 0.02195311
#
# Stress axis : x y z
#
# Youngs Moduli (GPa) = 108.01725 48.63288 90.21833
#
# Poissons Ratio (x) = 0.14116 0.38772
# Poissons Ratio (y) = 0.31352 0.20529
# Poissons Ratio (z) = 0.46421 0.11066
#
# Static dielectric constant tensor:
#      x y z
#    x 3.836550 0.000000 0.000000 
#    y 0.000000 3.489770 0.000000 
#    z 0.000000 0.000000 3.864180 
# 
# 
# High freq. dielectric constant tensor:
#      x y z
#    x 1.803100 0.000000 0.000000 
#    y 0.000000 1.775980 0.000000 
#    z 0.000000 0.000000 1.796810 
# 
# From -- ./inp_files/28957.got.cif
#   From: 2010.06.25/outbox.cif.g09.slc.cpg/sg58_15_cif.got.tgz:28957.got - 2010.06.26 21:38:00.
