data_PCOD8237651
_publ_section_title
;
Structure prediction by ZEFSAII (Michael W. Deem and Ramdas Pophale) SiO2 
 PCOD8237651
Probable space group: P N N M
;
_chemical_formula_sum "Si O2"
_cell_formula_units_Z 48
_cell_length_a 34.705963
_cell_length_b 9.659557
_cell_length_c 7.494909
_cell_angle_alpha 90.000000
_cell_angle_beta 90.000000
_cell_angle_gamma 90.000000
_cell_volume 2512.624980
_symmetry_space_group_name_H-M "P N N M"
_symmetry_group_IT_number 58
_symmetry_cell_setting 'orthorhombic'
loop_
_space_group_symop_operation_xyz
x,y,z
-x,-y,z
1/2+x,1/2-y,1/2-z
1/2-x,1/2+y,1/2-z
-x,-y,-z
x,y,-z
1/2-x,1/2+y,1/2+z
1/2+x,1/2-y,1/2+z
loop_
_atom_site_type_symbol
_atom_site_label
_atom_site_fract_x
_atom_site_fract_y
_atom_site_fract_z
Si Si1 0.206215 0.063614 0.203545
Si Si2 0.853450 0.981281 0.500000
Si Si3 0.074782 0.207355 0.500000
Si Si4 0.224842 0.754927 0.796577
Si Si5 0.535282 0.906314 0.296855
Si Si6 0.514276 0.352253 0.703739
Si Si7 0.093708 0.516780 0.500000
Si Si8 0.165437 0.705964 0.500000
O O1 0.168377 0.072965 0.324492
O O2 0.234085 0.189858 0.250527
O O3 0.228390 0.919175 0.240547
O O4 0.192352 0.074428 0.000000
O O5 0.896199 0.921037 0.500000
O O6 0.856814 0.147596 0.500000
O O7 0.049054 0.202583 0.677072
O O8 0.097879 0.351334 0.500000
O O9 0.191769 0.689154 0.674655
O O10 0.213314 0.724266 0.000000
O O11 0.545923 0.946489 0.500000
O O12 0.522620 0.747253 0.280901
O O13 0.572307 0.930648 0.176648
O O14 0.500000 0.000000 0.227375
O O15 0.500000 0.500000 0.774299
O O16 0.529244 0.359947 0.500000
O O17 0.136156 0.579272 0.500000
#
# Coordination Sequence:
#
# PCOD8237651 Si02
#       8
#     8   4   4   8   8   8   4   4
#     4  10  20  37  62  87 113 146 189 236 286 343
#     4  10  24  40  54  85 122 158 192 236 296 346
#     4  12  24  38  58  85 124 156 194 244 292 346
#     4  10  20  37  62  87 114 146 189 238 284 344
#     4  10  20  38  62  86 115 155 198 245 291 338
#     4  10  22  39  61  90 116 151 202 245 290 345
#     4  12  24  37  58  86 122 156 198 240 292 346
#     4  10  24  40  54  86 122 157 194 238 290 348
#
# _framework density 19.103528000000001
#
# number of rings (size 3 to 8) (size 9 to 14) (size 15 to 20)
#    0.000    1.667    3.333    1.000    2.333    2.667 
#    0.000    0.000    0.000    0.000    0.000    0.000 
#    0.000    0.000    0.000    0.000    0.000    0.000 
#
# Total GULP energy -595438.032690 kJ/mol
# GULP energy per Si atom -12404.959014 kJ/mol
# Density = 1.906005 g / cm^3
# Si number density = 19.103528 Si / 1000 Ang^3
#
#
#
# Elastic Constant Matrix: (Units=GPa)
#
#
# Indices 1 2 3 4 5 6 
#
# 1 50.5780 8.0249 28.1247 0.0000 0.0000 0.0000
# 2 8.0249 70.1722 11.9679 0.0000 0.0000 0.0000
# 3 28.1247 11.9679 115.8284 0.0000 0.0000 0.0000
# 4 0.0000 0.0000 0.0000 23.5237 0.0000 0.0000
# 5 0.0000 0.0000 0.0000 0.0000 10.1781 0.0000
# 6 0.0000 0.0000 0.0000 0.0000 0.0000 38.5688
#
#
#
# Elastic Compliance Matrix: (Units=1/GPa)
#
#
# Indices 1 2 3 4 5 6 
#
# 1 0.023058 -0.001712 -0.005422 0.000000 0.000000 0.000000
# 2 -0.001712 0.014633 -0.001096 0.000000 0.000000 0.000000
# 3 -0.005422 -0.001096 0.010063 0.000000 0.000000 0.000000
# 4 0.000000 0.000000 0.000000 0.042510 0.000000 0.000000
# 5 0.000000 0.000000 0.000000 0.000000 0.098250 0.000000
# 6 0.000000 0.000000 0.000000 0.000000 0.000000 0.025928
#
#
# Mechanical properties :
#
#
# Convention : Reuss Voigt Hill
#
# Bulk Modulus (GPa) = 31.95501 36.97931 34.46716
# Shear Modulus (GPa) = 20.71808 27.01819 23.86814
#
# Velocity S-wave (km/s) = 3.29677 3.76480 3.53853
# Velocity P-wave (km/s) = 5.59064 6.18851 5.89715
#
# Compressibility (1/GPa) = 0.03129400
#
# Stress axis : x y z
#
# Youngs Moduli (GPa) = 43.36876 68.33670 99.37153
#
# Poissons Ratio (x) = 0.11701 0.53878
# Poissons Ratio (y) = 0.07426 0.10894
# Poissons Ratio (z) = 0.23514 0.07491
#
# Static dielectric constant tensor:
#      x y z
#    x 3.133190 0.000000 0.000000 
#    y 0.000000 3.631790 0.000000 
#    z 0.000000 0.000000 3.811720 
# 
# 
# High freq. dielectric constant tensor:
#      x y z
#    x 1.714040 0.000000 0.000000 
#    y 0.000000 1.752630 0.000000 
#    z 0.000000 0.000000 1.762290 
# 
# From -- ./inp_files/10820.got.cif
#   From: 2010.06.25/outbox.cif.g09.slc.cpg/sg58_6_cif.got.tgz:10820.got - 2010.06.26 21:38:00.
