data_PCOD8237148
_publ_section_title
;
Structure prediction by ZEFSAII (Michael W. Deem and Ramdas Pophale) SiO2 
 PCOD8237148
Probable space group: P N N M
;
_chemical_formula_sum "Si O2"
_cell_formula_units_Z 64
_cell_length_a 8.687344
_cell_length_b 11.749661
_cell_length_c 30.696067
_cell_angle_alpha 90.000000
_cell_angle_beta 90.000000
_cell_angle_gamma 90.000000
_cell_volume 3133.250298
_symmetry_space_group_name_H-M "P N N M"
_symmetry_group_IT_number 58
_symmetry_cell_setting 'orthorhombic'
loop_
_space_group_symop_operation_xyz
x,y,z
-x,-y,z
1/2+x,1/2-y,1/2-z
1/2-x,1/2+y,1/2-z
-x,-y,-z
x,y,-z
1/2-x,1/2+y,1/2+z
1/2+x,1/2-y,1/2+z
loop_
_atom_site_type_symbol
_atom_site_label
_atom_site_fract_x
_atom_site_fract_y
_atom_site_fract_z
Si Si1 0.837765 0.238945 0.052115
Si Si2 0.661745 0.330986 0.587316
Si Si3 0.333167 0.270933 0.693340
Si Si4 0.163482 0.480775 0.548936
Si Si5 0.304074 0.732929 0.714338
Si Si6 0.165073 0.016648 0.828398
Si Si7 0.841101 0.143291 0.637062
Si Si8 0.302663 0.615636 0.122915
O O1 0.755621 0.124310 0.069320
O O2 0.749010 0.344098 0.074611
O O3 0.009532 0.229848 0.070454
O O4 0.838152 0.255791 0.000000
O O5 0.739488 0.402310 0.548458
O O6 0.638538 0.427163 0.624308
O O7 0.773949 0.231986 0.602707
O O8 0.513764 0.265813 0.704387
O O9 0.228064 0.252985 0.735462
O O10 0.267569 0.388602 0.671526
O O11 0.308029 0.171311 0.658771
O O12 0.126893 0.444054 0.500000
O O13 0.000000 0.500000 0.573954
O O14 0.239300 0.606948 0.700974
O O15 0.215767 0.827952 0.685930
O O16 0.000000 0.000000 0.805468
O O17 0.024119 0.151036 0.634172
O O18 0.780140 0.019213 0.624362
#
# Coordination Sequence:
#
# PCOD8237148 Si02
#       8
#     8   8   8   8   8   8   8   8
#     4  11  23  39  63  95 127 160 211 265 325 384
#     4  11  20  37  61  88 120 157 203 258 314 374
#     4  11  22  38  64  88 123 161 204 255 308 378
#     4  10  20  34  56  87 122 157 197 249 306 368
#     4  10  22  39  58  92 121 157 205 253 309 370
#     4   9  19  35  56  81 114 151 190 239 297 363
#     4  10  24  42  62  86 123 165 218 256 316 382
#     4  11  23  43  64  85 120 173 208 263 319 380
#
# _framework density 20.426074
#
# number of rings (size 3 to 8) (size 9 to 14) (size 15 to 20)
#    0.000    1.625    0.000    6.000    1.750    3.000 
#    0.000    8.125    0.000    0.000    0.000    0.000 
#    0.000    0.000    0.000    0.000    0.000    0.000 
#
# Total GULP energy -793243.938214 kJ/mol
# GULP energy per Si atom -12394.436535 kJ/mol
# Density = 2.037958 g / cm^3
# Si number density = 20.426074 Si / 1000 Ang^3
#
#
#
# Elastic Constant Matrix: (Units=GPa)
#
#
# Indices 1 2 3 4 5 6 
#
# 1 73.1752 32.6145 20.9748 0.0000 0.0000 0.0000
# 2 32.6145 119.8387 41.3480 0.0000 0.0000 0.0000
# 3 20.9748 41.3480 106.7140 0.0000 0.0000 0.0000
# 4 0.0000 0.0000 0.0000 27.4119 0.0000 0.0000
# 5 0.0000 0.0000 0.0000 0.0000 31.4260 0.0000
# 6 0.0000 0.0000 0.0000 0.0000 0.0000 32.4382
#
#
#
# Elastic Compliance Matrix: (Units=1/GPa)
#
#
# Indices 1 2 3 4 5 6 
#
# 1 0.015804 -0.003728 -0.001662 0.000000 0.000000 0.000000
# 2 -0.003728 0.010511 -0.003340 0.000000 0.000000 0.000000
# 3 -0.001662 -0.003340 0.010992 0.000000 0.000000 0.000000
# 4 0.000000 0.000000 0.000000 0.036480 0.000000 0.000000
# 5 0.000000 0.000000 0.000000 0.000000 0.031821 0.000000
# 6 0.000000 0.000000 0.000000 0.000000 0.000000 0.030828
#
#
# Mechanical properties :
#
#
# Convention : Reuss Voigt Hill
#
# Bulk Modulus (GPa) = 50.38436 54.40029 52.39232
# Shear Modulus (GPa) = 31.15048 31.90791 31.52920
#
# Velocity S-wave (km/s) = 3.90941 3.95665 3.93310
# Velocity P-wave (km/s) = 6.71552 6.89667 6.80670
#
# Compressibility (1/GPa) = 0.01984743
#
# Stress axis : x y z
#
# Youngs Moduli (GPa) = 63.27666 95.13400 90.97772
#
# Poissons Ratio (x) = 0.35462 0.15120
# Poissons Ratio (y) = 0.23587 0.30388
# Poissons Ratio (z) = 0.10516 0.31776
#
# Static dielectric constant tensor:
#      x y z
#    x 3.760580 0.000000 0.000000 
#    y 0.000000 3.970260 0.000000 
#    z 0.000000 0.000000 3.631660 
# 
# 
# High freq. dielectric constant tensor:
#      x y z
#    x 1.799860 0.000000 0.000000 
#    y 0.000000 1.805670 0.000000 
#    z 0.000000 0.000000 1.793060 
# 
# From -- ./inp_files/34758.got.cif
#   From: 2010.06.25/outbox.cif.g09.slc.cpg/sg58_18_cif.got.tgz:34758.got - 2010.06.26 21:38:00.
