data_PCOD8237793
_publ_section_title
;
Structure prediction by ZEFSAII (Michael W. Deem and Ramdas Pophale) SiO2 
 PCOD8237793
Probable space group: P N N M
;
_chemical_formula_sum "Si O2"
_cell_formula_units_Z 48
_cell_length_a 16.253044
_cell_length_b 5.056496
_cell_length_c 21.371910
_cell_angle_alpha 90.000000
_cell_angle_beta 90.000000
_cell_angle_gamma 90.000000
_cell_volume 1756.417339
_symmetry_space_group_name_H-M "P N N M"
_symmetry_group_IT_number 58
_symmetry_cell_setting 'orthorhombic'
loop_
_space_group_symop_operation_xyz
x,y,z
-x,-y,z
1/2+x,1/2-y,1/2-z
1/2-x,1/2+y,1/2-z
-x,-y,-z
x,y,-z
1/2-x,1/2+y,1/2+z
1/2+x,1/2-y,1/2+z
loop_
_atom_site_type_symbol
_atom_site_label
_atom_site_fract_x
_atom_site_fract_y
_atom_site_fract_z
Si Si1 0.769103 0.908217 0.788176
Si Si2 0.132351 0.931874 0.426150
Si Si3 0.815771 0.560991 0.070312
Si Si4 0.882804 0.561483 0.643401
Si Si5 0.947952 0.737416 0.776236
Si Si6 0.584653 0.587727 0.570647
O O1 0.721604 0.646815 0.762049
O O2 0.715611 0.028173 0.844944
O O3 0.861170 0.814043 0.811686
O O4 0.125013 0.883003 0.500000
O O5 0.226003 0.921769 0.399474
O O6 0.082319 0.705387 0.388711
O O7 0.096884 0.214289 0.407399
O O8 0.874297 0.342854 0.104535
O O9 0.852684 0.849902 0.069935
O O10 0.803140 0.452093 0.000000
O O11 0.925400 0.619028 0.708757
O O12 0.000000 0.500000 0.810105
O O13 0.000000 0.000000 0.767348
O O14 0.500000 0.500000 0.607391
O O15 0.558119 0.670451 0.500000
#
# Coordination Sequence:
#
# PCOD8237793 Si02
#       6
#     8   8   8   8   8   8
#     4  10  20  38  64  98 132 164 205 260 332 404
#     4  11  22  37  59  86 120 167 223 273 305 349
#     4   9  17  28  43  66  94 132 189 249 294 330
#     4  11  22  39  64  93 129 170 213 261 317 385
#     4  11  22  39  67 101 133 163 203 261 333 410
#     4   9  15  24  40  61  85 117 164 230 302 356
#
# _framework density 27.328358999999999
#
# number of rings (size 3 to 8) (size 9 to 14) (size 15 to 20)
#    0.000    1.833    0.000    7.000    0.000    4.667 
#    0.000    0.000    0.000   20.000    0.000    0.000 
#    0.000    0.667    0.000    0.000    0.000    0.000 
#
# Total GULP energy -595029.954064 kJ/mol
# GULP energy per Si atom -12396.457376 kJ/mol
# Density = 2.726616 g / cm^3
# Si number density = 27.328359 Si / 1000 Ang^3
#
#
#
# Elastic Constant Matrix: (Units=GPa)
#
#
# Indices 1 2 3 4 5 6 
#
# 1 79.4733 15.4680 -12.7313 0.0000 0.0000 0.0000
# 2 15.4680 170.5711 26.9639 0.0000 0.0000 0.0000
# 3 -12.7313 26.9639 61.7711 0.0000 0.0000 0.0000
# 4 0.0000 0.0000 0.0000 2.1798 0.0000 0.0000
# 5 0.0000 0.0000 0.0000 0.0000 9.1658 0.0000
# 6 0.0000 0.0000 0.0000 0.0000 0.0000 40.2119
#
#
#
# Elastic Compliance Matrix: (Units=1/GPa)
#
#
# Indices 1 2 3 4 5 6 
#
# 1 0.013502 -0.001788 0.003563 0.000000 0.000000 0.000000
# 2 -0.001788 0.006534 -0.003221 0.000000 0.000000 0.000000
# 3 0.003563 -0.003221 0.018329 0.000000 0.000000 0.000000
# 4 0.000000 0.000000 0.000000 0.458764 0.000000 0.000000
# 5 0.000000 0.000000 0.000000 0.000000 0.109101 0.000000
# 6 0.000000 0.000000 0.000000 0.000000 0.000000 0.024868
#
#
# Mechanical properties :
#
#
# Convention : Reuss Voigt Hill
#
# Bulk Modulus (GPa) = 28.18953 41.24629 34.71791
# Shear Modulus (GPa) = 7.74219 29.11916 18.43067
#
# Velocity S-wave (km/s) = 1.68498 3.26779 2.59977
# Velocity P-wave (km/s) = 3.75807 5.41881 4.66297
#
# Compressibility (1/GPa) = 0.03547416
#
# Stress axis : x y z
#
# Youngs Moduli (GPa) = 74.06558 153.04859 54.55839
#
# Poissons Ratio (x) = 0.27359 -0.19439
# Poissons Ratio (y) = 0.13240 0.17571
# Poissons Ratio (z) = -0.26390 0.49290
#
# Static dielectric constant tensor:
#      x y z
#    x 5.323260 0.000000 0.000000 
#    y 0.000000 5.949000 0.000000 
#    z 0.000000 0.000000 4.957890 
# 
# 
# High freq. dielectric constant tensor:
#      x y z
#    x 2.094770 0.000000 0.000000 
#    y 0.000000 2.121930 0.000000 
#    z 0.000000 0.000000 2.094410 
# 
# From -- ./inp_files/32309.got.cif
#   From: 2010.06.25/outbox.cif.g09.slc.cpg/sg58_17_cif.got.tgz:32309.got - 2010.06.26 21:38:00.
