data_PCOD8237631
_publ_section_title
;
Structure prediction by ZEFSAII (Michael W. Deem and Ramdas Pophale) SiO2 
 PCOD8237631
Probable space group: P N N M
;
_chemical_formula_sum "Si O2"
_cell_formula_units_Z 48
_cell_length_a 10.410981
_cell_length_b 9.015621
_cell_length_c 24.129947
_cell_angle_alpha 90.000000
_cell_angle_beta 90.000000
_cell_angle_gamma 90.000000
_cell_volume 2264.872029
_symmetry_space_group_name_H-M "P N N M"
_symmetry_group_IT_number 58
_symmetry_cell_setting 'orthorhombic'
loop_
_space_group_symop_operation_xyz
x,y,z
-x,-y,z
1/2+x,1/2-y,1/2-z
1/2-x,1/2+y,1/2-z
-x,-y,-z
x,y,-z
1/2-x,1/2+y,1/2+z
1/2+x,1/2-y,1/2+z
loop_
_atom_site_type_symbol
_atom_site_label
_atom_site_fract_x
_atom_site_fract_y
_atom_site_fract_z
Si Si1 0.643144 0.138347 0.251644
Si Si2 0.375130 0.589285 0.934886
Si Si3 0.877689 0.586395 0.934355
Si Si4 0.131854 0.686989 0.785232
Si Si5 0.712442 0.146785 0.867024
Si Si6 0.865139 0.920014 0.064120
O O1 0.768129 0.242790 0.260156
O O2 0.514334 0.226572 0.269139
O O3 0.630109 0.093941 0.186367
O O4 0.655284 0.989746 0.287988
O O5 0.500000 0.500000 0.915461
O O6 0.251704 0.495336 0.916509
O O7 0.375072 0.748315 0.905294
O O8 0.376112 0.619713 0.000000
O O9 0.000000 0.500000 0.908227
O O10 0.874908 0.754033 0.911422
O O11 0.893635 0.591872 0.000000
O O12 0.163620 0.758727 0.845122
O O13 0.756084 0.005326 0.901931
O O14 0.822755 0.918819 0.000000
O O15 0.000000 0.000000 0.071645
#
# Coordination Sequence:
#
# PCOD8237631 Si02
#       6
#     8   8   8   8   8   8
#     4   9  21  42  61  84 117 155 204 262 311 366
#     4  10  21  40  61  91 130 165 205 250 304 382
#     4   9  18  36  60  86 123 165 201 245 295 353
#     4   9  21  42  61  85 118 154 207 259 314 363
#     4  10  22  39  62  92 119 168 208 252 327 365
#     4  10  20  37  60  95 134 163 200 251 306 376
#
# _framework density 21.193252000000001
#
# number of rings (size 3 to 8) (size 9 to 14) (size 15 to 20)
#    1.000    1.500    0.000    1.500    0.000    6.000 
#   18.000    0.000    0.000    4.000    0.000    0.000 
#    0.000    0.000    0.000    0.000    0.000    0.000 
#
# Total GULP energy -595007.616379 kJ/mol
# GULP energy per Si atom -12395.992008 kJ/mol
# Density = 2.114501 g / cm^3
# Si number density = 21.193252 Si / 1000 Ang^3
#
#
#
# Elastic Constant Matrix: (Units=GPa)
#
#
# Indices 1 2 3 4 5 6 
#
# 1 116.4705 45.9732 12.1536 0.0000 0.0000 0.0000
# 2 45.9732 120.4307 17.9053 0.0000 0.0000 0.0000
# 3 12.1536 17.9053 46.8597 0.0000 0.0000 0.0000
# 4 0.0000 0.0000 0.0000 17.4469 0.0000 0.0000
# 5 0.0000 0.0000 0.0000 0.0000 18.8492 0.0000
# 6 0.0000 0.0000 0.0000 0.0000 0.0000 35.4723
#
#
#
# Elastic Compliance Matrix: (Units=1/GPa)
#
#
# Indices 1 2 3 4 5 6 
#
# 1 0.010175 -0.003702 -0.001224 0.000000 0.000000 0.000000
# 2 -0.003702 0.010151 -0.002918 0.000000 0.000000 0.000000
# 3 -0.001224 -0.002918 0.022773 0.000000 0.000000 0.000000
# 4 0.000000 0.000000 0.000000 0.057317 0.000000 0.000000
# 5 0.000000 0.000000 0.000000 0.000000 0.053053 0.000000
# 6 0.000000 0.000000 0.000000 0.000000 0.000000 0.028191
#
#
# Mechanical properties :
#
#
# Convention : Reuss Voigt Hill
#
# Bulk Modulus (GPa) = 36.48477 48.42503 42.45490
# Shear Modulus (GPa) = 24.21481 28.20226 26.20854
#
# Velocity S-wave (km/s) = 3.38386 3.65186 3.52041
# Velocity P-wave (km/s) = 5.70263 6.37811 6.04981
#
# Compressibility (1/GPa) = 0.02740870
#
# Stress axis : x y z
#
# Youngs Moduli (GPa) = 98.28072 98.51542 43.91169
#
# Poissons Ratio (x) = 0.36472 0.05376
# Poissons Ratio (y) = 0.36385 0.12815
# Poissons Ratio (z) = 0.12033 0.28751
#
# Static dielectric constant tensor:
#      x y z
#    x 3.724500 0.000000 0.000000 
#    y 0.000000 3.745160 0.000000 
#    z 0.000000 0.000000 3.565030 
# 
# 
# High freq. dielectric constant tensor:
#      x y z
#    x 1.822990 0.000000 0.000000 
#    y 0.000000 1.830820 0.000000 
#    z 0.000000 0.000000 1.819340 
# 
# From -- ./inp_files/31902.got.cif
#   From: 2010.06.25/outbox.cif.g09.slc.cpg/sg58_16_cif.got.tgz:31902.got - 2010.06.26 21:38:00.
