data_PCOD8237128
_publ_section_title
;
Structure prediction by ZEFSAII (Michael W. Deem and Ramdas Pophale) SiO2 
 PCOD8237128
Probable space group: P N N M
;
_chemical_formula_sum "Si O2"
_cell_formula_units_Z 64
_cell_length_a 24.265398
_cell_length_b 14.204136
_cell_length_c 9.063849
_cell_angle_alpha 90.000000
_cell_angle_beta 90.000000
_cell_angle_gamma 90.000000
_cell_volume 3124.027891
_symmetry_space_group_name_H-M "P N N M"
_symmetry_group_IT_number 58
_symmetry_cell_setting 'orthorhombic'
loop_
_space_group_symop_operation_xyz
x,y,z
-x,-y,z
1/2+x,1/2-y,1/2-z
1/2-x,1/2+y,1/2-z
-x,-y,-z
x,y,-z
1/2-x,1/2+y,1/2+z
1/2+x,1/2-y,1/2+z
loop_
_atom_site_type_symbol
_atom_site_label
_atom_site_fract_x
_atom_site_fract_y
_atom_site_fract_z
Si Si1 0.061757 0.021782 0.172046
Si Si2 0.410079 0.736233 0.671281
Si Si3 0.109988 0.857078 0.670324
Si Si4 0.669477 0.992041 0.674096
Si Si5 0.193887 0.324900 0.328151
Si Si6 0.514406 0.775176 0.164468
Si Si7 0.939866 0.468484 0.667735
Si Si8 0.194073 0.719731 0.828857
O O1 0.079130 0.127670 0.208491
O O2 0.108249 0.958794 0.252748
O O3 0.065086 0.998841 0.000000
O O4 0.000000 0.000000 0.230335
O O5 0.399146 0.754916 0.500000
O O6 0.358864 0.773281 0.762417
O O7 0.465180 0.791366 0.720388
O O8 0.125893 0.868243 0.500000
O O9 0.047687 0.820043 0.693559
O O10 0.153531 0.787510 0.742169
O O11 0.673744 0.004070 0.500000
O O12 0.606542 0.010216 0.725367
O O13 0.690040 0.888872 0.726138
O O14 0.705659 0.074175 0.750137
O O15 0.184824 0.343984 0.500000
O O16 0.244438 0.255060 0.299024
O O17 0.560854 0.855734 0.179660
O O18 0.488613 0.776855 0.000000
O O19 0.928569 0.502972 0.500000
O O20 0.000000 0.500000 0.721770
O O21 0.177667 0.724771 0.000000
#
# Coordination Sequence:
#
# PCOD8237128 Si02
#       8
#     8   8   8   8   8   8   8   8
#     4  10  21  38  59  87 127 171 211 255 310 372
#     4  11  23  39  62  91 124 165 211 260 313 368
#     4  11  22  36  61  93 123 160 208 258 306 363
#     4  11  23  41  66  95 124 157 206 258 307 366
#     4  11  25  45  66  90 125 166 206 254 314 371
#     4  10  20  34  55  88 126 161 201 250 308 370
#     4  10  20  35  57  87 124 165 204 246 305 371
#     4  10  24  45  67  90 122 165 208 256 312 369
#
# _framework density 20.486374000000001
#
# number of rings (size 3 to 8) (size 9 to 14) (size 15 to 20)
#    0.000    1.500    2.500    2.250    0.000    6.000 
#    0.000    2.500    0.000    0.000    0.000    0.000 
#    0.000    0.000    0.000    0.000    0.000    0.000 
#
# Total GULP energy -793687.445947 kJ/mol
# GULP energy per Si atom -12401.366343 kJ/mol
# Density = 2.043975 g / cm^3
# Si number density = 20.486374 Si / 1000 Ang^3
#
#
#
# Elastic Constant Matrix: (Units=GPa)
#
#
# Indices 1 2 3 4 5 6 
#
# 1 78.9706 41.6541 47.7554 0.0000 0.0000 0.0000
# 2 41.6541 90.7157 44.5889 0.0000 0.0000 0.0000
# 3 47.7554 44.5889 86.7083 0.0000 0.0000 0.0000
# 4 0.0000 0.0000 0.0000 32.9965 0.0000 0.0000
# 5 0.0000 0.0000 0.0000 0.0000 29.9384 0.0000
# 6 0.0000 0.0000 0.0000 0.0000 0.0000 27.3515
#
#
#
# Elastic Compliance Matrix: (Units=1/GPa)
#
#
# Indices 1 2 3 4 5 6 
#
# 1 0.020680 -0.005216 -0.008707 0.000000 0.000000 0.000000
# 2 -0.005216 0.016068 -0.005390 0.000000 0.000000 0.000000
# 3 -0.008707 -0.005390 0.019100 0.000000 0.000000 0.000000
# 4 0.000000 0.000000 0.000000 0.030306 0.000000 0.000000
# 5 0.000000 0.000000 0.000000 0.000000 0.033402 0.000000
# 6 0.000000 0.000000 0.000000 0.000000 0.000000 0.036561
#
#
# Mechanical properties :
#
#
# Convention : Reuss Voigt Hill
#
# Bulk Modulus (GPa) = 58.06710 58.26571 58.16641
# Shear Modulus (GPa) = 24.93971 26.21703 25.57837
#
# Velocity S-wave (km/s) = 3.49288 3.58121 3.53732
# Velocity P-wave (km/s) = 6.68377 6.75300 6.71848
#
# Compressibility (1/GPa) = 0.01722146
#
# Stress axis : x y z
#
# Youngs Moduli (GPa) = 48.35697 62.23690 52.35489
#
# Poissons Ratio (x) = 0.32460 0.45588
# Poissons Ratio (y) = 0.25221 0.28220
# Poissons Ratio (z) = 0.42106 0.33546
#
# Static dielectric constant tensor:
#      x y z
#    x 3.534510 0.000000 0.000000 
#    y 0.000000 4.026050 0.000000 
#    z 0.000000 0.000000 3.663470 
# 
# 
# High freq. dielectric constant tensor:
#      x y z
#    x 1.787660 0.000000 0.000000 
#    y 0.000000 1.819360 0.000000 
#    z 0.000000 0.000000 1.799220 
# 
# From -- ./inp_files/9959.got.cif
#   From: 2010.06.25/outbox.cif.g09.slc.cpg/sg58_5_cif.got.tgz:9959.got - 2010.06.26 21:38:00.
