data_PCOD8237668
_publ_section_title
;
Structure prediction by ZEFSAII (Michael W. Deem and Ramdas Pophale) SiO2 
 PCOD8237668
Probable space group: P N N M
;
_chemical_formula_sum "Si O2"
_cell_formula_units_Z 44
_cell_length_a 13.650203
_cell_length_b 9.751639
_cell_length_c 15.896261
_cell_angle_alpha 90.000000
_cell_angle_beta 90.000000
_cell_angle_gamma 90.000000
_cell_volume 2115.980741
_symmetry_space_group_name_H-M "P N N M"
_symmetry_group_IT_number 58
_symmetry_cell_setting 'orthorhombic'
loop_
_space_group_symop_operation_xyz
x,y,z
-x,-y,z
1/2+x,1/2-y,1/2-z
1/2-x,1/2+y,1/2-z
-x,-y,-z
x,y,-z
1/2-x,1/2+y,1/2+z
1/2+x,1/2-y,1/2+z
loop_
_atom_site_type_symbol
_atom_site_label
_atom_site_fract_x
_atom_site_fract_y
_atom_site_fract_z
Si Si1 0.747398 0.870735 0.092224
Si Si2 0.664336 0.008206 0.243757
Si Si3 0.794021 0.066142 0.595618
Si Si4 0.000000 0.000000 0.654283
Si Si5 0.525579 0.351930 0.408432
Si Si6 0.497928 0.214541 0.250233
O O1 0.735889 0.988593 0.163471
O O2 0.691634 0.728359 0.113613
O O3 0.859498 0.829964 0.086942
O O4 0.712287 0.926204 0.000000
O O5 0.589543 0.884403 0.226164
O O6 0.722612 0.001321 0.332416
O O7 0.605319 0.149633 0.233790
O O8 0.752735 0.042184 0.500000
O O9 0.901056 0.995556 0.599158
O O10 0.995153 0.137731 0.708458
O O11 0.500000 0.500000 0.370309
O O12 0.476179 0.336288 0.500000
O O13 0.482206 0.233856 0.349985
#
# Coordination Sequence:
#
# PCOD8237668 Si02
#       6
#     8   8   8   4   8   8
#     4  10  21  42  66  92 130 174 210 262 328 386
#     4  11  24  41  64  97 129 166 212 266 325 385
#     4  11  24  42  67  95 130 172 217 268 325 389
#     4  12  23  42  67  88 132 172 221 262 318 390
#     4  10  20  37  62  91 123 164 213 259 318 384
#     4  11  23  39  64  94 127 169 211 265 327 381
#
# _framework density 20.794142000000001
#
# number of rings (size 3 to 8) (size 9 to 14) (size 15 to 20)
#    0.000    1.273    4.545    1.364    0.000    0.727 
#    0.000    5.455    0.000    0.000    0.000    0.000 
#    0.000    0.000    0.000    0.000    0.000    0.000 
#
# Total GULP energy -545212.536602 kJ/mol
# GULP energy per Si atom -12391.194014 kJ/mol
# Density = 2.074681 g / cm^3
# Si number density = 20.794142 Si / 1000 Ang^3
#
#
#
# Elastic Constant Matrix: (Units=GPa)
#
#
# Indices 1 2 3 4 5 6 
#
# 1 58.9321 5.5212 11.2727 0.0000 0.0000 0.0000
# 2 5.5212 78.5217 35.1808 0.0000 0.0000 0.0000
# 3 11.2727 35.1808 130.9235 0.0000 0.0000 0.0000
# 4 0.0000 0.0000 0.0000 39.6989 0.0000 0.0000
# 5 0.0000 0.0000 0.0000 0.0000 38.1029 0.0000
# 6 0.0000 0.0000 0.0000 0.0000 0.0000 27.0529
#
#
#
# Elastic Compliance Matrix: (Units=1/GPa)
#
#
# Indices 1 2 3 4 5 6 
#
# 1 0.017280 -0.000623 -0.001320 0.000000 0.000000 0.000000
# 2 -0.000623 0.014501 -0.003843 0.000000 0.000000 0.000000
# 3 -0.001320 -0.003843 0.008784 0.000000 0.000000 0.000000
# 4 0.000000 0.000000 0.000000 0.025190 0.000000 0.000000
# 5 0.000000 0.000000 0.000000 0.000000 0.026245 0.000000
# 6 0.000000 0.000000 0.000000 0.000000 0.000000 0.036965
#
#
# Mechanical properties :
#
#
# Convention : Reuss Voigt Hill
#
# Bulk Modulus (GPa) = 34.49269 41.36962 37.93116
# Shear Modulus (GPa) = 33.28872 35.39779 34.34326
#
# Velocity S-wave (km/s) = 4.00543 4.13037 4.06838
# Velocity P-wave (km/s) = 6.16563 6.53334 6.35215
#
# Compressibility (1/GPa) = 0.02899165
#
# Stress axis : x y z
#
# Youngs Moduli (GPa) = 57.87159 68.96107 113.83868
#
# Poissons Ratio (x) = 0.04300 0.15030
# Poissons Ratio (y) = 0.03608 0.43747
# Poissons Ratio (z) = 0.07641 0.26501
#
# Static dielectric constant tensor:
#      x y z
#    x 3.732230 0.000000 0.000000 
#    y 0.000000 3.697520 0.000000 
#    z 0.000000 0.000000 4.074540 
# 
# 
# High freq. dielectric constant tensor:
#      x y z
#    x 1.808450 0.000000 0.000000 
#    y 0.000000 1.801860 0.000000 
#    z 0.000000 0.000000 1.824230 
# 
# From -- ./inp_files/26734.got.cif
#   From: 2010.06.25/outbox.cif.g09.slc.cpg/sg58_14_cif.got.tgz:26734.got - 2010.06.26 21:38:00.
