data_PCOD8237418
_publ_section_title
;
Structure prediction by ZEFSAII (Michael W. Deem and Ramdas Pophale) SiO2 
 PCOD8237418
Probable space group: P N N M
;
_chemical_formula_sum "Si O2"
_cell_formula_units_Z 56
_cell_length_a 16.312563
_cell_length_b 19.941657
_cell_length_c 8.826066
_cell_angle_alpha 90.000000
_cell_angle_beta 90.000000
_cell_angle_gamma 90.000000
_cell_volume 2871.115176
_symmetry_space_group_name_H-M "P N N M"
_symmetry_group_IT_number 58
_symmetry_cell_setting 'orthorhombic'
loop_
_space_group_symop_operation_xyz
x,y,z
-x,-y,z
1/2+x,1/2-y,1/2-z
1/2-x,1/2+y,1/2-z
-x,-y,-z
x,y,-z
1/2-x,1/2+y,1/2+z
1/2+x,1/2-y,1/2+z
loop_
_atom_site_type_symbol
_atom_site_label
_atom_site_fract_x
_atom_site_fract_y
_atom_site_fract_z
Si Si1 0.760827 0.468962 0.823447
Si Si2 0.999337 0.318626 0.178985
Si Si3 0.807316 0.112477 0.673196
Si Si4 0.929850 0.448204 0.321738
Si Si5 0.525447 0.679760 0.177477
Si Si6 0.670828 0.197985 0.823275
Si Si7 0.346883 0.651420 0.177402
O O1 0.704548 0.533968 0.798759
O O2 0.843707 0.479301 0.729838
O O3 0.710675 0.406156 0.751720
O O4 0.782561 0.458559 0.000000
O O5 0.942056 0.377957 0.238094
O O6 0.959960 0.249646 0.237399
O O7 0.091915 0.329799 0.235762
O O8 0.998763 0.318918 0.000000
O O9 0.787457 0.132217 0.500000
O O10 0.901164 0.129048 0.714321
O O11 0.749628 0.155220 0.781695
O O12 0.930560 0.435992 0.500000
O O13 0.000000 0.500000 0.271885
O O14 0.440799 0.646001 0.236074
O O15 0.518101 0.696477 0.000000
O O16 0.688349 0.275396 0.779763
O O17 0.651493 0.190899 0.000000
O O18 0.346188 0.638701 0.000000
#
# Coordination Sequence:
#
# PCOD8237418 Si02
#       7
#     8   8   8   8   8   8   8
#     4  10  21  37  57  85 117 151 195 239 286 341
#     4  11  22  37  59  85 112 146 192 241 291 343
#     4  10  21  35  56  86 118 151 191 239 285 339
#     4  11  24  40  58  82 115 154 192 235 295 357
#     4   9  19  37  58  84 116 151 191 235 288 341
#     4  10  20  36  58  82 115 152 190 236 288 347
#     4   8  17  35  57  81 111 149 190 234 283 336
#
# _framework density 19.504615999999999
#
# number of rings (size 3 to 8) (size 9 to 14) (size 15 to 20)
#    0.000    2.143    0.000    3.857    2.000    5.143 
#    0.000    5.714    0.000    0.000    0.000    6.000 
#    0.000    0.000    0.000    0.000    0.000    0.000 
#
# Total GULP energy -694551.331843 kJ/mol
# GULP energy per Si atom -12402.702354 kJ/mol
# Density = 1.946022 g / cm^3
# Si number density = 19.504616 Si / 1000 Ang^3
#
#
#
# Elastic Constant Matrix: (Units=GPa)
#
#
# Indices 1 2 3 4 5 6 
#
# 1 87.6571 49.7489 28.8586 0.0000 0.0000 0.0000
# 2 49.7489 103.1662 33.7982 0.0000 0.0000 0.0000
# 3 28.8586 33.7982 69.7925 0.0000 0.0000 0.0000
# 4 0.0000 0.0000 0.0000 22.5393 0.0000 0.0000
# 5 0.0000 0.0000 0.0000 0.0000 24.6178 0.0000
# 6 0.0000 0.0000 0.0000 0.0000 0.0000 39.3321
#
#
#
# Elastic Compliance Matrix: (Units=1/GPa)
#
#
# Indices 1 2 3 4 5 6 
#
# 1 0.016399 -0.006759 -0.003508 0.000000 0.000000 0.000000
# 2 -0.006759 0.014306 -0.004133 0.000000 0.000000 0.000000
# 3 -0.003508 -0.004133 0.017780 0.000000 0.000000 0.000000
# 4 0.000000 0.000000 0.000000 0.044367 0.000000 0.000000
# 5 0.000000 0.000000 0.000000 0.000000 0.040621 0.000000
# 6 0.000000 0.000000 0.000000 0.000000 0.000000 0.025425
#
#
# Mechanical properties :
#
#
# Convention : Reuss Voigt Hill
#
# Bulk Modulus (GPa) = 50.79821 53.93633 52.36727
# Shear Modulus (GPa) = 25.73877 27.17853 26.45865
#
# Velocity S-wave (km/s) = 3.63660 3.73693 3.68711
# Velocity P-wave (km/s) = 6.61316 6.80681 6.71069
#
# Compressibility (1/GPa) = 0.01968573
#
# Stress axis : x y z
#
# Youngs Moduli (GPa) = 60.98052 69.89876 56.24195
#
# Poissons Ratio (x) = 0.47242 0.19728
# Poissons Ratio (y) = 0.41214 0.23248
# Poissons Ratio (z) = 0.21390 0.28893
#
# Static dielectric constant tensor:
#      x y z
#    x 3.656600 0.000000 0.000000 
#    y 0.000000 3.649910 0.000000 
#    z 0.000000 0.000000 3.374570 
# 
# 
# High freq. dielectric constant tensor:
#      x y z
#    x 1.764870 0.000000 0.000000 
#    y 0.000000 1.765090 0.000000 
#    z 0.000000 0.000000 1.742430 
# 
# From -- ./inp_files/6407.got.cif
#   From: 2010.06.25/outbox.cif.g09.slc.cpg/sg58_4_cif.got.tgz:6407.got - 2010.06.26 21:38:00.
