data_PCOD8237411
_publ_section_title
;
Structure prediction by ZEFSAII (Michael W. Deem and Ramdas Pophale) SiO2 
 PCOD8237411
Probable space group: P N N M
;
_chemical_formula_sum "Si O2"
_cell_formula_units_Z 64
_cell_length_a 28.537154
_cell_length_b 12.828245
_cell_length_c 9.272630
_cell_angle_alpha 90.000000
_cell_angle_beta 90.000000
_cell_angle_gamma 90.000000
_cell_volume 3394.539255
_symmetry_space_group_name_H-M "P N N M"
_symmetry_group_IT_number 58
_symmetry_cell_setting 'orthorhombic'
loop_
_space_group_symop_operation_xyz
x,y,z
-x,-y,z
1/2+x,1/2-y,1/2-z
1/2-x,1/2+y,1/2-z
-x,-y,-z
x,y,-z
1/2-x,1/2+y,1/2+z
1/2+x,1/2-y,1/2+z
loop_
_atom_site_type_symbol
_atom_site_label
_atom_site_fract_x
_atom_site_fract_y
_atom_site_fract_z
Si Si1 0.401547 0.608723 0.330631
Si Si2 0.533213 0.804604 0.168736
Si Si3 0.200953 0.629341 0.329025
Si Si4 0.321013 0.353521 0.838247
Si Si5 0.071874 0.914252 0.338944
Si Si6 0.391150 0.019404 0.831579
Si Si7 0.060270 0.334043 0.171339
Si Si8 0.701225 0.453690 0.330003
O O1 0.405984 0.591676 0.500000
O O2 0.433271 0.517634 0.258753
O O3 0.420219 0.720972 0.282204
O O4 0.347099 0.601889 0.280358
O O5 0.542290 0.684898 0.219010
O O6 0.577705 0.878044 0.199316
O O7 0.490916 0.850336 0.262070
O O8 0.520201 0.807572 0.000000
O O9 0.199561 0.635261 0.500000
O O10 0.187005 0.741354 0.266542
O O11 0.162092 0.544576 0.281684
O O12 0.253212 0.606718 0.271719
O O13 0.375448 0.376025 0.840508
O O14 0.293790 0.432747 0.737043
O O15 0.300291 0.360782 0.000000
O O16 0.055453 0.944392 0.500000
O O17 0.406123 0.921886 0.735457
O O18 0.394373 0.988847 0.000000
O O19 0.057982 0.346091 0.000000
O O20 0.702592 0.465112 0.500000
#
# Coordination Sequence:
#
# PCOD8237411 Si02
#       8
#     8   8   8   8   8   8   8   8
#     4   9  20  37  52  72 109 149 177 211 265 323
#     4  10  20  36  58  82 106 136 178 227 275 318
#     4   9  17  32  56  80 102 134 175 216 264 319
#     4   9  16  31  53  76 102 134 171 217 266 310
#     4   9  17  32  57  82 102 129 177 230 266 308
#     4  10  20  37  58  79 105 138 178 223 270 318
#     4  11  24  38  52  76 113 149 180 215 262 322
#     4   9  18  33  53  77 104 138 175 211 261 320
#
# _framework density 18.853808999999998
#
# number of rings (size 3 to 8) (size 9 to 14) (size 15 to 20)
#    0.000    2.500    1.250    0.750    0.000    5.000 
#    0.000    5.625    0.000    0.000    0.000    0.000 
#    0.000    0.000    0.000    0.000    0.000    0.000 
#
# Total GULP energy -793424.177216 kJ/mol
# GULP energy per Si atom -12397.252769 kJ/mol
# Density = 1.881090 g / cm^3
# Si number density = 18.853809 Si / 1000 Ang^3
#
#
#
# Elastic Constant Matrix: (Units=GPa)
#
#
# Indices 1 2 3 4 5 6 
#
# 1 47.3993 12.9789 17.3787 0.0000 0.0000 0.0000
# 2 12.9789 100.0258 29.1749 0.0000 0.0000 0.0000
# 3 17.3787 29.1749 35.6759 0.0000 0.0000 0.0000
# 4 0.0000 0.0000 0.0000 33.2144 0.0000 0.0000
# 5 0.0000 0.0000 0.0000 0.0000 28.7764 0.0000
# 6 0.0000 0.0000 0.0000 0.0000 0.0000 24.4278
#
#
#
# Elastic Compliance Matrix: (Units=1/GPa)
#
#
# Indices 1 2 3 4 5 6 
#
# 1 0.025698 0.000416 -0.012858 0.000000 0.000000 0.000000
# 2 0.000416 0.013136 -0.010945 0.000000 0.000000 0.000000
# 3 -0.012858 -0.010945 0.043244 0.000000 0.000000 0.000000
# 4 0.000000 0.000000 0.000000 0.030107 0.000000 0.000000
# 5 0.000000 0.000000 0.000000 0.000000 0.034751 0.000000
# 6 0.000000 0.000000 0.000000 0.000000 0.000000 0.040937
#
#
# Mechanical properties :
#
#
# Convention : Reuss Voigt Hill
#
# Bulk Modulus (GPa) = 28.32575 33.57401 30.94988
# Shear Modulus (GPa) = 20.29097 25.52162 22.90630
#
# Velocity S-wave (km/s) = 3.28415 3.68320 3.48938
# Velocity P-wave (km/s) = 5.42562 5.99451 5.71715
#
# Compressibility (1/GPa) = 0.03530357
#
# Stress axis : x y z
#
# Youngs Moduli (GPa) = 38.91364 76.12814 23.12452
#
# Poissons Ratio (x) = -0.03167 0.29734
# Poissons Ratio (y) = -0.01619 0.25309
# Poissons Ratio (z) = 0.50037 0.83320
#
# Static dielectric constant tensor:
#      x y z
#    x 3.569670 0.000000 0.000000 
#    y 0.000000 3.654830 0.000000 
#    z 0.000000 0.000000 3.318480 
# 
# 
# High freq. dielectric constant tensor:
#      x y z
#    x 1.732210 0.000000 0.000000 
#    y 0.000000 1.740200 0.000000 
#    z 0.000000 0.000000 1.709080 
# 
# From -- ./inp_files/11033.got.cif
#   From: 2010.06.25/outbox.cif.g09.slc.cpg/sg58_6_cif.got.tgz:11033.got - 2010.06.26 21:38:00.
