data_PCOD8237874
_publ_section_title
;
Structure prediction by ZEFSAII (Michael W. Deem and Ramdas Pophale) SiO2 
 PCOD8237874
Probable space group: P N N M
;
_chemical_formula_sum "Si O2"
_cell_formula_units_Z 48
_cell_length_a 14.910597
_cell_length_b 18.785951
_cell_length_c 8.527713
_cell_angle_alpha 90.000000
_cell_angle_beta 90.000000
_cell_angle_gamma 90.000000
_cell_volume 2388.695511
_symmetry_space_group_name_H-M "P N N M"
_symmetry_group_IT_number 58
_symmetry_cell_setting 'orthorhombic'
loop_
_space_group_symop_operation_xyz
x,y,z
-x,-y,z
1/2+x,1/2-y,1/2-z
1/2-x,1/2+y,1/2-z
-x,-y,-z
x,y,-z
1/2-x,1/2+y,1/2+z
1/2+x,1/2-y,1/2+z
loop_
_atom_site_type_symbol
_atom_site_label
_atom_site_fract_x
_atom_site_fract_y
_atom_site_fract_z
Si Si1 0.875863 0.679054 0.680466
Si Si2 0.535535 0.576904 0.817884
Si Si3 0.883061 0.830871 0.179929
Si Si4 0.460970 0.074905 0.818728
Si Si5 0.276800 0.430261 0.682176
Si Si6 0.271053 0.080192 0.680967
O O1 0.866555 0.702676 0.500000
O O2 0.877102 0.747193 0.790600
O O3 0.791676 0.631316 0.731897
O O4 0.966887 0.636072 0.708374
O O5 0.500000 0.500000 0.763095
O O6 0.460227 0.635647 0.787550
O O7 0.623197 0.596798 0.717863
O O8 0.561123 0.576415 0.000000
O O9 0.787710 0.865872 0.217341
O O10 0.907407 0.845203 0.000000
O O11 0.374458 0.095173 0.718321
O O12 0.500000 0.000000 0.758106
O O13 0.432808 0.067368 0.000000
O O14 0.264911 0.449398 0.500000
O O15 0.255732 0.499516 0.783342
O O16 0.251927 0.095882 0.500000
#
# Coordination Sequence:
#
# PCOD8237874 Si02
#       6
#     8   8   8   8   8   8
#     4  10  23  43  66  93 130 166 205 261 317 371
#     4  11  23  40  65  96 127 164 207 260 316 374
#     4  12  26  43  65  92 127 169 212 260 315 376
#     4  10  20  40  67  95 125 166 211 255 311 374
#     4  11  22  40  67  96 125 166 213 259 312 375
#     4  12  24  39  63  95 129 166 211 262 312 371
#
# _framework density 20.094649
#
# number of rings (size 3 to 8) (size 9 to 14) (size 15 to 20)
#    0.000    1.000    3.333    4.000    0.000    4.333 
#    0.000    0.000    0.000    0.000    0.000    0.000 
#    0.000    0.000    0.000    0.000    0.000    0.000 
#
# Total GULP energy -595612.042455 kJ/mol
# GULP energy per Si atom -12408.584218 kJ/mol
# Density = 2.004891 g / cm^3
# Si number density = 20.094649 Si / 1000 Ang^3
#
#
#
# Elastic Constant Matrix: (Units=GPa)
#
#
# Indices 1 2 3 4 5 6 
#
# 1 123.9799 39.8497 19.1410 0.0000 0.0000 0.0000
# 2 39.8497 111.0970 25.6651 0.0000 0.0000 0.0000
# 3 19.1410 25.6651 64.9624 0.0000 0.0000 0.0000
# 4 0.0000 0.0000 0.0000 30.1529 0.0000 0.0000
# 5 0.0000 0.0000 0.0000 0.0000 32.2532 0.0000
# 6 0.0000 0.0000 0.0000 0.0000 0.0000 30.4093
#
#
#
# Elastic Compliance Matrix: (Units=1/GPa)
#
#
# Indices 1 2 3 4 5 6 
#
# 1 0.009258 -0.002961 -0.001558 0.000000 0.000000 0.000000
# 2 -0.002961 0.010852 -0.003415 0.000000 0.000000 0.000000
# 3 -0.001558 -0.003415 0.017202 0.000000 0.000000 0.000000
# 4 0.000000 0.000000 0.000000 0.033164 0.000000 0.000000
# 5 0.000000 0.000000 0.000000 0.000000 0.031005 0.000000
# 6 0.000000 0.000000 0.000000 0.000000 0.000000 0.032885
#
#
# Mechanical properties :
#
#
# Convention : Reuss Voigt Hill
#
# Bulk Modulus (GPa) = 46.63300 52.15010 49.39155
# Shear Modulus (GPa) = 31.76994 32.92198 32.34596
#
# Velocity S-wave (km/s) = 3.98051 4.05204 4.01643
# Velocity P-wave (km/s) = 6.66206 6.92103 6.79278
#
# Compressibility (1/GPa) = 0.02144404
#
# Stress axis : x y z
#
# Youngs Moduli (GPa) = 108.01398 92.14809 58.13350
#
# Poissons Ratio (x) = 0.27284 0.09058
# Poissons Ratio (y) = 0.31981 0.19853
# Poissons Ratio (z) = 0.16830 0.31468
#
# Static dielectric constant tensor:
#      x y z
#    x 3.107360 0.000000 0.000000 
#    y 0.000000 3.593060 0.000000 
#    z 0.000000 0.000000 3.593440 
# 
# 
# High freq. dielectric constant tensor:
#      x y z
#    x 1.800500 0.000000 0.000000 
#    y 0.000000 1.779830 0.000000 
#    z 0.000000 0.000000 1.784450 
# 
# From -- ./inp_files/5906.got.cif
#   From: 2010.06.25/outbox.cif.g09.slc.cpg/sg58_3_cif.got.tgz:5906.got - 2010.06.26 21:38:00.
