data_PCOD8237344
_publ_section_title
;
Structure prediction by ZEFSAII (Michael W. Deem and Ramdas Pophale) SiO2 
 PCOD8237344
Probable space group: P N N M
;
_chemical_formula_sum "Si O2"
_cell_formula_units_Z 48
_cell_length_a 23.824303
_cell_length_b 11.817674
_cell_length_c 9.083986
_cell_angle_alpha 90.000000
_cell_angle_beta 90.000000
_cell_angle_gamma 90.000000
_cell_volume 2557.576693
_symmetry_space_group_name_H-M "P N N M"
_symmetry_group_IT_number 58
_symmetry_cell_setting 'orthorhombic'
loop_
_space_group_symop_operation_xyz
x,y,z
-x,-y,z
1/2+x,1/2-y,1/2-z
1/2-x,1/2+y,1/2-z
-x,-y,-z
x,y,-z
1/2-x,1/2+y,1/2+z
1/2+x,1/2-y,1/2+z
loop_
_atom_site_type_symbol
_atom_site_label
_atom_site_fract_x
_atom_site_fract_y
_atom_site_fract_z
Si Si1 0.037831 0.788323 0.828839
Si Si2 0.142610 0.633614 0.167356
Si Si3 0.423768 0.726899 0.171634
Si Si4 0.108221 0.970781 0.328183
Si Si5 0.207987 0.854878 0.827483
Si Si6 0.332457 0.905404 0.826116
O O1 0.081935 0.687817 0.803400
O O2 0.057949 0.901534 0.746913
O O3 0.979405 0.746334 0.763175
O O4 0.031576 0.817693 0.000000
O O5 0.190537 0.725567 0.203917
O O6 0.149835 0.528615 0.273749
O O7 0.148119 0.591520 0.000000
O O8 0.401902 0.601732 0.203036
O O9 0.376641 0.812917 0.231193
O O10 0.436835 0.745441 0.000000
O O11 0.108306 0.941840 0.500000
O O12 0.168333 0.940435 0.260463
O O13 0.270787 0.872458 0.767537
O O14 0.201266 0.882281 0.000000
O O15 0.331498 0.905282 0.000000
#
# Coordination Sequence:
#
# PCOD8237344 Si02
#       6
#     8   8   8   8   8   8
#     4  10  21  38  59  82 113 149 184 231 281 328
#     4   9  20  38  58  79 108 146 185 227 278 330
#     4  10  22  37  55  83 116 148 184 230 279 327
#     4  10  20  35  59  86 112 146 187 229 278 331
#     4   9  20  38  58  80 112 148 184 229 280 329
#     4  10  22  38  56  81 113 149 186 229 277 327
#
# _framework density 18.767765000000001
#
# number of rings (size 3 to 8) (size 9 to 14) (size 15 to 20)
#    0.000    2.333    0.000    2.500    2.333    8.667 
#    0.000    3.333    0.000    0.000    0.000    0.000 
#    0.000    0.000    0.000    0.000    0.000    0.000 
#
# Total GULP energy -595383.701321 kJ/mol
# GULP energy per Si atom -12403.827111 kJ/mol
# Density = 1.872505 g / cm^3
# Si number density = 18.767765 Si / 1000 Ang^3
#
#
#
# Elastic Constant Matrix: (Units=GPa)
#
#
# Indices 1 2 3 4 5 6 
#
# 1 149.7144 67.2614 54.4775 0.0000 0.0000 0.0000
# 2 67.2614 96.6038 33.9133 0.0000 0.0000 0.0000
# 3 54.4775 33.9133 53.6723 0.0000 0.0000 0.0000
# 4 0.0000 0.0000 0.0000 29.6972 0.0000 0.0000
# 5 0.0000 0.0000 0.0000 0.0000 32.8847 0.0000
# 6 0.0000 0.0000 0.0000 0.0000 0.0000 19.5458
#
#
#
# Elastic Compliance Matrix: (Units=1/GPa)
#
#
# Indices 1 2 3 4 5 6 
#
# 1 0.012488 -0.005455 -0.009229 0.000000 0.000000 0.000000
# 2 -0.005455 0.015685 -0.004374 0.000000 0.000000 0.000000
# 3 -0.009229 -0.004374 0.030762 0.000000 0.000000 0.000000
# 4 0.000000 0.000000 0.000000 0.033673 0.000000 0.000000
# 5 0.000000 0.000000 0.000000 0.000000 0.030409 0.000000
# 6 0.000000 0.000000 0.000000 0.000000 0.000000 0.051162
#
#
# Mechanical properties :
#
#
# Convention : Reuss Voigt Hill
#
# Bulk Modulus (GPa) = 48.02968 67.92165 57.97566
# Shear Modulus (GPa) = 22.80645 26.04808 24.42726
#
# Velocity S-wave (km/s) = 3.48974 3.72952 3.61162
# Velocity P-wave (km/s) = 6.47185 7.40371 6.95341
#
# Compressibility (1/GPa) = 0.02082046
#
# Stress axis : x y z
#
# Youngs Moduli (GPa) = 80.07426 63.75384 32.50728
#
# Poissons Ratio (x) = 0.34780 0.30000
# Poissons Ratio (y) = 0.43684 0.14218
# Poissons Ratio (z) = 0.73898 0.27884
#
# Static dielectric constant tensor:
#      x y z
#    x 3.726690 0.000000 0.000000 
#    y 0.000000 3.333710 0.000000 
#    z 0.000000 0.000000 3.397260 
# 
# 
# High freq. dielectric constant tensor:
#      x y z
#    x 1.740630 0.000000 0.000000 
#    y 0.000000 1.727150 0.000000 
#    z 0.000000 0.000000 1.726920 
# 
# From -- ./inp_files/4176.got.cif
#   From: 2010.06.25/outbox.cif.g09.slc.cpg/sg58_3_cif.got.tgz:4176.got - 2010.06.26 21:38:00.
