data_PCOD8237990
_publ_section_title
;
Structure prediction by ZEFSAII (Michael W. Deem and Ramdas Pophale) SiO2 
 PCOD8237990
Probable space group: P N N M
;
_chemical_formula_sum "Si O2"
_cell_formula_units_Z 48
_cell_length_a 10.282156
_cell_length_b 30.504777
_cell_length_c 7.796704
_cell_angle_alpha 90.000000
_cell_angle_beta 90.000000
_cell_angle_gamma 90.000000
_cell_volume 2445.474225
_symmetry_space_group_name_H-M "P N N M"
_symmetry_group_IT_number 58
_symmetry_cell_setting 'orthorhombic'
loop_
_space_group_symop_operation_xyz
x,y,z
-x,-y,z
1/2+x,1/2-y,1/2-z
1/2-x,1/2+y,1/2-z
-x,-y,-z
x,y,-z
1/2-x,1/2+y,1/2+z
1/2+x,1/2-y,1/2+z
loop_
_atom_site_type_symbol
_atom_site_label
_atom_site_fract_x
_atom_site_fract_y
_atom_site_fract_z
Si Si1 0.530956 0.290188 0.305268
Si Si2 0.703358 0.018650 0.500000
Si Si3 0.315720 0.225311 0.197401
Si Si4 0.606808 0.535958 0.305716
Si Si5 0.936304 0.430775 0.000000
Si Si6 0.551879 0.384013 0.195841
Si Si7 0.659421 0.875551 0.193440
O O1 0.558293 0.304776 0.500000
O O2 0.411413 0.256818 0.301309
O O3 0.666440 0.268639 0.236635
O O4 0.497592 0.334295 0.201360
O O5 0.776395 0.031174 0.326352
O O6 0.573754 0.046457 0.500000
O O7 0.677758 0.966766 0.500000
O O8 0.360794 0.175738 0.230765
O O9 0.328839 0.238648 0.000000
O O10 0.500000 0.500000 0.256167
O O11 0.657972 0.528725 0.500000
O O12 0.547958 0.584487 0.292336
O O13 0.927454 0.401626 0.171055
O O14 0.689935 0.387915 0.288523
O O15 0.566649 0.399161 0.000000
O O16 0.614645 0.887472 0.000000
#
# Coordination Sequence:
#
# PCOD8237990 Si02
#       7
#     8   4   8   8   4   8   8
#     4  10  21  36  57  86 120 157 201 253 307 365
#     4  11  25  42  60  92 129 155 208 256 304 373
#     4   9  20  38  57  85 119 155 204 254 301 366
#     4  11  23  40  64  92 123 158 200 255 315 368
#     4  11  24  42  64  88 120 170 206 248 307 360
#     4  11  20  36  63  89 119 154 199 254 306 364
#     4  10  21  39  63  90 120 158 209 249 297 369
#
# _framework density 19.628095999999999
#
# number of rings (size 3 to 8) (size 9 to 14) (size 15 to 20)
#    0.000    1.667    1.667    4.250    1.167    4.000 
#    3.000    1.667    0.000    0.000    0.000    0.000 
#    0.000    0.000    0.000    0.000    0.000    0.000 
#
# Total GULP energy -595326.570315 kJ/mol
# GULP energy per Si atom -12402.636882 kJ/mol
# Density = 1.958342 g / cm^3
# Si number density = 19.628096 Si / 1000 Ang^3
#
#
#
# Elastic Constant Matrix: (Units=GPa)
#
#
# Indices 1 2 3 4 5 6 
#
# 1 81.8084 53.1332 30.4752 0.0000 0.0000 0.0000
# 2 53.1332 93.6127 34.4332 0.0000 0.0000 0.0000
# 3 30.4752 34.4332 105.7792 0.0000 0.0000 0.0000
# 4 0.0000 0.0000 0.0000 31.7287 0.0000 0.0000
# 5 0.0000 0.0000 0.0000 0.0000 20.1296 0.0000
# 6 0.0000 0.0000 0.0000 0.0000 0.0000 33.0462
#
#
#
# Elastic Compliance Matrix: (Units=1/GPa)
#
#
# Indices 1 2 3 4 5 6 
#
# 1 0.019854 -0.010412 -0.002331 0.000000 0.000000 0.000000
# 2 -0.010412 0.017595 -0.002728 0.000000 0.000000 0.000000
# 3 -0.002331 -0.002728 0.011013 0.000000 0.000000 0.000000
# 4 0.000000 0.000000 0.000000 0.031517 0.000000 0.000000
# 5 0.000000 0.000000 0.000000 0.000000 0.049678 0.000000
# 6 0.000000 0.000000 0.000000 0.000000 0.000000 0.030261
#
#
# Mechanical properties :
#
#
# Convention : Reuss Voigt Hill
#
# Bulk Modulus (GPa) = 57.07209 57.47596 57.27403
# Shear Modulus (GPa) = 25.41946 27.85815 26.63880
#
# Velocity S-wave (km/s) = 3.60259 3.77145 3.68799
# Velocity P-wave (km/s) = 6.81504 6.95062 6.88316
#
# Compressibility (1/GPa) = 0.01752170
#
# Stress axis : x y z
#
# Youngs Moduli (GPa) = 50.36741 56.83372 90.80024
#
# Poissons Ratio (x) = 0.59173 0.21164
# Poissons Ratio (y) = 0.52440 0.24770
# Poissons Ratio (z) = 0.11740 0.15504
#
# Static dielectric constant tensor:
#      x y z
#    x 3.350550 0.000000 0.000000 
#    y 0.000000 3.647420 0.000000 
#    z 0.000000 0.000000 3.683560 
# 
# 
# High freq. dielectric constant tensor:
#      x y z
#    x 1.744620 0.000000 0.000000 
#    y 0.000000 1.769560 0.000000 
#    z 0.000000 0.000000 1.778200 
# 
# From -- ./inp_files/3072.got.cif
#   From: 2010.06.25/outbox.cif.g09.slc.cpg/sg58_2_cif.got.tgz:3072.got - 2010.06.26 21:38:00.
