data_PCOD8237937
_publ_section_title
;
Structure prediction by ZEFSAII (Michael W. Deem and Ramdas Pophale) SiO2 
 PCOD8237937
Probable space group: P N N M
;
_chemical_formula_sum "Si O2"
_cell_formula_units_Z 40
_cell_length_a 13.880186
_cell_length_b 5.254878
_cell_length_c 25.717250
_cell_angle_alpha 90.000000
_cell_angle_beta 90.000000
_cell_angle_gamma 90.000000
_cell_volume 1875.782372
_symmetry_space_group_name_H-M "P N N M"
_symmetry_group_IT_number 58
_symmetry_cell_setting 'orthorhombic'
loop_
_space_group_symop_operation_xyz
x,y,z
-x,-y,z
1/2+x,1/2-y,1/2-z
1/2-x,1/2+y,1/2-z
-x,-y,-z
x,y,-z
1/2-x,1/2+y,1/2+z
1/2+x,1/2-y,1/2+z
loop_
_atom_site_type_symbol
_atom_site_label
_atom_site_fract_x
_atom_site_fract_y
_atom_site_fract_z
Si Si1 0.754461 0.830038 0.876316
Si Si2 0.896026 0.624745 0.558546
Si Si3 0.061031 0.247169 0.059635
Si Si4 0.733857 0.115063 0.218571
Si Si5 0.105494 0.068081 0.655947
O O1 0.846336 0.707820 0.903996
O O2 0.689432 0.642843 0.840263
O O3 0.688230 0.940738 0.922020
O O4 0.794096 0.034586 0.833534
O O5 0.872738 0.711770 0.500000
O O6 0.897753 0.870739 0.594716
O O7 0.000000 0.500000 0.562764
O O8 0.000000 0.500000 0.066610
O O9 0.094510 0.212192 0.000000
O O10 0.000000 0.000000 0.077171
O O11 0.780183 0.368666 0.244312
O O12 0.630483 0.196683 0.194230
O O13 0.000000 0.000000 0.676134
#
# Coordination Sequence:
#
# PCOD8237937 Si02
#       5
#     8   8   8   8   8
#     4  11  23  42  72  93 138 180 227 282 342 402
#     4  10  21  35  58 102 149 185 223 263 322 413
#     4  10  24  44  68  98 134 178 231 281 333 393
#     4  11  24  45  71  95 132 175 228 285 342 402
#     4  11  23  41  69 101 141 182 220 275 344 415
#
# _framework density 21.324434
#
# number of rings (size 3 to 8) (size 9 to 14) (size 15 to 20)
#    0.000    1.400    4.000    0.600    5.600    2.000 
#    0.000    1.000    8.800    0.000    0.000    0.000 
#    0.000    0.000    0.000    0.000    0.000    0.000 
#
# Total GULP energy -495551.839801 kJ/mol
# GULP energy per Si atom -12388.795995 kJ/mol
# Density = 2.127590 g / cm^3
# Si number density = 21.324434 Si / 1000 Ang^3
#
#
#
# Elastic Constant Matrix: (Units=GPa)
#
#
# Indices 1 2 3 4 5 6 
#
# 1 116.7060 46.7241 58.6332 0.0000 0.0000 0.0000
# 2 46.7241 121.2843 54.1157 0.0000 0.0000 0.0000
# 3 58.6332 54.1157 138.2207 0.0000 0.0000 0.0000
# 4 0.0000 0.0000 0.0000 44.0806 0.0000 0.0000
# 5 0.0000 0.0000 0.0000 0.0000 795.2522 0.0000
# 6 0.0000 0.0000 0.0000 0.0000 0.0000 32.3030
#
#
#
# Elastic Compliance Matrix: (Units=1/GPa)
#
#
# Indices 1 2 3 4 5 6 
#
# 1 0.011602 -0.002755 -0.003843 0.000000 0.000000 0.000000
# 2 -0.002755 0.010644 -0.002999 0.000000 0.000000 0.000000
# 3 -0.003843 -0.002999 0.010039 0.000000 0.000000 0.000000
# 4 0.000000 0.000000 0.000000 0.022686 0.000000 0.000000
# 5 0.000000 0.000000 0.000000 0.000000 0.001257 0.000000
# 6 0.000000 0.000000 0.000000 0.000000 0.000000 0.030957
#
#
# Mechanical properties :
#
#
# Convention : Reuss Voigt Hill
#
# Bulk Modulus (GPa) = 76.38172 77.23965 76.81069
# Shear Modulus (GPa) = 45.14928 188.77636 116.96282
#
# Velocity S-wave (km/s) = 4.60636 9.41902 7.41406
# Velocity P-wave (km/s) = 8.01174 12.43344 10.45893
#
# Compressibility (1/GPa) = 0.01309214
#
# Stress axis : x y z
#
# Youngs Moduli (GPa) = 86.18993 93.94545 99.61025
#
# Poissons Ratio (x) = 0.25882 0.38281
# Poissons Ratio (y) = 0.23745 0.29871
# Poissons Ratio (z) = 0.33123 0.28173
#
# Static dielectric constant tensor:
#      x y z
#    x 3.518240 0.000000 0.000000 
#    y 0.000000 4.414210 0.000000 
#    z 0.000000 0.000000 4.112950 
# 
# 
# High freq. dielectric constant tensor:
#      x y z
#    x 1.814160 0.000000 0.000000 
#    y 0.000000 1.844940 0.000000 
#    z 0.000000 0.000000 1.848320 
# 
# From -- ./inp_files/32675.got.cif
#   From: 2010.06.25/outbox.cif.g09.slc.cpg/sg58_17_cif.got.tgz:32675.got - 2010.06.26 21:38:00.
