data_PCOD8237787
_publ_section_title
;
Structure prediction by ZEFSAII (Michael W. Deem and Ramdas Pophale) SiO2 
 PCOD8237787
Probable space group: P N N M
;
_chemical_formula_sum "Si O2"
_cell_formula_units_Z 64
_cell_length_a 22.078067
_cell_length_b 16.537974
_cell_length_c 8.850640
_cell_angle_alpha 90.000000
_cell_angle_beta 90.000000
_cell_angle_gamma 90.000000
_cell_volume 3231.603188
_symmetry_space_group_name_H-M "P N N M"
_symmetry_group_IT_number 58
_symmetry_cell_setting 'orthorhombic'
loop_
_space_group_symop_operation_xyz
x,y,z
-x,-y,z
1/2+x,1/2-y,1/2-z
1/2-x,1/2+y,1/2-z
-x,-y,-z
x,y,-z
1/2-x,1/2+y,1/2+z
1/2+x,1/2-y,1/2+z
loop_
_atom_site_type_symbol
_atom_site_label
_atom_site_fract_x
_atom_site_fract_y
_atom_site_fract_z
Si Si1 0.356467 0.352129 0.178153
Si Si2 0.119385 0.686306 0.176118
Si Si3 0.002240 0.408331 0.823880
Si Si4 0.365192 0.641258 0.826768
Si Si5 0.570369 0.504935 0.324269
Si Si6 0.267146 0.080390 0.672479
Si Si7 0.764729 0.590496 0.678444
Si Si8 0.115030 0.322623 0.321534
O O1 0.385843 0.267904 0.228449
O O2 0.400427 0.423774 0.228288
O O3 0.290348 0.360512 0.249449
O O4 0.350001 0.355700 0.000000
O O5 0.177833 0.635877 0.228543
O O6 0.061347 0.632625 0.214124
O O7 0.123313 0.708859 0.000000
O O8 0.054166 0.361176 0.738409
O O9 0.000000 0.500000 0.764285
O O10 0.017509 0.406026 0.000000
O O11 0.399198 0.579480 0.718438
O O12 0.293161 0.632976 0.812422
O O13 0.382330 0.730022 0.767827
O O14 0.385673 0.626936 0.000000
O O15 0.500000 0.500000 0.284510
O O16 0.581656 0.522644 0.500000
O O17 0.277616 0.051583 0.500000
O O18 0.261918 0.003049 0.778487
O O19 0.759097 0.599454 0.500000
O O20 0.826882 0.628846 0.741317
O O21 0.115244 0.327410 0.500000
#
# Coordination Sequence:
#
# PCOD8237787 Si02
#       8
#     8   8   8   8   8   8   8   8
#     4  12  25  41  63  92 124 162 207 254 307 367
#     4  10  22  40  63  90 126 165 204 254 307 362
#     4  10  22  41  64  91 123 163 207 250 301 362
#     4  10  21  39  62  90 122 158 203 250 304 363
#     4  11  25  43  64  90 124 163 202 248 306 368
#     4  10  20  38  64  91 122 163 205 251 309 368
#     4  11  22  39  63  91 125 163 205 255 311 365
#     4  10  23  40  61  90 124 163 203 253 309 360
#
# _framework density 19.804413
#
# number of rings (size 3 to 8) (size 9 to 14) (size 15 to 20)
#    0.000    1.500    1.250    3.375    1.750    6.750 
#    0.000    1.250    0.000    0.000    0.000    0.000 
#    0.000    0.000    0.000    0.000    0.000    0.000 
#
# Total GULP energy -794011.815775 kJ/mol
# GULP energy per Si atom -12406.434621 kJ/mol
# Density = 1.975934 g / cm^3
# Si number density = 19.804413 Si / 1000 Ang^3
#
#
#
# Elastic Constant Matrix: (Units=GPa)
#
#
# Indices 1 2 3 4 5 6 
#
# 1 104.7530 44.5838 21.9660 0.0000 0.0000 0.0000
# 2 44.5838 139.7304 30.8591 0.0000 0.0000 0.0000
# 3 21.9660 30.8591 57.3623 0.0000 0.0000 0.0000
# 4 0.0000 0.0000 0.0000 32.7288 0.0000 0.0000
# 5 0.0000 0.0000 0.0000 0.0000 16.7699 0.0000
# 6 0.0000 0.0000 0.0000 0.0000 0.0000 23.5537
#
#
#
# Elastic Compliance Matrix: (Units=1/GPa)
#
#
# Indices 1 2 3 4 5 6 
#
# 1 0.011413 -0.003037 -0.002736 0.000000 0.000000 0.000000
# 2 -0.003037 0.008930 -0.003641 0.000000 0.000000 0.000000
# 3 -0.002736 -0.003641 0.020440 0.000000 0.000000 0.000000
# 4 0.000000 0.000000 0.000000 0.030554 0.000000 0.000000
# 5 0.000000 0.000000 0.000000 0.000000 0.059631 0.000000
# 6 0.000000 0.000000 0.000000 0.000000 0.000000 0.042456
#
#
# Mechanical properties :
#
#
# Convention : Reuss Voigt Hill
#
# Bulk Modulus (GPa) = 45.55156 55.18484 50.36820
# Shear Modulus (GPa) = 25.05392 28.23962 26.64677
#
# Velocity S-wave (km/s) = 3.56064 3.78024 3.67208
# Velocity P-wave (km/s) = 6.32098 6.85412 6.59295
#
# Compressibility (1/GPa) = 0.02195315
#
# Stress axis : x y z
#
# Youngs Moduli (GPa) = 87.62169 111.98485 48.92455
#
# Poissons Ratio (x) = 0.34011 0.13388
# Poissons Ratio (y) = 0.26612 0.17813
# Poissons Ratio (z) = 0.23977 0.40773
#
# Static dielectric constant tensor:
#      x y z
#    x 3.759950 0.000000 0.000000 
#    y 0.000000 3.768730 0.000000 
#    z 0.000000 0.000000 3.528900 
# 
# 
# High freq. dielectric constant tensor:
#      x y z
#    x 1.787440 0.000000 0.000000 
#    y 0.000000 1.786240 0.000000 
#    z 0.000000 0.000000 1.765120 
# 
# From -- ./inp_files/10101.got.cif
#   From: 2010.06.25/outbox.cif.g09.slc.cpg/sg58_6_cif.got.tgz:10101.got - 2010.06.26 21:38:00.
