data_PCOD8237094
_publ_section_title
;
Structure prediction by ZEFSAII (Michael W. Deem and Ramdas Pophale) SiO2 
 PCOD8237094
Probable space group: P N N M
;
_chemical_formula_sum "Si O2"
_cell_formula_units_Z 64
_cell_length_a 14.983330
_cell_length_b 24.499286
_cell_length_c 9.176886
_cell_angle_alpha 90.000000
_cell_angle_beta 90.000000
_cell_angle_gamma 90.000000
_cell_volume 3368.659452
_symmetry_space_group_name_H-M "P N N M"
_symmetry_group_IT_number 58
_symmetry_cell_setting 'orthorhombic'
loop_
_space_group_symop_operation_xyz
x,y,z
-x,-y,z
1/2+x,1/2-y,1/2-z
1/2-x,1/2+y,1/2-z
-x,-y,-z
x,y,-z
1/2-x,1/2+y,1/2+z
1/2+x,1/2-y,1/2+z
loop_
_atom_site_type_symbol
_atom_site_label
_atom_site_fract_x
_atom_site_fract_y
_atom_site_fract_z
Si Si1 0.504851 0.169490 0.330845
Si Si2 0.995487 0.897422 0.668695
Si Si3 0.657888 0.864046 0.166353
Si Si4 0.722181 0.264140 0.665308
Si Si5 0.546743 0.276062 0.831918
Si Si6 0.178389 0.062926 0.832297
Si Si7 0.293268 0.858013 0.666214
Si Si8 0.832380 0.063213 0.167543
O O1 0.485676 0.177489 0.500000
O O2 0.430638 0.129204 0.263418
O O3 0.497234 0.228640 0.256158
O O4 0.601148 0.142899 0.302272
O O5 0.995804 0.913796 0.500000
O O6 0.006879 0.832401 0.688287
O O7 0.904172 0.918573 0.736330
O O8 0.077178 0.927134 0.745371
O O9 0.691458 0.801716 0.183533
O O10 0.733262 0.905745 0.222665
O O11 0.632776 0.877162 0.000000
O O12 0.683863 0.267461 0.500000
O O13 0.646563 0.285635 0.773688
O O14 0.748425 0.201633 0.699144
O O15 0.551480 0.258552 0.000000
O O16 0.196647 0.999149 0.813723
O O17 0.158260 0.078709 0.000000
O O18 0.273418 0.875312 0.500000
O O19 0.248914 0.900995 0.773273
O O20 0.849670 0.078235 0.000000
#
# Coordination Sequence:
#
# PCOD8237094 Si02
#       8
#     8   8   8   8   8   8   8   8
#     4  10  22  38  58  85 118 153 191 237 288 344
#     4  11  23  37  57  86 118 154 192 232 283 343
#     4  10  20  36  60  86 115 152 189 237 291 338
#     4   9  18  34  57  82 112 150 186 229 287 339
#     4  10  20  34  54  83 117 151 188 228 278 340
#     4  10  22  41  61  84 116 151 193 239 287 339
#     4   9  20  39  58  81 115 151 190 237 287 338
#     4  11  24  39  59  85 112 151 198 240 284 341
#
# _framework density 18.998657000000001
#
# number of rings (size 3 to 8) (size 9 to 14) (size 15 to 20)
#    0.000    2.000    1.250    2.625    1.750    7.500 
#    0.000    0.625    0.000    3.750    0.000    0.000 
#    0.000    0.000    0.000    0.000    0.000    0.000 
#
# Total GULP energy -793797.307964 kJ/mol
# GULP energy per Si atom -12403.082937 kJ/mol
# Density = 1.895541 g / cm^3
# Si number density = 18.998657 Si / 1000 Ang^3
#
#
#
# Elastic Constant Matrix: (Units=GPa)
#
#
# Indices 1 2 3 4 5 6 
#
# 1 80.8152 50.2605 52.9607 0.0000 0.0000 0.0000
# 2 50.2605 95.1291 54.9710 0.0000 0.0000 0.0000
# 3 52.9607 54.9710 111.9384 0.0000 0.0000 0.0000
# 4 0.0000 0.0000 0.0000 23.9139 0.0000 0.0000
# 5 0.0000 0.0000 0.0000 0.0000 37.2659 0.0000
# 6 0.0000 0.0000 0.0000 0.0000 0.0000 26.1037
#
#
#
# Elastic Compliance Matrix: (Units=1/GPa)
#
#
# Indices 1 2 3 4 5 6 
#
# 1 0.021220 -0.007553 -0.006330 0.000000 0.000000 0.000000
# 2 -0.007553 0.017366 -0.004954 0.000000 0.000000 0.000000
# 3 -0.006330 -0.004954 0.014362 0.000000 0.000000 0.000000
# 4 0.000000 0.000000 0.000000 0.041817 0.000000 0.000000
# 5 0.000000 0.000000 0.000000 0.000000 0.026834 0.000000
# 6 0.000000 0.000000 0.000000 0.000000 0.000000 0.038309
#
#
# Mechanical properties :
#
#
# Convention : Reuss Voigt Hill
#
# Bulk Modulus (GPa) = 65.48307 67.14079 66.31193
# Shear Modulus (GPa) = 24.67029 26.10273 25.38651
#
# Velocity S-wave (km/s) = 3.60742 3.71067 3.65941
# Velocity P-wave (km/s) = 7.20370 7.33316 7.26872
#
# Compressibility (1/GPa) = 0.01527112
#
# Stress axis : x y z
#
# Youngs Moduli (GPa) = 47.12559 57.58504 69.63058
#
# Poissons Ratio (x) = 0.43496 0.44079
# Poissons Ratio (y) = 0.35595 0.34497
# Poissons Ratio (z) = 0.29832 0.28530
#
# Static dielectric constant tensor:
#      x y z
#    x 3.398320 0.000000 0.000000 
#    y 0.000000 3.478310 0.000000 
#    z 0.000000 0.000000 3.567490 
# 
# 
# High freq. dielectric constant tensor:
#      x y z
#    x 1.734760 0.000000 0.000000 
#    y 0.000000 1.732360 0.000000 
#    z 0.000000 0.000000 1.743880 
# 
# From -- ./inp_files/6815.got.cif
#   From: 2010.06.25/outbox.cif.g09.slc.cpg/sg58_4_cif.got.tgz:6815.got - 2010.06.26 21:38:00.
