data_PCOD8237433
_publ_section_title
;
Structure prediction by ZEFSAII (Michael W. Deem and Ramdas Pophale) SiO2 
 PCOD8237433
Probable space group: P N N M
;
_chemical_formula_sum "Si O2"
_cell_formula_units_Z 64
_cell_length_a 14.739513
_cell_length_b 24.286767
_cell_length_c 9.074737
_cell_angle_alpha 90.000000
_cell_angle_beta 90.000000
_cell_angle_gamma 90.000000
_cell_volume 3248.530048
_symmetry_space_group_name_H-M "P N N M"
_symmetry_group_IT_number 58
_symmetry_cell_setting 'orthorhombic'
loop_
_space_group_symop_operation_xyz
x,y,z
-x,-y,z
1/2+x,1/2-y,1/2-z
1/2-x,1/2+y,1/2-z
-x,-y,-z
x,y,-z
1/2-x,1/2+y,1/2+z
1/2+x,1/2-y,1/2+z
loop_
_atom_site_type_symbol
_atom_site_label
_atom_site_fract_x
_atom_site_fract_y
_atom_site_fract_z
Si Si1 0.668819 0.232567 0.171904
Si Si2 0.251805 0.047014 0.331623
Si Si3 0.009957 0.671196 0.324833
Si Si4 0.858790 0.232839 0.326040
Si Si5 0.600053 0.517010 0.667035
Si Si6 0.624686 0.357225 0.166728
Si Si7 0.938312 0.449699 0.325234
Si Si8 0.952753 0.136357 0.166189
O O1 0.588095 0.193010 0.231467
O O2 0.761670 0.221110 0.255456
O O3 0.640176 0.294285 0.206888
O O4 0.686895 0.222595 0.000000
O O5 0.275977 0.033073 0.500000
O O6 0.218763 0.109990 0.314296
O O7 0.338578 0.038036 0.231583
O O8 0.172968 0.006483 0.279328
O O9 0.008755 0.672570 0.500000
O O10 0.092263 0.710841 0.270150
O O11 0.025189 0.609178 0.264398
O O12 0.847527 0.233907 0.500000
O O13 0.922182 0.182426 0.280729
O O14 0.500000 0.500000 0.720415
O O15 0.616870 0.495540 0.500000
O O16 0.611300 0.583057 0.672384
O O17 0.553182 0.382232 0.282402
O O18 0.588025 0.363880 0.000000
O O19 0.935788 0.448113 0.500000
O O20 0.000000 0.500000 0.267882
O O21 0.955699 0.160006 0.000000
#
# Coordination Sequence:
#
# PCOD8237433 Si02
#       8
#     8   8   8   8   8   8   8   8
#     4  10  20  37  59  84 117 158 200 241 290 352
#     4  11  23  37  60  91 121 157 196 245 308 359
#     4   9  19  38  62  84 115 157 197 244 298 348
#     4  11  22  38  58  86 121 156 195 242 299 357
#     4  10  21  38  58  84 118 156 198 241 285 347
#     4  10  20  36  58  85 120 157 193 240 299 353
#     4  10  22  41  64  87 113 155 208 254 294 346
#     4  11  22  36  58  85 116 154 195 241 293 348
#
# _framework density 19.701218999999998
#
# number of rings (size 3 to 8) (size 9 to 14) (size 15 to 20)
#    0.000    1.750    2.500    1.875    0.000    3.500 
#    0.000    3.750    0.000    0.000    0.000    0.000 
#    0.000    0.000    0.000    0.000    0.000    0.000 
#
# Total GULP energy -793657.897008 kJ/mol
# GULP energy per Si atom -12400.904641 kJ/mol
# Density = 1.965638 g / cm^3
# Si number density = 19.701219 Si / 1000 Ang^3
#
#
#
# Elastic Constant Matrix: (Units=GPa)
#
#
# Indices 1 2 3 4 5 6 
#
# 1 112.9154 37.8979 14.3081 0.0000 0.0000 0.0000
# 2 37.8979 106.6161 15.5494 0.0000 0.0000 0.0000
# 3 14.3081 15.5494 23.8797 0.0000 0.0000 0.0000
# 4 0.0000 0.0000 0.0000 23.6218 0.0000 0.0000
# 5 0.0000 0.0000 0.0000 0.0000 34.3226 0.0000
# 6 0.0000 0.0000 0.0000 0.0000 0.0000 24.5362
#
#
#
# Elastic Compliance Matrix: (Units=1/GPa)
#
#
# Indices 1 2 3 4 5 6 
#
# 1 0.010430 -0.003089 -0.004238 0.000000 0.000000 0.000000
# 2 -0.003089 0.011279 -0.005493 0.000000 0.000000 0.000000
# 3 -0.004238 -0.005493 0.047993 0.000000 0.000000 0.000000
# 4 0.000000 0.000000 0.000000 0.042334 0.000000 0.000000
# 5 0.000000 0.000000 0.000000 0.000000 0.029135 0.000000
# 6 0.000000 0.000000 0.000000 0.000000 0.000000 0.040756
#
#
# Mechanical properties :
#
#
# Convention : Reuss Voigt Hill
#
# Bulk Modulus (GPa) = 22.69589 42.10245 32.39917
# Shear Modulus (GPa) = 22.49676 28.20651 25.35163
#
# Velocity S-wave (km/s) = 3.38286 3.78790 3.59110
# Velocity P-wave (km/s) = 5.17720 6.36772 5.80307
#
# Compressibility (1/GPa) = 0.04406084
#
# Stress axis : x y z
#
# Youngs Moduli (GPa) = 95.87648 88.66218 20.83653
#
# Poissons Ratio (x) = 0.27392 0.08830
# Poissons Ratio (y) = 0.29620 0.11446
# Poissons Ratio (z) = 0.40630 0.48703
#
# Static dielectric constant tensor:
#      x y z
#    x 3.719190 0.000000 0.000000 
#    y 0.000000 3.843800 0.000000 
#    z 0.000000 0.000000 3.396280 
# 
# 
# High freq. dielectric constant tensor:
#      x y z
#    x 1.767350 0.000000 0.000000 
#    y 0.000000 1.774780 0.000000 
#    z 0.000000 0.000000 1.752200 
# 
# From -- ./inp_files/6914.got.cif
#   From: 2010.06.25/outbox.cif.g09.slc.cpg/sg58_4_cif.got.tgz:6914.got - 2010.06.26 21:38:00.
