data_PCOD8237023
_publ_section_title
;
Structure prediction by ZEFSAII (Michael W. Deem and Ramdas Pophale) SiO2 
 PCOD8237023
Probable space group: P N N M
;
_chemical_formula_sum "Si O2"
_cell_formula_units_Z 64
_cell_length_a 18.627093
_cell_length_b 19.757795
_cell_length_c 9.166063
_cell_angle_alpha 90.000000
_cell_angle_beta 90.000000
_cell_angle_gamma 90.000000
_cell_volume 3373.388778
_symmetry_space_group_name_H-M "P N N M"
_symmetry_group_IT_number 58
_symmetry_cell_setting 'orthorhombic'
loop_
_space_group_symop_operation_xyz
x,y,z
-x,-y,z
1/2+x,1/2-y,1/2-z
1/2-x,1/2+y,1/2-z
-x,-y,-z
x,y,-z
1/2-x,1/2+y,1/2+z
1/2+x,1/2-y,1/2+z
loop_
_atom_site_type_symbol
_atom_site_label
_atom_site_fract_x
_atom_site_fract_y
_atom_site_fract_z
Si Si1 0.034932 0.300616 0.326557
Si Si2 0.214552 0.468761 0.168179
Si Si3 0.954275 0.188017 0.829805
Si Si4 0.450182 0.560264 0.329660
Si Si5 0.313308 0.741803 0.827112
Si Si6 0.690068 0.409115 0.831084
Si Si7 0.204178 0.853220 0.172445
Si Si8 0.446983 0.939100 0.329349
O O1 0.029399 0.303323 0.500000
O O2 0.110068 0.268910 0.271742
O O3 0.026638 0.375417 0.263127
O O4 0.970932 0.254872 0.263093
O O5 0.237891 0.546912 0.192519
O O6 0.268226 0.422440 0.259152
O O7 0.132841 0.460458 0.221088
O O8 0.222052 0.448068 0.000000
O O9 0.877481 0.159291 0.780312
O O10 0.013607 0.131863 0.793728
O O11 0.953567 0.207302 0.000000
O O12 0.500000 0.500000 0.270473
O O13 0.436029 0.550652 0.500000
O O14 0.374807 0.553975 0.249638
O O15 0.298222 0.666321 0.766453
O O16 0.251710 0.791108 0.766201
O O17 0.311044 0.741642 0.000000
O O18 0.668919 0.404254 0.000000
O O19 0.211668 0.860452 0.000000
O O20 0.449493 0.920865 0.500000
O O21 0.500000 0.000000 0.291400
#
# Coordination Sequence:
#
# PCOD8237023 Si02
#       8
#     8   8   8   8   8   8   8   8
#     4  11  21  37  61  86 115 152 193 241 291 342
#     4  10  21  36  57  85 116 148 188 241 288 340
#     4  10  21  35  56  85 115 150 192 237 286 343
#     4  10  20  34  51  77 111 145 184 228 273 328
#     4   9  18  34  57  82 107 146 190 229 277 336
#     4  10  20  35  54  79 110 145 185 226 277 335
#     4  10  20  37  60  83 111 151 193 233 285 348
#     4  10  22  40  62  88 117 153 195 240 294 349
#
# _framework density 18.972020000000001
#
# number of rings (size 3 to 8) (size 9 to 14) (size 15 to 20)
#    0.000    2.000    2.500    1.125    0.000    3.500 
#    0.000    4.375    0.000    1.500    0.000    0.000 
#    0.000    0.000    0.000    0.000    0.000    0.000 
#
# Total GULP energy -793796.180419 kJ/mol
# GULP energy per Si atom -12403.065319 kJ/mol
# Density = 1.892884 g / cm^3
# Si number density = 18.972020 Si / 1000 Ang^3
#
#
#
# Elastic Constant Matrix: (Units=GPa)
#
#
# Indices 1 2 3 4 5 6 
#
# 1 96.1259 39.2091 33.7242 0.0000 0.0000 0.0000
# 2 39.2091 126.5495 42.3075 0.0000 0.0000 0.0000
# 3 33.7242 42.3075 45.4001 0.0000 0.0000 0.0000
# 4 0.0000 0.0000 0.0000 29.5171 0.0000 0.0000
# 5 0.0000 0.0000 0.0000 0.0000 24.2084 0.0000
# 6 0.0000 0.0000 0.0000 0.0000 0.0000 37.6650
#
#
#
# Elastic Compliance Matrix: (Units=1/GPa)
#
#
# Indices 1 2 3 4 5 6 
#
# 1 0.014209 -0.001269 -0.009372 0.000000 0.000000 0.000000
# 2 -0.001269 0.011591 -0.009859 0.000000 0.000000 0.000000
# 3 -0.009372 -0.009859 0.038175 0.000000 0.000000 0.000000
# 4 0.000000 0.000000 0.000000 0.033879 0.000000 0.000000
# 5 0.000000 0.000000 0.000000 0.000000 0.041308 0.000000
# 6 0.000000 0.000000 0.000000 0.000000 0.000000 0.026550
#
#
# Mechanical properties :
#
#
# Convention : Reuss Voigt Hill
#
# Bulk Modulus (GPa) = 43.52469 55.39522 49.45996
# Shear Modulus (GPa) = 23.32417 28.46707 25.89562
#
# Velocity S-wave (km/s) = 3.51008 3.87780 3.69851
# Velocity P-wave (km/s) = 6.27845 7.02222 6.66072
#
# Compressibility (1/GPa) = 0.02297547
#
# Stress axis : x y z
#
# Youngs Moduli (GPa) = 70.37976 86.27177 26.19495
#
# Poissons Ratio (x) = 0.10949 0.24549
# Poissons Ratio (y) = 0.08932 0.25825
# Poissons Ratio (z) = 0.65958 0.85055
#
# Static dielectric constant tensor:
#      x y z
#    x 3.529740 0.000000 0.000000 
#    y 0.000000 3.616380 0.000000 
#    z 0.000000 0.000000 3.241830 
# 
# 
# High freq. dielectric constant tensor:
#      x y z
#    x 1.739200 0.000000 0.000000 
#    y 0.000000 1.749490 0.000000 
#    z 0.000000 0.000000 1.715860 
# 
# From -- ./inp_files/8332.got.cif
#   From: 2010.06.25/outbox.cif.g09.slc.cpg/sg58_5_cif.got.tgz:8332.got - 2010.06.26 21:38:00.
