data_PCOD8237032
_publ_section_title
;
Structure prediction by ZEFSAII (Michael W. Deem and Ramdas Pophale) SiO2 
 PCOD8237032
Probable space group: P N N M
;
_chemical_formula_sum "Si O2"
_cell_formula_units_Z 64
_cell_length_a 18.897756
_cell_length_b 22.915809
_cell_length_c 8.710982
_cell_angle_alpha 90.000000
_cell_angle_beta 90.000000
_cell_angle_gamma 90.000000
_cell_volume 3772.354929
_symmetry_space_group_name_H-M "P N N M"
_symmetry_group_IT_number 58
_symmetry_cell_setting 'orthorhombic'
loop_
_space_group_symop_operation_xyz
x,y,z
-x,-y,z
1/2+x,1/2-y,1/2-z
1/2-x,1/2+y,1/2-z
-x,-y,-z
x,y,-z
1/2-x,1/2+y,1/2+z
1/2+x,1/2-y,1/2+z
loop_
_atom_site_type_symbol
_atom_site_label
_atom_site_fract_x
_atom_site_fract_y
_atom_site_fract_z
Si Si1 0.875576 0.284247 0.823276
Si Si2 0.791759 0.165741 0.175150
Si Si3 0.986035 0.883790 0.179071
Si Si4 0.666447 0.242835 0.823815
Si Si5 0.346850 0.564104 0.178347
Si Si6 0.992320 0.759722 0.676969
Si Si7 0.751403 0.845286 0.821067
Si Si8 0.876439 0.067671 0.322487
O O1 0.841105 0.221310 0.794675
O O2 0.948903 0.287041 0.729121
O O3 0.822723 0.334103 0.763952
O O4 0.892060 0.296066 0.000000
O O5 0.711080 0.184468 0.215281
O O6 0.814378 0.113656 0.286554
O O7 0.798981 0.144290 0.000000
O O8 0.920879 0.907122 0.276352
O O9 0.001164 0.816844 0.219325
O O10 0.055166 0.921413 0.218175
O O11 0.968869 0.889836 0.000000
O O12 0.584005 0.229868 0.796616
O O13 0.689806 0.296742 0.718853
O O14 0.682738 0.260989 0.000000
O O15 0.281846 0.592123 0.271208
O O16 0.346782 0.495896 0.217386
O O17 0.334780 0.576426 0.000000
O O18 0.003224 0.777213 0.500000
O O19 0.736417 0.844598 0.000000
O O20 0.898572 0.072638 0.500000
#
# Coordination Sequence:
#
# PCOD8237032 Si02
#       8
#     8   8   8   8   8   8   8   8
#     4  10  20  34  52  74 104 136 167 209 258 303
#     4   9  18  33  51  72 100 133 169 209 253 300
#     4  12  23  34  49  73 103 137 177 214 252 300
#     4   9  19  34  52  73 103 136 165 207 259 306
#     4  11  23  38  52  70 100 138 177 216 258 303
#     4  11  20  32  53  77 104 138 172 206 252 306
#     4  11  21  33  52  76 100 131 172 214 255 305
#     4  11  23  36  52  72  99 138 178 215 257 301
#
# _framework density 16.965530000000001
#
# number of rings (size 3 to 8) (size 9 to 14) (size 15 to 20)
#    0.000    1.500    2.500    4.875    0.000    6.000 
#    0.000    0.000    0.000    0.000    0.000    0.875 
#    0.000    7.000    0.000    0.000    0.000    0.000 
#
# Total GULP energy -793867.798081 kJ/mol
# GULP energy per Si atom -12404.184345 kJ/mol
# Density = 1.692692 g / cm^3
# Si number density = 16.965530 Si / 1000 Ang^3
#
#
#
# Elastic Constant Matrix: (Units=GPa)
#
#
# Indices 1 2 3 4 5 6 
#
# 1 78.4981 12.2635 15.5086 0.0000 0.0000 0.0000
# 2 12.2635 38.6175 6.8774 0.0000 0.0000 0.0000
# 3 15.5086 6.8774 54.2080 0.0000 0.0000 0.0000
# 4 0.0000 0.0000 0.0000 23.6252 0.0000 0.0000
# 5 0.0000 0.0000 0.0000 0.0000 28.4829 0.0000
# 6 0.0000 0.0000 0.0000 0.0000 0.0000 17.4711
#
#
#
# Elastic Compliance Matrix: (Units=1/GPa)
#
#
# Indices 1 2 3 4 5 6 
#
# 1 0.014035 -0.003828 -0.003530 0.000000 0.000000 0.000000
# 2 -0.003828 0.027538 -0.002398 0.000000 0.000000 0.000000
# 3 -0.003530 -0.002398 0.019762 0.000000 0.000000 0.000000
# 4 0.000000 0.000000 0.000000 0.042328 0.000000 0.000000
# 5 0.000000 0.000000 0.000000 0.000000 0.035109 0.000000
# 6 0.000000 0.000000 0.000000 0.000000 0.000000 0.057237
#
#
# Mechanical properties :
#
#
# Convention : Reuss Voigt Hill
#
# Bulk Modulus (GPa) = 23.91120 26.73584 25.32352
# Shear Modulus (GPa) = 21.79018 23.02742 22.40880
#
# Velocity S-wave (km/s) = 3.58771 3.68816 3.63828
# Velocity P-wave (km/s) = 5.59346 5.82493 5.71037
#
# Compressibility (1/GPa) = 0.04182140
#
# Stress axis : x y z
#
# Youngs Moduli (GPa) = 71.25271 36.31360 50.60334
#
# Poissons Ratio (x) = 0.13902 0.17861
# Poissons Ratio (y) = 0.27278 0.12137
# Poissons Ratio (z) = 0.25149 0.08710
#
# Static dielectric constant tensor:
#      x y z
#    x 3.296900 0.000000 0.000000 
#    y 0.000000 3.016190 0.000000 
#    z 0.000000 0.000000 3.240700 
# 
# 
# High freq. dielectric constant tensor:
#      x y z
#    x 1.652600 0.000000 0.000000 
#    y 0.000000 1.620400 0.000000 
#    z 0.000000 0.000000 1.667250 
# 
# From -- ./inp_files/8329.got.cif
#   From: 2010.06.25/outbox.cif.g09.slc.cpg/sg58_5_cif.got.tgz:8329.got - 2010.06.26 21:38:00.
