data_PCOD8237765
_publ_section_title
;
Structure prediction by ZEFSAII (Michael W. Deem and Ramdas Pophale) SiO2 
 PCOD8237765
Probable space group: P N N M
;
_chemical_formula_sum "Si O2"
_cell_formula_units_Z 48
_cell_length_a 9.557470
_cell_length_b 17.063707
_cell_length_c 15.113009
_cell_angle_alpha 90.000000
_cell_angle_beta 90.000000
_cell_angle_gamma 90.000000
_cell_volume 2464.718187
_symmetry_space_group_name_H-M "P N N M"
_symmetry_group_IT_number 58
_symmetry_cell_setting 'orthorhombic'
loop_
_space_group_symop_operation_xyz
x,y,z
-x,-y,z
1/2+x,1/2-y,1/2-z
1/2-x,1/2+y,1/2-z
-x,-y,-z
x,y,-z
1/2-x,1/2+y,1/2+z
1/2+x,1/2-y,1/2+z
loop_
_atom_site_type_symbol
_atom_site_label
_atom_site_fract_x
_atom_site_fract_y
_atom_site_fract_z
Si Si1 0.713530 0.546607 0.097442
Si Si2 0.478749 0.703113 0.739194
Si Si3 0.353304 0.967112 0.101891
Si Si4 0.094774 0.071142 0.898183
Si Si5 0.793505 0.652948 0.750882
Si Si6 0.095474 0.114156 0.597146
O O1 0.804277 0.587882 0.172475
O O2 0.556514 0.576750 0.102080
O O3 0.710885 0.453234 0.114695
O O4 0.777132 0.564363 0.000000
O O5 0.432369 0.648730 0.657832
O O6 0.646383 0.700387 0.751871
O O7 0.424018 0.791056 0.725278
O O8 0.393790 0.679035 0.827512
O O9 0.308188 0.890813 0.157176
O O10 0.500000 0.000000 0.135700
O O11 0.252393 0.041802 0.113057
O O12 0.357876 0.939176 0.000000
O O13 0.056883 0.090382 0.000000
O O14 0.000000 0.000000 0.861713
O O15 0.120336 0.152110 0.500000
#
# Coordination Sequence:
#
# PCOD8237765 Si02
#       6
#     8   8   8   8   8   8
#     4   8  15  31  55  79 102 136 184 229 267 316
#     4  11  23  35  55  84 119 151 187 231 289 346
#     4  10  22  40  63  87 112 148 198 250 293 342
#     4  10  20  38  63  85 108 149 198 240 287 343
#     4  11  23  37  54  85 119 153 184 232 289 345
#     4   8  15  30  54  79 101 136 185 229 266 316
#
# _framework density 19.474841999999999
#
# number of rings (size 3 to 8) (size 9 to 14) (size 15 to 20)
#    0.000    2.333    1.667    2.000    4.667    1.333 
#    0.000    0.000    0.000    0.500    0.000    0.000 
#    0.000    0.000    0.000    0.000    0.000    0.000 
#
# Total GULP energy -595039.738275 kJ/mol
# GULP energy per Si atom -12396.661214 kJ/mol
# Density = 1.943052 g / cm^3
# Si number density = 19.474842 Si / 1000 Ang^3
#
#
#
# Elastic Constant Matrix: (Units=GPa)
#
#
# Indices 1 2 3 4 5 6 
#
# 1 67.8610 15.2372 20.6516 0.0000 0.0000 0.0000
# 2 15.2372 57.9207 41.1075 0.0000 0.0000 0.0000
# 3 20.6516 41.1075 108.5840 0.0000 0.0000 0.0000
# 4 0.0000 0.0000 0.0000 14.1833 0.0000 0.0000
# 5 0.0000 0.0000 0.0000 0.0000 18.1955 0.0000
# 6 0.0000 0.0000 0.0000 0.0000 0.0000 31.7144
#
#
#
# Elastic Compliance Matrix: (Units=1/GPa)
#
#
# Indices 1 2 3 4 5 6 
#
# 1 0.015966 -0.002796 -0.001978 0.000000 0.000000 0.000000
# 2 -0.002796 0.024098 -0.008591 0.000000 0.000000 0.000000
# 3 -0.001978 -0.008591 0.012838 0.000000 0.000000 0.000000
# 4 0.000000 0.000000 0.000000 0.070506 0.000000 0.000000
# 5 0.000000 0.000000 0.000000 0.000000 0.054959 0.000000
# 6 0.000000 0.000000 0.000000 0.000000 0.000000 0.031531
#
#
# Mechanical properties :
#
#
# Convention : Reuss Voigt Hill
#
# Bulk Modulus (GPa) = 38.21019 43.15092 40.68055
# Shear Modulus (GPa) = 20.37890 23.30992 21.84441
#
# Velocity S-wave (km/s) = 3.23835 3.46341 3.35277
# Velocity P-wave (km/s) = 5.80047 6.18053 5.99352
#
# Compressibility (1/GPa) = 0.02617103
#
# Stress axis : x y z
#
# Youngs Moduli (GPa) = 62.63381 41.49742 77.89357
#
# Poissons Ratio (x) = 0.11604 0.15407
# Poissons Ratio (y) = 0.17515 0.66919
# Poissons Ratio (z) = 0.12388 0.35651
#
# Static dielectric constant tensor:
#      x y z
#    x 3.365900 0.000000 0.000000 
#    y 0.000000 3.406810 0.000000 
#    z 0.000000 0.000000 3.887130 
# 
# 
# High freq. dielectric constant tensor:
#      x y z
#    x 1.736160 0.000000 0.000000 
#    y 0.000000 1.736650 0.000000 
#    z 0.000000 0.000000 1.772770 
# 
# From -- ./inp_files/19807.got.cif
#   From: 2010.06.25/outbox.cif.g09.slc.cpg/sg58_10_cif.got.tgz:19807.got - 2010.06.26 21:38:00.
