data_PCOD8237232
_publ_section_title
;
Structure prediction by ZEFSAII (Michael W. Deem and Ramdas Pophale) SiO2 
 PCOD8237232
Probable space group: P N N M
;
_chemical_formula_sum "Si O2"
_cell_formula_units_Z 56
_cell_length_a 19.046543
_cell_length_b 18.924798
_cell_length_c 8.701555
_cell_angle_alpha 90.000000
_cell_angle_beta 90.000000
_cell_angle_gamma 90.000000
_cell_volume 3136.492719
_symmetry_space_group_name_H-M "P N N M"
_symmetry_group_IT_number 58
_symmetry_cell_setting 'orthorhombic'
loop_
_space_group_symop_operation_xyz
x,y,z
-x,-y,z
1/2+x,1/2-y,1/2-z
1/2-x,1/2+y,1/2-z
-x,-y,-z
x,y,-z
1/2-x,1/2+y,1/2+z
1/2+x,1/2-y,1/2+z
loop_
_atom_site_type_symbol
_atom_site_label
_atom_site_fract_x
_atom_site_fract_y
_atom_site_fract_z
Si Si1 0.264592 0.148158 0.178192
Si Si2 0.879743 0.239251 0.678889
Si Si3 0.974108 0.784569 0.821518
Si Si4 0.662825 0.245079 0.823450
Si Si5 0.940099 0.944649 0.179083
Si Si6 0.706833 0.484148 0.179040
Si Si7 0.723613 0.632488 0.323055
O O1 0.334920 0.190978 0.219688
O O2 0.196731 0.195035 0.216843
O O3 0.262310 0.076957 0.277569
O O4 0.260933 0.128148 0.000000
O O5 0.897988 0.235055 0.500000
O O6 0.836694 0.169527 0.723586
O O7 0.950045 0.244331 0.776526
O O8 0.917897 0.738259 0.726655
O O9 0.968301 0.867131 0.778628
O O10 0.961284 0.771431 0.000000
O O11 0.701484 0.170425 0.797390
O O12 0.669023 0.269265 0.000000
O O13 0.871448 0.961079 0.277052
O O14 0.920775 0.951395 0.000000
O O15 0.000000 0.000000 0.226172
O O16 0.731644 0.552516 0.271233
O O17 0.710693 0.500350 0.000000
O O18 0.700010 0.636153 0.500000
#
# Coordination Sequence:
#
# PCOD8237232 Si02
#       7
#     8   8   8   8   8   8   8
#     4  10  20  36  56  78 107 144 183 225 274 324
#     4  10  21  36  56  81 110 142 183 230 269 320
#     4  11  21  33  54  80 111 149 181 221 272 324
#     4  10  20  35  56  80 106 140 184 229 269 321
#     4  10  21  35  51  75 111 150 182 214 264 330
#     4  12  23  34  54  81 109 143 182 228 271 321
#     4  10  21  37  56  78 109 145 181 225 276 327
#
# _framework density 17.854339
#
# number of rings (size 3 to 8) (size 9 to 14) (size 15 to 20)
#    0.000    1.571    1.429    4.286    0.000    5.429 
#    0.000    0.000    0.000    0.857    0.000    6.000 
#    0.000    0.000    0.000    0.000    0.000    0.000 
#
# Total GULP energy -694704.059616 kJ/mol
# GULP energy per Si atom -12405.429636 kJ/mol
# Density = 1.781370 g / cm^3
# Si number density = 17.854339 Si / 1000 Ang^3
#
#
#
# Elastic Constant Matrix: (Units=GPa)
#
#
# Indices 1 2 3 4 5 6 
#
# 1 102.0426 40.2951 27.3391 0.0000 0.0000 0.0000
# 2 40.2951 69.7806 18.6282 0.0000 0.0000 0.0000
# 3 27.3391 18.6282 57.7577 0.0000 0.0000 0.0000
# 4 0.0000 0.0000 0.0000 28.6790 0.0000 0.0000
# 5 0.0000 0.0000 0.0000 0.0000 30.4216 0.0000
# 6 0.0000 0.0000 0.0000 0.0000 0.0000 24.3104
#
#
#
# Elastic Compliance Matrix: (Units=1/GPa)
#
#
# Indices 1 2 3 4 5 6 
#
# 1 0.013593 -0.006710 -0.004270 0.000000 0.000000 0.000000
# 2 -0.006710 0.018993 -0.002950 0.000000 0.000000 0.000000
# 3 -0.004270 -0.002950 0.020286 0.000000 0.000000 0.000000
# 4 0.000000 0.000000 0.000000 0.034869 0.000000 0.000000
# 5 0.000000 0.000000 0.000000 0.000000 0.032871 0.000000
# 6 0.000000 0.000000 0.000000 0.000000 0.000000 0.041135
#
#
# Mechanical properties :
#
#
# Convention : Reuss Voigt Hill
#
# Bulk Modulus (GPa) = 39.97884 44.67843 42.32864
# Shear Modulus (GPa) = 25.25968 26.23677 25.74823
#
# Velocity S-wave (km/s) = 3.76542 3.83755 3.80165
# Velocity P-wave (km/s) = 6.42999 6.68685 6.55967
#
# Compressibility (1/GPa) = 0.02501323
#
# Stress axis : x y z
#
# Youngs Moduli (GPa) = 73.56481 52.65231 49.29426
#
# Poissons Ratio (x) = 0.35328 0.21050
# Poissons Ratio (y) = 0.49359 0.14540
# Poissons Ratio (z) = 0.31415 0.15530
#
# Static dielectric constant tensor:
#      x y z
#    x 3.245690 0.000000 0.000000 
#    y 0.000000 3.330500 0.000000 
#    z 0.000000 0.000000 3.356240 
# 
# 
# High freq. dielectric constant tensor:
#      x y z
#    x 1.682760 0.000000 0.000000 
#    y 0.000000 1.681480 0.000000 
#    z 0.000000 0.000000 1.704620 
# 
# From -- ./inp_files/8187.got.cif
#   From: 2010.06.25/outbox.cif.g09.slc.cpg/sg58_5_cif.got.tgz:8187.got - 2010.06.26 21:38:00.
