data_PCOD8237890
_publ_section_title
;
Structure prediction by ZEFSAII (Michael W. Deem and Ramdas Pophale) SiO2 
 PCOD8237890
Probable space group: P N N M
;
_chemical_formula_sum "Si O2"
_cell_formula_units_Z 56
_cell_length_a 19.084146
_cell_length_b 18.893116
_cell_length_c 8.915903
_cell_angle_alpha 90.000000
_cell_angle_beta 90.000000
_cell_angle_gamma 90.000000
_cell_volume 3214.708928
_symmetry_space_group_name_H-M "P N N M"
_symmetry_group_IT_number 58
_symmetry_cell_setting 'orthorhombic'
loop_
_space_group_symop_operation_xyz
x,y,z
-x,-y,z
1/2+x,1/2-y,1/2-z
1/2-x,1/2+y,1/2-z
-x,-y,-z
x,y,-z
1/2-x,1/2+y,1/2+z
1/2+x,1/2-y,1/2+z
loop_
_atom_site_type_symbol
_atom_site_label
_atom_site_fract_x
_atom_site_fract_y
_atom_site_fract_z
Si Si1 0.445069 0.561457 0.326373
Si Si2 0.484756 0.706234 0.825608
Si Si3 0.339324 0.770858 0.172334
Si Si4 0.764785 0.352273 0.171872
Si Si5 0.289244 0.515889 0.675115
Si Si6 0.872424 0.233829 0.825398
Si Si7 0.735698 0.630834 0.176701
O O1 0.500000 0.500000 0.291669
O O2 0.446937 0.584164 0.500000
O O3 0.465659 0.628009 0.227025
O O4 0.368706 0.534007 0.279238
O O5 0.421170 0.760423 0.794876
O O6 0.549534 0.738469 0.736229
O O7 0.503275 0.702353 0.000000
O O8 0.301007 0.697432 0.210827
O O9 0.308979 0.833265 0.275007
O O10 0.324129 0.791147 0.000000
O O11 0.761673 0.419440 0.280855
O O12 0.836198 0.309481 0.204321
O O13 0.761396 0.377931 0.000000
O O14 0.282190 0.499700 0.500000
O O15 0.263418 0.449114 0.768062
O O16 0.830625 0.170926 0.746102
O O17 0.873514 0.215004 0.000000
O O18 0.728703 0.633264 0.000000
#
# Coordination Sequence:
#
# PCOD8237890 Si02
#       7
#     8   8   8   8   8   8   8
#     4  10  21  34  49  74 111 150 180 212 263 326
#     4  11  21  34  55  81 108 142 180 222 268 320
#     4   9  19  36  55  77 108 142 178 223 273 320
#     4   9  18  35  55  75 104 142 180 220 267 319
#     4  11  21  33  53  79 109 144 179 221 270 320
#     4  10  21  37  55  77 110 145 178 223 273 319
#     4  11  22  35  55  80 107 141 184 226 266 321
#
# _framework density 17.419927999999999
#
# number of rings (size 3 to 8) (size 9 to 14) (size 15 to 20)
#    0.000    1.857    1.429    4.286    0.000    6.000 
#    0.000    0.000    0.000    0.857    0.000    6.000 
#    0.000    0.000    0.000    0.000    0.000    0.000 
#
# Total GULP energy -694633.065273 kJ/mol
# GULP energy per Si atom -12404.161880 kJ/mol
# Density = 1.738028 g / cm^3
# Si number density = 17.419928 Si / 1000 Ang^3
#
#
#
# Elastic Constant Matrix: (Units=GPa)
#
#
# Indices 1 2 3 4 5 6 
#
# 1 90.8517 66.8873 61.9975 0.0000 0.0000 0.0000
# 2 66.8873 98.2792 59.7199 0.0000 0.0000 0.0000
# 3 61.9975 59.7199 112.3358 0.0000 0.0000 0.0000
# 4 0.0000 0.0000 0.0000 32.8836 0.0000 0.0000
# 5 0.0000 0.0000 0.0000 0.0000 23.0725 0.0000
# 6 0.0000 0.0000 0.0000 0.0000 0.0000 20.2014
#
#
#
# Elastic Compliance Matrix: (Units=1/GPa)
#
#
# Indices 1 2 3 4 5 6 
#
# 1 0.025424 -0.012965 -0.007139 0.000000 0.000000 0.000000
# 2 -0.012965 0.021642 -0.004350 0.000000 0.000000 0.000000
# 3 -0.007139 -0.004350 0.015154 0.000000 0.000000 0.000000
# 4 0.000000 0.000000 0.000000 0.030410 0.000000 0.000000
# 5 0.000000 0.000000 0.000000 0.000000 0.043342 0.000000
# 6 0.000000 0.000000 0.000000 0.000000 0.000000 0.049502
#
#
# Mechanical properties :
#
#
# Convention : Reuss Voigt Hill
#
# Bulk Modulus (GPa) = 75.11749 75.40847 75.26298
# Shear Modulus (GPa) = 20.93638 22.75565 21.84601
#
# Velocity S-wave (km/s) = 3.47055 3.61820 3.54514
# Velocity P-wave (km/s) = 7.69902 7.79986 7.74960
#
# Compressibility (1/GPa) = 0.01331248
#
# Stress axis : x y z
#
# Youngs Moduli (GPa) = 39.33352 46.20587 65.98802
#
# Poissons Ratio (x) = 0.59906 0.47107
# Poissons Ratio (y) = 0.50996 0.28705
# Poissons Ratio (z) = 0.28079 0.20100
#
# Static dielectric constant tensor:
#      x y z
#    x 3.364050 0.000000 0.000000 
#    y 0.000000 3.101880 0.000000 
#    z 0.000000 0.000000 3.277100 
# 
# 
# High freq. dielectric constant tensor:
#      x y z
#    x 1.668040 0.000000 0.000000 
#    y 0.000000 1.662870 0.000000 
#    z 0.000000 0.000000 1.682460 
# 
# From -- ./inp_files/8989.got.cif
#   From: 2010.06.25/outbox.cif.g09.slc.cpg/sg58_5_cif.got.tgz:8989.got - 2010.06.26 21:38:00.
