data_PCOD8237733
_publ_section_title
;
Structure prediction by ZEFSAII (Michael W. Deem and Ramdas Pophale) SiO2 
 PCOD8237733
Probable space group: P N N M
;
_chemical_formula_sum "Si O2"
_cell_formula_units_Z 64
_cell_length_a 14.227052
_cell_length_b 24.666915
_cell_length_c 8.865173
_cell_angle_alpha 90.000000
_cell_angle_beta 90.000000
_cell_angle_gamma 90.000000
_cell_volume 3111.121494
_symmetry_space_group_name_H-M "P N N M"
_symmetry_group_IT_number 58
_symmetry_cell_setting 'orthorhombic'
loop_
_space_group_symop_operation_xyz
x,y,z
-x,-y,z
1/2+x,1/2-y,1/2-z
1/2-x,1/2+y,1/2-z
-x,-y,-z
x,y,-z
1/2-x,1/2+y,1/2+z
1/2+x,1/2-y,1/2+z
loop_
_atom_site_type_symbol
_atom_site_label
_atom_site_fract_x
_atom_site_fract_y
_atom_site_fract_z
Si Si1 0.673372 0.200606 0.176497
Si Si2 0.781856 0.483665 0.177625
Si Si3 0.042934 0.557561 0.322111
Si Si4 0.734113 0.589780 0.679117
Si Si5 0.032510 0.942825 0.825890
Si Si6 0.338164 0.597600 0.673629
Si Si7 0.506997 0.834304 0.321917
Si Si8 0.780685 0.309402 0.824145
O O1 0.727548 0.147292 0.235479
O O2 0.573752 0.206745 0.263560
O O3 0.742567 0.249920 0.214625
O O4 0.650959 0.197615 0.000000
O O5 0.856971 0.439880 0.238850
O O6 0.799265 0.542300 0.252316
O O7 0.684693 0.457473 0.233875
O O8 0.787123 0.488755 0.000000
O O9 0.053947 0.563756 0.500000
O O10 0.983848 0.607917 0.257335
O O11 0.000000 0.500000 0.275484
O O12 0.740054 0.586296 0.500000
O O13 0.628518 0.581180 0.745024
O O14 0.951115 0.897161 0.807919
O O15 0.055073 0.954448 0.000000
O O16 0.000000 0.000000 0.751373
O O17 0.309721 0.588983 0.500000
O O18 0.286192 0.649979 0.735292
O O19 0.499805 0.840590 0.500000
O O20 0.610223 0.812793 0.272837
O O21 0.771929 0.323407 0.000000
#
# Coordination Sequence:
#
# PCOD8237733 Si02
#       8
#     8   8   8   8   8   8   8   8
#     4  10  23  42  64  88 120 162 204 248 304 365
#     4  12  23  35  55  86 124 159 195 248 308 365
#     4  11  23  38  59  88 121 160 205 249 302 369
#     4  10  20  38  61  85 118 161 206 251 302 368
#     4   9  17  32  57  88 118 151 199 253 299 354
#     4  11  21  36  62  90 116 155 206 253 299 362
#     4  11  23  40  64  92 124 158 201 254 307 360
#     4  10  23  43  63  88 122 160 202 255 310 357
#
# _framework density 20.571359999999999
#
# number of rings (size 3 to 8) (size 9 to 14) (size 15 to 20)
#    0.000    1.500    2.500    3.000    0.000    6.500 
#    0.000    4.375    0.000    0.000    0.000    0.000 
#    0.000    0.000    0.000    0.000    0.000    0.000 
#
# Total GULP energy -793602.261344 kJ/mol
# GULP energy per Si atom -12400.035334 kJ/mol
# Density = 2.052454 g / cm^3
# Si number density = 20.571360 Si / 1000 Ang^3
#
#
#
# Elastic Constant Matrix: (Units=GPa)
#
#
# Indices 1 2 3 4 5 6 
#
# 1 108.8317 42.3563 28.7201 0.0000 0.0000 0.0000
# 2 42.3563 109.5634 35.7119 0.0000 0.0000 0.0000
# 3 28.7201 35.7119 60.8721 0.0000 0.0000 0.0000
# 4 0.0000 0.0000 0.0000 21.4998 0.0000 0.0000
# 5 0.0000 0.0000 0.0000 0.0000 19.8994 0.0000
# 6 0.0000 0.0000 0.0000 0.0000 0.0000 30.1262
#
#
#
# Elastic Compliance Matrix: (Units=1/GPa)
#
#
# Indices 1 2 3 4 5 6 
#
# 1 0.011372 -0.003273 -0.003445 0.000000 0.000000 0.000000
# 2 -0.003273 0.012227 -0.005629 0.000000 0.000000 0.000000
# 3 -0.003445 -0.005629 0.021356 0.000000 0.000000 0.000000
# 4 0.000000 0.000000 0.000000 0.046512 0.000000 0.000000
# 5 0.000000 0.000000 0.000000 0.000000 0.050253 0.000000
# 6 0.000000 0.000000 0.000000 0.000000 0.000000 0.033194
#
#
# Mechanical properties :
#
#
# Convention : Reuss Voigt Hill
#
# Bulk Modulus (GPa) = 49.35820 54.76043 52.05931
# Shear Modulus (GPa) = 24.22941 25.80367 25.01654
#
# Velocity S-wave (km/s) = 3.43567 3.54552 3.49103
# Velocity P-wave (km/s) = 6.30747 6.59079 6.45068
#
# Compressibility (1/GPa) = 0.02026006
#
# Stress axis : x y z
#
# Youngs Moduli (GPa) = 87.93911 81.78394 46.82612
#
# Poissons Ratio (x) = 0.26770 0.16131
# Poissons Ratio (y) = 0.28785 0.26359
# Poissons Ratio (z) = 0.30294 0.46037
#
# Static dielectric constant tensor:
#      x y z
#    x 4.001100 0.000000 0.000000 
#    y 0.000000 3.720330 0.000000 
#    z 0.000000 0.000000 3.452260 
# 
# 
# High freq. dielectric constant tensor:
#      x y z
#    x 1.820900 0.000000 0.000000 
#    y 0.000000 1.796430 0.000000 
#    z 0.000000 0.000000 1.783370 
# 
# From -- ./inp_files/6963.got.cif
#   From: 2010.06.25/outbox.cif.g09.slc.cpg/sg58_4_cif.got.tgz:6963.got - 2010.06.26 21:38:00.
