data_PCOD8237398
_publ_section_title
;
Structure prediction by ZEFSAII (Michael W. Deem and Ramdas Pophale) SiO2 
 PCOD8237398
Probable space group: P N N M
;
_chemical_formula_sum "Si O2"
_cell_formula_units_Z 40
_cell_length_a 18.179558
_cell_length_b 13.418288
_cell_length_c 8.693974
_cell_angle_alpha 90.000000
_cell_angle_beta 90.000000
_cell_angle_gamma 90.000000
_cell_volume 2120.795367
_symmetry_space_group_name_H-M "P N N M"
_symmetry_group_IT_number 58
_symmetry_cell_setting 'orthorhombic'
loop_
_space_group_symop_operation_xyz
x,y,z
-x,-y,z
1/2+x,1/2-y,1/2-z
1/2-x,1/2+y,1/2-z
-x,-y,-z
x,y,-z
1/2-x,1/2+y,1/2+z
1/2+x,1/2-y,1/2+z
loop_
_atom_site_type_symbol
_atom_site_label
_atom_site_fract_x
_atom_site_fract_y
_atom_site_fract_z
Si Si1 0.221610 0.106943 0.677867
Si Si2 0.637400 0.197199 0.824322
Si Si3 0.708536 0.598071 0.321984
Si Si4 0.495668 0.114840 0.321766
Si Si5 0.644140 0.788993 0.820810
O O1 0.244885 0.108284 0.500000
O O2 0.158421 0.188251 0.708971
O O3 0.294488 0.130103 0.775411
O O4 0.189282 0.000485 0.726008
O O5 0.707494 0.128201 0.789755
O O6 0.573729 0.166533 0.708140
O O7 0.611096 0.183252 0.000000
O O8 0.694277 0.576679 0.500000
O O9 0.654593 0.685983 0.269921
O O10 0.474589 0.126176 0.500000
O O11 0.435343 0.167952 0.217612
O O12 0.500000 0.000000 0.272430
O O13 0.649925 0.766345 0.000000
#
# Coordination Sequence:
#
# PCOD8237398 Si02
#       5
#     8   8   8   8   8
#     4  10  20  36  57  82 112 143 181 226 270 320
#     4   9  20  36  54  79 110 142 177 220 267 321
#     4  10  20  36  58  83 111 143 182 225 271 323
#     4  11  23  37  55  80 110 142 178 225 275 323
#     4  11  22  36  56  81 111 146 183 224 271 322
#
# _framework density 18.860849999999999
#
# number of rings (size 3 to 8) (size 9 to 14) (size 15 to 20)
#    0.000    1.800    0.000    6.000    0.000    9.600 
#    0.000    1.000    0.000    6.000    0.000    0.000 
#    0.000    0.000    0.000    0.000    0.000    0.000 
#
# Total GULP energy -496249.964451 kJ/mol
# GULP energy per Si atom -12406.249111 kJ/mol
# Density = 1.881792 g / cm^3
# Si number density = 18.860850 Si / 1000 Ang^3
#
#
#
# Elastic Constant Matrix: (Units=GPa)
#
#
# Indices 1 2 3 4 5 6 
#
# 1 82.8650 37.5782 31.3392 0.0000 0.0000 0.0000
# 2 37.5782 125.8777 26.1511 0.0000 0.0000 0.0000
# 3 31.3392 26.1511 65.3064 0.0000 0.0000 0.0000
# 4 0.0000 0.0000 0.0000 35.3270 0.0000 0.0000
# 5 0.0000 0.0000 0.0000 0.0000 32.2667 0.0000
# 6 0.0000 0.0000 0.0000 0.0000 0.0000 17.7618
#
#
#
# Elastic Compliance Matrix: (Units=1/GPa)
#
#
# Indices 1 2 3 4 5 6 
#
# 1 0.016026 -0.003476 -0.006299 0.000000 0.000000 0.000000
# 2 -0.003476 0.009419 -0.002104 0.000000 0.000000 0.000000
# 3 -0.006299 -0.002104 0.019178 0.000000 0.000000 0.000000
# 4 0.000000 0.000000 0.000000 0.028307 0.000000 0.000000
# 5 0.000000 0.000000 0.000000 0.000000 0.030992 0.000000
# 6 0.000000 0.000000 0.000000 0.000000 0.000000 0.056301
#
#
# Mechanical properties :
#
#
# Convention : Reuss Voigt Hill
#
# Bulk Modulus (GPa) = 47.92478 51.57622 49.75050
# Shear Modulus (GPa) = 26.18706 29.00312 27.59509
#
# Velocity S-wave (km/s) = 3.73021 3.92566 3.82918
# Velocity P-wave (km/s) = 6.63457 6.92479 6.78123
#
# Compressibility (1/GPa) = 0.02086603
#
# Stress axis : x y z
#
# Youngs Moduli (GPa) = 62.39780 106.16978 52.14432
#
# Poissons Ratio (x) = 0.36902 0.32845
# Poissons Ratio (y) = 0.21688 0.10970
# Poissons Ratio (z) = 0.39303 0.22336
#
# Static dielectric constant tensor:
#      x y z
#    x 3.203270 0.000000 0.000000 
#    y 0.000000 3.537350 0.000000 
#    z 0.000000 0.000000 3.455410 
# 
# 
# High freq. dielectric constant tensor:
#      x y z
#    x 1.714260 0.000000 0.000000 
#    y 0.000000 1.742180 0.000000 
#    z 0.000000 0.000000 1.744030 
# 
# From -- ./inp_files/3758.got.cif
#   From: 2010.06.25/outbox.cif.g09.slc.cpg/sg58_2_cif.got.tgz:3758.got - 2010.06.26 21:38:00.
