data_PCOD8237481
_publ_section_title
;
Structure prediction by ZEFSAII (Michael W. Deem and Ramdas Pophale) SiO2 
 PCOD8237481
Probable space group: P N N M
;
_chemical_formula_sum "Si O2"
_cell_formula_units_Z 64
_cell_length_a 12.431566
_cell_length_b 10.305693
_cell_length_c 24.643661
_cell_angle_alpha 90.000000
_cell_angle_beta 90.000000
_cell_angle_gamma 90.000000
_cell_volume 3157.244875
_symmetry_space_group_name_H-M "P N N M"
_symmetry_group_IT_number 58
_symmetry_cell_setting 'orthorhombic'
loop_
_space_group_symop_operation_xyz
x,y,z
-x,-y,z
1/2+x,1/2-y,1/2-z
1/2-x,1/2+y,1/2-z
-x,-y,-z
x,y,-z
1/2-x,1/2+y,1/2+z
1/2+x,1/2-y,1/2+z
loop_
_atom_site_type_symbol
_atom_site_label
_atom_site_fract_x
_atom_site_fract_y
_atom_site_fract_z
Si Si1 0.661924 0.550638 0.411994
Si Si2 0.599489 0.075179 0.773567
Si Si3 0.923266 0.803905 0.648618
Si Si4 0.465329 0.706872 0.560535
Si Si5 0.675426 0.483204 0.293850
Si Si6 0.142986 0.924253 0.322122
Si Si7 0.369844 0.799656 0.333017
Si Si8 0.906736 0.597354 0.562048
O O1 0.609464 0.418289 0.432635
O O2 0.592231 0.669878 0.435883
O O3 0.653698 0.569159 0.347141
O O4 0.785864 0.543211 0.430358
O O5 0.623625 0.207380 0.805775
O O6 0.573978 0.105620 0.710464
O O7 0.500000 0.000000 0.799853
O O8 0.698246 0.976365 0.780094
O O9 0.913754 0.736292 0.590605
O O10 0.047133 0.835032 0.657999
O O11 0.853243 0.935264 0.648793
O O12 0.445860 0.766411 0.500000
O O13 0.431226 0.806038 0.608851
O O14 0.621301 0.552868 0.242184
O O15 0.627878 0.342309 0.306080
O O16 0.247828 0.846285 0.339568
O O17 0.931416 0.624773 0.500000
O O18 0.000000 0.500000 0.584790
#
# Coordination Sequence:
#
# PCOD8237481 Si02
#       8
#     8   8   8   8   8   8   8   8
#     4  10  20  36  62  92 123 154 202 256 311 364
#     4  11  21  36  59  88 118 156 199 250 304 367
#     4  11  22  39  61  87 121 165 197 249 318 370
#     4  10  21  37  61  88 121 163 203 250 304 355
#     4  10  20  36  59  90 122 158 197 247 313 365
#     4  10  23  38  58  87 129 160 203 247 305 386
#     4  10  22  39  58  91 120 161 204 252 302 368
#     4  11  24  41  64  95 124 159 210 266 315 360
#
# _framework density 20.270837
#
# number of rings (size 3 to 8) (size 9 to 14) (size 15 to 20)
#    0.000    1.625    2.500    2.625    5.250    1.000 
#    4.500    1.875    0.000    0.375    0.000    0.000 
#    0.000    0.000    0.000    0.000    0.000    0.000 
#
# Total GULP energy -793317.624414 kJ/mol
# GULP energy per Si atom -12395.587881 kJ/mol
# Density = 2.022470 g / cm^3
# Si number density = 20.270837 Si / 1000 Ang^3
#
#
#
# Elastic Constant Matrix: (Units=GPa)
#
#
# Indices 1 2 3 4 5 6 
#
# 1 92.5943 8.6977 15.4836 0.0000 0.0000 0.0000
# 2 8.6977 27.2435 23.1205 0.0000 0.0000 0.0000
# 3 15.4836 23.1205 138.0014 0.0000 0.0000 0.0000
# 4 0.0000 0.0000 0.0000 28.3195 0.0000 0.0000
# 5 0.0000 0.0000 0.0000 0.0000 20.8653 0.0000
# 6 0.0000 0.0000 0.0000 0.0000 0.0000 25.5567
#
#
#
# Elastic Compliance Matrix: (Units=1/GPa)
#
#
# Indices 1 2 3 4 5 6 
#
# 1 0.011203 -0.002926 -0.000767 0.000000 0.000000 0.000000
# 2 -0.002926 0.043554 -0.006969 0.000000 0.000000 0.000000
# 3 -0.000767 -0.006969 0.008500 0.000000 0.000000 0.000000
# 4 0.000000 0.000000 0.000000 0.035311 0.000000 0.000000
# 5 0.000000 0.000000 0.000000 0.000000 0.047927 0.000000
# 6 0.000000 0.000000 0.000000 0.000000 0.000000 0.039129
#
#
# Mechanical properties :
#
#
# Convention : Reuss Voigt Hill
#
# Bulk Modulus (GPa) = 23.84689 39.16031 31.50360
# Shear Modulus (GPa) = 22.63220 28.98413 25.80817
#
# Velocity S-wave (km/s) = 3.34502 3.78543 3.57202
# Velocity P-wave (km/s) = 5.16803 6.20213 5.70855
#
# Compressibility (1/GPa) = 0.04193418
#
# Stress axis : x y z
#
# Youngs Moduli (GPa) = 89.26291 22.95993 117.64913
#
# Poissons Ratio (x) = 0.06718 0.09021
# Poissons Ratio (y) = 0.26117 0.81986
# Poissons Ratio (z) = 0.06844 0.16000
#
# Static dielectric constant tensor:
#      x y z
#    x 3.756660 0.000000 0.000000 
#    y 0.000000 3.509840 0.000000 
#    z 0.000000 0.000000 3.875980 
# 
# 
# High freq. dielectric constant tensor:
#      x y z
#    x 1.798510 0.000000 0.000000 
#    y 0.000000 1.764460 0.000000 
#    z 0.000000 0.000000 1.795940 
# 
# From -- ./inp_files/32068.got.cif
#   From: 2010.06.25/outbox.cif.g09.slc.cpg/sg58_17_cif.got.tgz:32068.got - 2010.06.26 21:38:00.
