data_PCOD8237980
_publ_section_title
;
Structure prediction by ZEFSAII (Michael W. Deem and Ramdas Pophale) SiO2 
 PCOD8237980
Probable space group: P N N M
;
_chemical_formula_sum "Si O2"
_cell_formula_units_Z 48
_cell_length_a 19.743891
_cell_length_b 14.750700
_cell_length_c 9.210873
_cell_angle_alpha 90.000000
_cell_angle_beta 90.000000
_cell_angle_gamma 90.000000
_cell_volume 2682.539771
_symmetry_space_group_name_H-M "P N N M"
_symmetry_group_IT_number 58
_symmetry_cell_setting 'orthorhombic'
loop_
_space_group_symop_operation_xyz
x,y,z
-x,-y,z
1/2+x,1/2-y,1/2-z
1/2-x,1/2+y,1/2-z
-x,-y,-z
x,y,-z
1/2-x,1/2+y,1/2+z
1/2+x,1/2-y,1/2+z
loop_
_atom_site_type_symbol
_atom_site_label
_atom_site_fract_x
_atom_site_fract_y
_atom_site_fract_z
Si Si1 0.441646 0.430941 0.328652
Si Si2 0.167230 0.199123 0.667049
Si Si3 0.987334 0.781294 0.665364
Si Si4 0.817706 0.623629 0.170118
Si Si5 0.689358 0.502467 0.832561
Si Si6 0.952948 0.581158 0.668216
O O1 0.500000 0.500000 0.277266
O O2 0.436144 0.425698 0.500000
O O3 0.459413 0.331429 0.268552
O O4 0.370137 0.461760 0.267732
O O5 0.174514 0.229627 0.500000
O O6 0.088331 0.187465 0.706746
O O7 0.200281 0.277541 0.764966
O O8 0.203889 0.103779 0.698674
O O9 0.004183 0.807561 0.500000
O O10 0.994586 0.673886 0.691094
O O11 0.756818 0.556282 0.207041
O O12 0.884448 0.581018 0.240293
O O13 0.829624 0.634448 0.000000
O O14 0.668111 0.516121 0.000000
O O15 0.933042 0.568687 0.500000
O O16 0.000000 0.500000 0.724621
#
# Coordination Sequence:
#
# PCOD8237980 Si02
#       6
#     8   8   8   8   8   8
#     4  11  22  33  51  83 114 139 176 226 274 316
#     4   9  18  35  58  77 102 145 184 215 263 326
#     4   9  17  32  56  79 103 142 181 217 263 320
#     4  10  21  36  56  83 111 140 180 228 273 319
#     4  10  21  38  57  77 108 148 184 219 268 330
#     4   9  19  38  61  82 107 144 186 221 264 326
#
# _framework density 17.89349
#
# number of rings (size 3 to 8) (size 9 to 14) (size 15 to 20)
#    0.000    2.333    1.667    2.000    0.000    5.667 
#    3.000    0.000    0.000    0.000    0.000    0.000 
#    0.000    0.000    0.000    0.000    0.000    0.000 
#
# Total GULP energy -595316.317235 kJ/mol
# GULP energy per Si atom -12402.423276 kJ/mol
# Density = 1.785276 g / cm^3
# Si number density = 17.893490 Si / 1000 Ang^3
#
#
#
# Elastic Constant Matrix: (Units=GPa)
#
#
# Indices 1 2 3 4 5 6 
#
# 1 87.6200 70.7676 57.3193 0.0000 0.0000 0.0000
# 2 70.7676 134.1245 58.1560 0.0000 0.0000 0.0000
# 3 57.3193 58.1560 81.3695 0.0000 0.0000 0.0000
# 4 0.0000 0.0000 0.0000 27.8992 0.0000 0.0000
# 5 0.0000 0.0000 0.0000 0.0000 26.5242 0.0000
# 6 0.0000 0.0000 0.0000 0.0000 0.0000 34.2488
#
#
#
# Elastic Compliance Matrix: (Units=1/GPa)
#
#
# Indices 1 2 3 4 5 6 
#
# 1 0.026562 -0.008552 -0.012599 0.000000 0.000000 0.000000
# 2 -0.008552 0.013557 -0.003665 0.000000 0.000000 0.000000
# 3 -0.012599 -0.003665 0.023784 0.000000 0.000000 0.000000
# 4 0.000000 0.000000 0.000000 0.035843 0.000000 0.000000
# 5 0.000000 0.000000 0.000000 0.000000 0.037701 0.000000
# 6 0.000000 0.000000 0.000000 0.000000 0.000000 0.029198
#
#
# Mechanical properties :
#
#
# Convention : Reuss Voigt Hill
#
# Bulk Modulus (GPa) = 70.07093 75.06664 72.56879
# Shear Modulus (GPa) = 22.62078 25.52585 24.07331
#
# Velocity S-wave (km/s) = 3.55940 3.78106 3.67190
# Velocity P-wave (km/s) = 7.49250 7.81696 7.65645
#
# Compressibility (1/GPa) = 0.01427125
#
# Stress axis : x y z
#
# Youngs Moduli (GPa) = 37.64782 73.76120 42.04453
#
# Poissons Ratio (x) = 0.63080 0.52971
# Poissons Ratio (y) = 0.32196 0.15411
# Poissons Ratio (z) = 0.47432 0.27036
#
# Static dielectric constant tensor:
#      x y z
#    x 3.095420 0.000000 0.000000 
#    y 0.000000 3.506140 0.000000 
#    z 0.000000 0.000000 3.269380 
# 
# 
# High freq. dielectric constant tensor:
#      x y z
#    x 1.671320 0.000000 0.000000 
#    y 0.000000 1.703460 0.000000 
#    z 0.000000 0.000000 1.693250 
# 
# From -- ./inp_files/5846.got.cif
#   From: 2010.06.25/outbox.cif.g09.slc.cpg/sg58_3_cif.got.tgz:5846.got - 2010.06.26 21:38:00.
