data_PCOD8237716
_publ_section_title
;
Structure prediction by ZEFSAII (Michael W. Deem and Ramdas Pophale) SiO2 
 PCOD8237716
Probable space group: P N N M
;
_chemical_formula_sum "Si O2"
_cell_formula_units_Z 56
_cell_length_a 15.012797
_cell_length_b 21.054011
_cell_length_c 8.995837
_cell_angle_alpha 90.000000
_cell_angle_beta 90.000000
_cell_angle_gamma 90.000000
_cell_volume 2843.400499
_symmetry_space_group_name_H-M "P N N M"
_symmetry_group_IT_number 58
_symmetry_cell_setting 'orthorhombic'
loop_
_space_group_symop_operation_xyz
x,y,z
-x,-y,z
1/2+x,1/2-y,1/2-z
1/2-x,1/2+y,1/2-z
-x,-y,-z
x,y,-z
1/2-x,1/2+y,1/2+z
1/2+x,1/2-y,1/2+z
loop_
_atom_site_type_symbol
_atom_site_label
_atom_site_fract_x
_atom_site_fract_y
_atom_site_fract_z
Si Si1 0.677930 0.728920 0.675801
Si Si2 0.758344 0.467081 0.827233
Si Si3 0.681965 0.333702 0.825697
Si Si4 0.012280 0.236505 0.673632
Si Si5 0.934702 0.442097 0.336356
Si Si6 0.440628 0.855383 0.667923
Si Si7 0.754616 0.106595 0.333404
O O1 0.674024 0.732786 0.500000
O O2 0.744387 0.783838 0.741665
O O3 0.578846 0.738226 0.736454
O O4 0.708201 0.658210 0.720193
O O5 0.698639 0.406698 0.779426
O O6 0.841667 0.467544 0.719899
O O7 0.708599 0.535047 0.800385
O O8 0.786886 0.461715 0.000000
O O9 0.579701 0.320036 0.777287
O O10 0.689308 0.323895 0.000000
O O11 0.990106 0.234440 0.500000
O O12 0.070293 0.298083 0.716345
O O13 0.923969 0.410000 0.500000
O O14 0.000000 0.500000 0.352608
O O15 0.971568 0.393411 0.214973
O O16 0.455383 0.830584 0.500000
O O17 0.352521 0.898256 0.678955
O O18 0.782874 0.127526 0.500000
#
# Coordination Sequence:
#
# PCOD8237716 Si02
#       7
#     8   8   8   8   8   8   8
#     4  11  22  39  62  89 119 157 200 246 299 355
#     4  10  20  38  60  83 115 155 201 248 298 355
#     4   9  20  38  61  86 115 151 193 243 297 352
#     4  11  22  39  61  88 117 151 195 247 303 354
#     4  11  22  33  50  81 119 155 191 235 297 360
#     4  11  21  35  56  84 115 152 195 239 295 355
#     4  10  21  36  58  86 115 153 197 243 294 353
#
# _framework density 19.694728000000001
#
# number of rings (size 3 to 8) (size 9 to 14) (size 15 to 20)
#    0.000    1.571    2.857    2.571    0.000    2.857 
#    0.000    2.857    0.000    4.286    0.000    0.000 
#    0.000    0.000    0.000    0.000    0.000    0.000 
#
# Total GULP energy -694090.822157 kJ/mol
# GULP energy per Si atom -12394.478967 kJ/mol
# Density = 1.964990 g / cm^3
# Si number density = 19.694728 Si / 1000 Ang^3
#
#
#
# Elastic Constant Matrix: (Units=GPa)
#
#
# Indices 1 2 3 4 5 6 
#
# 1 66.1334 28.4304 26.0540 0.0000 0.0000 0.0000
# 2 28.4304 117.9381 24.5674 0.0000 0.0000 0.0000
# 3 26.0540 24.5674 65.5107 0.0000 0.0000 0.0000
# 4 0.0000 0.0000 0.0000 35.4276 0.0000 0.0000
# 5 0.0000 0.0000 0.0000 0.0000 17.8851 0.0000
# 6 0.0000 0.0000 0.0000 0.0000 0.0000 30.7081
#
#
#
# Elastic Compliance Matrix: (Units=1/GPa)
#
#
# Indices 1 2 3 4 5 6 
#
# 1 0.019023 -0.003265 -0.006341 0.000000 0.000000 0.000000
# 2 -0.003265 0.009758 -0.002361 0.000000 0.000000 0.000000
# 3 -0.006341 -0.002361 0.018672 0.000000 0.000000 0.000000
# 4 0.000000 0.000000 0.000000 0.028227 0.000000 0.000000
# 5 0.000000 0.000000 0.000000 0.000000 0.055912 0.000000
# 6 0.000000 0.000000 0.000000 0.000000 0.000000 0.032565
#
#
# Mechanical properties :
#
#
# Convention : Reuss Voigt Hill
#
# Bulk Modulus (GPa) = 42.51897 45.29842 43.90869
# Shear Modulus (GPa) = 25.51943 28.17286 26.84615
#
# Velocity S-wave (km/s) = 3.60356 3.78627 3.69604
# Velocity P-wave (km/s) = 6.24100 6.49343 6.36846
#
# Compressibility (1/GPa) = 0.02351891
#
# Stress axis : x y z
#
# Youngs Moduli (GPa) = 52.56908 102.48186 53.55627
#
# Poissons Ratio (x) = 0.33458 0.33960
# Poissons Ratio (y) = 0.17162 0.12644
# Poissons Ratio (z) = 0.33334 0.24195
#
# Static dielectric constant tensor:
#      x y z
#    x 3.438570 0.000000 0.000000 
#    y 0.000000 3.821340 0.000000 
#    z 0.000000 0.000000 3.561510 
# 
# 
# High freq. dielectric constant tensor:
#      x y z
#    x 1.750730 0.000000 0.000000 
#    y 0.000000 1.772040 0.000000 
#    z 0.000000 0.000000 1.759200 
# 
# From -- ./inp_files/6294.got.cif
#   From: 2010.06.25/outbox.cif.g09.slc.cpg/sg58_4_cif.got.tgz:6294.got - 2010.06.26 21:38:00.
