data_PCOD8237328
_publ_section_title
;
Structure prediction by ZEFSAII (Michael W. Deem and Ramdas Pophale) SiO2 
 PCOD8237328
Probable space group: P N N M
;
_chemical_formula_sum "Si O2"
_cell_formula_units_Z 64
_cell_length_a 15.076013
_cell_length_b 24.357977
_cell_length_c 8.637954
_cell_angle_alpha 90.000000
_cell_angle_beta 90.000000
_cell_angle_gamma 90.000000
_cell_volume 3172.039643
_symmetry_space_group_name_H-M "P N N M"
_symmetry_group_IT_number 58
_symmetry_cell_setting 'orthorhombic'
loop_
_space_group_symop_operation_xyz
x,y,z
-x,-y,z
1/2+x,1/2-y,1/2-z
1/2-x,1/2+y,1/2-z
-x,-y,-z
x,y,-z
1/2-x,1/2+y,1/2+z
1/2+x,1/2-y,1/2+z
loop_
_atom_site_type_symbol
_atom_site_label
_atom_site_fract_x
_atom_site_fract_y
_atom_site_fract_z
Si Si1 0.999817 0.157484 0.679052
Si Si2 0.829010 0.567810 0.821264
Si Si3 0.818779 0.441297 0.177288
Si Si4 0.450815 0.778750 0.823234
Si Si5 0.270554 0.761054 0.679059
Si Si6 0.010001 0.604249 0.322954
Si Si7 0.184172 0.140189 0.819812
Si Si8 0.180084 0.858057 0.820727
O O1 0.982856 0.145224 0.500000
O O2 0.998330 0.222602 0.715187
O O3 0.093206 0.130773 0.727252
O O4 0.921697 0.129170 0.777090
O O5 0.804054 0.505004 0.788667
O O6 0.911611 0.584150 0.715519
O O7 0.743656 0.603507 0.779450
O O8 0.854225 0.577215 0.000000
O O9 0.751480 0.408684 0.286300
O O10 0.920005 0.425556 0.213464
O O11 0.798587 0.426488 0.000000
O O12 0.367736 0.786602 0.709141
O O13 0.516991 0.829892 0.798380
O O14 0.415001 0.777780 0.000000
O O15 0.245327 0.767785 0.500000
O O16 0.270050 0.697464 0.731407
O O17 0.199145 0.794348 0.779630
O O18 0.031362 0.588871 0.500000
O O19 0.160597 0.142306 0.000000
O O20 0.196274 0.869889 0.000000
#
# Coordination Sequence:
#
# PCOD8237328 Si02
#       8
#     8   8   8   8   8   8   8   8
#     4  10  21  39  62  88 125 163 199 246 304 364
#     4  11  24  43  63  87 121 161 207 254 303 361
#     4  11  25  42  62  88 120 162 208 252 303 362
#     4   9  19  35  56  86 122 158 196 239 291 355
#     4  10  20  35  58  86 120 159 196 241 298 358
#     4  11  22  37  60  92 125 160 202 248 302 360
#     4  10  22  41  63  90 123 158 203 253 304 358
#     4  12  24  38  60  91 123 158 204 252 303 360
#
# _framework density 20.176292
#
# number of rings (size 3 to 8) (size 9 to 14) (size 15 to 20)
#    0.000    1.500    1.250    3.750    1.750    6.000 
#    0.000    0.625    0.000    3.750    0.000    0.000 
#    0.000    0.000    0.000    0.000    0.000    0.000 
#
# Total GULP energy -793954.972358 kJ/mol
# GULP energy per Si atom -12405.546443 kJ/mol
# Density = 2.013037 g / cm^3
# Si number density = 20.176292 Si / 1000 Ang^3
#
#
#
# Elastic Constant Matrix: (Units=GPa)
#
#
# Indices 1 2 3 4 5 6 
#
# 1 93.7317 40.6935 14.9526 0.0000 0.0000 0.0000
# 2 40.6935 74.7305 21.8307 0.0000 0.0000 0.0000
# 3 14.9526 21.8307 52.1238 0.0000 0.0000 0.0000
# 4 0.0000 0.0000 0.0000 26.9156 0.0000 0.0000
# 5 0.0000 0.0000 0.0000 0.0000 36.7756 0.0000
# 6 0.0000 0.0000 0.0000 0.0000 0.0000 22.5537
#
#
#
# Elastic Compliance Matrix: (Units=1/GPa)
#
#
# Indices 1 2 3 4 5 6 
#
# 1 0.014012 -0.007356 -0.000939 0.000000 0.000000 0.000000
# 2 -0.007356 0.019108 -0.005893 0.000000 0.000000 0.000000
# 3 -0.000939 -0.005893 0.021922 0.000000 0.000000 0.000000
# 4 0.000000 0.000000 0.000000 0.037153 0.000000 0.000000
# 5 0.000000 0.000000 0.000000 0.000000 0.027192 0.000000
# 6 0.000000 0.000000 0.000000 0.000000 0.000000 0.044339
#
#
# Mechanical properties :
#
#
# Convention : Reuss Voigt Hill
#
# Bulk Modulus (GPa) = 37.49832 41.72662 39.61247
# Shear Modulus (GPa) = 24.87673 26.78959 25.83316
#
# Velocity S-wave (km/s) = 3.51517 3.64782 3.58211
# Velocity P-wave (km/s) = 5.92461 6.20226 6.06502
#
# Compressibility (1/GPa) = 0.02666786
#
# Stress axis : x y z
#
# Youngs Moduli (GPa) = 71.36719 52.33298 45.61526
#
# Poissons Ratio (x) = 0.38495 0.04282
# Poissons Ratio (y) = 0.52496 0.26881
# Poissons Ratio (z) = 0.06700 0.30839
#
# Static dielectric constant tensor:
#      x y z
#    x 3.504740 0.000000 0.000000 
#    y 0.000000 3.682870 0.000000 
#    z 0.000000 0.000000 3.660090 
# 
# 
# High freq. dielectric constant tensor:
#      x y z
#    x 1.783000 0.000000 0.000000 
#    y 0.000000 1.779880 0.000000 
#    z 0.000000 0.000000 1.795020 
# 
# From -- ./inp_files/6765.got.cif
#   From: 2010.06.25/outbox.cif.g09.slc.cpg/sg58_4_cif.got.tgz:6765.got - 2010.06.26 21:38:00.
