data_PCOD8237705
_publ_section_title
;
Structure prediction by ZEFSAII (Michael W. Deem and Ramdas Pophale) SiO2 
 PCOD8237705
Probable space group: P N N M
;
_chemical_formula_sum "Si O2"
_cell_formula_units_Z 64
_cell_length_a 28.170899
_cell_length_b 12.602630
_cell_length_c 8.920809
_cell_angle_alpha 90.000000
_cell_angle_beta 90.000000
_cell_angle_gamma 90.000000
_cell_volume 3167.131776
_symmetry_space_group_name_H-M "P N N M"
_symmetry_group_IT_number 58
_symmetry_cell_setting 'orthorhombic'
loop_
_space_group_symop_operation_xyz
x,y,z
-x,-y,z
1/2+x,1/2-y,1/2-z
1/2-x,1/2+y,1/2-z
-x,-y,-z
x,y,-z
1/2-x,1/2+y,1/2+z
1/2+x,1/2-y,1/2+z
loop_
_atom_site_type_symbol
_atom_site_label
_atom_site_fract_x
_atom_site_fract_y
_atom_site_fract_z
Si Si1 0.952480 0.776631 0.329417
Si Si2 0.363755 0.411252 0.329909
Si Si3 0.800042 0.252928 0.324370
Si Si4 0.363992 0.651534 0.671201
Si Si5 0.027031 0.894064 0.826319
Si Si6 0.346878 0.028910 0.821159
Si Si7 0.949164 0.529861 0.328448
Si Si8 0.297680 0.813922 0.823846
O O1 0.946286 0.814783 0.500000
O O2 0.918860 0.844579 0.219596
O O3 0.939929 0.654030 0.314227
O O4 0.006046 0.797609 0.272737
O O5 0.354957 0.371132 0.500000
O O6 0.336954 0.339160 0.211440
O O7 0.345133 0.531543 0.314754
O O8 0.418396 0.405741 0.285911
O O9 0.791628 0.261583 0.500000
O O10 0.820717 0.364895 0.262905
O O11 0.750913 0.221769 0.250172
O O12 0.358465 0.691107 0.500000
O O13 0.336084 0.725278 0.785623
O O14 0.019057 0.868465 0.000000
O O15 0.000000 0.000000 0.777181
O O16 0.316127 0.928057 0.763631
O O17 0.401583 0.024974 0.758030
O O18 0.349594 0.025008 0.000000
O O19 0.953100 0.492371 0.500000
O O20 0.000000 0.500000 0.249418
O O21 0.289792 0.818765 0.000000
#
# Coordination Sequence:
#
# PCOD8237705 Si02
#       8
#     8   8   8   8   8   8   8   8
#     4  11  21  34  58  91 120 155 206 256 302 359
#     4  10  23  42  62  85 123 170 208 250 311 370
#     4  11  25  42  64  94 123 159 207 254 309 370
#     4  11  22  40  64  89 121 162 206 253 312 371
#     4  10  20  38  58  81 120 168 203 237 300 368
#     4   9  20  40  62  87 124 163 198 246 307 371
#     4   9  18  34  58  86 119 159 199 240 300 365
#     4  11  23  43  67  91 121 159 204 254 310 368
#
# _framework density 20.207559
#
# number of rings (size 3 to 8) (size 9 to 14) (size 15 to 20)
#    0.000    1.750    2.500    1.500    3.500    1.750 
#    0.000    1.875    0.000    1.500    0.000    0.000 
#    0.000    0.000    0.000    0.000    0.000    0.000 
#
# Total GULP energy -793554.809405 kJ/mol
# GULP energy per Si atom -12399.293897 kJ/mol
# Density = 2.016157 g / cm^3
# Si number density = 20.207559 Si / 1000 Ang^3
#
#
#
# Elastic Constant Matrix: (Units=GPa)
#
#
# Indices 1 2 3 4 5 6 
#
# 1 124.0620 53.9755 26.7397 0.0000 0.0000 0.0000
# 2 53.9755 95.8638 27.8476 0.0000 0.0000 0.0000
# 3 26.7397 27.8476 47.2458 0.0000 0.0000 0.0000
# 4 0.0000 0.0000 0.0000 20.5297 0.0000 0.0000
# 5 0.0000 0.0000 0.0000 0.0000 30.3090 0.0000
# 6 0.0000 0.0000 0.0000 0.0000 0.0000 37.0898
#
#
#
# Elastic Compliance Matrix: (Units=1/GPa)
#
#
# Indices 1 2 3 4 5 6 
#
# 1 0.011044 -0.005312 -0.003120 0.000000 0.000000 0.000000
# 2 -0.005312 0.015142 -0.005918 0.000000 0.000000 0.000000
# 3 -0.003120 -0.005918 0.026420 0.000000 0.000000 0.000000
# 4 0.000000 0.000000 0.000000 0.048710 0.000000 0.000000
# 5 0.000000 0.000000 0.000000 0.000000 0.032993 0.000000
# 6 0.000000 0.000000 0.000000 0.000000 0.000000 0.026962
#
#
# Mechanical properties :
#
#
# Convention : Reuss Voigt Hill
#
# Bulk Modulus (GPa) = 41.83113 53.81078 47.82096
# Shear Modulus (GPa) = 25.26036 28.15962 26.70999
#
# Velocity S-wave (km/s) = 3.53943 3.73704 3.63958
# Velocity P-wave (km/s) = 6.11957 6.73108 6.43260
#
# Compressibility (1/GPa) = 0.02390564
#
# Stress axis : x y z
#
# Youngs Moduli (GPa) = 90.54731 66.04329 37.85041
#
# Poissons Ratio (x) = 0.35082 0.11807
# Poissons Ratio (y) = 0.48099 0.22401
# Poissons Ratio (z) = 0.28246 0.39086
#
# Static dielectric constant tensor:
#      x y z
#    x 4.493380 0.000000 0.000000 
#    y 0.000000 3.882850 0.000000 
#    z 0.000000 0.000000 3.390800 
# 
# 
# High freq. dielectric constant tensor:
#      x y z
#    x 1.804250 0.000000 0.000000 
#    y 0.000000 1.791580 0.000000 
#    z 0.000000 0.000000 1.761570 
# 
# From -- ./inp_files/10995.got.cif
#   From: 2010.06.25/outbox.cif.g09.slc.cpg/sg58_6_cif.got.tgz:10995.got - 2010.06.26 21:38:00.
