data_PCOD8237178
_publ_section_title
;
Structure prediction by ZEFSAII (Michael W. Deem and Ramdas Pophale) SiO2 
 PCOD8237178
Probable space group: P N N M
;
_chemical_formula_sum "Si O2"
_cell_formula_units_Z 64
_cell_length_a 14.295404
_cell_length_b 30.575986
_cell_length_c 9.048854
_cell_angle_alpha 90.000000
_cell_angle_beta 90.000000
_cell_angle_gamma 90.000000
_cell_volume 3955.218545
_symmetry_space_group_name_H-M "P N N M"
_symmetry_group_IT_number 58
_symmetry_cell_setting 'orthorhombic'
loop_
_space_group_symop_operation_xyz
x,y,z
-x,-y,z
1/2+x,1/2-y,1/2-z
1/2-x,1/2+y,1/2-z
-x,-y,-z
x,y,-z
1/2-x,1/2+y,1/2+z
1/2+x,1/2-y,1/2+z
loop_
_atom_site_type_symbol
_atom_site_label
_atom_site_fract_x
_atom_site_fract_y
_atom_site_fract_z
Si Si1 0.891686 0.549055 0.325291
Si Si2 0.500173 0.729294 0.674952
Si Si3 0.823158 0.365144 0.664993
Si Si4 0.789208 0.784660 0.175843
Si Si5 0.395735 0.047842 0.175603
Si Si6 0.326784 0.868369 0.329450
Si Si7 0.326231 0.299458 0.170584
Si Si8 0.486461 0.817102 0.834023
O O1 0.884564 0.556988 0.500000
O O2 0.857068 0.500139 0.281274
O O3 0.824943 0.583774 0.244101
O O4 0.998033 0.554374 0.267494
O O5 0.505850 0.733170 0.500000
O O6 0.396892 0.714608 0.726647
O O7 0.578504 0.695895 0.735009
O O8 0.525311 0.775329 0.748173
O O9 0.782462 0.369710 0.500000
O O10 0.759696 0.328317 0.746080
O O11 0.826758 0.413832 0.739998
O O12 0.931106 0.351821 0.660377
O O13 0.738154 0.740538 0.232316
O O14 0.780144 0.785423 0.000000
O O15 0.399759 0.052021 0.000000
O O16 0.354771 0.872599 0.500000
O O17 0.226026 0.845705 0.310727
O O18 0.399974 0.836861 0.251894
O O19 0.351678 0.290653 0.000000
O O20 0.455269 0.804407 0.000000
#
# Coordination Sequence:
#
# PCOD8237178 Si02
#       8
#     8   8   8   8   8   8   8   8
#     4   9  16  28  46  69  95 120 155 196 234 283
#     4  11  21  33  47  69  98 124 157 204 239 268
#     4   9  15  26  47  69  88 122 160 184 223 280
#     4   9  17  30  46  66  94 123 154 192 233 274
#     4   8  14  25  44  70  95 119 153 196 231 279
#     4  11  21  32  46  67  98 130 162 199 236 275
#     4  10  20  35  49  65  93 130 163 193 233 283
#     4  11  19  29  49  70  93 129 165 192 228 284
#
# _framework density 16.181155
#
# number of rings (size 3 to 8) (size 9 to 14) (size 15 to 20)
#    0.000    2.250    3.750    1.875    0.000    1.000 
#    0.000    1.250    0.000    0.000    0.000    0.875 
#    0.000    7.000    0.000    0.000    0.000    0.000 
#
# Total GULP energy -793144.849152 kJ/mol
# GULP energy per Si atom -12392.888268 kJ/mol
# Density = 1.614433 g / cm^3
# Si number density = 16.181155 Si / 1000 Ang^3
#
#
#
# Elastic Constant Matrix: (Units=GPa)
#
#
# Indices 1 2 3 4 5 6 
#
# 1 67.5262 37.5185 23.3362 0.0000 0.0000 0.0000
# 2 37.5185 117.7681 26.3159 0.0000 0.0000 0.0000
# 3 23.3362 26.3159 52.6376 0.0000 0.0000 0.0000
# 4 0.0000 0.0000 0.0000 21.1476 0.0000 0.0000
# 5 0.0000 0.0000 0.0000 0.0000 19.9777 0.0000
# 6 0.0000 0.0000 0.0000 0.0000 0.0000 22.7181
#
#
#
# Elastic Compliance Matrix: (Units=1/GPa)
#
#
# Indices 1 2 3 4 5 6 
#
# 1 0.019688 -0.004865 -0.006296 0.000000 0.000000 0.000000
# 2 -0.004865 0.010761 -0.003223 0.000000 0.000000 0.000000
# 3 -0.006296 -0.003223 0.023401 0.000000 0.000000 0.000000
# 4 0.000000 0.000000 0.000000 0.047287 0.000000 0.000000
# 5 0.000000 0.000000 0.000000 0.000000 0.050056 0.000000
# 6 0.000000 0.000000 0.000000 0.000000 0.000000 0.044018
#
#
# Mechanical properties :
#
#
# Convention : Reuss Voigt Hill
#
# Bulk Modulus (GPa) = 39.87087 45.80812 42.83949
# Shear Modulus (GPa) = 21.52017 22.81941 22.16979
#
# Velocity S-wave (km/s) = 3.65081 3.75940 3.70550
# Velocity P-wave (km/s) = 6.51652 6.87133 6.69627
#
# Compressibility (1/GPa) = 0.02508097
#
# Stress axis : x y z
#
# Youngs Moduli (GPa) = 50.79192 92.92385 42.73407
#
# Poissons Ratio (x) = 0.45211 0.26906
# Poissons Ratio (y) = 0.24712 0.13774
# Poissons Ratio (z) = 0.31979 0.29951
#
# Static dielectric constant tensor:
#      x y z
#    x 2.935160 0.000000 0.000000 
#    y 0.000000 3.377430 0.000000 
#    z 0.000000 0.000000 2.827340 
# 
# 
# High freq. dielectric constant tensor:
#      x y z
#    x 1.593040 0.000000 0.000000 
#    y 0.000000 1.623580 0.000000 
#    z 0.000000 0.000000 1.594600 
# 
# From -- ./inp_files/7142.got.cif
#   From: 2010.06.25/outbox.cif.g09.slc.cpg/sg58_4_cif.got.tgz:7142.got - 2010.06.26 21:38:00.
