data_PCOD8237267
_publ_section_title
;
Structure prediction by ZEFSAII (Michael W. Deem and Ramdas Pophale) SiO2 
 PCOD8237267
Probable space group: P N N M
;
_chemical_formula_sum "Si O2"
_cell_formula_units_Z 64
_cell_length_a 15.386337
_cell_length_b 23.870258
_cell_length_c 8.852187
_cell_angle_alpha 90.000000
_cell_angle_beta 90.000000
_cell_angle_gamma 90.000000
_cell_volume 3251.194362
_symmetry_space_group_name_H-M "P N N M"
_symmetry_group_IT_number 58
_symmetry_cell_setting 'orthorhombic'
loop_
_space_group_symop_operation_xyz
x,y,z
-x,-y,z
1/2+x,1/2-y,1/2-z
1/2-x,1/2+y,1/2-z
-x,-y,-z
x,y,-z
1/2-x,1/2+y,1/2+z
1/2+x,1/2-y,1/2+z
loop_
_atom_site_type_symbol
_atom_site_label
_atom_site_fract_x
_atom_site_fract_y
_atom_site_fract_z
Si Si1 0.153868 0.859985 0.674018
Si Si2 0.157255 0.635716 0.321142
Si Si3 0.503651 0.062769 0.178631
Si Si4 0.664598 0.365416 0.178681
Si Si5 0.600007 0.254990 0.675829
Si Si6 0.650603 0.131391 0.672187
Si Si7 0.002160 0.062656 0.320684
Si Si8 0.601645 0.751016 0.324038
O O1 0.134956 0.843151 0.500000
O O2 0.249278 0.886912 0.690309
O O3 0.150088 0.805468 0.777844
O O4 0.084376 0.905218 0.733423
O O5 0.163911 0.632927 0.500000
O O6 0.246254 0.611997 0.250759
O O7 0.143291 0.699300 0.271275
O O8 0.078162 0.597879 0.258193
O O9 0.593736 0.090732 0.226054
O O10 0.500000 0.000000 0.245266
O O11 0.500052 0.061525 0.000000
O O12 0.648493 0.301522 0.226482
O O13 0.586702 0.404578 0.240305
O O14 0.672090 0.368533 0.000000
O O15 0.616107 0.267934 0.500000
O O16 0.639914 0.195574 0.724235
O O17 0.498992 0.255176 0.717607
O O18 0.618413 0.125585 0.500000
O O19 0.005045 0.059882 0.500000
O O20 0.000000 0.000000 0.252166
O O21 0.615758 0.763583 0.500000
#
# Coordination Sequence:
#
# PCOD8237267 Si02
#       8
#     8   8   8   8   8   8   8   8
#     4  10  20  36  59  86 116 153 193 233 290 346
#     4  11  23  39  60  84 116 154 190 237 294 346
#     4  10  23  42  61  82 112 152 194 237 288 345
#     4  11  22  36  60  89 117 153 196 238 284 344
#     4  10  20  35  56  85 122 152 184 235 292 344
#     4  10  21  37  59  86 114 148 188 237 287 339
#     4   9  19  36  56  81 115 153 195 239 281 336
#     4  11  21  35  59  88 118 150 190 237 284 343
#
# _framework density 19.685072999999999
#
# number of rings (size 3 to 8) (size 9 to 14) (size 15 to 20)
#    0.000    1.750    2.500    1.875    0.000    4.250 
#    0.000    1.250    0.000    3.375    0.000    0.000 
#    0.000    0.000    0.000    0.000    0.000    0.000 
#
# Total GULP energy -793893.465389 kJ/mol
# GULP energy per Si atom -12404.585397 kJ/mol
# Density = 1.964027 g / cm^3
# Si number density = 19.685073 Si / 1000 Ang^3
#
#
#
# Elastic Constant Matrix: (Units=GPa)
#
#
# Indices 1 2 3 4 5 6 
#
# 1 143.4968 61.7073 31.7986 0.0000 0.0000 0.0000
# 2 61.7073 132.7775 19.6856 0.0000 0.0000 0.0000
# 3 31.7986 19.6856 41.7507 0.0000 0.0000 0.0000
# 4 0.0000 0.0000 0.0000 11.9572 0.0000 0.0000
# 5 0.0000 0.0000 0.0000 0.0000 30.4336 0.0000
# 6 0.0000 0.0000 0.0000 0.0000 0.0000 12.4809
#
#
#
# Elastic Compliance Matrix: (Units=1/GPa)
#
#
# Indices 1 2 3 4 5 6 
#
# 1 0.009842 -0.003723 -0.005741 0.000000 0.000000 0.000000
# 2 -0.003723 0.009506 -0.001647 0.000000 0.000000 0.000000
# 3 -0.005741 -0.001647 0.029100 0.000000 0.000000 0.000000
# 4 0.000000 0.000000 0.000000 0.083632 0.000000 0.000000
# 5 0.000000 0.000000 0.000000 0.000000 0.032858 0.000000
# 6 0.000000 0.000000 0.000000 0.000000 0.000000 0.080123
#
#
# Mechanical properties :
#
#
# Convention : Reuss Voigt Hill
#
# Bulk Modulus (GPa) = 38.12725 60.48978 49.30852
# Shear Modulus (GPa) = 18.11445 24.62989 21.37217
#
# Velocity S-wave (km/s) = 3.03679 3.54106 3.29858
# Velocity P-wave (km/s) = 5.63088 6.89306 6.29369
#
# Compressibility (1/GPa) = 0.02622796
#
# Stress axis : x y z
#
# Youngs Moduli (GPa) = 101.60757 105.20047 34.36400
#
# Poissons Ratio (x) = 0.39164 0.19727
# Poissons Ratio (y) = 0.37827 0.05658
# Poissons Ratio (z) = 0.58328 0.17322
#
# Static dielectric constant tensor:
#      x y z
#    x -2.812790 0.000000 0.000000 
#    y 0.000000 3.637880 0.000000 
#    z 0.000000 0.000000 3.361810 
# 
# 
# High freq. dielectric constant tensor:
#      x y z
#    x 1.784920 0.000000 0.000000 
#    y 0.000000 1.761550 0.000000 
#    z 0.000000 0.000000 1.748070 
# 
# From -- ./inp_files/6904.got.cif
#   From: 2010.06.25/outbox.cif.g09.slc.cpg/sg58_4_cif.got.tgz:6904.got - 2010.06.26 21:38:00.
