data_PCOD8237020
_publ_section_title
;
Structure prediction by ZEFSAII (Michael W. Deem and Ramdas Pophale) SiO2 
 PCOD8237020
Probable space group: P N N M
;
_chemical_formula_sum "Si O2"
_cell_formula_units_Z 64
_cell_length_a 19.455536
_cell_length_b 20.167070
_cell_length_c 8.598051
_cell_angle_alpha 90.000000
_cell_angle_beta 90.000000
_cell_angle_gamma 90.000000
_cell_volume 3373.541233
_symmetry_space_group_name_H-M "P N N M"
_symmetry_group_IT_number 58
_symmetry_cell_setting 'orthorhombic'
loop_
_space_group_symop_operation_xyz
x,y,z
-x,-y,z
1/2+x,1/2-y,1/2-z
1/2-x,1/2+y,1/2-z
-x,-y,-z
x,y,-z
1/2-x,1/2+y,1/2+z
1/2+x,1/2-y,1/2+z
loop_
_atom_site_type_symbol
_atom_site_label
_atom_site_fract_x
_atom_site_fract_y
_atom_site_fract_z
Si Si1 0.538315 0.568962 0.821301
Si Si2 0.252763 0.785689 0.817253
Si Si3 0.776699 0.856750 0.684918
Si Si4 0.597797 0.182863 0.815293
Si Si5 0.706776 0.989071 0.682906
Si Si6 0.065627 0.460652 0.315352
Si Si7 0.071174 0.172880 0.315234
Si Si8 0.316952 0.414708 0.319004
O O1 0.500000 0.500000 0.804933
O O2 0.490253 0.627136 0.750748
O O3 0.606365 0.563965 0.719466
O O4 0.558233 0.583150 0.000000
O O5 0.238653 0.710877 0.755845
O O6 0.324439 0.814236 0.749671
O O7 0.191901 0.836626 0.774672
O O8 0.262966 0.779491 0.000000
O O9 0.777386 0.862134 0.500000
O O10 0.855526 0.854689 0.746526
O O11 0.736021 0.919748 0.752365
O O12 0.562878 0.115391 0.750649
O O13 0.559027 0.250539 0.761305
O O14 0.598302 0.179667 0.000000
O O15 0.694488 0.985289 0.500000
O O16 0.634785 0.003039 0.764178
O O17 0.762607 0.044922 0.718541
O O18 0.063607 0.460620 0.500000
O O19 0.000000 0.500000 0.246925
O O20 0.071882 0.167905 0.500000
O O21 0.301196 0.426948 0.500000
#
# Coordination Sequence:
#
# PCOD8237020 Si02
#       8
#     8   8   8   8   8   8   8   8
#     4  10  20  34  51  76 109 142 177 218 265 313
#     4   8  14  28  51  74  97 128 173 215 250 307
#     4   8  15  29  51  78 101 132 174 215 258 309
#     4   8  13  27  51  74  95 129 174 211 246 298
#     4  11  21  34  55  81 108 135 172 219 269 316
#     4  10  20  35  54  76 104 138 176 216 264 319
#     4   8  14  27  50  75  99 132 178 217 248 298
#     4  11  21  34  55  79 106 141 178 217 263 317
#
# _framework density 18.971163000000001
#
# number of rings (size 3 to 8) (size 9 to 14) (size 15 to 20)
#    0.000    2.750    1.250    3.000    0.000    2.500 
#    2.250    0.000    0.000    3.000    0.000    0.000 
#    0.000    0.000    0.000    0.000    0.000    0.000 
#
# Total GULP energy -793120.256567 kJ/mol
# GULP energy per Si atom -12392.504009 kJ/mol
# Density = 1.892798 g / cm^3
# Si number density = 18.971163 Si / 1000 Ang^3
#
#
#
# Elastic Constant Matrix: (Units=GPa)
#
#
# Indices 1 2 3 4 5 6 
#
# 1 104.4570 63.6613 2.2102 0.0000 0.0000 0.0000
# 2 63.6613 149.7901 12.3295 0.0000 0.0000 0.0000
# 3 2.2102 12.3295 7.0221 0.0000 0.0000 0.0000
# 4 0.0000 0.0000 0.0000 14.7710 0.0000 0.0000
# 5 0.0000 0.0000 0.0000 0.0000 19.6853 0.0000
# 6 0.0000 0.0000 0.0000 0.0000 0.0000 36.3433
#
#
#
# Elastic Compliance Matrix: (Units=1/GPa)
#
#
# Indices 1 2 3 4 5 6 
#
# 1 0.013180 -0.006149 0.006648 0.000000 0.000000 0.000000
# 2 -0.006149 0.010672 -0.016803 0.000000 0.000000 0.000000
# 3 0.006648 -0.016803 0.169819 0.000000 0.000000 0.000000
# 4 0.000000 0.000000 0.000000 0.067700 0.000000 0.000000
# 5 0.000000 0.000000 0.000000 0.000000 0.050799 0.000000
# 6 0.000000 0.000000 0.000000 0.000000 0.000000 0.027515
#
#
# Mechanical properties :
#
#
# Convention : Reuss Voigt Hill
#
# Bulk Modulus (GPa) = 6.20878 46.40792 26.30835
# Shear Modulus (GPa) = 11.73758 26.36447 19.05103
#
# Velocity S-wave (km/s) = 2.49008 3.73193 3.17236
# Velocity P-wave (km/s) = 3.39811 6.56393 5.22649
#
# Compressibility (1/GPa) = 0.16106220
#
# Stress axis : x y z
#
# Youngs Moduli (GPa) = 75.87258 93.70010 5.88863
#
# Poissons Ratio (x) = 0.57614 -0.03915
# Poissons Ratio (y) = 0.46652 0.09895
# Poissons Ratio (z) = -0.50437 1.57448
#
# Static dielectric constant tensor:
#      x y z
#    x 3.449780 0.000000 0.000000 
#    y 0.000000 4.072500 0.000000 
#    z 0.000000 0.000000 2.957080 
# 
# 
# High freq. dielectric constant tensor:
#      x y z
#    x 1.722560 0.000000 0.000000 
#    y 0.000000 1.759610 0.000000 
#    z 0.000000 0.000000 1.684500 
# 
# From -- ./inp_files/8283.got.cif
#   From: 2010.06.25/outbox.cif.g09.slc.cpg/sg58_5_cif.got.tgz:8283.got - 2010.06.26 21:38:00.
