data_PCOD8237513
_publ_section_title
;
Structure prediction by ZEFSAII (Michael W. Deem and Ramdas Pophale) SiO2 
 PCOD8237513
Probable space group: P N N M
;
_chemical_formula_sum "Si O2"
_cell_formula_units_Z 40
_cell_length_a 7.790525
_cell_length_b 7.285467
_cell_length_c 27.997948
_cell_angle_alpha 90.000000
_cell_angle_beta 90.000000
_cell_angle_gamma 90.000000
_cell_volume 1589.096692
_symmetry_space_group_name_H-M "P N N M"
_symmetry_group_IT_number 58
_symmetry_cell_setting 'orthorhombic'
loop_
_space_group_symop_operation_xyz
x,y,z
-x,-y,z
1/2+x,1/2-y,1/2-z
1/2-x,1/2+y,1/2-z
-x,-y,-z
x,y,-z
1/2-x,1/2+y,1/2+z
1/2+x,1/2-y,1/2+z
loop_
_atom_site_type_symbol
_atom_site_label
_atom_site_fract_x
_atom_site_fract_y
_atom_site_fract_z
Si Si1 0.328694 0.784702 0.445380
Si Si2 0.403416 0.225772 0.697208
Si Si3 0.972952 0.220425 0.378565
Si Si4 0.731136 0.888346 0.795228
Si Si5 0.170444 0.678208 0.904860
O O1 0.305595 0.726222 0.500000
O O2 0.172857 0.707750 0.414332
O O3 0.509679 0.702731 0.424959
O O4 0.319046 0.005028 0.440151
O O5 0.338965 0.105651 0.741397
O O6 0.292251 0.409808 0.690847
O O7 0.605903 0.255794 0.701720
O O8 0.369534 0.108956 0.649190
O O9 0.926462 0.312392 0.327727
O O10 0.151683 0.293670 0.402071
O O11 0.000000 0.000000 0.372990
#
# Coordination Sequence:
#
# PCOD8237513 Si02
#       5
#     8   8   8   8   8
#     4  10  21  38  64  98 133 169 223 282 332 391
#     4  11  25  40  64  93 136 176 223 277 332 409
#     4  10  22  38  63  92 133 166 219 272 332 395
#     4  11  25  42  63  96 131 180 224 270 343 403
#     4  10  20  36  60  92 125 172 211 270 329 390
#
# _framework density 25.171533
#
# number of rings (size 3 to 8) (size 9 to 14) (size 15 to 20)
#    0.000    1.600    2.000    2.400    8.400    7.600 
#    0.000    0.000    0.000    3.600    0.000   14.000 
#    0.000    0.000    0.000    0.000    0.000    0.000 
#
# Total GULP energy -495714.143336 kJ/mol
# GULP energy per Si atom -12392.853583 kJ/mol
# Density = 2.511424 g / cm^3
# Si number density = 25.171533 Si / 1000 Ang^3
#
#
#
# Elastic Constant Matrix: (Units=GPa)
#
#
# Indices 1 2 3 4 5 6 
#
# 1 186.2716 12.4924 24.0049 0.0000 0.0000 0.0000
# 2 12.4924 61.4181 6.7416 0.0000 0.0000 0.0000
# 3 24.0049 6.7416 148.5908 0.0000 0.0000 0.0000
# 4 0.0000 0.0000 0.0000 -3.3331 0.0000 0.0000
# 5 0.0000 0.0000 0.0000 0.0000 32.7044 0.0000
# 6 0.0000 0.0000 0.0000 0.0000 0.0000 25.1367
#
#
#
# Elastic Compliance Matrix: (Units=1/GPa)
#
#
# Indices 1 2 3 4 5 6 
#
# 1 0.005547 -0.001035 -0.000849 0.000000 0.000000 0.000000
# 2 -0.001035 0.016556 -0.000584 0.000000 0.000000 0.000000
# 3 -0.000849 -0.000584 0.006894 0.000000 0.000000 0.000000
# 4 0.000000 0.000000 0.000000 -0.300023 0.000000 0.000000
# 5 0.000000 0.000000 0.000000 0.000000 0.030577 0.000000
# 6 0.000000 0.000000 0.000000 0.000000 0.000000 0.039782
#
#
# Mechanical properties :
#
#
# Convention : Reuss Voigt Hill
#
# Bulk Modulus (GPa) = 41.56126 53.63980 47.60053
# Shear Modulus (GPa) = -26.63695 34.43773 3.90039
#
# Velocity S-wave (km/s) = -3.25655 3.70283 1.24615
# Velocity P-wave (km/s) = 1.55141 6.29581 4.58498
#
# Compressibility (1/GPa) = 0.02406087
#
# Stress axis : x y z
#
# Youngs Moduli (GPa) = 180.26586 60.39932 145.06257
#
# Poissons Ratio (x) = 0.06252 0.12319
# Poissons Ratio (y) = 0.18660 0.08471
# Poissons Ratio (z) = 0.15308 0.03527
#
# Static dielectric constant tensor:
#      x y z
#    x 5.467090 0.000000 0.000000 
#    y 0.000000 3.950500 0.000000 
#    z 0.000000 0.000000 4.300780 
# 
# 
# High freq. dielectric constant tensor:
#      x y z
#    x 2.040250 0.000000 0.000000 
#    y 0.000000 1.967870 0.000000 
#    z 0.000000 0.000000 1.992870 
# 
# From -- ./inp_files/34437.got.cif
#   From: 2010.06.25/outbox.cif.g09.slc.cpg/sg58_18_cif.got.tgz:34437.got - 2010.06.26 21:38:00.
