data_PCOD8237259
_publ_section_title
;
Structure prediction by ZEFSAII (Michael W. Deem and Ramdas Pophale) SiO2 
 PCOD8237259
Probable space group: P N N M
;
_chemical_formula_sum "Si O2"
_cell_formula_units_Z 64
_cell_length_a 13.933863
_cell_length_b 23.199720
_cell_length_c 10.015112
_cell_angle_alpha 90.000000
_cell_angle_beta 90.000000
_cell_angle_gamma 90.000000
_cell_volume 3237.502332
_symmetry_space_group_name_H-M "P N N M"
_symmetry_group_IT_number 58
_symmetry_cell_setting 'orthorhombic'
loop_
_space_group_symop_operation_xyz
x,y,z
-x,-y,z
1/2+x,1/2-y,1/2-z
1/2-x,1/2+y,1/2-z
-x,-y,-z
x,y,-z
1/2-x,1/2+y,1/2+z
1/2+x,1/2-y,1/2+z
loop_
_atom_site_type_symbol
_atom_site_label
_atom_site_fract_x
_atom_site_fract_y
_atom_site_fract_z
Si Si1 0.049272 0.939275 0.650126
Si Si2 0.436949 0.663756 0.256973
Si Si3 0.307348 0.766242 0.844295
Si Si4 0.730219 0.408495 0.351024
Si Si5 0.788006 0.035826 0.840876
Si Si6 0.908834 0.249618 0.153939
Si Si7 0.879343 0.614793 0.654133
Si Si8 0.919746 0.350942 0.343764
O O1 0.091759 0.940977 0.500000
O O2 0.131114 0.928818 0.761056
O O3 0.975996 0.885335 0.656849
O O4 0.000000 0.000000 0.684484
O O5 0.373892 0.711314 0.182188
O O6 0.363726 0.631301 0.356193
O O7 0.525379 0.692456 0.336037
O O8 0.198722 0.760404 0.791082
O O9 0.350194 0.824244 0.776725
O O10 0.301491 0.774773 0.000000
O O11 0.765225 0.421903 0.500000
O O12 0.709374 0.470387 0.285007
O O13 0.821626 0.377238 0.282598
O O14 0.685254 0.061789 0.794912
O O15 0.808630 0.040280 0.000000
O O16 0.951704 0.296660 0.254846
O O17 0.909679 0.270875 0.000000
O O18 0.854880 0.621619 0.500000
O O19 0.993075 0.603097 0.674600
O O20 0.910185 0.332229 0.500000
#
# Coordination Sequence:
#
# PCOD8237259 Si02
#       8
#     8   8   8   8   8   8   8   8
#     4  11  24  40  59  89 119 152 200 247 296 358
#     4  12  21  37  61  84 117 160 193 245 293 357
#     4  10  20  35  56  84 115 155 196 235 294 356
#     4  10  21  36  58  90 118 152 201 247 293 349
#     4  10  21  40  64  88 118 160 201 246 303 354
#     4  11  23  37  58  89 122 154 197 246 296 357
#     4   9  18  35  60  85 115 152 197 245 291 350
#     4  10  20  37  59  86 121 155 196 247 293 351
#
# _framework density 19.768325000000001
#
# number of rings (size 3 to 8) (size 9 to 14) (size 15 to 20)
#    0.000    1.625    3.750    1.500    0.000    3.250 
#    0.000    3.750    0.000    0.000    0.000    1.750 
#    0.000    0.000    0.000    0.000    0.000    0.000 
#
# Total GULP energy -793118.654749 kJ/mol
# GULP energy per Si atom -12392.478980 kJ/mol
# Density = 1.972333 g / cm^3
# Si number density = 19.768325 Si / 1000 Ang^3
#
#
#
# Elastic Constant Matrix: (Units=GPa)
#
#
# Indices 1 2 3 4 5 6 
#
# 1 138.6351 56.7944 30.7984 0.0000 0.0000 0.0000
# 2 56.7944 99.9350 12.6064 0.0000 0.0000 0.0000
# 3 30.7984 12.6064 55.9905 0.0000 0.0000 0.0000
# 4 0.0000 0.0000 0.0000 19.5089 0.0000 0.0000
# 5 0.0000 0.0000 0.0000 0.0000 21.7919 0.0000
# 6 0.0000 0.0000 0.0000 0.0000 0.0000 36.5512
#
#
#
# Elastic Compliance Matrix: (Units=1/GPa)
#
#
# Indices 1 2 3 4 5 6 
#
# 1 0.010407 -0.005344 -0.004521 0.000000 0.000000 0.000000
# 2 -0.005344 0.013043 0.000003 0.000000 0.000000 0.000000
# 3 -0.004521 0.000003 0.020346 0.000000 0.000000 0.000000
# 4 0.000000 0.000000 0.000000 0.051259 0.000000 0.000000
# 5 0.000000 0.000000 0.000000 0.000000 0.045889 0.000000
# 6 0.000000 0.000000 0.000000 0.000000 0.000000 0.027359
#
#
# Mechanical properties :
#
#
# Convention : Reuss Voigt Hill
#
# Bulk Modulus (GPa) = 41.54246 54.99546 48.26896
# Shear Modulus (GPa) = 25.50347 28.52779 27.01563
#
# Velocity S-wave (km/s) = 3.59572 3.80295 3.70078
# Velocity P-wave (km/s) = 6.18863 6.86757 6.53692
#
# Compressibility (1/GPa) = 0.02407176
#
# Stress axis : x y z
#
# Youngs Moduli (GPa) = 96.09025 76.66806 49.14851
#
# Poissons Ratio (x) = 0.40972 0.22221
# Poissons Ratio (y) = 0.51351 -0.00014
# Poissons Ratio (z) = 0.43445 -0.00022
#
# Static dielectric constant tensor:
#      x y z
#    x 3.822440 0.000000 0.000000 
#    y 0.000000 3.762950 0.000000 
#    z 0.000000 0.000000 3.155410 
# 
# 
# High freq. dielectric constant tensor:
#      x y z
#    x 1.787570 0.000000 0.000000 
#    y 0.000000 1.773260 0.000000 
#    z 0.000000 0.000000 1.728770 
# 
# From -- ./inp_files/14833.got.cif
#   From: 2010.06.25/outbox.cif.g09.slc.cpg/sg58_8_cif.got.tgz:14833.got - 2010.06.26 21:38:00.
