data_PCOD8237690
_publ_section_title
;
Structure prediction by ZEFSAII (Michael W. Deem and Ramdas Pophale) SiO2 
 PCOD8237690
Probable space group: P N N M
;
_chemical_formula_sum "Si O2"
_cell_formula_units_Z 56
_cell_length_a 11.586884
_cell_length_b 14.247605
_cell_length_c 16.618552
_cell_angle_alpha 90.000000
_cell_angle_beta 90.000000
_cell_angle_gamma 90.000000
_cell_volume 2743.479414
_symmetry_space_group_name_H-M "P N N M"
_symmetry_group_IT_number 58
_symmetry_cell_setting 'orthorhombic'
loop_
_space_group_symop_operation_xyz
x,y,z
-x,-y,z
1/2+x,1/2-y,1/2-z
1/2-x,1/2+y,1/2-z
-x,-y,-z
x,y,-z
1/2-x,1/2+y,1/2+z
1/2+x,1/2-y,1/2+z
loop_
_atom_site_type_symbol
_atom_site_label
_atom_site_fract_x
_atom_site_fract_y
_atom_site_fract_z
Si Si1 0.199097 0.645580 0.089414
Si Si2 0.132292 0.759580 0.323956
Si Si3 0.391148 0.064489 0.251127
Si Si4 0.444449 0.593839 0.845880
Si Si5 0.897036 0.180210 0.151574
Si Si6 0.157222 0.024579 0.817420
Si Si7 0.144578 0.203900 0.093416
O O1 0.116059 0.598801 0.156228
O O2 0.329362 0.617693 0.107400
O O3 0.184998 0.759362 0.092164
O O4 0.166129 0.609830 0.000000
O O5 0.095888 0.651771 0.310106
O O6 0.158312 0.806116 0.238751
O O7 0.250443 0.768891 0.375145
O O8 0.029286 0.818817 0.363808
O O9 0.277925 0.004023 0.227735
O O10 0.500000 0.000000 0.239182
O O11 0.500000 0.500000 0.883649
O O12 0.425914 0.575209 0.749574
O O13 0.025405 0.223921 0.140649
O O14 0.895387 0.067670 0.138918
O O15 0.177892 0.095764 0.890799
O O16 0.125049 0.223388 0.000000
#
# Coordination Sequence:
#
# PCOD8237690 Si02
#       7
#     8   8   8   8   8   8   8
#     4  10  24  39  55  92 129 159 205 254 316 381
#     4  10  22  38  65  89 122 161 212 258 302 372
#     4   9  21  38  62  91 118 164 207 255 309 371
#     4  11  20  41  67  89 117 165 219 263 302 364
#     4  11  21  37  67  89 125 163 210 263 312 370
#     4  10  20  37  63  96 119 157 213 266 309 370
#     4  11  23  39  59  94 132 162 203 258 325 379
#
# _framework density 20.412037000000002
#
# number of rings (size 3 to 8) (size 9 to 14) (size 15 to 20)
#    0.000    1.714    2.857    1.714    2.000    4.000 
#    0.000    0.000    0.000    1.714    0.000    0.000 
#    0.000    0.000    0.000    0.000    0.000    0.000 
#
# Total GULP energy -694018.142234 kJ/mol
# GULP energy per Si atom -12393.181111 kJ/mol
# Density = 2.036558 g / cm^3
# Si number density = 20.412037 Si / 1000 Ang^3
#
#
#
# Elastic Constant Matrix: (Units=GPa)
#
#
# Indices 1 2 3 4 5 6 
#
# 1 114.6865 55.5320 24.1732 0.0000 0.0000 0.0000
# 2 55.5320 90.2891 12.1969 0.0000 0.0000 0.0000
# 3 24.1732 12.1969 74.0452 0.0000 0.0000 0.0000
# 4 0.0000 0.0000 0.0000 12.6355 0.0000 0.0000
# 5 0.0000 0.0000 0.0000 0.0000 16.7203 0.0000
# 6 0.0000 0.0000 0.0000 0.0000 0.0000 43.8879
#
#
#
# Elastic Compliance Matrix: (Units=1/GPa)
#
#
# Indices 1 2 3 4 5 6 
#
# 1 0.013039 -0.007614 -0.003003 0.000000 0.000000 0.000000
# 2 -0.007614 0.015774 -0.000113 0.000000 0.000000 0.000000
# 3 -0.003003 -0.000113 0.014504 0.000000 0.000000 0.000000
# 4 0.000000 0.000000 0.000000 0.079142 0.000000 0.000000
# 5 0.000000 0.000000 0.000000 0.000000 0.059807 0.000000
# 6 0.000000 0.000000 0.000000 0.000000 0.000000 0.022785
#
#
# Mechanical properties :
#
#
# Convention : Reuss Voigt Hill
#
# Bulk Modulus (GPa) = 45.74888 51.42498 48.58693
# Shear Modulus (GPa) = 21.38616 27.12334 24.25475
#
# Velocity S-wave (km/s) = 3.24037 3.64921 3.45085
# Velocity P-wave (km/s) = 6.03832 6.55773 6.30338
#
# Compressibility (1/GPa) = 0.02185846
#
# Stress axis : x y z
#
# Youngs Moduli (GPa) = 76.69273 63.39666 68.94627
#
# Poissons Ratio (x) = 0.48270 0.20702
# Poissons Ratio (y) = 0.58394 0.00776
# Poissons Ratio (z) = 0.23028 0.00714
#
# Static dielectric constant tensor:
#      x y z
#    x 3.763610 0.000000 0.000000 
#    y 0.000000 3.890860 0.000000 
#    z 0.000000 0.000000 3.456570 
# 
# 
# High freq. dielectric constant tensor:
#      x y z
#    x 1.805250 0.000000 0.000000 
#    y 0.000000 1.794040 0.000000 
#    z 0.000000 0.000000 1.768400 
# 
# From -- ./inp_files/21266.got.cif
#   From: 2010.06.25/outbox.cif.g09.slc.cpg/sg58_11_cif.got.tgz:21266.got - 2010.06.26 21:38:00.
