data_PCOD8237924
_publ_section_title
;
Structure prediction by ZEFSAII (Michael W. Deem and Ramdas Pophale) SiO2 
 PCOD8237924
Probable space group: P N N M
;
_chemical_formula_sum "Si O2"
_cell_formula_units_Z 56
_cell_length_a 19.386945
_cell_length_b 15.955992
_cell_length_c 8.938213
_cell_angle_alpha 90.000000
_cell_angle_beta 90.000000
_cell_angle_gamma 90.000000
_cell_volume 2764.928391
_symmetry_space_group_name_H-M "P N N M"
_symmetry_group_IT_number 58
_symmetry_cell_setting 'orthorhombic'
loop_
_space_group_symop_operation_xyz
x,y,z
-x,-y,z
1/2+x,1/2-y,1/2-z
1/2-x,1/2+y,1/2-z
-x,-y,-z
x,y,-z
1/2-x,1/2+y,1/2+z
1/2+x,1/2-y,1/2+z
loop_
_atom_site_type_symbol
_atom_site_label
_atom_site_fract_x
_atom_site_fract_y
_atom_site_fract_z
Si Si1 0.455694 0.402682 0.163367
Si Si2 0.660132 0.518523 0.329035
Si Si3 0.378118 0.794361 0.323280
Si Si4 0.107685 0.126861 0.332427
Si Si5 0.993379 0.597103 0.676274
Si Si6 0.105541 0.727327 0.330974
Si Si7 0.231027 0.813039 0.823549
O O1 0.415823 0.443872 0.301291
O O2 0.536552 0.426931 0.168077
O O3 0.449640 0.302228 0.176304
O O4 0.424572 0.429758 0.000000
O O5 0.668731 0.492420 0.500000
O O6 0.668344 0.433965 0.230241
O O7 0.713682 0.590497 0.281619
O O8 0.376393 0.803379 0.500000
O O9 0.407142 0.704263 0.275925
O O10 0.425728 0.867728 0.258161
O O11 0.301559 0.795568 0.258642
O O12 0.127332 0.156660 0.500000
O O13 0.982104 0.609703 0.500000
O O14 0.063521 0.645383 0.727118
O O15 0.000000 0.500000 0.720408
O O16 0.132040 0.712186 0.500000
O O17 0.172447 0.747805 0.230566
O O18 0.239042 0.801462 0.000000
#
# Coordination Sequence:
#
# PCOD8237924 Si02
#       7
#     8   8   8   8   8   8   8
#     4   9  17  31  54  82 115 153 189 229 283 350
#     4  10  21  35  54  85 119 153 194 241 293 353
#     4  12  25  41  63  89 122 161 207 261 313 364
#     4  11  21  36  58  85 118 155 195 238 297 362
#     4  10  21  41  68  95 124 164 208 256 315 376
#     4   9  17  35  61  89 119 155 201 248 300 366
#     4  10  22  41  62  85 120 164 205 252 313 375
#
# _framework density 20.253688
#
# number of rings (size 3 to 8) (size 9 to 14) (size 15 to 20)
#    0.000    1.857    1.429    3.000    0.000    5.429 
#    2.571    0.000    0.000    0.000    0.000    0.000 
#    0.000    0.000    0.000    0.000    0.000    0.000 
#
# Total GULP energy -694235.800412 kJ/mol
# GULP energy per Si atom -12397.067865 kJ/mol
# Density = 2.020759 g / cm^3
# Si number density = 20.253688 Si / 1000 Ang^3
#
#
#
# Elastic Constant Matrix: (Units=GPa)
#
#
# Indices 1 2 3 4 5 6 
#
# 1 88.2331 18.9799 41.2471 0.0000 0.0000 0.0000
# 2 18.9799 71.5218 25.5923 0.0000 0.0000 0.0000
# 3 41.2471 25.5923 85.4437 0.0000 0.0000 0.0000
# 4 0.0000 0.0000 0.0000 31.7989 0.0000 0.0000
# 5 0.0000 0.0000 0.0000 0.0000 29.2132 0.0000
# 6 0.0000 0.0000 0.0000 0.0000 0.0000 15.7398
#
#
#
# Elastic Compliance Matrix: (Units=1/GPa)
#
#
# Indices 1 2 3 4 5 6 
#
# 1 0.014785 -0.001534 -0.006678 0.000000 0.000000 0.000000
# 2 -0.001534 0.015819 -0.003998 0.000000 0.000000 0.000000
# 3 -0.006678 -0.003998 0.016125 0.000000 0.000000 0.000000
# 4 0.000000 0.000000 0.000000 0.031448 0.000000 0.000000
# 5 0.000000 0.000000 0.000000 0.000000 0.034231 0.000000
# 6 0.000000 0.000000 0.000000 0.000000 0.000000 0.063533
#
#
# Mechanical properties :
#
#
# Convention : Reuss Voigt Hill
#
# Bulk Modulus (GPa) = 44.82304 46.31522 45.56913
# Shear Modulus (GPa) = 24.06188 25.97567 25.01877
#
# Velocity S-wave (km/s) = 3.45051 3.58511 3.51845
# Velocity P-wave (km/s) = 6.16876 6.32886 6.24932
#
# Compressibility (1/GPa) = 0.02230996
#
# Stress axis : x y z
#
# Youngs Moduli (GPa) = 67.63399 63.21384 62.01636
#
# Poissons Ratio (x) = 0.09697 0.41415
# Poissons Ratio (y) = 0.10376 0.24792
# Poissons Ratio (z) = 0.45166 0.25271
#
# Static dielectric constant tensor:
#      x y z
#    x 3.449360 0.000000 0.000000 
#    y 0.000000 3.826310 0.000000 
#    z 0.000000 0.000000 3.715270 
# 
# 
# High freq. dielectric constant tensor:
#      x y z
#    x 1.771770 0.000000 0.000000 
#    y 0.000000 1.800340 0.000000 
#    z 0.000000 0.000000 1.787780 
# 
# From -- ./inp_files/9002.got.cif
#   From: 2010.06.25/outbox.cif.g09.slc.cpg/sg58_5_cif.got.tgz:9002.got - 2010.06.26 21:38:00.
