data_PCOD8237821
_publ_section_title
;
Structure prediction by ZEFSAII (Michael W. Deem and Ramdas Pophale) SiO2 
 PCOD8237821
Probable space group: P N N M
;
_chemical_formula_sum "Si O2"
_cell_formula_units_Z 64
_cell_length_a 15.202576
_cell_length_b 24.436640
_cell_length_c 8.841731
_cell_angle_alpha 90.000000
_cell_angle_beta 90.000000
_cell_angle_gamma 90.000000
_cell_volume 3284.701977
_symmetry_space_group_name_H-M "P N N M"
_symmetry_group_IT_number 58
_symmetry_cell_setting 'orthorhombic'
loop_
_space_group_symop_operation_xyz
x,y,z
-x,-y,z
1/2+x,1/2-y,1/2-z
1/2-x,1/2+y,1/2-z
-x,-y,-z
x,y,-z
1/2-x,1/2+y,1/2+z
1/2+x,1/2-y,1/2+z
loop_
_atom_site_type_symbol
_atom_site_label
_atom_site_fract_x
_atom_site_fract_y
_atom_site_fract_z
Si Si1 0.175169 0.928811 0.175977
Si Si2 0.825570 0.365035 0.178544
Si Si3 0.815877 0.649319 0.177422
Si Si4 0.524961 0.727859 0.671926
Si Si5 0.005668 0.339340 0.322478
Si Si6 0.512963 0.392315 0.678368
Si Si7 0.774434 0.245536 0.171513
Si Si8 0.691185 0.444269 0.324242
O O1 0.241934 0.892586 0.270430
O O2 0.076949 0.918877 0.241361
O O3 0.200442 0.991520 0.200775
O O4 0.181319 0.911837 0.000000
O O5 0.921426 0.369350 0.252389
O O6 0.778224 0.308388 0.228118
O O7 0.769035 0.416229 0.231765
O O8 0.838893 0.365467 0.000000
O O9 0.790745 0.711609 0.221776
O O10 0.907151 0.632375 0.256357
O O11 0.828242 0.645743 0.000000
O O12 0.499371 0.744187 0.500000
O O13 0.492597 0.775007 0.783088
O O14 0.479291 0.671496 0.723311
O O15 0.629332 0.718587 0.682382
O O16 0.003422 0.347503 0.500000
O O17 0.510775 0.399790 0.500000
O O18 0.597710 0.423888 0.743391
O O19 0.739008 0.241978 0.000000
O O20 0.699629 0.428177 0.500000
#
# Coordination Sequence:
#
# PCOD8237821 Si02
#       8
#     8   8   8   8   8   8   8   8
#     4  10  20  39  61  85 121 160 201 246 291 345
#     4  10  22  41  61  84 120 157 194 244 300 351
#     4  12  24  37  58  87 118 155 200 246 297 352
#     4   9  17  33  56  85 121 155 189 233 287 344
#     4  11  23  39  60  85 118 153 195 246 299 358
#     4   9  17  33  58  88 120 156 196 238 283 341
#     4   9  18  35  57  82 115 156 192 233 291 348
#     4  10  21  36  61  91 117 156 205 245 290 349
#
# _framework density 19.484264
#
# number of rings (size 3 to 8) (size 9 to 14) (size 15 to 20)
#    0.000    2.000    1.250    3.750    1.750    4.500 
#    0.000    1.250    0.000    5.250    0.000    0.000 
#    0.000    0.000    0.000    0.000    0.000    0.000 
#
# Total GULP energy -793773.509457 kJ/mol
# GULP energy per Si atom -12402.711085 kJ/mol
# Density = 1.943992 g / cm^3
# Si number density = 19.484264 Si / 1000 Ang^3
#
#
#
# Elastic Constant Matrix: (Units=GPa)
#
#
# Indices 1 2 3 4 5 6 
#
# 1 119.6759 37.5061 45.9266 0.0000 0.0000 0.0000
# 2 37.5061 54.9096 25.7158 0.0000 0.0000 0.0000
# 3 45.9266 25.7158 90.4013 0.0000 0.0000 0.0000
# 4 0.0000 0.0000 0.0000 25.7580 0.0000 0.0000
# 5 0.0000 0.0000 0.0000 0.0000 25.2085 0.0000
# 6 0.0000 0.0000 0.0000 0.0000 0.0000 21.4929
#
#
#
# Elastic Compliance Matrix: (Units=1/GPa)
#
#
# Indices 1 2 3 4 5 6 
#
# 1 0.011934 -0.006129 -0.004320 0.000000 0.000000 0.000000
# 2 -0.006129 0.024158 -0.003759 0.000000 0.000000 0.000000
# 3 -0.004320 -0.003759 0.014325 0.000000 0.000000 0.000000
# 4 0.000000 0.000000 0.000000 0.038823 0.000000 0.000000
# 5 0.000000 0.000000 0.000000 0.000000 0.039669 0.000000
# 6 0.000000 0.000000 0.000000 0.000000 0.000000 0.046527
#
#
# Mechanical properties :
#
#
# Convention : Reuss Voigt Hill
#
# Bulk Modulus (GPa) = 45.44576 53.69819 49.57197
# Shear Modulus (GPa) = 23.67588 24.88111 24.27850
#
# Velocity S-wave (km/s) = 3.48965 3.57737 3.53378
# Velocity P-wave (km/s) = 6.29380 6.68454 6.49211
#
# Compressibility (1/GPa) = 0.02200425
#
# Stress axis : x y z
#
# Youngs Moduli (GPa) = 83.79195 41.39373 69.80599
#
# Poissons Ratio (x) = 0.25369 0.30153
# Poissons Ratio (y) = 0.51354 0.26237
# Poissons Ratio (z) = 0.36195 0.15558
#
# Static dielectric constant tensor:
#      x y z
#    x 3.665960 0.000000 0.000000 
#    y 0.000000 3.447480 0.000000 
#    z 0.000000 0.000000 3.312830 
# 
# 
# High freq. dielectric constant tensor:
#      x y z
#    x 1.766070 0.000000 0.000000 
#    y 0.000000 1.750200 0.000000 
#    z 0.000000 0.000000 1.738880 
# 
# From -- ./inp_files/6756.got.cif
#   From: 2010.06.25/outbox.cif.g09.slc.cpg/sg58_4_cif.got.tgz:6756.got - 2010.06.26 21:38:00.
