data_PCOD8237574
_publ_section_title
;
Structure prediction by ZEFSAII (Michael W. Deem and Ramdas Pophale) SiO2 
 PCOD8237574
Probable space group: P N N M
;
_chemical_formula_sum "Si O2"
_cell_formula_units_Z 48
_cell_length_a 15.273502
_cell_length_b 17.687943
_cell_length_c 8.958993
_cell_angle_alpha 90.000000
_cell_angle_beta 90.000000
_cell_angle_gamma 90.000000
_cell_volume 2420.333174
_symmetry_space_group_name_H-M "P N N M"
_symmetry_group_IT_number 58
_symmetry_cell_setting 'orthorhombic'
loop_
_space_group_symop_operation_xyz
x,y,z
-x,-y,z
1/2+x,1/2-y,1/2-z
1/2-x,1/2+y,1/2-z
-x,-y,-z
x,y,-z
1/2-x,1/2+y,1/2+z
1/2+x,1/2-y,1/2+z
loop_
_atom_site_type_symbol
_atom_site_label
_atom_site_fract_x
_atom_site_fract_y
_atom_site_fract_z
Si Si1 0.742521 0.201066 0.671342
Si Si2 0.934610 0.783805 0.176217
Si Si3 0.593629 0.962072 0.670560
Si Si4 0.091161 0.698040 0.672285
Si Si5 0.250963 0.954114 0.176578
Si Si6 0.583167 0.454665 0.322654
O O1 0.739880 0.173429 0.500000
O O2 0.648730 0.233573 0.720525
O O3 0.813206 0.266681 0.693335
O O4 0.767987 0.131754 0.776875
O O5 0.919023 0.868779 0.235012
O O6 0.020024 0.752483 0.255519
O O7 0.950733 0.782764 0.000000
O O8 0.621730 0.950107 0.500000
O O9 0.591778 0.882229 0.750105
O O10 0.500000 0.000000 0.683161
O O11 0.660178 0.018633 0.748951
O O12 0.067662 0.686604 0.500000
O O13 0.171519 0.005935 0.235562
O O14 0.260683 0.959229 0.000000
O O15 0.500000 0.500000 0.257195
O O16 0.581187 0.456887 0.500000
#
# Coordination Sequence:
#
# PCOD8237574 Si02
#       6
#     8   8   8   8   8   8
#     4  10  22  39  57  81 118 157 188 229 290 349
#     4  10  20  37  59  81 111 151 189 227 282 348
#     4  11  24  41  60  83 115 155 193 233 290 351
#     4  11  23  39  60  87 117 149 191 241 285 331
#     4  11  22  37  61  89 114 147 194 242 283 331
#     4   9  18  34  57  84 113 147 187 230 280 340
#
# _framework density 19.831980999999999
#
# number of rings (size 3 to 8) (size 9 to 14) (size 15 to 20)
#    0.000    1.667    0.000    4.500    0.000   11.333 
#    0.000    3.333    0.000    4.500    0.000    0.000 
#    0.000    0.000    0.000    0.000    0.000    0.000 
#
# Total GULP energy -595456.961485 kJ/mol
# GULP energy per Si atom -12405.353364 kJ/mol
# Density = 1.978684 g / cm^3
# Si number density = 19.831981 Si / 1000 Ang^3
#
#
#
# Elastic Constant Matrix: (Units=GPa)
#
#
# Indices 1 2 3 4 5 6 
#
# 1 225.1017 295.3056 786.4791 0.0000 0.0000 0.0000
# 2 295.3056 675.0364 1536.6615 0.0000 0.0000 0.0000
# 3 786.4791 1536.6615 4086.4677 0.0000 0.0000 0.0000
# 4 0.0000 0.0000 0.0000 105.0905 0.0000 0.0000
# 5 0.0000 0.0000 0.0000 0.0000 15.8402 0.0000
# 6 0.0000 0.0000 0.0000 0.0000 0.0000 0.6998
#
#
#
# Elastic Compliance Matrix: (Units=1/GPa)
#
#
# Indices 1 2 3 4 5 6 
#
# 1 0.013562 0.000061 -0.002633 0.000000 0.000000 0.000000
# 2 0.000061 0.010289 -0.003881 0.000000 0.000000 0.000000
# 3 -0.002633 -0.003881 0.002211 0.000000 0.000000 0.000000
# 4 0.000000 0.000000 0.000000 0.009516 0.000000 0.000000
# 5 0.000000 0.000000 0.000000 0.000000 0.063130 0.000000
# 6 0.000000 0.000000 0.000000 0.000000 0.000000 1.428912
#
#
# Mechanical properties :
#
#
# Convention : Reuss Voigt Hill
#
# Bulk Modulus (GPa) = 76.00844 1135.94425 605.97635
# Shear Modulus (GPa) = 3.23643 182.20342 92.71993
#
# Velocity S-wave (km/s) = 1.27885 9.59547 6.84501
# Velocity P-wave (km/s) = 6.37103 26.39681 19.20132
#
# Compressibility (1/GPa) = 0.01315643
#
# Stress axis : x y z
#
# Youngs Moduli (GPa) = 73.73445 97.19284 452.32273
#
# Poissons Ratio (x) = -0.00596 1.19107
# Poissons Ratio (y) = -0.00452 1.75536
# Poissons Ratio (z) = 0.19416 0.37718
#
# Static dielectric constant tensor:
#      x y z
#    x 4.175840 0.000000 0.000000 
#    y 0.000000 3.758570 0.000000 
#    z 0.000000 0.000000 3.527520 
# 
# 
# High freq. dielectric constant tensor:
#      x y z
#    x 1.790750 0.000000 0.000000 
#    y 0.000000 1.790790 0.000000 
#    z 0.000000 0.000000 1.759080 
# 
# From -- ./inp_files/5745.got.cif
#   From: 2010.06.25/outbox.cif.g09.slc.cpg/sg58_3_cif.got.tgz:5745.got - 2010.06.26 21:38:00.
