data_PCOD8237320
_publ_section_title
;
Structure prediction by ZEFSAII (Michael W. Deem and Ramdas Pophale) SiO2 
 PCOD8237320
Probable space group: P N N M
;
_chemical_formula_sum "Si O2"
_cell_formula_units_Z 64
_cell_length_a 23.707096
_cell_length_b 15.248218
_cell_length_c 8.696644
_cell_angle_alpha 90.000000
_cell_angle_beta 90.000000
_cell_angle_gamma 90.000000
_cell_volume 3143.758258
_symmetry_space_group_name_H-M "P N N M"
_symmetry_group_IT_number 58
_symmetry_cell_setting 'orthorhombic'
loop_
_space_group_symop_operation_xyz
x,y,z
-x,-y,z
1/2+x,1/2-y,1/2-z
1/2-x,1/2+y,1/2-z
-x,-y,-z
x,y,-z
1/2-x,1/2+y,1/2+z
1/2+x,1/2-y,1/2+z
loop_
_atom_site_type_symbol
_atom_site_label
_atom_site_fract_x
_atom_site_fract_y
_atom_site_fract_z
Si Si1 0.247038 0.423277 0.678346
Si Si2 0.357032 0.003656 0.676031
Si Si3 0.541305 0.425041 0.682759
Si Si4 0.030546 0.417655 0.822788
Si Si5 0.024471 0.756024 0.182915
Si Si6 0.629053 0.818016 0.181250
Si Si7 0.169361 0.071989 0.183386
Si Si8 0.254246 0.733045 0.319041
O O1 0.253177 0.402766 0.500000
O O2 0.193999 0.486069 0.708811
O O3 0.300674 0.480822 0.737218
O O4 0.235350 0.331766 0.762386
O O5 0.336052 0.010531 0.500000
O O6 0.402110 0.925256 0.693468
O O7 0.387345 0.093514 0.727796
O O8 0.500000 0.500000 0.748089
O O9 0.544730 0.430427 0.500000
O O10 0.512841 0.336304 0.741028
O O11 0.605301 0.430800 0.747897
O O12 0.000000 0.500000 0.740675
O O13 0.009494 0.327287 0.749998
O O14 0.011820 0.416161 0.000000
O O15 0.086213 0.757556 0.261379
O O16 0.031892 0.758817 0.000000
O O17 0.691643 0.792235 0.233299
O O18 0.624439 0.832048 0.000000
O O19 0.201869 0.159618 0.246796
O O20 0.170851 0.076275 0.000000
O O21 0.260393 0.735630 0.500000
#
# Coordination Sequence:
#
# PCOD8237320 Si02
#       8
#     8   8   8   8   8   8   8   8
#     4  11  23  39  60  88 120 153 193 248 305 351
#     4  11  21  36  60  85 116 156 197 236 286 355
#     4   9  19  34  57  87 113 145 198 251 290 338
#     4   9  17  31  51  81 115 147 189 232 273 339
#     4  10  20  35  58  85 112 149 196 243 288 343
#     4  11  22  38  58  84 121 155 191 241 298 354
#     4   9  19  38  59  83 121 156 189 244 303 350
#     4  10  22  40  60  83 115 159 198 233 293 363
#
# _framework density 20.357799
#
# number of rings (size 3 to 8) (size 9 to 14) (size 15 to 20)
#    0.000    2.000    2.500    1.125    3.500    1.000 
#    0.000    1.875    0.000    1.875    0.000    0.000 
#    0.000    0.000    0.000    0.000    0.000    0.000 
#
# Total GULP energy -793370.835497 kJ/mol
# GULP energy per Si atom -12396.419305 kJ/mol
# Density = 2.031146 g / cm^3
# Si number density = 20.357799 Si / 1000 Ang^3
#
#
#
# Elastic Constant Matrix: (Units=GPa)
#
#
# Indices 1 2 3 4 5 6 
#
# 1 155.1944 66.9898 20.4171 0.0000 0.0000 0.0000
# 2 66.9898 134.1907 9.7614 0.0000 0.0000 0.0000
# 3 20.4171 9.7614 19.8621 0.0000 0.0000 0.0000
# 4 0.0000 0.0000 0.0000 21.2695 0.0000 0.0000
# 5 0.0000 0.0000 0.0000 0.0000 26.7614 0.0000
# 6 0.0000 0.0000 0.0000 0.0000 0.0000 32.8540
#
#
#
# Elastic Compliance Matrix: (Units=1/GPa)
#
#
# Indices 1 2 3 4 5 6 
#
# 1 0.009163 -0.004033 -0.007437 0.000000 0.000000 0.000000
# 2 -0.004033 0.009504 -0.000525 0.000000 0.000000 0.000000
# 3 -0.007437 -0.000525 0.058250 0.000000 0.000000 0.000000
# 4 0.000000 0.000000 0.000000 0.047016 0.000000 0.000000
# 5 0.000000 0.000000 0.000000 0.000000 0.037367 0.000000
# 6 0.000000 0.000000 0.000000 0.000000 0.000000 0.030438
#
#
# Mechanical properties :
#
#
# Convention : Reuss Voigt Hill
#
# Bulk Modulus (GPa) = 18.89405 55.95375 37.42390
# Shear Modulus (GPa) = 21.42536 30.31557 25.87047
#
# Velocity S-wave (km/s) = 3.24765 3.86312 3.56868
# Velocity P-wave (km/s) = 4.83365 6.88790 5.95009
#
# Compressibility (1/GPa) = 0.05292671
#
# Stress axis : x y z
#
# Youngs Moduli (GPa) = 109.13649 105.22208 17.16752
#
# Poissons Ratio (x) = 0.42439 0.12767
# Poissons Ratio (y) = 0.44017 0.00901
# Poissons Ratio (z) = 0.81161 0.05522
#
# Static dielectric constant tensor:
#      x y z
#    x 3.861720 0.000000 0.000000 
#    y 0.000000 3.882620 0.000000 
#    z 0.000000 0.000000 3.160040 
# 
# 
# High freq. dielectric constant tensor:
#      x y z
#    x 1.808140 0.000000 0.000000 
#    y 0.000000 1.802730 0.000000 
#    z 0.000000 0.000000 1.746490 
# 
# From -- ./inp_files/10111.got.cif
#   From: 2010.06.25/outbox.cif.g09.slc.cpg/sg58_6_cif.got.tgz:10111.got - 2010.06.26 21:38:00.
