data_PCOD8237219
_publ_section_title
;
Structure prediction by ZEFSAII (Michael W. Deem and Ramdas Pophale) SiO2 
 PCOD8237219
Probable space group: P N N M
;
_chemical_formula_sum "Si O2"
_cell_formula_units_Z 64
_cell_length_a 18.306179
_cell_length_b 19.663195
_cell_length_c 9.263003
_cell_angle_alpha 90.000000
_cell_angle_beta 90.000000
_cell_angle_gamma 90.000000
_cell_volume 3334.291732
_symmetry_space_group_name_H-M "P N N M"
_symmetry_group_IT_number 58
_symmetry_cell_setting 'orthorhombic'
loop_
_space_group_symop_operation_xyz
x,y,z
-x,-y,z
1/2+x,1/2-y,1/2-z
1/2-x,1/2+y,1/2-z
-x,-y,-z
x,y,-z
1/2-x,1/2+y,1/2+z
1/2+x,1/2-y,1/2+z
loop_
_atom_site_type_symbol
_atom_site_label
_atom_site_fract_x
_atom_site_fract_y
_atom_site_fract_z
Si Si1 0.358459 0.726061 0.670814
Si Si2 0.288979 0.473638 0.328808
Si Si3 0.434005 0.448587 0.165533
Si Si4 0.183665 0.377223 0.833739
Si Si5 0.475891 0.926840 0.666691
Si Si6 0.237923 0.621382 0.329113
Si Si7 0.006101 0.804470 0.665554
Si Si8 0.917999 0.332139 0.665947
O O1 0.369355 0.721727 0.500000
O O2 0.327256 0.799561 0.715226
O O3 0.302596 0.669263 0.731028
O O4 0.436707 0.714841 0.740380
O O5 0.291596 0.466841 0.500000
O O6 0.370368 0.475028 0.268121
O O7 0.246130 0.409673 0.264334
O O8 0.250376 0.543856 0.280249
O O9 0.500000 0.500000 0.183448
O O10 0.459787 0.374868 0.220075
O O11 0.406537 0.445433 0.000000
O O12 0.110059 0.419603 0.808414
O O13 0.208677 0.380882 0.000000
O O14 0.497160 0.918500 0.500000
O O15 0.516754 0.868656 0.752475
O O16 0.500000 0.000000 0.726851
O O17 0.237408 0.628672 0.500000
O O18 0.160353 0.647302 0.266573
O O19 0.980227 0.810554 0.500000
O O20 0.069792 0.748421 0.683041
O O21 0.921796 0.354997 0.500000
#
# Coordination Sequence:
#
# PCOD8237219 Si02
#       8
#     8   8   8   8   8   8   8   8
#     4  10  20  37  62  83 110 152 194 235 284 345
#     4  11  23  38  58  86 117 148 192 245 289 340
#     4  10  22  40  62  87 117 155 195 236 291 353
#     4  10  21  36  56  82 113 154 190 226 284 346
#     4  10  20  35  55  81 113 145 182 226 276 334
#     4   9  20  37  57  82 110 147 191 233 288 345
#     4  10  21  36  58  86 115 148 189 237 283 337
#     4  10  20  35  56  81 110 147 189 232 277 334
#
# _framework density 19.194481
#
# number of rings (size 3 to 8) (size 9 to 14) (size 15 to 20)
#    0.000    2.000    1.250    1.875    1.750    2.000 
#    0.000    1.875    0.000    0.000    0.000    0.000 
#    0.000    0.000    0.000    0.000    0.000    0.000 
#
# Total GULP energy -793847.764049 kJ/mol
# GULP energy per Si atom -12403.871313 kJ/mol
# Density = 1.915079 g / cm^3
# Si number density = 19.194481 Si / 1000 Ang^3
#
#
#
# Elastic Constant Matrix: (Units=GPa)
#
#
# Indices 1 2 3 4 5 6 
#
# 1 100.1142 40.0734 37.2794 0.0000 0.0000 0.0000
# 2 40.0734 117.8599 34.7859 0.0000 0.0000 0.0000
# 3 37.2794 34.7859 49.7833 0.0000 0.0000 0.0000
# 4 0.0000 0.0000 0.0000 30.7605 0.0000 0.0000
# 5 0.0000 0.0000 0.0000 0.0000 31.6618 0.0000
# 6 0.0000 0.0000 0.0000 0.0000 0.0000 38.6116
#
#
#
# Elastic Compliance Matrix: (Units=1/GPa)
#
#
# Indices 1 2 3 4 5 6 
#
# 1 0.014266 -0.002139 -0.009189 0.000000 0.000000 0.000000
# 2 -0.002139 0.011010 -0.006091 0.000000 0.000000 0.000000
# 3 -0.009189 -0.006091 0.031224 0.000000 0.000000 0.000000
# 4 0.000000 0.000000 0.000000 0.032509 0.000000 0.000000
# 5 0.000000 0.000000 0.000000 0.000000 0.031584 0.000000
# 6 0.000000 0.000000 0.000000 0.000000 0.000000 0.025899
#
#
# Mechanical properties :
#
#
# Convention : Reuss Voigt Hill
#
# Bulk Modulus (GPa) = 46.16260 54.67053 50.41657
# Shear Modulus (GPa) = 26.51808 30.58134 28.54971
#
# Velocity S-wave (km/s) = 3.72095 3.99587 3.86086
# Velocity P-wave (km/s) = 6.52401 7.05929 6.79692
#
# Compressibility (1/GPa) = 0.02166256
#
# Stress axis : x y z
#
# Youngs Moduli (GPa) = 70.09572 90.82904 32.02643
#
# Poissons Ratio (x) = 0.19425 0.29428
# Poissons Ratio (y) = 0.14991 0.19509
# Poissons Ratio (z) = 0.64408 0.55328
#
# Static dielectric constant tensor:
#      x y z
#    x 3.516760 0.000000 0.000000 
#    y 0.000000 3.749770 0.000000 
#    z 0.000000 0.000000 3.316020 
# 
# 
# High freq. dielectric constant tensor:
#      x y z
#    x 1.753290 0.000000 0.000000 
#    y 0.000000 1.763830 0.000000 
#    z 0.000000 0.000000 1.725310 
# 
# From -- ./inp_files/8254.got.cif
#   From: 2010.06.25/outbox.cif.g09.slc.cpg/sg58_5_cif.got.tgz:8254.got - 2010.06.26 21:38:00.
