data_PCOD8237683
_publ_section_title
;
Structure prediction by ZEFSAII (Michael W. Deem and Ramdas Pophale) SiO2 
 PCOD8237683
Probable space group: P N N M
;
_chemical_formula_sum "Si O2"
_cell_formula_units_Z 48
_cell_length_a 27.246151
_cell_length_b 9.588534
_cell_length_c 9.222733
_cell_angle_alpha 90.000000
_cell_angle_beta 90.000000
_cell_angle_gamma 90.000000
_cell_volume 2409.444947
_symmetry_space_group_name_H-M "P N N M"
_symmetry_group_IT_number 58
_symmetry_cell_setting 'orthorhombic'
loop_
_space_group_symop_operation_xyz
x,y,z
-x,-y,z
1/2+x,1/2-y,1/2-z
1/2-x,1/2+y,1/2-z
-x,-y,-z
x,y,-z
1/2-x,1/2+y,1/2+z
1/2+x,1/2-y,1/2+z
loop_
_atom_site_type_symbol
_atom_site_label
_atom_site_fract_x
_atom_site_fract_y
_atom_site_fract_z
Si Si1 0.209184 0.848136 0.171177
Si Si2 0.055062 0.530209 0.668273
Si Si3 0.386128 0.298600 0.163455
Si Si4 0.790989 0.827948 0.169545
Si Si5 0.896922 0.706533 0.169690
Si Si6 0.550487 0.435608 0.165834
O O1 0.158944 0.779104 0.227560
O O2 0.253677 0.763661 0.239098
O O3 0.212843 0.010427 0.216497
O O4 0.210562 0.830368 0.000000
O O5 0.058335 0.489079 0.500000
O O6 0.069637 0.690927 0.695938
O O7 0.095809 0.442572 0.755264
O O8 0.000000 0.500000 0.726528
O O9 0.406349 0.453316 0.182721
O O10 0.366584 0.275161 0.000000
O O11 0.844354 0.769820 0.209544
O O12 0.779526 0.810309 0.000000
O O13 0.939137 0.805695 0.231883
O O14 0.904261 0.690017 0.000000
O O15 0.500000 0.500000 0.221386
O O16 0.545365 0.383500 0.000000
#
# Coordination Sequence:
#
# PCOD8237683 Si02
#       6
#     8   8   8   8   8   8
#     4  11  24  42  65  90 120 158 200 250 305 363
#     4  10  22  41  63  89 124 164 207 251 295 353
#     4  10  21  38  62  90 122 158 199 251 302 355
#     4  10  24  44  62  89 125 157 198 249 304 365
#     4  11  23  40  61  89 126 160 197 251 303 358
#     4  10  20  37  63  91 119 157 203 246 295 358
#
# _framework density 19.921600000000002
#
# number of rings (size 3 to 8) (size 9 to 14) (size 15 to 20)
#    0.000    1.667    1.667    2.000    2.333    6.667 
#    0.000    1.667    0.000    0.000    0.000    0.000 
#    0.000    0.000    0.000    0.000    0.000    0.000 
#
# Total GULP energy -595397.038675 kJ/mol
# GULP energy per Si atom -12404.104972 kJ/mol
# Density = 1.987626 g / cm^3
# Si number density = 19.921600 Si / 1000 Ang^3
#
#
#
# Elastic Constant Matrix: (Units=GPa)
#
#
# Indices 1 2 3 4 5 6 
#
# 1 92.7441 23.0550 46.9989 0.0000 0.0000 0.0000
# 2 23.0550 84.1366 34.2621 0.0000 0.0000 0.0000
# 3 46.9989 34.2621 65.1584 0.0000 0.0000 0.0000
# 4 0.0000 0.0000 0.0000 34.6169 0.0000 0.0000
# 5 0.0000 0.0000 0.0000 0.0000 30.7892 0.0000
# 6 0.0000 0.0000 0.0000 0.0000 0.0000 35.3999
#
#
#
# Elastic Compliance Matrix: (Units=1/GPa)
#
#
# Indices 1 2 3 4 5 6 
#
# 1 0.017006 0.000427 -0.012491 0.000000 0.000000 0.000000
# 2 0.000427 0.015135 -0.008266 0.000000 0.000000 0.000000
# 3 -0.012491 -0.008266 0.028703 0.000000 0.000000 0.000000
# 4 0.000000 0.000000 0.000000 0.028888 0.000000 0.000000
# 5 0.000000 0.000000 0.000000 0.000000 0.032479 0.000000
# 6 0.000000 0.000000 0.000000 0.000000 0.000000 0.028249
#
#
# Mechanical properties :
#
#
# Convention : Reuss Voigt Hill
#
# Bulk Modulus (GPa) = 49.54491 50.07456 49.80973
# Shear Modulus (GPa) = 25.27196 29.34274 27.30735
#
# Velocity S-wave (km/s) = 3.56556 3.84202 3.70637
# Velocity P-wave (km/s) = 6.47108 6.69864 6.58585
#
# Compressibility (1/GPa) = 0.02018371
#
# Stress axis : x y z
#
# Youngs Moduli (GPa) = 58.80200 66.07393 34.83913
#
# Poissons Ratio (x) = -0.02818 0.43517
# Poissons Ratio (y) = -0.02508 0.28797
# Poissons Ratio (z) = 0.73449 0.54616
#
# Static dielectric constant tensor:
#      x y z
#    x 3.651360 0.000000 0.000000 
#    y 0.000000 3.717700 0.000000 
#    z 0.000000 0.000000 3.550500 
# 
# 
# High freq. dielectric constant tensor:
#      x y z
#    x 1.783450 0.000000 0.000000 
#    y 0.000000 1.787150 0.000000 
#    z 0.000000 0.000000 1.769530 
# 
# From -- ./inp_files/2937.got.cif
#   From: 2010.06.25/outbox.cif.g09.slc.cpg/sg58_2_cif.got.tgz:2937.got - 2010.06.26 21:38:00.
