data_PCOD8237852
_publ_section_title
;
Structure prediction by ZEFSAII (Michael W. Deem and Ramdas Pophale) SiO2 
 PCOD8237852
Probable space group: P N N M
;
_chemical_formula_sum "Si O2"
_cell_formula_units_Z 44
_cell_length_a 15.375840
_cell_length_b 15.264557
_cell_length_c 9.674040
_cell_angle_alpha 90.000000
_cell_angle_beta 90.000000
_cell_angle_gamma 90.000000
_cell_volume 2270.549293
_symmetry_space_group_name_H-M "P N N M"
_symmetry_group_IT_number 58
_symmetry_cell_setting 'orthorhombic'
loop_
_space_group_symop_operation_xyz
x,y,z
-x,-y,z
1/2+x,1/2-y,1/2-z
1/2-x,1/2+y,1/2-z
-x,-y,-z
x,y,-z
1/2-x,1/2+y,1/2+z
1/2+x,1/2-y,1/2+z
loop_
_atom_site_type_symbol
_atom_site_label
_atom_site_fract_x
_atom_site_fract_y
_atom_site_fract_z
Si Si1 0.698978 0.752349 0.500000
Si Si2 0.999933 0.629113 0.343475
Si Si3 0.253080 0.424824 0.500000
Si Si4 0.586199 0.562900 0.000000
Si Si5 0.641204 0.003697 0.766740
Si Si6 0.540138 0.591626 0.500000
Si Si7 0.930239 0.194384 0.756340
Si Si8 0.241105 0.548971 0.000000
O O1 0.775218 0.678389 0.500000
O O2 0.644586 0.737817 0.644608
O O3 0.746465 0.845566 0.500000
O O4 0.967763 0.615718 0.500000
O O5 0.091871 0.581409 0.323732
O O6 0.011092 0.730812 0.311225
O O7 0.925732 0.585014 0.249042
O O8 0.220636 0.474456 0.633929
O O9 0.356645 0.421367 0.500000
O O10 0.500000 0.500000 0.000000
O O11 0.597708 0.626320 0.865324
O O12 0.663753 0.492513 0.000000
O O13 0.683328 0.984105 0.623407
O O14 0.500000 0.500000 0.500000
O O15 0.508229 0.641341 0.637808
#
# Coordination Sequence:
#
# PCOD8237852 Si02
#       8
#     4   8   4   4   8   4   8   4
#     4  10  22  39  61  90 125 168 202 255 334 357
#     4  11  20  38  67  92 124 164 202 246 316 392
#     4  10  20  40  61  82 123 166 203 249 296 391
#     4  12  26  43  64  93 127 172 213 266 311 369
#     4  11  22  37  63  95 122 158 206 250 317 367
#     4  10  22  41  65  84 118 170 212 247 315 359
#     4  10  21  40  65  87 127 166 204 259 317 367
#     4  12  24  39  62  96 130 156 211 273 308 370
#
# _framework density 19.37857
#
# number of rings (size 3 to 8) (size 9 to 14) (size 15 to 20)
#    0.000    1.455    4.545    3.273    0.000    4.364 
#    0.000    0.000    4.000    0.000    0.000    0.000 
#    0.000    0.000    0.000    0.000    0.000    0.000 
#
# Total GULP energy -545107.516188 kJ/mol
# GULP energy per Si atom -12388.807186 kJ/mol
# Density = 1.933446 g / cm^3
# Si number density = 19.378570 Si / 1000 Ang^3
#
#
#
# Elastic Constant Matrix: (Units=GPa)
#
#
# Indices 1 2 3 4 5 6 
#
# 1 60.7887 46.6336 23.2414 0.0000 0.0000 0.0000
# 2 46.6336 154.3478 57.8975 0.0000 0.0000 0.0000
# 3 23.2414 57.8975 129.5888 0.0000 0.0000 0.0000
# 4 0.0000 0.0000 0.0000 26.8281 0.0000 0.0000
# 5 0.0000 0.0000 0.0000 0.0000 90.4096 0.0000
# 6 0.0000 0.0000 0.0000 0.0000 0.0000 36.8616
#
#
#
# Elastic Compliance Matrix: (Units=1/GPa)
#
#
# Indices 1 2 3 4 5 6 
#
# 1 0.021555 -0.006082 -0.001149 0.000000 0.000000 0.000000
# 2 -0.006082 0.009499 -0.003153 0.000000 0.000000 0.000000
# 3 -0.001149 -0.003153 0.009332 0.000000 0.000000 0.000000
# 4 0.000000 0.000000 0.000000 0.037274 0.000000 0.000000
# 5 0.000000 0.000000 0.000000 0.000000 0.011061 0.000000
# 6 0.000000 0.000000 0.000000 0.000000 0.000000 0.027128
#
#
# Mechanical properties :
#
#
# Convention : Reuss Voigt Hill
#
# Bulk Modulus (GPa) = 50.97214 66.69669 58.83441
# Shear Modulus (GPa) = 34.92689 45.28339 40.10514
#
# Velocity S-wave (km/s) = 4.25001 4.83927 4.55418
# Velocity P-wave (km/s) = 7.10239 8.10661 7.62106
#
# Compressibility (1/GPa) = 0.01961856
#
# Stress axis : x y z
#
# Youngs Moduli (GPa) = 46.39279 105.27241 107.16320
#
# Poissons Ratio (x) = 0.64023 0.12310
# Poissons Ratio (y) = 0.28214 0.33792
# Poissons Ratio (z) = 0.05329 0.33196
#
# Static dielectric constant tensor:
#      x y z
#    x 3.330280 0.000000 0.000000 
#    y 0.000000 3.761240 0.000000 
#    z 0.000000 0.000000 3.516550 
# 
# 
# High freq. dielectric constant tensor:
#      x y z
#    x 1.732190 0.000000 0.000000 
#    y 0.000000 1.773140 0.000000 
#    z 0.000000 0.000000 1.769620 
# 
# From -- ./inp_files/7710.got.cif
#   From: 2010.06.25/outbox.cif.g09.slc.cpg/sg58_4_cif.got.tgz:7710.got - 2010.06.26 21:38:00.
