data_PCOD8237240
_publ_section_title
;
Structure prediction by ZEFSAII (Michael W. Deem and Ramdas Pophale) SiO2 
 PCOD8237240
Probable space group: P N N M
;
_chemical_formula_sum "Si O2"
_cell_formula_units_Z 48
_cell_length_a 30.823351
_cell_length_b 9.390678
_cell_length_c 8.411972
_cell_angle_alpha 90.000000
_cell_angle_beta 90.000000
_cell_angle_gamma 90.000000
_cell_volume 2434.863500
_symmetry_space_group_name_H-M "P N N M"
_symmetry_group_IT_number 58
_symmetry_cell_setting 'orthorhombic'
loop_
_space_group_symop_operation_xyz
x,y,z
-x,-y,z
1/2+x,1/2-y,1/2-z
1/2-x,1/2+y,1/2-z
-x,-y,-z
x,y,-z
1/2-x,1/2+y,1/2+z
1/2+x,1/2-y,1/2+z
loop_
_atom_site_type_symbol
_atom_site_label
_atom_site_fract_x
_atom_site_fract_y
_atom_site_fract_z
Si Si1 0.365448 0.413333 0.315137
Si Si2 0.458670 0.087676 0.310930
Si Si3 0.367660 0.097775 0.187446
Si Si4 0.711954 0.417712 0.815098
Si Si5 0.209902 0.402729 0.313897
Si Si6 0.537719 0.595335 0.686669
O O1 0.354251 0.433902 0.500000
O O2 0.359833 0.247401 0.274694
O O3 0.334987 0.512499 0.209474
O O4 0.414428 0.465291 0.276096
O O5 0.453216 0.080613 0.500000
O O6 0.414325 0.030113 0.232194
O O7 0.466330 0.246198 0.245074
O O8 0.500000 0.000000 0.251101
O O9 0.331515 0.988303 0.253726
O O10 0.363442 0.122098 0.000000
O O11 0.746535 0.512604 0.722867
O O12 0.712140 0.257467 0.742870
O O13 0.724003 0.417766 0.000000
O O14 0.204039 0.387004 0.500000
O O15 0.500000 0.500000 0.767144
O O16 0.529766 0.602906 0.500000
#
# Coordination Sequence:
#
# PCOD8237240 Si02
#       6
#     8   8   8   8   8   8
#     4  10  20  35  56  81 109 140 177 221 267 318
#     4   9  18  32  51  76 106 140 180 224 267 315
#     4  10  20  36  57  79 108 145 182 222 270 321
#     4  11  23  38  57  80 107 138 174 218 264 314
#     4  10  23  40  56  79 109 140 177 219 264 318
#     4   8  15  29  49  73 101 134 172 214 258 304
#
# _framework density 19.713632
#
# number of rings (size 3 to 8) (size 9 to 14) (size 15 to 20)
#    0.000    2.333    0.000    3.500    0.000    7.000 
#    0.000    1.667    0.000   12.500    0.000    0.000 
#    0.000    0.000    0.000    0.000    0.000    0.000 
#
# Total GULP energy -595169.983938 kJ/mol
# GULP energy per Si atom -12399.374665 kJ/mol
# Density = 1.966876 g / cm^3
# Si number density = 19.713632 Si / 1000 Ang^3
#
#
#
# Elastic Constant Matrix: (Units=GPa)
#
#
# Indices 1 2 3 4 5 6 
#
# 1 141.3629 69.1046 5.6016 0.0000 0.0000 0.0000
# 2 69.1046 108.2651 4.0402 0.0000 0.0000 0.0000
# 3 5.6016 4.0402 15.6801 0.0000 0.0000 0.0000
# 4 0.0000 0.0000 0.0000 22.7052 0.0000 0.0000
# 5 0.0000 0.0000 0.0000 0.0000 30.6555 0.0000
# 6 0.0000 0.0000 0.0000 0.0000 0.0000 44.0532
#
#
#
# Elastic Compliance Matrix: (Units=1/GPa)
#
#
# Indices 1 2 3 4 5 6 
#
# 1 0.010345 -0.006528 -0.002014 0.000000 0.000000 0.000000
# 2 -0.006528 0.013446 -0.001132 0.000000 0.000000 0.000000
# 3 -0.002014 -0.001132 0.064786 0.000000 0.000000 0.000000
# 4 0.000000 0.000000 0.000000 0.044043 0.000000 0.000000
# 5 0.000000 0.000000 0.000000 0.000000 0.032621 0.000000
# 6 0.000000 0.000000 0.000000 0.000000 0.000000 0.022700
#
#
# Mechanical properties :
#
#
# Convention : Reuss Voigt Hill
#
# Bulk Modulus (GPa) = 14.44483 46.97788 30.71136
# Shear Modulus (GPa) = 21.70477 31.92024 26.81250
#
# Velocity S-wave (km/s) = 3.32174 4.02829 3.69195
# Velocity P-wave (km/s) = 4.69629 6.74671 5.81262
#
# Compressibility (1/GPa) = 0.06922890
#
# Stress axis : x y z
#
# Youngs Moduli (GPa) = 96.66566 74.37402 15.43535
#
# Poissons Ratio (x) = 0.48551 0.03108
# Poissons Ratio (y) = 0.63103 0.01748
# Poissons Ratio (z) = 0.19465 0.08422
#
# Static dielectric constant tensor:
#      x y z
#    x 3.838930 0.000000 0.000000 
#    y 0.000000 3.797020 0.000000 
#    z 0.000000 0.000000 3.304910 
# 
# 
# High freq. dielectric constant tensor:
#      x y z
#    x 1.783710 0.000000 0.000000 
#    y 0.000000 1.765320 0.000000 
#    z 0.000000 0.000000 1.746350 
# 
# From -- ./inp_files/2969.got.cif
#   From: 2010.06.25/outbox.cif.g09.slc.cpg/sg58_2_cif.got.tgz:2969.got - 2010.06.26 21:38:00.
