data_PCOD8237470
_publ_section_title
;
Structure prediction by ZEFSAII (Michael W. Deem and Ramdas Pophale) SiO2 
 PCOD8237470
Probable space group: P N N M
;
_chemical_formula_sum "Si O2"
_cell_formula_units_Z 56
_cell_length_a 19.902541
_cell_length_b 9.068633
_cell_length_c 14.539836
_cell_angle_alpha 90.000000
_cell_angle_beta 90.000000
_cell_angle_gamma 90.000000
_cell_volume 2624.278135
_symmetry_space_group_name_H-M "P N N M"
_symmetry_group_IT_number 58
_symmetry_cell_setting 'orthorhombic'
loop_
_space_group_symop_operation_xyz
x,y,z
-x,-y,z
1/2+x,1/2-y,1/2-z
1/2-x,1/2+y,1/2-z
-x,-y,-z
x,y,-z
1/2-x,1/2+y,1/2+z
1/2+x,1/2-y,1/2+z
loop_
_atom_site_type_symbol
_atom_site_label
_atom_site_fract_x
_atom_site_fract_y
_atom_site_fract_z
Si Si1 0.064638 0.598772 0.898518
Si Si2 0.438324 0.389815 0.295794
Si Si3 0.794589 0.604840 0.601096
Si Si4 0.285303 0.564041 0.898659
Si Si5 0.173166 0.405457 0.199887
Si Si6 0.333266 0.591030 0.395429
Si Si7 0.574173 0.566201 0.900927
O O1 0.040198 0.747435 0.851205
O O2 0.123499 0.520933 0.844466
O O3 0.000000 0.500000 0.903587
O O4 0.092088 0.634713 0.000000
O O5 0.500000 0.500000 0.292408
O O6 0.376956 0.468306 0.345407
O O7 0.420220 0.335472 0.191292
O O8 0.831665 0.599656 0.500000
O O9 0.761223 0.766823 0.612940
O O10 0.841876 0.586629 0.690476
O O11 0.741386 0.473018 0.602475
O O12 0.248946 0.460302 0.823409
O O13 0.366714 0.556548 0.888770
O O14 0.263911 0.506283 0.000000
O O15 0.162765 0.241280 0.162209
O O16 0.358713 0.619984 0.500000
O O17 0.500000 0.500000 0.904789
O O18 0.586091 0.649696 0.000000
#
# Coordination Sequence:
#
# PCOD8237470 Si02
#       7
#     8   8   8   8   8   8   8
#     4  11  25  43  62  87 120 156 194 240 298 360
#     4  11  22  38  62  88 117 156 200 244 293 351
#     4  10  22  38  58  85 117 153 197 248 295 345
#     4  10  20  36  59  86 117 157 201 243 294 352
#     4  12  22  38  61  86 120 158 198 242 297 358
#     4  11  23  38  58  88 121 153 196 250 303 350
#     4   9  19  36  59  88 121 157 198 242 289 346
#
# _framework density 21.339200999999999
#
# number of rings (size 3 to 8) (size 9 to 14) (size 15 to 20)
#    0.000    1.429    0.000    6.000    0.000    5.714 
#    0.000    2.143    0.000    0.857    0.000    0.000 
#    0.000    0.000    0.000    0.000    0.000    0.000 
#
# Total GULP energy -693907.637025 kJ/mol
# GULP energy per Si atom -12391.207804 kJ/mol
# Density = 2.129063 g / cm^3
# Si number density = 21.339201 Si / 1000 Ang^3
#
#
#
# Elastic Constant Matrix: (Units=GPa)
#
#
# Indices 1 2 3 4 5 6 
#
# 1 64.6916 14.5597 33.1421 0.0000 0.0000 0.0000
# 2 14.5597 99.2219 56.6931 0.0000 0.0000 0.0000
# 3 33.1421 56.6931 239.4610 0.0000 0.0000 0.0000
# 4 0.0000 0.0000 0.0000 25.4887 0.0000 0.0000
# 5 0.0000 0.0000 0.0000 0.0000 23.3919 0.0000
# 6 0.0000 0.0000 0.0000 0.0000 0.0000 13.3217
#
#
#
# Elastic Compliance Matrix: (Units=1/GPa)
#
#
# Indices 1 2 3 4 5 6 
#
# 1 0.016784 -0.001313 -0.002012 0.000000 0.000000 0.000000
# 2 -0.001313 0.011758 -0.002602 0.000000 0.000000 0.000000
# 3 -0.002012 -0.002602 0.005071 0.000000 0.000000 0.000000
# 4 0.000000 0.000000 0.000000 0.039233 0.000000 0.000000
# 5 0.000000 0.000000 0.000000 0.000000 0.042750 0.000000
# 6 0.000000 0.000000 0.000000 0.000000 0.000000 0.075066
#
#
# Mechanical properties :
#
#
# Convention : Reuss Voigt Hill
#
# Bulk Modulus (GPa) = 45.95986 68.01826 56.98906
# Shear Modulus (GPa) = 23.83580 32.37243 28.10411
#
# Velocity S-wave (km/s) = 3.34577 3.89915 3.63301
# Velocity P-wave (km/s) = 6.04236 7.22600 6.66053
#
# Compressibility (1/GPa) = 0.02175812
#
# Stress axis : x y z
#
# Youngs Moduli (GPa) = 59.57941 85.04981 197.21769
#
# Poissons Ratio (x) = 0.11169 0.39682
# Poissons Ratio (y) = 0.07824 0.51315
# Poissons Ratio (z) = 0.11988 0.22129
#
# Static dielectric constant tensor:
#      x y z
#    x 3.792600 0.000000 0.000000 
#    y 0.000000 3.671820 0.000000 
#    z 0.000000 0.000000 4.815940 
# 
# 
# High freq. dielectric constant tensor:
#      x y z
#    x 1.820410 0.000000 0.000000 
#    y 0.000000 1.816640 0.000000 
#    z 0.000000 0.000000 1.874260 
# 
# From -- ./inp_files/23242.got.cif
#   From: 2010.06.25/outbox.cif.g09.slc.cpg/sg58_12_cif.got.tgz:23242.got - 2010.06.26 21:38:00.
