data_PCOD8237703
_publ_section_title
;
Structure prediction by ZEFSAII (Michael W. Deem and Ramdas Pophale) SiO2 
 PCOD8237703
Probable space group: P N N M
;
_chemical_formula_sum "Si O2"
_cell_formula_units_Z 64
_cell_length_a 6.595399
_cell_length_b 22.588544
_cell_length_c 22.278623
_cell_angle_alpha 90.000000
_cell_angle_beta 90.000000
_cell_angle_gamma 90.000000
_cell_volume 3319.079514
_symmetry_space_group_name_H-M "P N N M"
_symmetry_group_IT_number 58
_symmetry_cell_setting 'orthorhombic'
loop_
_space_group_symop_operation_xyz
x,y,z
-x,-y,z
1/2+x,1/2-y,1/2-z
1/2-x,1/2+y,1/2-z
-x,-y,-z
x,y,-z
1/2-x,1/2+y,1/2+z
1/2+x,1/2-y,1/2+z
loop_
_atom_site_type_symbol
_atom_site_label
_atom_site_fract_x
_atom_site_fract_y
_atom_site_fract_z
Si Si1 0.051444 0.931488 0.843455
Si Si2 0.164055 0.234354 0.662960
Si Si3 0.694710 0.348217 0.430603
Si Si4 0.939708 0.637446 0.647191
Si Si5 0.722867 0.661704 0.846318
Si Si6 0.539262 0.432088 0.206318
Si Si7 0.891570 0.357331 0.230297
Si Si8 0.496959 0.220506 0.431221
O O1 0.285341 0.917285 0.861306
O O2 0.911687 0.896316 0.889223
O O3 0.023521 0.913242 0.773867
O O4 0.000000 0.000000 0.852468
O O5 0.188124 0.304739 0.667118
O O6 0.261282 0.202949 0.721527
O O7 0.286205 0.212477 0.604095
O O8 0.926672 0.217827 0.660764
O O9 0.674846 0.366602 0.500000
O O10 0.593641 0.284712 0.419492
O O11 0.934022 0.348721 0.413407
O O12 0.099601 0.623916 0.700134
O O13 0.591105 0.601985 0.844185
O O14 0.844064 0.670703 0.908456
O O15 0.883788 0.655712 0.792736
O O16 0.500000 0.500000 0.193417
O O17 0.774550 0.412204 0.197565
O O18 0.448808 0.208476 0.500000
#
# Coordination Sequence:
#
# PCOD8237703 Si02
#       8
#     8   8   8   8   8   8   8   8
#     4  11  24  42  59  82 115 158 206 256 307 356
#     4  10  22  33  57  88 124 154 192 240 311 369
#     4  11  24  41  60  85 115 156 211 254 298 355
#     4  12  22  37  59  85 118 158 197 251 314 365
#     4  10  20  38  56  94 121 152 192 244 299 360
#     4  10  21  39  60  86 122 159 195 241 303 364
#     4  10  22  34  57  90 123 153 193 245 306 367
#     4  10  21  38  60  87 121 158 199 244 294 359
#
# _framework density 19.282456
#
# number of rings (size 3 to 8) (size 9 to 14) (size 15 to 20)
#    0.000    1.500    5.000    0.000    1.750    2.750 
#    0.000    0.625    0.000    0.375    0.000    7.875 
#    0.000    0.000    0.000    0.000    0.000    0.000 
#
# Total GULP energy -793315.123259 kJ/mol
# GULP energy per Si atom -12395.548801 kJ/mol
# Density = 1.923857 g / cm^3
# Si number density = 19.282456 Si / 1000 Ang^3
#
#
#
# Elastic Constant Matrix: (Units=GPa)
#
#
# Indices 1 2 3 4 5 6 
#
# 1 115.4442 41.8319 33.7139 0.0000 0.0000 0.0000
# 2 41.8319 108.3186 45.9016 0.0000 0.0000 0.0000
# 3 33.7139 45.9016 73.8028 0.0000 0.0000 0.0000
# 4 0.0000 0.0000 0.0000 23.4279 0.0000 0.0000
# 5 0.0000 0.0000 0.0000 0.0000 25.2094 0.0000
# 6 0.0000 0.0000 0.0000 0.0000 0.0000 29.8167
#
#
#
# Elastic Compliance Matrix: (Units=1/GPa)
#
#
# Indices 1 2 3 4 5 6 
#
# 1 0.010572 -0.002765 -0.003110 0.000000 0.000000 0.000000
# 2 -0.002765 0.013259 -0.006983 0.000000 0.000000 0.000000
# 3 -0.003110 -0.006983 0.019314 0.000000 0.000000 0.000000
# 4 0.000000 0.000000 0.000000 0.042684 0.000000 0.000000
# 5 0.000000 0.000000 0.000000 0.000000 0.039668 0.000000
# 6 0.000000 0.000000 0.000000 0.000000 0.000000 0.033538
#
#
# Mechanical properties :
#
#
# Convention : Reuss Voigt Hill
#
# Bulk Modulus (GPa) = 57.37756 60.05115 58.71435
# Shear Modulus (GPa) = 26.23825 27.43200 26.83513
#
# Velocity S-wave (km/s) = 3.69281 3.77588 3.73458
# Velocity P-wave (km/s) = 6.92845 7.08662 7.00798
#
# Compressibility (1/GPa) = 0.01742842
#
# Stress axis : x y z
#
# Youngs Moduli (GPa) = 94.58658 75.41915 51.77716
#
# Poissons Ratio (x) = 0.20855 0.16102
# Poissons Ratio (y) = 0.26155 0.36158
# Poissons Ratio (z) = 0.29414 0.52668
#
# Static dielectric constant tensor:
#      x y z
#    x 3.743220 0.000000 0.000000 
#    y 0.000000 3.380810 0.000000 
#    z 0.000000 0.000000 3.414750 
# 
# 
# High freq. dielectric constant tensor:
#      x y z
#    x 1.768270 0.000000 0.000000 
#    y 0.000000 1.734260 0.000000 
#    z 0.000000 0.000000 1.727530 
# 
# From -- ./inp_files/31095.got.cif
#   From: 2010.06.25/outbox.cif.g09.slc.cpg/sg58_16_cif.got.tgz:31095.got - 2010.06.26 21:38:00.
