data_PCOD8237347
_publ_section_title
;
Structure prediction by ZEFSAII (Michael W. Deem and Ramdas Pophale) SiO2 
 PCOD8237347
Probable space group: P N N M
;
_chemical_formula_sum "Si O2"
_cell_formula_units_Z 64
_cell_length_a 10.212744
_cell_length_b 21.943440
_cell_length_c 13.336835
_cell_angle_alpha 90.000000
_cell_angle_beta 90.000000
_cell_angle_gamma 90.000000
_cell_volume 2988.821202
_symmetry_space_group_name_H-M "P N N M"
_symmetry_group_IT_number 58
_symmetry_cell_setting 'orthorhombic'
loop_
_space_group_symop_operation_xyz
x,y,z
-x,-y,z
1/2+x,1/2-y,1/2-z
1/2-x,1/2+y,1/2-z
-x,-y,-z
x,y,-z
1/2-x,1/2+y,1/2+z
1/2+x,1/2-y,1/2+z
loop_
_atom_site_type_symbol
_atom_site_label
_atom_site_fract_x
_atom_site_fract_y
_atom_site_fract_z
Si Si1 0.650204 0.488404 0.892178
Si Si2 0.110352 0.547240 0.615473
Si Si3 0.145342 0.146026 0.617399
Si Si4 0.396032 0.220922 0.614181
Si Si5 0.351862 0.473759 0.313865
Si Si6 0.880597 0.205560 0.383524
Si Si7 0.780117 0.160731 0.186343
Si Si8 0.984004 0.328196 0.309584
O O1 0.500000 0.500000 0.914583
O O2 0.671956 0.421755 0.842840
O O3 0.697519 0.531830 0.802783
O O4 0.724745 0.497910 0.000000
O O5 0.087215 0.564631 0.500000
O O6 0.254512 0.517904 0.625997
O O7 0.095080 0.608484 0.681035
O O8 0.000000 0.500000 0.653014
O O9 0.129934 0.139960 0.500000
O O10 0.259662 0.191005 0.648011
O O11 0.011168 0.173080 0.658500
O O12 0.438561 0.205484 0.500000
O O13 0.374541 0.292864 0.626806
O O14 0.498751 0.192888 0.692893
O O15 0.500000 0.500000 0.323907
O O16 0.339848 0.404116 0.348375
O O17 0.844566 0.190629 0.500000
O O18 0.775323 0.177864 0.305691
O O19 0.901967 0.278074 0.372461
O O20 0.630569 0.164201 0.146962
#
# Coordination Sequence:
#
# PCOD8237347 Si02
#       8
#     8   8   8   8   8   8   8   8
#     4   9  17  30  53  88 124 160 201 251 314 379
#     4  11  24  43  68  92 124 173 219 259 310 377
#     4   9  16  31  56  82 111 155 206 249 303 376
#     4  10  22  39  62  88 119 162 208 262 323 384
#     4  11  23  41  65  94 131 169 217 274 320 373
#     4  10  20  35  59  89 121 159 208 264 320 376
#     4  11  23  38  61  92 127 165 212 265 321 385
#     4  11  22  40  63  90 125 167 214 262 318 385
#
# _framework density 21.413125000000001
#
# number of rings (size 3 to 8) (size 9 to 14) (size 15 to 20)
#    0.000    1.750    2.500    2.625    0.000    3.250 
#    2.250    0.000    0.000    0.750    0.000    0.000 
#    0.000    0.000    0.000    0.000    0.000    0.000 
#
# Total GULP energy -793127.188608 kJ/mol
# GULP energy per Si atom -12392.612322 kJ/mol
# Density = 2.136439 g / cm^3
# Si number density = 21.413125 Si / 1000 Ang^3
#
#
#
# Elastic Constant Matrix: (Units=GPa)
#
#
# Indices 1 2 3 4 5 6 
#
# 1 71.3934 32.2514 3.5677 0.0000 0.0000 0.0000
# 2 32.2514 117.8048 -1.6254 0.0000 0.0000 0.0000
# 3 3.5677 -1.6254 64.9395 0.0000 0.0000 0.0000
# 4 0.0000 0.0000 0.0000 22.7794 0.0000 0.0000
# 5 0.0000 0.0000 0.0000 0.0000 19.5295 0.0000
# 6 0.0000 0.0000 0.0000 0.0000 0.0000 31.2041
#
#
#
# Elastic Compliance Matrix: (Units=1/GPa)
#
#
# Indices 1 2 3 4 5 6 
#
# 1 0.016047 -0.004407 -0.000992 0.000000 0.000000 0.000000
# 2 -0.004407 0.009702 0.000485 0.000000 0.000000 0.000000
# 3 -0.000992 0.000485 0.015466 0.000000 0.000000 0.000000
# 4 0.000000 0.000000 0.000000 0.043899 0.000000 0.000000
# 5 0.000000 0.000000 0.000000 0.000000 0.051205 0.000000
# 6 0.000000 0.000000 0.000000 0.000000 0.000000 0.032047
#
#
# Mechanical properties :
#
#
# Convention : Reuss Voigt Hill
#
# Bulk Modulus (GPa) = 31.86051 35.83611 33.84831
# Shear Modulus (GPa) = 26.50329 29.36552 27.93441
#
# Velocity S-wave (km/s) = 3.52193 3.70723 3.61577
# Velocity P-wave (km/s) = 5.60802 5.92424 5.76830
#
# Compressibility (1/GPa) = 0.03138681
#
# Stress axis : x y z
#
# Youngs Moduli (GPa) = 62.31588 103.07366 64.65970
#
# Poissons Ratio (x) = 0.45424 0.06414
# Poissons Ratio (y) = 0.27462 -0.03136
# Poissons Ratio (z) = 0.06181 -0.04998
#
# Static dielectric constant tensor:
#      x y z
#    x 3.626780 0.000000 0.000000 
#    y 0.000000 6.351430 0.000000 
#    z 0.000000 0.000000 3.852830 
# 
# 
# High freq. dielectric constant tensor:
#      x y z
#    x 1.809270 0.000000 0.000000 
#    y 0.000000 1.853810 0.000000 
#    z 0.000000 0.000000 1.833940 
# 
# From -- ./inp_files/20303.got.cif
#   From: 2010.06.25/outbox.cif.g09.slc.cpg/sg58_11_cif.got.tgz:20303.got - 2010.06.26 21:38:00.
