data_PCOD8237740
_publ_section_title
;
Structure prediction by ZEFSAII (Michael W. Deem and Ramdas Pophale) SiO2 
 PCOD8237740
Probable space group: P N N M
;
_chemical_formula_sum "Si O2"
_cell_formula_units_Z 28
_cell_length_a 8.581480
_cell_length_b 4.954065
_cell_length_c 30.749664
_cell_angle_alpha 90.000000
_cell_angle_beta 90.000000
_cell_angle_gamma 90.000000
_cell_volume 1307.266914
_symmetry_space_group_name_H-M "P N N M"
_symmetry_group_IT_number 58
_symmetry_cell_setting 'orthorhombic'
loop_
_space_group_symop_operation_xyz
x,y,z
-x,-y,z
1/2+x,1/2-y,1/2-z
1/2-x,1/2+y,1/2-z
-x,-y,-z
x,y,-z
1/2-x,1/2+y,1/2+z
1/2+x,1/2-y,1/2+z
loop_
_atom_site_type_symbol
_atom_site_label
_atom_site_fract_x
_atom_site_fract_y
_atom_site_fract_z
Si Si1 0.612441 0.246337 0.500000
Si Si2 0.676506 0.098618 0.591809
Si Si3 0.171384 0.409216 0.369117
Si Si4 0.830074 0.601475 0.268670
O O1 0.500000 0.500000 0.500000
O O2 0.714738 0.223198 0.543898
O O3 0.500000 0.000000 0.500000
O O4 0.709173 0.342069 0.625113
O O5 0.500000 0.000000 0.597332
O O6 0.787357 0.845494 0.600905
O O7 0.175874 0.317874 0.319161
O O8 0.000000 0.500000 0.383475
O O9 0.704867 0.369533 0.258654
O O10 0.000000 0.500000 0.254475
#
# Coordination Sequence:
#
# PCOD8237740 Si02
#       4
#     4   8   8   8
#     4  10  20  38  61  90 123 154 197 254 301 342
#     4  11  22  39  64  90 116 158 206 246 291 357
#     4  11  24  41  59  88 127 158 191 249 311 355
#     4  11  24  41  62  87 120 159 200 248 301 355
#
# _framework density 21.418734000000001
#
# number of rings (size 3 to 8) (size 9 to 14) (size 15 to 20)
#    0.000    1.143    0.000    7.714    0.000   11.429 
#    0.000    4.286    0.000    0.000    0.000    0.000 
#    0.000    0.000    0.000    0.000    0.000    0.000 
#
# Total GULP energy -347283.154588 kJ/mol
# GULP energy per Si atom -12402.969807 kJ/mol
# Density = 2.136998 g / cm^3
# Si number density = 21.418734 Si / 1000 Ang^3
#
#
#
# Elastic Constant Matrix: (Units=GPa)
#
#
# Indices 1 2 3 4 5 6 
#
# 1 71.7435 25.8478 54.9513 0.0000 0.0000 0.0000
# 2 25.8478 143.6584 42.1599 0.0000 0.0000 0.0000
# 3 54.9513 42.1599 88.1637 0.0000 0.0000 0.0000
# 4 0.0000 0.0000 0.0000 21.6527 0.0000 0.0000
# 5 0.0000 0.0000 0.0000 0.0000 28.3491 0.0000
# 6 0.0000 0.0000 0.0000 0.0000 0.0000 41.4227
#
#
#
# Elastic Compliance Matrix: (Units=1/GPa)
#
#
# Indices 1 2 3 4 5 6 
#
# 1 0.026673 0.000093 -0.016669 0.000000 0.000000 0.000000
# 2 0.000093 0.008098 -0.003930 0.000000 0.000000 0.000000
# 3 -0.016669 -0.003930 0.023612 0.000000 0.000000 0.000000
# 4 0.000000 0.000000 0.000000 0.046184 0.000000 0.000000
# 5 0.000000 0.000000 0.000000 0.000000 0.035275 0.000000
# 6 0.000000 0.000000 0.000000 0.000000 0.000000 0.024141
#
#
# Mechanical properties :
#
#
# Convention : Reuss Voigt Hill
#
# Bulk Modulus (GPa) = 57.57379 61.05373 59.31376
# Shear Modulus (GPa) = 23.72097 30.32532 27.02315
#
# Velocity S-wave (km/s) = 3.33150 3.76684 3.55584
# Velocity P-wave (km/s) = 6.46042 6.89097 6.67916
#
# Compressibility (1/GPa) = 0.01736902
#
# Stress axis : x y z
#
# Youngs Moduli (GPa) = 37.49162 123.49253 42.35213
#
# Poissons Ratio (x) = -0.01147 0.70597
# Poissons Ratio (y) = -0.00348 0.16645
# Poissons Ratio (z) = 0.62495 0.48535
#
# Static dielectric constant tensor:
#      x y z
#    x 3.815360 0.000000 0.000000 
#    y 0.000000 4.010230 0.000000 
#    z 0.000000 0.000000 1.934700 
# 
# 
# High freq. dielectric constant tensor:
#      x y z
#    x 1.829340 0.000000 0.000000 
#    y 0.000000 1.862000 0.000000 
#    z 0.000000 0.000000 1.844380 
# 
# From -- ./inp_files/33068.got.cif
#   From: 2010.06.25/outbox.cif.g09.slc.cpg/sg58_17_cif.got.tgz:33068.got - 2010.06.26 21:38:00.
