data_PCOD8237773
_publ_section_title
;
Structure prediction by ZEFSAII (Michael W. Deem and Ramdas Pophale) SiO2 
 PCOD8237773
Probable space group: P N N M
;
_chemical_formula_sum "Si O2"
_cell_formula_units_Z 64
_cell_length_a 16.006820
_cell_length_b 22.554802
_cell_length_c 8.806968
_cell_angle_alpha 90.000000
_cell_angle_beta 90.000000
_cell_angle_gamma 90.000000
_cell_volume 3179.585432
_symmetry_space_group_name_H-M "P N N M"
_symmetry_group_IT_number 58
_symmetry_cell_setting 'orthorhombic'
loop_
_space_group_symop_operation_xyz
x,y,z
-x,-y,z
1/2+x,1/2-y,1/2-z
1/2-x,1/2+y,1/2-z
-x,-y,-z
x,y,-z
1/2-x,1/2+y,1/2+z
1/2+x,1/2-y,1/2+z
loop_
_atom_site_type_symbol
_atom_site_label
_atom_site_fract_x
_atom_site_fract_y
_atom_site_fract_z
Si Si1 0.536203 0.717719 0.323880
Si Si2 0.245031 0.446791 0.677831
Si Si3 0.599983 0.353445 0.828207
Si Si4 0.907318 0.976565 0.177167
Si Si5 0.465733 0.825853 0.826752
Si Si6 0.703085 0.248126 0.834770
Si Si7 0.929394 0.547844 0.820494
Si Si8 0.189935 0.833247 0.326008
O O1 0.558046 0.722269 0.500000
O O2 0.451332 0.682270 0.297945
O O3 0.535509 0.784376 0.254937
O O4 0.597897 0.672736 0.238377
O O5 0.228169 0.448741 0.500000
O O6 0.332617 0.478554 0.720590
O O7 0.161432 0.473157 0.756560
O O8 0.254920 0.379631 0.732009
O O9 0.612915 0.420392 0.779411
O O10 0.688369 0.318888 0.826820
O O11 0.561824 0.350269 0.000000
O O12 0.904551 0.960311 0.000000
O O13 0.000000 0.000000 0.220314
O O14 0.381755 0.788510 0.816538
O O15 0.456892 0.888688 0.744655
O O16 0.493150 0.837014 0.000000
O O17 0.765986 0.230325 0.700678
O O18 0.742959 0.233126 0.000000
O O19 0.000000 0.500000 0.773990
O O20 0.921445 0.553536 0.000000
O O21 0.188233 0.852141 0.500000
#
# Coordination Sequence:
#
# PCOD8237773 Si02
#       8
#     8   8   8   8   8   8   8   8
#     4  11  22  37  60  88 123 160 198 247 307 373
#     4  11  23  40  64  93 126 168 215 264 317 376
#     4  10  21  38  60  86 118 156 198 244 301 365
#     4  10  22  40  62  90 126 169 210 253 313 380
#     4  10  20  38  63  89 119 153 199 253 310 371
#     4   9  19  36  58  84 116 153 189 238 304 367
#     4  11  24  42  64  90 121 165 217 267 320 377
#     4  12  23  36  59  90 121 154 202 254 304 369
#
# _framework density 20.128411
#
# number of rings (size 3 to 8) (size 9 to 14) (size 15 to 20)
#    0.000    1.500    1.250    5.250    0.000    5.750 
#    2.250    0.000    0.000    0.000    0.000    0.000 
#    0.000    0.000    0.000    0.000    0.000    0.000 
#
# Total GULP energy -793274.207438 kJ/mol
# GULP energy per Si atom -12394.909491 kJ/mol
# Density = 2.008260 g / cm^3
# Si number density = 20.128411 Si / 1000 Ang^3
#
#
#
# Elastic Constant Matrix: (Units=GPa)
#
#
# Indices 1 2 3 4 5 6 
#
# 1 95.1841 37.1378 37.6218 0.0000 0.0000 0.0000
# 2 37.1378 101.1479 48.5340 0.0000 0.0000 0.0000
# 3 37.6218 48.5340 95.5192 0.0000 0.0000 0.0000
# 4 0.0000 0.0000 0.0000 29.7290 0.0000 0.0000
# 5 0.0000 0.0000 0.0000 0.0000 32.0595 0.0000
# 6 0.0000 0.0000 0.0000 0.0000 0.0000 28.4018
#
#
#
# Elastic Compliance Matrix: (Units=1/GPa)
#
#
# Indices 1 2 3 4 5 6 
#
# 1 0.013137 -0.003095 -0.003602 0.000000 0.000000 0.000000
# 2 -0.003095 0.013803 -0.005794 0.000000 0.000000 0.000000
# 3 -0.003602 -0.005794 0.014832 0.000000 0.000000 0.000000
# 4 0.000000 0.000000 0.000000 0.033637 0.000000 0.000000
# 5 0.000000 0.000000 0.000000 0.000000 0.031192 0.000000
# 6 0.000000 0.000000 0.000000 0.000000 0.000000 0.035209
#
#
# Mechanical properties :
#
#
# Convention : Reuss Voigt Hill
#
# Bulk Modulus (GPa) = 59.56023 59.82650 59.69337
# Shear Modulus (GPa) = 29.00403 29.27523 29.13963
#
# Velocity S-wave (km/s) = 3.80010 3.81783 3.80898
# Velocity P-wave (km/s) = 6.99348 7.01579 7.00464
#
# Compressibility (1/GPa) = 0.01678973
#
# Stress axis : x y z
#
# Youngs Moduli (GPa) = 76.11975 72.44604 67.42262
#
# Poissons Ratio (x) = 0.22425 0.24282
# Poissons Ratio (y) = 0.23562 0.39068
# Poissons Ratio (z) = 0.27415 0.41978
#
# Static dielectric constant tensor:
#      x y z
#    x 3.693380 0.000000 0.000000 
#    y 0.000000 3.779870 0.000000 
#    z 0.000000 0.000000 3.701010 
# 
# 
# High freq. dielectric constant tensor:
#      x y z
#    x 1.777400 0.000000 0.000000 
#    y 0.000000 1.783010 0.000000 
#    z 0.000000 0.000000 1.794340 
# 
# From -- ./inp_files/8265.got.cif
#   From: 2010.06.25/outbox.cif.g09.slc.cpg/sg58_5_cif.got.tgz:8265.got - 2010.06.26 21:38:00.
