data_PCOD8237223
_publ_section_title
;
Structure prediction by ZEFSAII (Michael W. Deem and Ramdas Pophale) SiO2 
 PCOD8237223
Probable space group: P N N M
;
_chemical_formula_sum "Si O2"
_cell_formula_units_Z 40
_cell_length_a 29.521823
_cell_length_b 8.688367
_cell_length_c 7.702015
_cell_angle_alpha 90.000000
_cell_angle_beta 90.000000
_cell_angle_gamma 90.000000
_cell_volume 1975.539372
_symmetry_space_group_name_H-M "P N N M"
_symmetry_group_IT_number 58
_symmetry_cell_setting 'orthorhombic'
loop_
_space_group_symop_operation_xyz
x,y,z
-x,-y,z
1/2+x,1/2-y,1/2-z
1/2-x,1/2+y,1/2-z
-x,-y,-z
x,y,-z
1/2-x,1/2+y,1/2+z
1/2+x,1/2-y,1/2+z
loop_
_atom_site_type_symbol
_atom_site_label
_atom_site_fract_x
_atom_site_fract_y
_atom_site_fract_z
Si Si1 0.610251 0.939346 0.697949
Si Si2 0.796135 0.570717 0.198665
Si Si3 0.549876 0.432451 0.000000
Si Si4 0.879773 0.107864 0.308050
Si Si5 0.705372 0.421400 0.206982
Si Si6 0.049633 0.432824 0.500000
O O1 0.602551 0.998887 0.500000
O O2 0.658681 0.993625 0.776383
O O3 0.607443 0.754179 0.692199
O O4 0.572630 0.008553 0.823819
O O5 0.750712 0.500474 0.284628
O O6 0.797852 0.752006 0.218620
O O7 0.794086 0.522684 0.000000
O O8 0.500000 0.500000 0.000000
O O9 0.576875 0.493214 0.171592
O O10 0.548642 0.250110 0.000000
O O11 0.865632 0.169282 0.500000
O O12 0.837702 0.017060 0.222344
O O13 0.703823 0.414370 0.000000
O O14 0.000000 0.500000 0.500000
#
# Coordination Sequence:
#
# PCOD8237223 Si02
#       6
#     8   8   4   8   8   4
#     4  11  23  40  64  95 127 164 209 261 320 380
#     4  10  22  35  52  85 121 160 212 263 315 373
#     4  10  20  38  64  94 122 160 212 258 317 380
#     4   9  19  36  59  87 118 165 207 254 315 373
#     4  10  20  35  55  82 119 167 218 260 313 376
#     4  12  24  44  72  94 128 166 206 264 321 382
#
# _framework density 20.247636
#
# number of rings (size 3 to 8) (size 9 to 14) (size 15 to 20)
#    0.600    1.200    1.000    3.600    1.400    2.000 
#    0.000    1.000    0.000    2.400    0.000    0.000 
#    0.000    0.000    0.000    0.000    0.000    0.000 
#
# Total GULP energy -495883.106491 kJ/mol
# GULP energy per Si atom -12397.077662 kJ/mol
# Density = 2.020155 g / cm^3
# Si number density = 20.247636 Si / 1000 Ang^3
#
#
#
# Elastic Constant Matrix: (Units=GPa)
#
#
# Indices 1 2 3 4 5 6 
#
# 1 198.5030 83.1298 41.0683 0.0000 0.0000 0.0000
# 2 83.1298 168.2121 21.5368 0.0000 0.0000 0.0000
# 3 41.0683 21.5368 56.5842 0.0000 0.0000 0.0000
# 4 0.0000 0.0000 0.0000 28.5323 0.0000 0.0000
# 5 0.0000 0.0000 0.0000 0.0000 19.7231 0.0000
# 6 0.0000 0.0000 0.0000 0.0000 0.0000 45.0643
#
#
#
# Elastic Compliance Matrix: (Units=1/GPa)
#
#
# Indices 1 2 3 4 5 6 
#
# 1 0.007131 -0.003008 -0.004031 0.000000 0.000000 0.000000
# 2 -0.003008 0.007518 -0.000678 0.000000 0.000000 0.000000
# 3 -0.004031 -0.000678 0.020857 0.000000 0.000000 0.000000
# 4 0.000000 0.000000 0.000000 0.035048 0.000000 0.000000
# 5 0.000000 0.000000 0.000000 0.000000 0.050702 0.000000
# 6 0.000000 0.000000 0.000000 0.000000 0.000000 0.022191
#
#
# Mechanical properties :
#
#
# Convention : Reuss Voigt Hill
#
# Bulk Modulus (GPa) = 49.82190 79.41878 64.62034
# Shear Modulus (GPa) = 30.19827 37.16823 33.68325
#
# Velocity S-wave (km/s) = 3.86611 4.28913 4.08311
# Velocity P-wave (km/s) = 6.67749 7.98985 7.36297
#
# Compressibility (1/GPa) = 0.02007150
#
# Stress axis : x y z
#
# Youngs Moduli (GPa) = 140.22333 133.00740 47.94647
#
# Poissons Ratio (x) = 0.40012 0.19327
# Poissons Ratio (y) = 0.42183 0.03252
# Poissons Ratio (z) = 0.56524 0.09021
#
# Static dielectric constant tensor:
#      x y z
#    x 3.847800 0.000000 0.000000 
#    y 0.000000 3.630220 0.000000 
#    z 0.000000 0.000000 3.434100 
# 
# 
# High freq. dielectric constant tensor:
#      x y z
#    x 1.796060 0.000000 0.000000 
#    y 0.000000 1.801150 0.000000 
#    z 0.000000 0.000000 1.765160 
# 
# From -- ./inp_files/10642.got.cif
#   From: 2010.06.25/outbox.cif.g09.slc.cpg/sg58_6_cif.got.tgz:10642.got - 2010.06.26 21:38:00.
