data_PCOD8237278
_publ_section_title
;
Structure prediction by ZEFSAII (Michael W. Deem and Ramdas Pophale) SiO2 
 PCOD8237278
Probable space group: P N N M
;
_chemical_formula_sum "Si O2"
_cell_formula_units_Z 64
_cell_length_a 18.812719
_cell_length_b 19.691046
_cell_length_c 9.275825
_cell_angle_alpha 90.000000
_cell_angle_beta 90.000000
_cell_angle_gamma 90.000000
_cell_volume 3436.156233
_symmetry_space_group_name_H-M "P N N M"
_symmetry_group_IT_number 58
_symmetry_cell_setting 'orthorhombic'
loop_
_space_group_symop_operation_xyz
x,y,z
-x,-y,z
1/2+x,1/2-y,1/2-z
1/2-x,1/2+y,1/2-z
-x,-y,-z
x,y,-z
1/2-x,1/2+y,1/2+z
1/2+x,1/2-y,1/2+z
loop_
_atom_site_type_symbol
_atom_site_label
_atom_site_fract_x
_atom_site_fract_y
_atom_site_fract_z
Si Si1 0.314301 0.082971 0.331269
Si Si2 0.046479 0.565994 0.333015
Si Si3 0.954095 0.194147 0.834627
Si Si4 0.194652 0.739270 0.831370
Si Si5 0.541344 0.175515 0.333952
Si Si6 0.711480 0.533063 0.830298
Si Si7 0.053891 0.941721 0.671184
Si Si8 0.203943 0.336525 0.170431
O O1 0.331805 0.075199 0.500000
O O2 0.379038 0.051350 0.243159
O O3 0.302492 0.160561 0.287869
O O4 0.244584 0.039629 0.287544
O O5 0.059139 0.581452 0.500000
O O6 0.000000 0.500000 0.306902
O O7 0.009505 0.630803 0.263610
O O8 0.880884 0.229641 0.784352
O O9 0.971178 0.129329 0.737361
O O10 0.019128 0.246193 0.813436
O O11 0.947875 0.170926 0.000000
O O12 0.257725 0.773533 0.744144
O O13 0.208235 0.749225 0.000000
O O14 0.530751 0.153308 0.500000
O O15 0.621923 0.165056 0.282757
O O16 0.631981 0.539227 0.767173
O O17 0.760997 0.593893 0.770848
O O18 0.706928 0.540424 0.000000
O O19 0.053507 0.934014 0.500000
O O20 0.000000 0.000000 0.722319
O O21 0.211935 0.328637 0.000000
#
# Coordination Sequence:
#
# PCOD8237278 Si02
#       8
#     8   8   8   8   8   8   8   8
#     4  10  20  37  59  80 108 150 193 232 277 338
#     4  11  23  36  52  81 118 149 182 233 288 337
#     4  10  20  37  58  83 113 148 190 234 283 340
#     4  10  20  35  57  83 111 147 185 228 282 340
#     4  10  21  38  59  84 112 148 196 235 275 344
#     4   9  18  34  56  82 110 144 188 232 275 330
#     4  10  21  37  59  87 115 149 195 241 285 337
#     4  10  20  35  58  84 110 146 187 231 278 332
#
# _framework density 18.625463
#
# number of rings (size 3 to 8) (size 9 to 14) (size 15 to 20)
#    0.000    2.000    2.500    1.125    0.000    4.750 
#    0.000    2.500    0.000    0.000    0.000    0.000 
#    0.000    0.000    0.000    0.000    0.000    0.000 
#
# Total GULP energy -793800.629420 kJ/mol
# GULP energy per Si atom -12403.134835 kJ/mol
# Density = 1.858307 g / cm^3
# Si number density = 18.625463 Si / 1000 Ang^3
#
#
#
# Elastic Constant Matrix: (Units=GPa)
#
#
# Indices 1 2 3 4 5 6 
#
# 1 113.8231 51.1261 23.6258 0.0000 0.0000 0.0000
# 2 51.1261 122.8884 36.7607 0.0000 0.0000 0.0000
# 3 23.6258 36.7607 37.7983 0.0000 0.0000 0.0000
# 4 0.0000 0.0000 0.0000 28.2316 0.0000 0.0000
# 5 0.0000 0.0000 0.0000 0.0000 24.8853 0.0000
# 6 0.0000 0.0000 0.0000 0.0000 0.0000 34.9253
#
#
#
# Elastic Compliance Matrix: (Units=1/GPa)
#
#
# Indices 1 2 3 4 5 6 
#
# 1 0.011116 -0.003591 -0.003456 0.000000 0.000000 0.000000
# 2 -0.003591 0.012636 -0.010045 0.000000 0.000000 0.000000
# 3 -0.003456 -0.010045 0.038385 0.000000 0.000000 0.000000
# 4 0.000000 0.000000 0.000000 0.035421 0.000000 0.000000
# 5 0.000000 0.000000 0.000000 0.000000 0.040184 0.000000
# 6 0.000000 0.000000 0.000000 0.000000 0.000000 0.028633
#
#
# Mechanical properties :
#
#
# Convention : Reuss Voigt Hill
#
# Bulk Modulus (GPa) = 35.77235 55.28165 45.52700
# Shear Modulus (GPa) = 23.82358 28.47493 26.14925
#
# Velocity S-wave (km/s) = 3.58031 3.91425 3.75100
# Velocity P-wave (km/s) = 6.02821 7.08333 6.57697
#
# Compressibility (1/GPa) = 0.02795455
#
# Stress axis : x y z
#
# Youngs Moduli (GPa) = 89.96255 79.13775 26.05170
#
# Poissons Ratio (x) = 0.28417 0.09002
# Poissons Ratio (y) = 0.32304 0.26169
# Poissons Ratio (z) = 0.31087 0.79493
#
# Static dielectric constant tensor:
#      x y z
#    x 3.600270 0.000000 0.000000 
#    y 0.000000 3.462200 0.000000 
#    z 0.000000 0.000000 3.223080 
# 
# 
# High freq. dielectric constant tensor:
#      x y z
#    x 1.728810 0.000000 0.000000 
#    y 0.000000 1.730940 0.000000 
#    z 0.000000 0.000000 1.702650 
# 
# From -- ./inp_files/9227.got.cif
#   From: 2010.06.25/outbox.cif.g09.slc.cpg/sg58_5_cif.got.tgz:9227.got - 2010.06.26 21:38:00.
