data_PCOD8237174
_publ_section_title
;
Structure prediction by ZEFSAII (Michael W. Deem and Ramdas Pophale) SiO2 
 PCOD8237174
Probable space group: P N N M
;
_chemical_formula_sum "Si O2"
_cell_formula_units_Z 32
_cell_length_a 18.863318
_cell_length_b 9.785387
_cell_length_c 7.894601
_cell_angle_alpha 90.000000
_cell_angle_beta 90.000000
_cell_angle_gamma 90.000000
_cell_volume 1457.223874
_symmetry_space_group_name_H-M "P N N M"
_symmetry_group_IT_number 58
_symmetry_cell_setting 'orthorhombic'
loop_
_space_group_symop_operation_xyz
x,y,z
-x,-y,z
1/2+x,1/2-y,1/2-z
1/2-x,1/2+y,1/2-z
-x,-y,-z
x,y,-z
1/2-x,1/2+y,1/2+z
1/2+x,1/2-y,1/2+z
loop_
_atom_site_type_symbol
_atom_site_label
_atom_site_fract_x
_atom_site_fract_y
_atom_site_fract_z
Si Si1 0.524807 0.656873 0.000000
Si Si2 0.431326 0.907624 0.000000
Si Si3 0.923328 0.066406 0.818931
Si Si4 0.699959 0.378309 0.197556
Si Si5 0.673917 0.084032 0.693608
O O1 0.500000 0.500000 0.000000
O O2 0.455652 0.750220 0.000000
O O3 0.573960 0.679470 0.832265
O O4 0.388953 0.936579 0.827811
O O5 0.500000 0.000000 0.000000
O O6 0.867756 0.947576 0.782394
O O7 0.904101 0.136894 0.000000
O O8 0.000000 0.000000 0.834551
O O9 0.711594 0.230544 0.281768
O O10 0.769011 0.467746 0.232691
O O11 0.685093 0.358233 0.000000
O O12 0.645578 0.071812 0.500000
#
# Coordination Sequence:
#
# PCOD8237174 Si02
#       5
#     4   4   8   8   8
#     4  10  20  38  64  94 130 173 233 274 320 409
#     4  12  28  48  70 100 147 185 226 290 359 413
#     4  10  20  34  61  98 132 171 221 282 338 390
#     4  11  23  43  70 102 143 179 235 288 345 421
#     4  11  26  45  70 103 138 187 231 286 349 415
#
# _framework density 21.959562999999999
#
# number of rings (size 3 to 8) (size 9 to 14) (size 15 to 20)
#    0.000    1.250    2.500    3.750    3.500    5.500 
#    0.000    2.500    0.000    0.000    0.000    0.000 
#    0.000    0.000    0.000    0.000    0.000    0.000 
#
# Total GULP energy -396676.593397 kJ/mol
# GULP energy per Si atom -12396.143544 kJ/mol
# Density = 2.190958 g / cm^3
# Si number density = 21.959563 Si / 1000 Ang^3
#
#
#
# Elastic Constant Matrix: (Units=GPa)
#
#
# Indices 1 2 3 4 5 6 
#
# 1 104.5853 67.8927 64.3212 0.0000 0.0000 0.0000
# 2 67.8927 80.1580 48.4979 0.0000 0.0000 0.0000
# 3 64.3212 48.4979 202.0306 0.0000 0.0000 0.0000
# 4 0.0000 0.0000 0.0000 -237.2549 0.0000 0.0000
# 5 0.0000 0.0000 0.0000 0.0000 51.8101 0.0000
# 6 0.0000 0.0000 0.0000 0.0000 0.0000 33.7024
#
#
#
# Elastic Compliance Matrix: (Units=1/GPa)
#
#
# Indices 1 2 3 4 5 6 
#
# 1 0.022752 -0.017418 -0.003062 0.000000 0.000000 0.000000
# 2 -0.017418 0.027929 -0.001159 0.000000 0.000000 0.000000
# 3 -0.003062 -0.001159 0.006203 0.000000 0.000000 0.000000
# 4 0.000000 0.000000 0.000000 -0.004215 0.000000 0.000000
# 5 0.000000 0.000000 0.000000 0.000000 0.019301 0.000000
# 6 0.000000 0.000000 0.000000 0.000000 0.000000 0.029671
#
#
# Mechanical properties :
#
#
# Convention : Reuss Voigt Hill
#
# Bulk Modulus (GPa) = 73.49929 83.13306 78.31617
# Shear Modulus (GPa) = 33.45474 -16.61101 8.42187
#
# Velocity S-wave (km/s) = 3.90740 -2.75332 1.96048
# Velocity P-wave (km/s) = 7.34166 5.27559 6.39264
#
# Compressibility (1/GPa) = 0.01360557
#
# Stress axis : x y z
#
# Youngs Moduli (GPa) = 43.95241 35.80481 161.21223
#
# Poissons Ratio (x) = 0.62364 0.49370
# Poissons Ratio (y) = 0.76555 0.18687
# Poissons Ratio (z) = 0.13460 0.04150
#
# Static dielectric constant tensor:
#      x y z
#    x 3.876830 0.000000 0.000000 
#    y 0.000000 3.809500 0.000000 
#    z 0.000000 0.000000 7.087780 
# 
# 
# High freq. dielectric constant tensor:
#      x y z
#    x 1.859300 0.000000 0.000000 
#    y 0.000000 1.839420 0.000000 
#    z 0.000000 0.000000 1.897800 
# 
# From -- ./inp_files/5075.got.cif
#   From: 2010.06.25/outbox.cif.g09.slc.cpg/sg58_3_cif.got.tgz:5075.got - 2010.06.26 21:38:00.
