data_PCOD8237911
_publ_section_title
;
Structure prediction by ZEFSAII (Michael W. Deem and Ramdas Pophale) SiO2 
 PCOD8237911
Probable space group: P N N M
;
_chemical_formula_sum "Si O2"
_cell_formula_units_Z 56
_cell_length_a 16.545351
_cell_length_b 19.668508
_cell_length_c 9.521875
_cell_angle_alpha 90.000000
_cell_angle_beta 90.000000
_cell_angle_gamma 90.000000
_cell_volume 3098.631115
_symmetry_space_group_name_H-M "P N N M"
_symmetry_group_IT_number 58
_symmetry_cell_setting 'orthorhombic'
loop_
_space_group_symop_operation_xyz
x,y,z
-x,-y,z
1/2+x,1/2-y,1/2-z
1/2-x,1/2+y,1/2-z
-x,-y,-z
x,y,-z
1/2-x,1/2+y,1/2+z
1/2+x,1/2-y,1/2+z
loop_
_atom_site_type_symbol
_atom_site_label
_atom_site_fract_x
_atom_site_fract_y
_atom_site_fract_z
Si Si1 0.067432 0.448915 0.833735
Si Si2 0.754905 0.516743 0.833764
Si Si3 0.308469 0.609769 0.662334
Si Si4 0.516573 0.338297 0.336692
Si Si5 0.864399 0.136808 0.337055
Si Si6 0.668041 0.789423 0.160605
Si Si7 0.982294 0.314404 0.836484
O O1 0.155390 0.468350 0.774489
O O2 0.000000 0.500000 0.771316
O O3 0.045801 0.371960 0.788826
O O4 0.069956 0.455384 0.000000
O O5 0.721102 0.450529 0.759515
O O6 0.699915 0.580552 0.791476
O O7 0.754749 0.504421 0.000000
O O8 0.304049 0.587252 0.500000
O O9 0.399176 0.628245 0.706995
O O10 0.254421 0.676528 0.689099
O O11 0.497672 0.348947 0.500000
O O12 0.446323 0.375212 0.249734
O O13 0.520802 0.258354 0.299289
O O14 0.886934 0.130871 0.500000
O O15 0.825111 0.209822 0.300872
O O16 0.601374 0.826361 0.255514
O O17 0.640864 0.798683 0.000000
O O18 0.961642 0.321425 0.000000
#
# Coordination Sequence:
#
# PCOD8237911 Si02
#       7
#     8   8   8   8   8   8   8
#     4   9  17  29  49  77 105 130 162 208 256 302
#     4  10  21  35  53  77 104 136 173 213 259 306
#     4  10  21  35  52  75 104 138 173 209 256 310
#     4   9  19  34  53  76 100 133 174 214 255 302
#     4   9  19  35  54  76 102 134 171 214 260 305
#     4   9  18  33  53  75 104 136 168 208 257 309
#     4   9  17  31  53  77 101 130 170 214 254 302
#
# _framework density 18.072496000000001
#
# number of rings (size 3 to 8) (size 9 to 14) (size 15 to 20)
#    0.000    2.714    0.000    0.857    2.000    3.429 
#    0.000    3.571    0.000    2.571    0.000    0.000 
#    0.000    0.000    0.000    0.000    0.000    0.000 
#
# Total GULP energy -694466.773445 kJ/mol
# GULP energy per Si atom -12401.192383 kJ/mol
# Density = 1.803136 g / cm^3
# Si number density = 18.072496 Si / 1000 Ang^3
#
#
#
# Elastic Constant Matrix: (Units=GPa)
#
#
# Indices 1 2 3 4 5 6 
#
# 1 166.3695 71.3597 46.9277 0.0000 0.0000 0.0000
# 2 71.3597 78.7558 27.4401 0.0000 0.0000 0.0000
# 3 46.9277 27.4401 35.7015 0.0000 0.0000 0.0000
# 4 0.0000 0.0000 0.0000 27.4618 0.0000 0.0000
# 5 0.0000 0.0000 0.0000 0.0000 25.9474 0.0000
# 6 0.0000 0.0000 0.0000 0.0000 0.0000 34.7296
#
#
#
# Elastic Compliance Matrix: (Units=1/GPa)
#
#
# Indices 1 2 3 4 5 6 
#
# 1 0.012036 -0.007366 -0.010159 0.000000 0.000000 0.000000
# 2 -0.007366 0.021849 -0.007111 0.000000 0.000000 0.000000
# 3 -0.010159 -0.007111 0.046829 0.000000 0.000000 0.000000
# 4 0.000000 0.000000 0.000000 0.036414 0.000000 0.000000
# 5 0.000000 0.000000 0.000000 0.000000 0.038539 0.000000
# 6 0.000000 0.000000 0.000000 0.000000 0.000000 0.028794
#
#
# Mechanical properties :
#
#
# Convention : Reuss Voigt Hill
#
# Bulk Modulus (GPa) = 31.80461 63.58686 47.69574
# Shear Modulus (GPa) = 20.47385 26.63439 23.55412
#
# Velocity S-wave (km/s) = 3.36947 3.84311 3.61406
# Velocity P-wave (km/s) = 5.72489 7.41306 6.62298
#
# Compressibility (1/GPa) = 0.03144198
#
# Stress axis : x y z
#
# Youngs Moduli (GPa) = 83.08734 45.76825 21.35423
#
# Poissons Ratio (x) = 0.33712 0.21693
# Poissons Ratio (y) = 0.61200 0.15186
# Poissons Ratio (z) = 0.84407 0.32548
#
# Static dielectric constant tensor:
#      x y z
#    x 3.485080 0.000000 0.000000 
#    y 0.000000 3.425100 0.000000 
#    z 0.000000 0.000000 3.188360 
# 
# 
# High freq. dielectric constant tensor:
#      x y z
#    x 1.705290 0.000000 0.000000 
#    y 0.000000 1.706230 0.000000 
#    z 0.000000 0.000000 1.677530 
# 
# From -- ./inp_files/6325.got.cif
#   From: 2010.06.25/outbox.cif.g09.slc.cpg/sg58_4_cif.got.tgz:6325.got - 2010.06.26 21:38:00.
