data_PCOD8237968
_publ_section_title
;
Structure prediction by ZEFSAII (Michael W. Deem and Ramdas Pophale) SiO2 
 PCOD8237968
Probable space group: P N N M
;
_chemical_formula_sum "Si O2"
_cell_formula_units_Z 64
_cell_length_a 22.310965
_cell_length_b 16.031675
_cell_length_c 9.002800
_cell_angle_alpha 90.000000
_cell_angle_beta 90.000000
_cell_angle_gamma 90.000000
_cell_volume 3220.140768
_symmetry_space_group_name_H-M "P N N M"
_symmetry_group_IT_number 58
_symmetry_cell_setting 'orthorhombic'
loop_
_space_group_symop_operation_xyz
x,y,z
-x,-y,z
1/2+x,1/2-y,1/2-z
1/2-x,1/2+y,1/2-z
-x,-y,-z
x,y,-z
1/2-x,1/2+y,1/2+z
1/2+x,1/2-y,1/2+z
loop_
_atom_site_type_symbol
_atom_site_label
_atom_site_fract_x
_atom_site_fract_y
_atom_site_fract_z
Si Si1 0.792021 0.904350 0.174486
Si Si2 0.957231 0.426339 0.174963
Si Si3 0.277096 0.867945 0.663411
Si Si4 0.654931 0.559996 0.169028
Si Si5 0.534433 0.585460 0.327875
Si Si6 0.852660 0.755952 0.672397
Si Si7 0.176519 0.554254 0.830240
Si Si8 0.027165 0.261052 0.172099
O O1 0.838541 0.837205 0.233564
O O2 0.725496 0.891049 0.241715
O O3 0.822385 0.990351 0.218825
O O4 0.786544 0.897810 0.000000
O O5 0.889767 0.434502 0.240047
O O6 0.000000 0.500000 0.241498
O O7 0.979911 0.333404 0.214832
O O8 0.953461 0.440385 0.000000
O O9 0.295895 0.833192 0.500000
O O10 0.204895 0.867470 0.673873
O O11 0.301707 0.812023 0.795889
O O12 0.304385 0.959013 0.683291
O O13 0.592302 0.595712 0.225245
O O14 0.648868 0.525658 0.000000
O O15 0.500000 0.500000 0.284542
O O16 0.553414 0.582642 0.500000
O O17 0.495715 0.667712 0.293571
O O18 0.854178 0.777723 0.500000
O O19 0.915993 0.720118 0.725779
O O20 0.178063 0.585312 0.000000
O O21 0.045190 0.269598 0.000000
#
# Coordination Sequence:
#
# PCOD8237968 Si02
#       8
#     8   8   8   8   8   8   8   8
#     4  11  22  37  58  82 112 148 185 230 285 342
#     4   9  17  32  57  85 113 148 187 229 278 334
#     4   9  19  36  57  81 111 146 182 225 280 338
#     4  10  21  38  60  85 113 146 187 233 282 337
#     4  10  21  36  55  81 115 155 193 231 281 341
#     4  12  24  37  56  82 111 144 188 237 283 331
#     4   9  18  35  58  84 113 144 184 230 277 335
#     4  10  21  37  57  82 112 149 192 233 282 346
#
# _framework density 19.874907
#
# number of rings (size 3 to 8) (size 9 to 14) (size 15 to 20)
#    0.000    2.000    0.000    4.875    0.000    7.250 
#    0.000    1.875    0.000    1.500    0.000    0.000 
#    0.000    0.000    0.000    0.000    0.000    0.000 
#
# Total GULP energy -793553.136276 kJ/mol
# GULP energy per Si atom -12399.267754 kJ/mol
# Density = 1.982967 g / cm^3
# Si number density = 19.874907 Si / 1000 Ang^3
#
#
#
# Elastic Constant Matrix: (Units=GPa)
#
#
# Indices 1 2 3 4 5 6 
#
# 1 111.7205 23.1398 43.7940 0.0000 0.0000 0.0000
# 2 23.1398 74.3646 22.9856 0.0000 0.0000 0.0000
# 3 43.7940 22.9856 97.5027 0.0000 0.0000 0.0000
# 4 0.0000 0.0000 0.0000 21.5424 0.0000 0.0000
# 5 0.0000 0.0000 0.0000 0.0000 31.9669 0.0000
# 6 0.0000 0.0000 0.0000 0.0000 0.0000 24.2798
#
#
#
# Elastic Compliance Matrix: (Units=1/GPa)
#
#
# Indices 1 2 3 4 5 6 
#
# 1 0.011152 -0.002073 -0.004520 0.000000 0.000000 0.000000
# 2 -0.002073 0.014889 -0.002579 0.000000 0.000000 0.000000
# 3 -0.004520 -0.002579 0.012894 0.000000 0.000000 0.000000
# 4 0.000000 0.000000 0.000000 0.046420 0.000000 0.000000
# 5 0.000000 0.000000 0.000000 0.000000 0.031282 0.000000
# 6 0.000000 0.000000 0.000000 0.000000 0.000000 0.041186
#
#
# Mechanical properties :
#
#
# Convention : Reuss Voigt Hill
#
# Bulk Modulus (GPa) = 48.56396 51.49185 50.02791
# Shear Modulus (GPa) = 27.31737 28.46905 27.89321
#
# Velocity S-wave (km/s) = 3.71140 3.78883 3.75031
# Velocity P-wave (km/s) = 6.54628 6.71599 6.63168
#
# Compressibility (1/GPa) = 0.02059140
#
# Stress axis : x y z
#
# Youngs Moduli (GPa) = 89.66789 67.16162 77.55249
#
# Poissons Ratio (x) = 0.13922 0.35057
# Poissons Ratio (y) = 0.18588 0.20001
# Poissons Ratio (z) = 0.40534 0.17321
#
# Static dielectric constant tensor:
#      x y z
#    x 3.850720 0.000000 0.000000 
#    y 0.000000 3.589960 0.000000 
#    z 0.000000 0.000000 3.473640 
# 
# 
# High freq. dielectric constant tensor:
#      x y z
#    x 1.787790 0.000000 0.000000 
#    y 0.000000 1.768540 0.000000 
#    z 0.000000 0.000000 1.755790 
# 
# From -- ./inp_files/9950.got.cif
#   From: 2010.06.25/outbox.cif.g09.slc.cpg/sg58_5_cif.got.tgz:9950.got - 2010.06.26 21:38:00.
