data_PCOD8237517
_publ_section_title
;
Structure prediction by ZEFSAII (Michael W. Deem and Ramdas Pophale) SiO2 
 PCOD8237517
Probable space group: P N N M
;
_chemical_formula_sum "Si O2"
_cell_formula_units_Z 48
_cell_length_a 19.238578
_cell_length_b 8.989641
_cell_length_c 13.435835
_cell_angle_alpha 90.000000
_cell_angle_beta 90.000000
_cell_angle_gamma 90.000000
_cell_volume 2323.699577
_symmetry_space_group_name_H-M "P N N M"
_symmetry_group_IT_number 58
_symmetry_cell_setting 'orthorhombic'
loop_
_space_group_symop_operation_xyz
x,y,z
-x,-y,z
1/2+x,1/2-y,1/2-z
1/2-x,1/2+y,1/2-z
-x,-y,-z
x,y,-z
1/2-x,1/2+y,1/2+z
1/2+x,1/2-y,1/2+z
loop_
_atom_site_type_symbol
_atom_site_label
_atom_site_fract_x
_atom_site_fract_y
_atom_site_fract_z
Si Si1 0.531063 0.339968 0.267119
Si Si2 0.660296 0.450075 0.384369
Si Si3 0.815711 0.072146 0.612070
Si Si4 0.384246 0.264975 0.282043
Si Si5 0.130789 0.259219 0.611536
Si Si6 0.289283 0.998817 0.763328
O O1 0.500000 0.500000 0.239159
O O2 0.593861 0.354552 0.346712
O O3 0.466133 0.241887 0.306896
O O4 0.558290 0.257231 0.169152
O O5 0.671617 0.417805 0.500000
O O6 0.648110 0.626285 0.365696
O O7 0.729613 0.406609 0.322209
O O8 0.810591 0.135454 0.500000
O O9 0.875819 0.159057 0.672373
O O10 0.743049 0.093691 0.670858
O O11 0.829653 0.896942 0.612953
O O12 0.346866 0.106820 0.283438
O O13 0.113358 0.309814 0.500000
O O14 0.178406 0.384474 0.659570
#
# Coordination Sequence:
#
# PCOD8237517 Si02
#       6
#     8   8   8   8   8   8
#     4  10  20  40  61  88 119 162 206 255 297 362
#     4  10  21  38  65  92 121 164 213 257 308 371
#     4  10  20  36  61  85 113 156 203 247 296 361
#     4  10  22  38  60  88 123 154 206 253 303 361
#     4  11  22  38  61  87 121 160 202 249 308 368
#     4  11  22  38  56  90 128 155 195 256 314 362
#
# _framework density 20.656714000000001
#
# number of rings (size 3 to 8) (size 9 to 14) (size 15 to 20)
#    0.000    1.667    5.000    2.500    0.000    8.000 
#    0.000    0.833    0.000    0.000    0.000    7.000 
#    0.000    0.000    0.000    0.000    0.000    0.000 
#
# Total GULP energy -595038.608152 kJ/mol
# GULP energy per Si atom -12396.637670 kJ/mol
# Density = 2.060970 g / cm^3
# Si number density = 20.656714 Si / 1000 Ang^3
#
#
#
# Elastic Constant Matrix: (Units=GPa)
#
#
# Indices 1 2 3 4 5 6 
#
# 1 110.2617 7.6600 12.4093 0.0000 0.0000 0.0000
# 2 7.6600 26.9950 -7.3954 0.0000 0.0000 0.0000
# 3 12.4093 -7.3954 95.7221 0.0000 0.0000 0.0000
# 4 0.0000 0.0000 0.0000 20.8479 0.0000 0.0000
# 5 0.0000 0.0000 0.0000 0.0000 17.0502 0.0000
# 6 0.0000 0.0000 0.0000 0.0000 0.0000 26.3982
#
#
#
# Elastic Compliance Matrix: (Units=1/GPa)
#
#
# Indices 1 2 3 4 5 6 
#
# 1 0.009448 -0.003082 -0.001463 0.000000 0.000000 0.000000
# 2 -0.003082 0.038850 0.003401 0.000000 0.000000 0.000000
# 3 -0.001463 0.003401 0.010899 0.000000 0.000000 0.000000
# 4 0.000000 0.000000 0.000000 0.047966 0.000000 0.000000
# 5 0.000000 0.000000 0.000000 0.000000 0.058650 0.000000
# 6 0.000000 0.000000 0.000000 0.000000 0.000000 0.037881
#
#
# Mechanical properties :
#
#
# Convention : Reuss Voigt Hill
#
# Bulk Modulus (GPa) = 17.57156 28.70295 23.13726
# Shear Modulus (GPa) = 22.22688 27.54626 24.88657
#
# Velocity S-wave (km/s) = 3.28382 3.65571 3.47474
# Velocity P-wave (km/s) = 4.78570 5.63421 5.22720
#
# Compressibility (1/GPa) = 0.05691015
#
# Stress axis : x y z
#
# Youngs Moduli (GPa) = 105.84176 25.74002 91.74892
#
# Poissons Ratio (x) = 0.07932 0.13422
# Poissons Ratio (y) = 0.32617 -0.31204
# Poissons Ratio (z) = 0.15484 -0.08754
#
# Static dielectric constant tensor:
#      x y z
#    x 4.118580 0.000000 0.000000 
#    y 0.000000 3.457760 0.000000 
#    z 0.000000 0.000000 3.797530 
# 
# 
# High freq. dielectric constant tensor:
#      x y z
#    x 1.812750 0.000000 0.000000 
#    y 0.000000 1.785470 0.000000 
#    z 0.000000 0.000000 1.796550 
# 
# From -- ./inp_files/23151.got.cif
#   From: 2010.06.25/outbox.cif.g09.slc.cpg/sg58_12_cif.got.tgz:23151.got - 2010.06.26 21:38:00.
