data_PCOD8237378
_publ_section_title
;
Structure prediction by ZEFSAII (Michael W. Deem and Ramdas Pophale) SiO2 
 PCOD8237378
Probable space group: P N N M
;
_chemical_formula_sum "Si O2"
_cell_formula_units_Z 56
_cell_length_a 21.357130
_cell_length_b 14.839851
_cell_length_c 9.289508
_cell_angle_alpha 90.000000
_cell_angle_beta 90.000000
_cell_angle_gamma 90.000000
_cell_volume 2944.185332
_symmetry_space_group_name_H-M "P N N M"
_symmetry_group_IT_number 58
_symmetry_cell_setting 'orthorhombic'
loop_
_space_group_symop_operation_xyz
x,y,z
-x,-y,z
1/2+x,1/2-y,1/2-z
1/2-x,1/2+y,1/2-z
-x,-y,-z
x,y,-z
1/2-x,1/2+y,1/2+z
1/2+x,1/2-y,1/2+z
loop_
_atom_site_type_symbol
_atom_site_label
_atom_site_fract_x
_atom_site_fract_y
_atom_site_fract_z
Si Si1 0.055868 0.068834 0.840667
Si Si2 0.031865 0.245120 0.670084
Si Si3 0.138301 0.942496 0.663717
Si Si4 0.753598 0.531107 0.663854
Si Si5 0.397494 0.244410 0.836825
Si Si6 0.733365 0.822042 0.829500
Si Si7 0.832629 0.698189 0.334938
O O1 0.032503 0.151070 0.749112
O O2 0.113823 0.023964 0.760182
O O3 0.078287 0.098968 0.000000
O O4 0.000000 0.000000 0.854227
O O5 0.028414 0.227415 0.500000
O O6 0.094304 0.299539 0.713705
O O7 0.965513 0.292822 0.719380
O O8 0.142176 0.975905 0.500000
O O9 0.206652 0.921069 0.725357
O O10 0.097253 0.852602 0.676671
O O11 0.728552 0.537447 0.500000
O O12 0.764290 0.427766 0.707208
O O13 0.815303 0.592855 0.682201
O O14 0.334019 0.208728 0.760721
O O15 0.389386 0.212721 0.000000
O O16 0.790321 0.767485 0.756751
O O17 0.737548 0.802927 0.000000
O O18 0.825781 0.729841 0.500000
#
# Coordination Sequence:
#
# PCOD8237378 Si02
#       7
#     8   8   8   8   8   8   8
#     4  11  22  33  48  76 111 141 173 217 275 332
#     4  10  20  36  55  76 108 145 184 225 269 326
#     4  11  20  33  55  78 104 141 183 223 268 322
#     4  10  21  36  55  81 113 141 177 230 282 324
#     4   9  18  33  54  78 102 137 182 223 260 314
#     4  10  20  37  58  79 107 146 186 224 270 328
#     4  10  21  36  55  82 112 142 177 227 281 326
#
# _framework density 19.02054
#
# number of rings (size 3 to 8) (size 9 to 14) (size 15 to 20)
#    0.000    1.857    2.857    1.714    0.000    4.000 
#    0.000    1.429    0.000    4.286    0.000    0.000 
#    0.000    4.571    0.000    0.000    0.000    0.000 
#
# Total GULP energy -693896.267661 kJ/mol
# GULP energy per Si atom -12391.004780 kJ/mol
# Density = 1.897725 g / cm^3
# Si number density = 19.020540 Si / 1000 Ang^3
#
#
#
# Elastic Constant Matrix: (Units=GPa)
#
#
# Indices 1 2 3 4 5 6 
#
# 1 151.3888 27.2828 37.2313 0.0000 0.0000 0.0000
# 2 27.2828 59.5112 16.3951 0.0000 0.0000 0.0000
# 3 37.2313 16.3951 39.6587 0.0000 0.0000 0.0000
# 4 0.0000 0.0000 0.0000 18.7634 0.0000 0.0000
# 5 0.0000 0.0000 0.0000 0.0000 47.5388 0.0000
# 6 0.0000 0.0000 0.0000 0.0000 0.0000 29.1337
#
#
#
# Elastic Compliance Matrix: (Units=1/GPa)
#
#
# Indices 1 2 3 4 5 6 
#
# 1 0.008791 -0.001982 -0.007433 0.000000 0.000000 0.000000
# 2 -0.001982 0.019410 -0.006163 0.000000 0.000000 0.000000
# 3 -0.007433 -0.006163 0.034741 0.000000 0.000000 0.000000
# 4 0.000000 0.000000 0.000000 0.053295 0.000000 0.000000
# 5 0.000000 0.000000 0.000000 0.000000 0.021035 0.000000
# 6 0.000000 0.000000 0.000000 0.000000 0.000000 0.034324
#
#
# Mechanical properties :
#
#
# Convention : Reuss Voigt Hill
#
# Bulk Modulus (GPa) = 31.46167 45.81969 38.64068
# Shear Modulus (GPa) = 23.43563 30.39715 26.91639
#
# Velocity S-wave (km/s) = 3.51397 4.00199 3.76589
# Velocity P-wave (km/s) = 5.74811 6.74510 6.26647
#
# Compressibility (1/GPa) = 0.03178470
#
# Stress axis : x y z
#
# Youngs Moduli (GPa) = 113.75487 51.51902 28.78412
#
# Poissons Ratio (x) = 0.10213 0.21396
# Poissons Ratio (y) = 0.22550 0.17741
# Poissons Ratio (z) = 0.84557 0.31753
#
# Static dielectric constant tensor:
#      x y z
#    x 3.871190 0.000000 0.000000 
#    y 0.000000 3.325800 0.000000 
#    z 0.000000 0.000000 3.440550 
# 
# 
# High freq. dielectric constant tensor:
#      x y z
#    x 1.756030 0.000000 0.000000 
#    y 0.000000 1.716340 0.000000 
#    z 0.000000 0.000000 1.722990 
# 
# From -- ./inp_files/6287.got.cif
#   From: 2010.06.25/outbox.cif.g09.slc.cpg/sg58_4_cif.got.tgz:6287.got - 2010.06.26 21:38:00.
