data_PCOD8237581
_publ_section_title
;
Structure prediction by ZEFSAII (Michael W. Deem and Ramdas Pophale) SiO2 
 PCOD8237581
Probable space group: P N N M
;
_chemical_formula_sum "Si O2"
_cell_formula_units_Z 64
_cell_length_a 19.206333
_cell_length_b 19.352388
_cell_length_c 8.675753
_cell_angle_alpha 90.000000
_cell_angle_beta 90.000000
_cell_angle_gamma 90.000000
_cell_volume 3224.676823
_symmetry_space_group_name_H-M "P N N M"
_symmetry_group_IT_number 58
_symmetry_cell_setting 'orthorhombic'
loop_
_space_group_symop_operation_xyz
x,y,z
-x,-y,z
1/2+x,1/2-y,1/2-z
1/2-x,1/2+y,1/2-z
-x,-y,-z
x,y,-z
1/2-x,1/2+y,1/2+z
1/2+x,1/2-y,1/2+z
loop_
_atom_site_type_symbol
_atom_site_label
_atom_site_fract_x
_atom_site_fract_y
_atom_site_fract_z
Si Si1 0.302576 0.706858 0.319634
Si Si2 0.901085 0.902111 0.324307
Si Si3 0.876974 0.663733 0.683705
Si Si4 0.351301 0.461606 0.677105
Si Si5 0.691906 0.026217 0.820700
Si Si6 0.945948 0.144663 0.322216
Si Si7 0.970604 0.298701 0.683054
Si Si8 0.666733 0.873765 0.815996
O O1 0.298520 0.720938 0.500000
O O2 0.361540 0.650086 0.287702
O O3 0.321913 0.778737 0.238636
O O4 0.228641 0.676853 0.257263
O O5 0.881299 0.883417 0.500000
O O6 0.983112 0.896967 0.298937
O O7 0.881725 0.980295 0.288152
O O8 0.875768 0.665310 0.500000
O O9 0.855243 0.588098 0.748103
O O10 0.954621 0.677426 0.749264
O O11 0.364917 0.482096 0.500000
O O12 0.270565 0.452477 0.711892
O O13 0.386786 0.389204 0.717541
O O14 0.676098 0.951071 0.746102
O O15 0.675737 0.019890 0.000000
O O16 0.921961 0.144671 0.500000
O O17 0.955867 0.221736 0.258864
O O18 0.974120 0.300480 0.500000
O O19 0.908087 0.347092 0.743673
O O20 0.670451 0.875719 0.000000
#
# Coordination Sequence:
#
# PCOD8237581 Si02
#       8
#     8   8   8   8   8   8   8   8
#     4  11  21  35  58  84 114 148 182 226 280 332
#     4  11  21  37  59  81 111 150 187 228 276 332
#     4  10  20  37  59  83 112 146 186 229 276 327
#     4  11  22  36  53  82 118 150 185 229 278 331
#     4   9  19  35  55  82 116 146 180 231 278 326
#     4  10  21  36  53  80 114 147 187 232 275 327
#     4   9  18  34  56  82 111 144 185 233 277 325
#     4   9  18  34  56  83 113 142 181 232 281 324
#
# _framework density 19.84695
#
# number of rings (size 3 to 8) (size 9 to 14) (size 15 to 20)
#    0.000    2.000    2.500    1.500    1.750    3.000 
#    0.000    3.125    0.000    1.500    0.000    0.875 
#    0.000    0.000    0.000    0.000    0.000    0.000 
#
# Total GULP energy -793602.598664 kJ/mol
# GULP energy per Si atom -12400.040604 kJ/mol
# Density = 1.980178 g / cm^3
# Si number density = 19.846950 Si / 1000 Ang^3
#
#
#
# Elastic Constant Matrix: (Units=GPa)
#
#
# Indices 1 2 3 4 5 6 
#
# 1 100.9453 62.2126 26.6791 0.0000 0.0000 0.0000
# 2 62.2126 110.5128 19.8995 0.0000 0.0000 0.0000
# 3 26.6791 19.8995 22.5214 0.0000 0.0000 0.0000
# 4 0.0000 0.0000 0.0000 23.4778 0.0000 0.0000
# 5 0.0000 0.0000 0.0000 0.0000 19.8779 0.0000
# 6 0.0000 0.0000 0.0000 0.0000 0.0000 12.8994
#
#
#
# Elastic Compliance Matrix: (Units=1/GPa)
#
#
# Indices 1 2 3 4 5 6 
#
# 1 0.018771 -0.007805 -0.015340 0.000000 0.000000 0.000000
# 2 -0.007805 0.014006 -0.003130 0.000000 0.000000 0.000000
# 3 -0.015340 -0.003130 0.065339 0.000000 0.000000 0.000000
# 4 0.000000 0.000000 0.000000 0.042594 0.000000 0.000000
# 5 0.000000 0.000000 0.000000 0.000000 0.050307 0.000000
# 6 0.000000 0.000000 0.000000 0.000000 0.000000 0.077523
#
#
# Mechanical properties :
#
#
# Convention : Reuss Voigt Hill
#
# Bulk Modulus (GPa) = 21.94563 50.17352 36.05958
# Shear Modulus (GPa) = 14.86870 19.59690 17.23280
#
# Velocity S-wave (km/s) = 2.74006 3.14570 2.94986
# Velocity P-wave (km/s) = 4.59261 6.20718 5.45990
#
# Compressibility (1/GPa) = 0.04556716
#
# Stress axis : x y z
#
# Youngs Moduli (GPa) = 53.27505 71.39857 15.30475
#
# Poissons Ratio (x) = 0.55724 0.23477
# Poissons Ratio (y) = 0.41579 0.04790
# Poissons Ratio (z) = 0.81722 0.22347
#
# Static dielectric constant tensor:
#      x y z
#    x 3.773450 0.000000 0.000000 
#    y 0.000000 3.856860 0.000000 
#    z 0.000000 0.000000 3.217830 
# 
# 
# High freq. dielectric constant tensor:
#      x y z
#    x 1.781330 0.000000 0.000000 
#    y 0.000000 1.785690 0.000000 
#    z 0.000000 0.000000 1.729740 
# 
# From -- ./inp_files/8315.got.cif
#   From: 2010.06.25/outbox.cif.g09.slc.cpg/sg58_5_cif.got.tgz:8315.got - 2010.06.26 21:38:00.
