data_PCOD8237604
_publ_section_title
;
Structure prediction by ZEFSAII (Michael W. Deem and Ramdas Pophale) SiO2 
 PCOD8237604
Probable space group: P N N M
;
_chemical_formula_sum "Si O2"
_cell_formula_units_Z 56
_cell_length_a 20.522334
_cell_length_b 12.436540
_cell_length_c 10.995795
_cell_angle_alpha 90.000000
_cell_angle_beta 90.000000
_cell_angle_gamma 90.000000
_cell_volume 2806.421876
_symmetry_space_group_name_H-M "P N N M"
_symmetry_group_IT_number 58
_symmetry_cell_setting 'orthorhombic'
loop_
_space_group_symop_operation_xyz
x,y,z
-x,-y,z
1/2+x,1/2-y,1/2-z
1/2-x,1/2+y,1/2-z
-x,-y,-z
x,y,-z
1/2-x,1/2+y,1/2+z
1/2+x,1/2-y,1/2+z
loop_
_atom_site_type_symbol
_atom_site_label
_atom_site_fract_x
_atom_site_fract_y
_atom_site_fract_z
Si Si1 0.030215 0.892442 0.361467
Si Si2 0.071054 0.613421 0.864580
Si Si3 0.641587 0.084872 0.267451
Si Si4 0.233493 0.995251 0.134162
Si Si5 0.848519 0.190866 0.783208
Si Si6 0.276206 0.732452 0.638190
Si Si7 0.521452 0.165412 0.860954
O O1 0.045897 0.919970 0.500000
O O2 0.098564 0.859026 0.305865
O O3 0.978916 0.794552 0.348215
O O4 0.000000 0.000000 0.299044
O O5 0.108361 0.500130 0.857751
O O6 0.120585 0.713500 0.862058
O O7 0.022911 0.616367 0.747886
O O8 0.037185 0.616962 0.000000
O O9 0.707045 0.030540 0.221222
O O10 0.661054 0.193273 0.337870
O O11 0.593940 0.119844 0.157377
O O12 0.176544 0.906578 0.133635
O O13 0.203137 0.110469 0.171700
O O14 0.263296 0.001952 0.000000
O O15 0.787466 0.237458 0.712441
O O16 0.254981 0.744198 0.500000
O O17 0.498154 0.133979 0.000000
#
# Coordination Sequence:
#
# PCOD8237604 Si02
#       7
#     8   8   8   8   8   8   8
#     4   9  19  36  59  85 115 151 194 246 297 349
#     4  11  23  40  61  89 124 160 197 243 300 358
#     4  11  22  37  60  88 120 155 196 246 295 354
#     4  10  21  37  59  83 115 155 196 245 291 344
#     4  10  20  37  60  83 115 157 198 240 293 356
#     4  10  21  37  58  86 117 155 199 244 296 352
#     4  10  23  40  62  91 120 156 202 248 298 358
#
# _framework density 19.954234
#
# number of rings (size 3 to 8) (size 9 to 14) (size 15 to 20)
#    0.000    1.857    1.429    2.143    2.000    4.000 
#    0.000    0.000    0.000    2.143    0.000    0.000 
#    0.000    0.000    0.000    0.000    0.000    0.000 
#
# Total GULP energy -694008.445486 kJ/mol
# GULP energy per Si atom -12393.007955 kJ/mol
# Density = 1.990882 g / cm^3
# Si number density = 19.954234 Si / 1000 Ang^3
#
#
#
# Elastic Constant Matrix: (Units=GPa)
#
#
# Indices 1 2 3 4 5 6 
#
# 1 58.6814 43.6591 25.9709 0.0000 0.0000 0.0000
# 2 43.6591 146.1888 40.7258 0.0000 0.0000 0.0000
# 3 25.9709 40.7258 104.2442 0.0000 0.0000 0.0000
# 4 0.0000 0.0000 0.0000 24.8121 0.0000 0.0000
# 5 0.0000 0.0000 0.0000 0.0000 33.3762 0.0000
# 6 0.0000 0.0000 0.0000 0.0000 0.0000 29.7466
#
#
#
# Elastic Compliance Matrix: (Units=1/GPa)
#
#
# Indices 1 2 3 4 5 6 
#
# 1 0.022941 -0.005901 -0.003410 0.000000 0.000000 0.000000
# 2 -0.005901 0.009194 -0.002122 0.000000 0.000000 0.000000
# 3 -0.003410 -0.002122 0.011271 0.000000 0.000000 0.000000
# 4 0.000000 0.000000 0.000000 0.040303 0.000000 0.000000
# 5 0.000000 0.000000 0.000000 0.000000 0.029961 0.000000
# 6 0.000000 0.000000 0.000000 0.000000 0.000000 0.033617
#
#
# Mechanical properties :
#
#
# Convention : Reuss Voigt Hill
#
# Bulk Modulus (GPa) = 48.68449 58.86955 53.77702
# Shear Modulus (GPa) = 28.24855 30.83756 29.54306
#
# Velocity S-wave (km/s) = 3.76662 3.93544 3.85195
# Velocity P-wave (km/s) = 6.58541 7.08637 6.84047
#
# Compressibility (1/GPa) = 0.02054042
#
# Stress axis : x y z
#
# Youngs Moduli (GPa) = 43.59028 108.76723 88.72132
#
# Poissons Ratio (x) = 0.64187 0.30253
# Poissons Ratio (y) = 0.25724 0.18823
# Poissons Ratio (z) = 0.14864 0.23076
#
# Static dielectric constant tensor:
#      x y z
#    x 3.500240 0.000000 0.000000 
#    y 0.000000 4.123100 0.000000 
#    z 0.000000 0.000000 3.526900 
# 
# 
# High freq. dielectric constant tensor:
#      x y z
#    x 1.763730 0.000000 0.000000 
#    y 0.000000 1.803980 0.000000 
#    z 0.000000 0.000000 1.771270 
# 
# From -- ./inp_files/17030.got.cif
#   From: 2010.06.25/outbox.cif.g09.slc.cpg/sg58_9_cif.got.tgz:17030.got - 2010.06.26 21:38:00.
