data_PCOD8237234
_publ_section_title
;
Structure prediction by ZEFSAII (Michael W. Deem and Ramdas Pophale) SiO2 
 PCOD8237234
Probable space group: P N N M
;
_chemical_formula_sum "Si O2"
_cell_formula_units_Z 56
_cell_length_a 13.134770
_cell_length_b 15.542313
_cell_length_c 13.996549
_cell_angle_alpha 90.000000
_cell_angle_beta 90.000000
_cell_angle_gamma 90.000000
_cell_volume 2857.321388
_symmetry_space_group_name_H-M "P N N M"
_symmetry_group_IT_number 58
_symmetry_cell_setting 'orthorhombic'
loop_
_space_group_symop_operation_xyz
x,y,z
-x,-y,z
1/2+x,1/2-y,1/2-z
1/2-x,1/2+y,1/2-z
-x,-y,-z
x,y,-z
1/2-x,1/2+y,1/2+z
1/2+x,1/2-y,1/2+z
loop_
_atom_site_type_symbol
_atom_site_label
_atom_site_fract_x
_atom_site_fract_y
_atom_site_fract_z
Si Si1 0.377629 0.159569 0.809777
Si Si2 0.822968 0.853261 0.711842
Si Si3 0.389361 0.486200 0.111210
Si Si4 0.728672 0.679131 0.889303
Si Si5 0.680319 0.018806 0.107082
Si Si6 0.397689 0.552295 0.608035
Si Si7 0.606701 0.176668 0.769387
O O1 0.297322 0.156883 0.724331
O O2 0.345158 0.238435 0.878681
O O3 0.375482 0.071054 0.869275
O O4 0.485547 0.172087 0.758179
O O5 0.828568 0.927331 0.633208
O O6 0.880988 0.874040 0.812600
O O7 0.868721 0.764043 0.671292
O O8 0.500000 0.500000 0.159614
O O9 0.332262 0.403117 0.153460
O O10 0.401719 0.471281 0.000000
O O11 0.834958 0.686370 0.831913
O O12 0.757304 0.666827 0.000000
O O13 0.802141 0.012060 0.117522
O O14 0.644075 0.092912 0.176618
O O15 0.649225 0.044507 0.000000
O O16 0.500000 0.500000 0.629671
O O17 0.400378 0.592011 0.500000
#
# Coordination Sequence:
#
# PCOD8237234 Si02
#       7
#     8   8   8   8   8   8   8
#     4  10  21  37  57  80 109 144 185 231 281 336
#     4  10  21  35  54  78 110 142 176 224 273 329
#     4  10  20  35  56  80 107 142 183 226 270 321
#     4  10  21  38  60  85 112 146 191 235 281 343
#     4  10  21  36  55  81 112 146 187 235 282 332
#     4   9  18  34  58  83 106 137 178 228 286 337
#     4  11  23  36  55  83 113 147 188 232 280 333
#
# _framework density 19.598773999999999
#
# number of rings (size 3 to 8) (size 9 to 14) (size 15 to 20)
#    0.000    2.000    0.000    3.857    0.000    8.000 
#    0.000    0.714    0.000    4.286    0.000    0.000 
#    0.000    0.000    0.000    0.000    0.000    0.000 
#
# Total GULP energy -694174.729685 kJ/mol
# GULP energy per Si atom -12395.977316 kJ/mol
# Density = 1.955417 g / cm^3
# Si number density = 19.598774 Si / 1000 Ang^3
#
#
#
# Elastic Constant Matrix: (Units=GPa)
#
#
# Indices 1 2 3 4 5 6 
#
# 1 146.5821 48.3184 35.0873 0.0000 0.0000 0.0000
# 2 48.3184 142.5098 23.9926 0.0000 0.0000 0.0000
# 3 35.0873 23.9926 45.9768 0.0000 0.0000 0.0000
# 4 0.0000 0.0000 0.0000 17.8151 0.0000 0.0000
# 5 0.0000 0.0000 0.0000 0.0000 18.9869 0.0000
# 6 0.0000 0.0000 0.0000 0.0000 0.0000 24.9153
#
#
#
# Elastic Compliance Matrix: (Units=1/GPa)
#
#
# Indices 1 2 3 4 5 6 
#
# 1 0.008859 -0.002045 -0.005694 0.000000 0.000000 0.000000
# 2 -0.002045 0.008165 -0.002700 0.000000 0.000000 0.000000
# 3 -0.005694 -0.002700 0.027504 0.000000 0.000000 0.000000
# 4 0.000000 0.000000 0.000000 0.056132 0.000000 0.000000
# 5 0.000000 0.000000 0.000000 0.000000 0.052668 0.000000
# 6 0.000000 0.000000 0.000000 0.000000 0.000000 0.040136
#
#
# Mechanical properties :
#
#
# Convention : Reuss Voigt Hill
#
# Bulk Modulus (GPa) = 42.28210 61.09614 51.68912
# Shear Modulus (GPa) = 22.49961 27.52147 25.01054
#
# Velocity S-wave (km/s) = 3.39191 3.75139 3.57617
# Velocity P-wave (km/s) = 6.07953 7.07142 6.59416
#
# Compressibility (1/GPa) = 0.02365067
#
# Stress axis : x y z
#
# Youngs Moduli (GPa) = 112.87767 122.47302 36.35799
#
# Poissons Ratio (x) = 0.25048 0.20701
# Poissons Ratio (y) = 0.23085 0.09817
# Poissons Ratio (z) = 0.64268 0.33069
#
# Static dielectric constant tensor:
#      x y z
#    x 3.760420 0.000000 0.000000 
#    y 0.000000 3.783350 0.000000 
#    z 0.000000 0.000000 3.377420 
# 
# 
# High freq. dielectric constant tensor:
#      x y z
#    x 1.769060 0.000000 0.000000 
#    y 0.000000 1.773780 0.000000 
#    z 0.000000 0.000000 1.745230 
# 
# From -- ./inp_files/21254.got.cif
#   From: 2010.06.25/outbox.cif.g09.slc.cpg/sg58_11_cif.got.tgz:21254.got - 2010.06.26 21:38:00.
