data_PCOD8237478
_publ_section_title
;
Structure prediction by ZEFSAII (Michael W. Deem and Ramdas Pophale) SiO2 
 PCOD8237478
Probable space group: P N N M
;
_chemical_formula_sum "Si O2"
_cell_formula_units_Z 64
_cell_length_a 9.050538
_cell_length_b 14.282717
_cell_length_c 24.599308
_cell_angle_alpha 90.000000
_cell_angle_beta 90.000000
_cell_angle_gamma 90.000000
_cell_volume 3179.860862
_symmetry_space_group_name_H-M "P N N M"
_symmetry_group_IT_number 58
_symmetry_cell_setting 'orthorhombic'
loop_
_space_group_symop_operation_xyz
x,y,z
-x,-y,z
1/2+x,1/2-y,1/2-z
1/2-x,1/2+y,1/2-z
-x,-y,-z
x,y,-z
1/2-x,1/2+y,1/2+z
1/2+x,1/2-y,1/2+z
loop_
_atom_site_type_symbol
_atom_site_label
_atom_site_fract_x
_atom_site_fract_y
_atom_site_fract_z
Si Si1 0.309146 0.837043 0.751756
Si Si2 0.172243 0.501903 0.667429
Si Si3 0.699202 0.240041 0.562060
Si Si4 0.940589 0.399051 0.936994
Si Si5 0.301982 0.577483 0.141608
Si Si6 0.125894 0.871348 0.643618
Si Si7 0.839468 0.956811 0.939043
Si Si8 0.158275 0.644811 0.757332
O O1 0.215016 0.858477 0.698636
O O2 0.253974 0.736026 0.771286
O O3 0.483856 0.834751 0.740028
O O4 0.271516 0.912942 0.798088
O O5 0.242316 0.496357 0.607781
O O6 0.207879 0.598161 0.700076
O O7 0.000000 0.500000 0.657872
O O8 0.746315 0.220863 0.500000
O O9 0.559170 0.178590 0.579004
O O10 0.834748 0.209541 0.600329
O O11 0.654327 0.346518 0.571788
O O12 0.790490 0.372232 0.905850
O O13 0.000000 0.500000 0.917765
O O14 0.901978 0.398708 0.000000
O O15 0.337656 0.473527 0.120129
O O16 0.450494 0.636234 0.154069
O O17 0.200435 0.570977 0.195595
O O18 0.775533 0.977030 0.000000
O O19 0.000000 0.000000 0.934082
#
# Coordination Sequence:
#
# PCOD8237478 Si02
#       8
#     8   8   8   8   8   8   8   8
#     4  11  23  40  62  87 125 162 207 250 309 366
#     4  10  23  41  63  90 121 157 200 247 303 365
#     4  10  21  39  64  90 121 165 210 255 315 376
#     4  10  20  36  59  87 120 162 206 246 301 368
#     4  11  23  35  57  87 126 163 207 252 307 363
#     4  11  22  37  57  88 125 165 206 257 303 368
#     4  10  23  43  66  92 120 154 203 258 307 360
#     4  11  23  40  61  91 124 163 202 255 304 368
#
# _framework density 20.126666
#
# number of rings (size 3 to 8) (size 9 to 14) (size 15 to 20)
#    0.000    1.500    2.500    2.250    0.000    5.750 
#    0.000    1.250    0.000    3.000    0.000    0.000 
#    0.000    0.000    0.000    0.000    0.000    0.000 
#
# Total GULP energy -793618.231698 kJ/mol
# GULP energy per Si atom -12400.284870 kJ/mol
# Density = 2.008086 g / cm^3
# Si number density = 20.126666 Si / 1000 Ang^3
#
#
#
# Elastic Constant Matrix: (Units=GPa)
#
#
# Indices 1 2 3 4 5 6 
#
# 1 101.7313 39.0979 60.3405 0.0000 0.0000 0.0000
# 2 39.0979 101.1864 43.3613 0.0000 0.0000 0.0000
# 3 60.3405 43.3613 125.0902 0.0000 0.0000 0.0000
# 4 0.0000 0.0000 0.0000 27.4319 0.0000 0.0000
# 5 0.0000 0.0000 0.0000 0.0000 28.5828 0.0000
# 6 0.0000 0.0000 0.0000 0.0000 0.0000 29.7316
#
#
#
# Elastic Compliance Matrix: (Units=1/GPa)
#
#
# Indices 1 2 3 4 5 6 
#
# 1 0.014537 -0.003068 -0.005949 0.000000 0.000000 0.000000
# 2 -0.003068 0.012254 -0.002768 0.000000 0.000000 0.000000
# 3 -0.005949 -0.002768 0.011823 0.000000 0.000000 0.000000
# 4 0.000000 0.000000 0.000000 0.036454 0.000000 0.000000
# 5 0.000000 0.000000 0.000000 0.000000 0.034986 0.000000
# 6 0.000000 0.000000 0.000000 0.000000 0.000000 0.033634
#
#
# Mechanical properties :
#
#
# Convention : Reuss Voigt Hill
#
# Bulk Modulus (GPa) = 66.46559 68.17856 67.32207
# Shear Modulus (GPa) = 29.02346 29.49648 29.25997
#
# Velocity S-wave (km/s) = 3.80154 3.83239 3.81700
# Velocity P-wave (km/s) = 7.23632 7.31651 7.27652
#
# Compressibility (1/GPa) = 0.01504538
#
# Stress axis : x y z
#
# Youngs Moduli (GPa) = 68.78768 81.60389 84.57789
#
# Poissons Ratio (x) = 0.25035 0.50316
# Poissons Ratio (y) = 0.21103 0.23411
# Poissons Ratio (z) = 0.40922 0.22588
#
# Static dielectric constant tensor:
#      x y z
#    x 3.620890 0.000000 0.000000 
#    y 0.000000 3.842690 0.000000 
#    z 0.000000 0.000000 3.750260 
# 
# 
# High freq. dielectric constant tensor:
#      x y z
#    x 1.782940 0.000000 0.000000 
#    y 0.000000 1.788070 0.000000 
#    z 0.000000 0.000000 1.790920 
# 
# From -- ./inp_files/31618.got.cif
#   From: 2010.06.25/outbox.cif.g09.slc.cpg/sg58_16_cif.got.tgz:31618.got - 2010.06.26 21:38:00.
