data_PCOD8237608
_publ_section_title
;
Structure prediction by ZEFSAII (Michael W. Deem and Ramdas Pophale) SiO2 
 PCOD8237608
Probable space group: P N N M
;
_chemical_formula_sum "Si O2"
_cell_formula_units_Z 48
_cell_length_a 30.842750
_cell_length_b 8.902650
_cell_length_c 8.604849
_cell_angle_alpha 90.000000
_cell_angle_beta 90.000000
_cell_angle_gamma 90.000000
_cell_volume 2362.738440
_symmetry_space_group_name_H-M "P N N M"
_symmetry_group_IT_number 58
_symmetry_cell_setting 'orthorhombic'
loop_
_space_group_symop_operation_xyz
x,y,z
-x,-y,z
1/2+x,1/2-y,1/2-z
1/2-x,1/2+y,1/2-z
-x,-y,-z
x,y,-z
1/2-x,1/2+y,1/2+z
1/2+x,1/2-y,1/2+z
loop_
_atom_site_type_symbol
_atom_site_label
_atom_site_fract_x
_atom_site_fract_y
_atom_site_fract_z
Si Si1 0.957194 0.419044 0.314917
Si Si2 0.703236 0.571845 0.179208
Si Si3 0.627861 0.082157 0.182694
Si Si4 0.785939 0.420537 0.318338
Si Si5 0.546086 0.576964 0.821294
Si Si6 0.875613 0.906300 0.820837
O O1 0.957999 0.427471 0.500000
O O2 0.914935 0.503215 0.245956
O O3 0.956731 0.246958 0.259445
O O4 0.000000 0.500000 0.246986
O O5 0.746120 0.480657 0.219448
O O6 0.710580 0.745286 0.215573
O O7 0.663581 0.517448 0.283429
O O8 0.691270 0.545376 0.000000
O O9 0.629081 0.256590 0.220987
O O10 0.670868 0.000960 0.246658
O O11 0.626374 0.060270 0.000000
O O12 0.778342 0.454681 0.500000
O O13 0.500000 0.500000 0.802355
O O14 0.579500 0.487187 0.716184
O O15 0.561862 0.572471 0.000000
O O16 0.874267 0.861161 0.000000
#
# Coordination Sequence:
#
# PCOD8237608 Si02
#       6
#     8   8   8   8   8   8
#     4   9  17  32  58  90 117 145 188 237 281 333
#     4  11  23  40  62  86 115 151 192 236 286 346
#     4  10  20  37  60  84 115 153 193 237 285 339
#     4  10  22  39  60  88 118 149 190 240 290 341
#     4  10  20  37  63  90 116 150 192 236 286 344
#     4  12  25  39  57  84 119 154 193 239 286 339
#
# _framework density 20.315408999999999
#
# number of rings (size 3 to 8) (size 9 to 14) (size 15 to 20)
#    0.000    1.667    0.000    5.000    0.000   10.333 
#    0.000    2.500    0.000    2.000    0.000    0.000 
#    0.000    0.000    0.000    0.000    0.000    0.000 
#
# Total GULP energy -595452.996147 kJ/mol
# GULP energy per Si atom -12405.270753 kJ/mol
# Density = 2.026917 g / cm^3
# Si number density = 20.315409 Si / 1000 Ang^3
#
#
#
# Elastic Constant Matrix: (Units=GPa)
#
#
# Indices 1 2 3 4 5 6 
#
# 1 118.6311 36.8055 22.7868 0.0000 0.0000 0.0000
# 2 36.8055 120.4959 10.0024 0.0000 0.0000 0.0000
# 3 22.7868 10.0024 17.2760 0.0000 0.0000 0.0000
# 4 0.0000 0.0000 0.0000 19.7056 0.0000 0.0000
# 5 0.0000 0.0000 0.0000 0.0000 67.0907 0.0000
# 6 0.0000 0.0000 0.0000 0.0000 0.0000 40.3830
#
#
#
# Elastic Compliance Matrix: (Units=1/GPa)
#
#
# Indices 1 2 3 4 5 6 
#
# 1 0.011945 -0.002459 -0.014332 0.000000 0.000000 0.000000
# 2 -0.002459 0.009224 -0.002097 0.000000 0.000000 0.000000
# 3 -0.014332 -0.002097 0.078002 0.000000 0.000000 0.000000
# 4 0.000000 0.000000 0.000000 0.050747 0.000000 0.000000
# 5 0.000000 0.000000 0.000000 0.000000 0.014905 0.000000
# 6 0.000000 0.000000 0.000000 0.000000 0.000000 0.024763
#
#
# Mechanical properties :
#
#
# Convention : Reuss Voigt Hill
#
# Bulk Modulus (GPa) = 16.28798 43.95470 30.12134
# Shear Modulus (GPa) = 20.17528 37.88976 29.03252
#
# Velocity S-wave (km/s) = 3.15477 4.32334 3.78443
# Velocity P-wave (km/s) = 4.61574 6.82677 5.82708
#
# Compressibility (1/GPa) = 0.06139496
#
# Stress axis : x y z
#
# Youngs Moduli (GPa) = 83.71479 108.41017 12.82019
#
# Poissons Ratio (x) = 0.26658 0.18374
# Poissons Ratio (y) = 0.20585 0.02689
# Poissons Ratio (z) = 1.19980 0.22736
#
# Static dielectric constant tensor:
#      x y z
#    x 3.916860 0.000000 0.000000 
#    y 0.000000 3.770010 0.000000 
#    z 0.000000 0.000000 3.361040 
# 
# 
# High freq. dielectric constant tensor:
#      x y z
#    x 1.813680 0.000000 0.000000 
#    y 0.000000 1.811770 0.000000 
#    z 0.000000 0.000000 1.761590 
# 
# From -- ./inp_files/2885.got.cif
#   From: 2010.06.25/outbox.cif.g09.slc.cpg/sg58_2_cif.got.tgz:2885.got - 2010.06.26 21:38:00.
