data_PCOD8237105
_publ_section_title
;
Structure prediction by ZEFSAII (Michael W. Deem and Ramdas Pophale) SiO2 
 PCOD8237105
Probable space group: P N N M
;
_chemical_formula_sum "Si O2"
_cell_formula_units_Z 64
_cell_length_a 14.378173
_cell_length_b 25.149299
_cell_length_c 9.268471
_cell_angle_alpha 90.000000
_cell_angle_beta 90.000000
_cell_angle_gamma 90.000000
_cell_volume 3351.488121
_symmetry_space_group_name_H-M "P N N M"
_symmetry_group_IT_number 58
_symmetry_cell_setting 'orthorhombic'
loop_
_space_group_symop_operation_xyz
x,y,z
-x,-y,z
1/2+x,1/2-y,1/2-z
1/2-x,1/2+y,1/2-z
-x,-y,-z
x,y,-z
1/2-x,1/2+y,1/2+z
1/2+x,1/2-y,1/2+z
loop_
_atom_site_type_symbol
_atom_site_label
_atom_site_fract_x
_atom_site_fract_y
_atom_site_fract_z
Si Si1 0.042244 0.555538 0.170597
Si Si2 0.103943 0.982378 0.329520
Si Si3 0.192147 0.885291 0.170659
Si Si4 0.204558 0.186601 0.669643
Si Si5 0.748077 0.429163 0.171561
Si Si6 0.036033 0.256028 0.663534
Si Si7 0.144047 0.767448 0.171165
Si Si8 0.402234 0.873126 0.835829
O O1 0.148154 0.557829 0.226536
O O2 0.000000 0.500000 0.223148
O O3 0.982467 0.602951 0.236797
O O4 0.037384 0.562037 0.000000
O O5 0.113306 0.973623 0.500000
O O6 0.127697 0.927362 0.251853
O O7 0.175971 0.026765 0.271460
O O8 0.000000 0.000000 0.287397
O O9 0.160370 0.827328 0.226037
O O10 0.300500 0.893649 0.212473
O O11 0.178039 0.891177 0.000000
O O12 0.222102 0.183941 0.500000
O O13 0.218476 0.127988 0.736670
O O14 0.277637 0.228388 0.736399
O O15 0.100998 0.206201 0.704317
O O16 0.744541 0.428229 0.000000
O O17 0.998623 0.250535 0.500000
O O18 0.952507 0.256020 0.774545
O O19 0.096535 0.309481 0.679542
O O20 0.145443 0.766424 0.000000
O O21 0.422039 0.890220 0.000000
#
# Coordination Sequence:
#
# PCOD8237105 Si02
#       8
#     8   8   8   8   8   8   8   8
#     4  10  20  34  55  82 110 143 184 229 275 323
#     4  10  22  38  58  85 111 142 191 241 277 319
#     4  10  21  38  58  80 112 152 187 223 277 340
#     4   9  17  33  56  77 106 146 182 216 268 334
#     4   9  18  33  53  79 110 143 181 227 277 326
#     4  10  20  34  55  81 108 142 183 229 278 327
#     4  10  20  36  57  82 110 146 188 224 270 336
#     4  10  20  36  56  82 114 146 182 225 277 338
#
# _framework density 19.095994999999998
#
# number of rings (size 3 to 8) (size 9 to 14) (size 15 to 20)
#    0.000    2.250    1.250    1.500    1.750    4.000 
#    0.000    1.250    0.000    1.500    0.000    0.000 
#    0.000    0.000    0.000    0.000    0.000    0.000 
#
# Total GULP energy -793669.809240 kJ/mol
# GULP energy per Si atom -12401.090769 kJ/mol
# Density = 1.905253 g / cm^3
# Si number density = 19.095995 Si / 1000 Ang^3
#
#
#
# Elastic Constant Matrix: (Units=GPa)
#
#
# Indices 1 2 3 4 5 6 
#
# 1 102.6843 33.3001 20.6305 0.0000 0.0000 0.0000
# 2 33.3001 101.1766 23.2439 0.0000 0.0000 0.0000
# 3 20.6305 23.2439 19.2417 0.0000 0.0000 0.0000
# 4 0.0000 0.0000 0.0000 26.2663 0.0000 0.0000
# 5 0.0000 0.0000 0.0000 0.0000 25.3115 0.0000
# 6 0.0000 0.0000 0.0000 0.0000 0.0000 39.7210
#
#
#
# Elastic Compliance Matrix: (Units=1/GPa)
#
#
# Indices 1 2 3 4 5 6 
#
# 1 0.012562 -0.001440 -0.011729 0.000000 0.000000 0.000000
# 2 -0.001440 0.013845 -0.015181 0.000000 0.000000 0.000000
# 3 -0.011729 -0.015181 0.082886 0.000000 0.000000 0.000000
# 4 0.000000 0.000000 0.000000 0.038072 0.000000 0.000000
# 5 0.000000 0.000000 0.000000 0.000000 0.039508 0.000000
# 6 0.000000 0.000000 0.000000 0.000000 0.000000 0.025176
#
#
# Mechanical properties :
#
#
# Convention : Reuss Voigt Hill
#
# Bulk Modulus (GPa) = 19.01439 41.93905 30.47672
# Shear Modulus (GPa) = 17.46544 27.98831 22.72687
#
# Velocity S-wave (km/s) = 3.02754 3.83255 3.45358
# Velocity P-wave (km/s) = 4.71171 6.44938 5.64777
#
# Compressibility (1/GPa) = 0.05259174
#
# Stress axis : x y z
#
# Youngs Moduli (GPa) = 79.60439 72.22672 12.06483
#
# Poissons Ratio (x) = 0.10400 0.14151
# Poissons Ratio (y) = 0.11462 0.18316
# Poissons Ratio (z) = 0.93372 1.09649
#
# Static dielectric constant tensor:
#      x y z
#    x 3.531150 0.000000 0.000000 
#    y 0.000000 3.732000 0.000000 
#    z 0.000000 0.000000 3.078190 
# 
# 
# High freq. dielectric constant tensor:
#      x y z
#    x 1.753590 0.000000 0.000000 
#    y 0.000000 1.756650 0.000000 
#    z 0.000000 0.000000 1.701000 
# 
# From -- ./inp_files/6807.got.cif
#   From: 2010.06.25/outbox.cif.g09.slc.cpg/sg58_4_cif.got.tgz:6807.got - 2010.06.26 21:38:00.
