data_PCOD8237019
_publ_section_title
;
Structure prediction by ZEFSAII (Michael W. Deem and Ramdas Pophale) SiO2 
 PCOD8237019
Probable space group: P N N M
;
_chemical_formula_sum "Si O2"
_cell_formula_units_Z 56
_cell_length_a 23.027923
_cell_length_b 13.662630
_cell_length_c 9.239208
_cell_angle_alpha 90.000000
_cell_angle_beta 90.000000
_cell_angle_gamma 90.000000
_cell_volume 2906.858022
_symmetry_space_group_name_H-M "P N N M"
_symmetry_group_IT_number 58
_symmetry_cell_setting 'orthorhombic'
loop_
_space_group_symop_operation_xyz
x,y,z
-x,-y,z
1/2+x,1/2-y,1/2-z
1/2-x,1/2+y,1/2-z
-x,-y,-z
x,y,-z
1/2-x,1/2+y,1/2+z
1/2+x,1/2-y,1/2+z
loop_
_atom_site_type_symbol
_atom_site_label
_atom_site_fract_x
_atom_site_fract_y
_atom_site_fract_z
Si Si1 0.126566 0.185782 0.841038
Si Si2 0.533661 0.407896 0.835597
Si Si3 0.945838 0.617470 0.838782
Si Si4 0.040471 0.712114 0.333804
Si Si5 0.839894 0.295043 0.828366
Si Si6 0.334687 0.984554 0.329844
Si Si7 0.737004 0.197799 0.328070
O O1 0.096474 0.105413 0.739223
O O2 0.085723 0.279332 0.849008
O O3 0.189802 0.219318 0.784342
O O4 0.132838 0.138923 0.000000
O O5 0.500000 0.500000 0.764506
O O6 0.493824 0.313185 0.821612
O O7 0.548812 0.433028 0.000000
O O8 0.899485 0.540526 0.770073
O O9 0.001773 0.624489 0.734501
O O10 0.966967 0.586362 0.000000
O O11 0.054978 0.686258 0.500000
O O12 0.098134 0.725116 0.241159
O O13 0.818284 0.404848 0.788654
O O14 0.795400 0.218414 0.759458
O O15 0.843830 0.279708 0.000000
O O16 0.339663 0.967223 0.500000
O O17 0.285838 0.908691 0.273492
O O18 0.749009 0.198892 0.500000
#
# Coordination Sequence:
#
# PCOD8237019 Si02
#       7
#     8   8   8   8   8   8   8
#     4   8  15  29  52  76  97 128 168 212 261 305
#     4   9  18  33  52  75 103 137 178 216 256 314
#     4   8  14  30  55  77  98 129 170 209 249 309
#     4  10  20  34  51  75 109 142 169 213 273 316
#     4  11  22  36  54  79 108 140 181 222 261 314
#     4   8  17  35  58  78 100 138 180 214 260 322
#     4   9  18  37  58  75 102 139 177 219 267 315
#
# _framework density 19.264786000000001
#
# number of rings (size 3 to 8) (size 9 to 14) (size 15 to 20)
#    0.000    3.000    0.000    2.571    0.000    2.000 
#    2.571    7.857    0.000    0.000    0.000    0.000 
#    0.000    0.000    0.000    0.000    0.000    0.000 
#
# Total GULP energy -694111.030410 kJ/mol
# GULP energy per Si atom -12394.839829 kJ/mol
# Density = 1.922094 g / cm^3
# Si number density = 19.264786 Si / 1000 Ang^3
#
#
#
# Elastic Constant Matrix: (Units=GPa)
#
#
# Indices 1 2 3 4 5 6 
#
# 1 93.9897 7.3108 36.7371 0.0000 0.0000 0.0000
# 2 7.3108 36.9627 14.6178 0.0000 0.0000 0.0000
# 3 36.7371 14.6178 73.7279 0.0000 0.0000 0.0000
# 4 0.0000 0.0000 0.0000 17.5774 0.0000 0.0000
# 5 0.0000 0.0000 0.0000 0.0000 32.0731 0.0000
# 6 0.0000 0.0000 0.0000 0.0000 0.0000 23.6511
#
#
#
# Elastic Compliance Matrix: (Units=1/GPa)
#
#
# Indices 1 2 3 4 5 6 
#
# 1 0.013213 -0.000010 -0.006582 0.000000 0.000000 0.000000
# 2 -0.000010 0.029356 -0.005815 0.000000 0.000000 0.000000
# 3 -0.006582 -0.005815 0.017996 0.000000 0.000000 0.000000
# 4 0.000000 0.000000 0.000000 0.056891 0.000000 0.000000
# 5 0.000000 0.000000 0.000000 0.000000 0.031179 0.000000
# 6 0.000000 0.000000 0.000000 0.000000 0.000000 0.042281
#
#
# Mechanical properties :
#
#
# Convention : Reuss Voigt Hill
#
# Bulk Modulus (GPa) = 27.97176 35.77907 31.87541
# Shear Modulus (GPa) = 21.96382 24.39464 23.17923
#
# Velocity S-wave (km/s) = 3.38020 3.56235 3.47247
# Velocity P-wave (km/s) = 5.45761 5.96096 5.71483
#
# Compressibility (1/GPa) = 0.03575034
#
# Stress axis : x y z
#
# Youngs Moduli (GPa) = 75.68435 34.06444 55.56854
#
# Poissons Ratio (x) = 0.00036 0.36573
# Poissons Ratio (y) = 0.00079 0.32314
# Poissons Ratio (z) = 0.49812 0.19809
#
# Static dielectric constant tensor:
#      x y z
#    x 3.529360 0.000000 0.000000 
#    y 0.000000 3.474120 0.000000 
#    z 0.000000 0.000000 3.518010 
# 
# 
# High freq. dielectric constant tensor:
#      x y z
#    x 1.748890 0.000000 0.000000 
#    y 0.000000 1.736600 0.000000 
#    z 0.000000 0.000000 1.730900 
# 
# From -- ./inp_files/9067.got.cif
#   From: 2010.06.25/outbox.cif.g09.slc.cpg/sg58_5_cif.got.tgz:9067.got - 2010.06.26 21:38:00.
