data_PCOD8237845
_publ_section_title
;
Structure prediction by ZEFSAII (Michael W. Deem and Ramdas Pophale) SiO2 
 PCOD8237845
Probable space group: P N N M
;
_chemical_formula_sum "Si O2"
_cell_formula_units_Z 32
_cell_length_a 14.560248
_cell_length_b 14.598395
_cell_length_c 7.583304
_cell_angle_alpha 90.000000
_cell_angle_beta 90.000000
_cell_angle_gamma 90.000000
_cell_volume 1611.878673
_symmetry_space_group_name_H-M "P N N M"
_symmetry_group_IT_number 58
_symmetry_cell_setting 'orthorhombic'
loop_
_space_group_symop_operation_xyz
x,y,z
-x,-y,z
1/2+x,1/2-y,1/2-z
1/2-x,1/2+y,1/2-z
-x,-y,-z
x,y,-z
1/2-x,1/2+y,1/2+z
1/2+x,1/2-y,1/2+z
loop_
_atom_site_type_symbol
_atom_site_label
_atom_site_fract_x
_atom_site_fract_y
_atom_site_fract_z
Si Si1 0.642671 0.448807 0.000000
Si Si2 0.060586 0.714305 0.797217
Si Si3 0.284985 0.067965 0.198357
Si Si4 0.077149 0.432814 0.794033
Si Si5 0.447431 0.358568 0.000000
O O1 0.697383 0.424021 0.823305
O O2 0.552629 0.387427 0.000000
O O3 0.620138 0.555867 0.000000
O O4 0.139122 0.639567 0.764497
O O5 0.075534 0.801352 0.674784
O O6 0.959353 0.670048 0.754913
O O7 0.064640 0.746372 0.000000
O O8 0.327230 0.963889 0.203600
O O9 0.253038 0.090600 0.000000
O O10 0.000000 0.500000 0.717328
O O11 0.091405 0.449307 0.000000
#
# Coordination Sequence:
#
# PCOD8237845 Si02
#       5
#     4   8   8   8   4
#     4  11  26  48  59  88 138 173 210 253 311 395
#     4  10  20  39  66  98 128 159 212 272 317 373
#     4  11  20  37  67  97 127 165 209 267 324 369
#     4   8  15  30  57  93 131 156 189 260 329 360
#     4  11  26  46  65  84 132 185 204 245 329 385
#
# _framework density 19.852609999999999
#
# number of rings (size 3 to 8) (size 9 to 14) (size 15 to 20)
#    0.000    2.000    3.750    1.500    1.750    3.500 
#    4.500    2.500    0.000    0.000    0.000    0.000 
#    0.000    0.000    0.000    0.000    0.000    0.000 
#
# Total GULP energy -396610.336757 kJ/mol
# GULP energy per Si atom -12394.073024 kJ/mol
# Density = 1.980742 g / cm^3
# Si number density = 19.852610 Si / 1000 Ang^3
#
#
#
# Elastic Constant Matrix: (Units=GPa)
#
#
# Indices 1 2 3 4 5 6 
#
# 1 79.8631 31.7180 35.8564 0.0000 0.0000 0.0000
# 2 31.7180 90.6687 43.7828 0.0000 0.0000 0.0000
# 3 35.8564 43.7828 141.7634 0.0000 0.0000 0.0000
# 4 0.0000 0.0000 0.0000 21.5963 0.0000 0.0000
# 5 0.0000 0.0000 0.0000 0.0000 21.5299 0.0000
# 6 0.0000 0.0000 0.0000 0.0000 0.0000 15.2501
#
#
#
# Elastic Compliance Matrix: (Units=1/GPa)
#
#
# Indices 1 2 3 4 5 6 
#
# 1 0.015321 -0.004100 -0.002609 0.000000 0.000000 0.000000
# 2 -0.004100 0.014059 -0.003305 0.000000 0.000000 0.000000
# 3 -0.002609 -0.003305 0.008735 0.000000 0.000000 0.000000
# 4 0.000000 0.000000 0.000000 0.046304 0.000000 0.000000
# 5 0.000000 0.000000 0.000000 0.000000 0.046447 0.000000
# 6 0.000000 0.000000 0.000000 0.000000 0.000000 0.065573
#
#
# Mechanical properties :
#
#
# Convention : Reuss Voigt Hill
#
# Bulk Modulus (GPa) = 55.28776 59.44550 57.36663
# Shear Modulus (GPa) = 22.47227 25.07114 23.77170
#
# Velocity S-wave (km/s) = 3.36810 3.55753 3.46411
# Velocity P-wave (km/s) = 6.56011 6.84713 6.70516
#
# Compressibility (1/GPa) = 0.01808719
#
# Stress axis : x y z
#
# Youngs Moduli (GPa) = 65.26967 71.12676 114.48604
#
# Poissons Ratio (x) = 0.29161 0.29869
# Poissons Ratio (y) = 0.26759 0.37840
# Poissons Ratio (z) = 0.17029 0.23509
#
# Static dielectric constant tensor:
#      x y z
#    x 3.507340 0.000000 0.000000 
#    y 0.000000 3.516070 0.000000 
#    z 0.000000 0.000000 3.625280 
# 
# 
# High freq. dielectric constant tensor:
#      x y z
#    x 1.755470 0.000000 0.000000 
#    y 0.000000 1.752440 0.000000 
#    z 0.000000 0.000000 1.784000 
# 
# From -- ./inp_files/5230.got.cif
#   From: 2010.06.25/outbox.cif.g09.slc.cpg/sg58_3_cif.got.tgz:5230.got - 2010.06.26 21:38:00.
