data_PCOD8237527
_publ_section_title
;
Structure prediction by ZEFSAII (Michael W. Deem and Ramdas Pophale) SiO2 
 PCOD8237527
Probable space group: P N N M
;
_chemical_formula_sum "Si O2"
_cell_formula_units_Z 56
_cell_length_a 19.057399
_cell_length_b 7.639021
_cell_length_c 19.276472
_cell_angle_alpha 90.000000
_cell_angle_beta 90.000000
_cell_angle_gamma 90.000000
_cell_volume 2806.266310
_symmetry_space_group_name_H-M "P N N M"
_symmetry_group_IT_number 58
_symmetry_cell_setting 'orthorhombic'
loop_
_space_group_symop_operation_xyz
x,y,z
-x,-y,z
1/2+x,1/2-y,1/2-z
1/2-x,1/2+y,1/2-z
-x,-y,-z
x,y,-z
1/2-x,1/2+y,1/2+z
1/2+x,1/2-y,1/2+z
loop_
_atom_site_type_symbol
_atom_site_label
_atom_site_fract_x
_atom_site_fract_y
_atom_site_fract_z
Si Si1 0.420908 0.799157 0.078136
Si Si2 0.188382 0.194206 0.318100
Si Si3 0.337127 0.699367 0.665382
Si Si4 0.337127 0.300633 0.334618
Si Si5 0.920908 0.299157 0.578136
Si Si6 0.688382 0.694207 0.818100
Si Si7 0.083275 0.500000 0.917431
O O1 0.373787 0.682584 0.127260
O O2 0.500000 0.730968 0.084687
O O3 0.415627 0.000000 0.101578
O O4 0.393944 0.776221 0.000000
O O5 0.157909 0.268403 0.245222
O O6 0.253471 0.300850 0.351116
O O7 0.216662 1.000000 0.302774
O O8 0.365414 0.500000 0.655729
O O9 0.253471 0.699150 0.648884
O O10 0.381929 0.826003 0.615575
O O11 0.342091 0.231597 0.254778
O O12 0.381929 0.173997 0.384425
O O13 0.893944 0.276221 0.500000
O O14 0.873787 0.182584 0.627260
O O15 0.000000 0.500000 0.901735
O O16 0.097548 0.500000 0.000000
#
# Coordination Sequence:
#
# PCOD8237527 Si02
#       7
#     8   8   8   8   8   8   8
#     4   9  19  34  51  78 119 164 204 240 287 353
#     4  10  20  36  61  91 123 159 202 255 307 368
#     4  10  22  41  65  93 123 156 204 259 315 369
#     4  10  22  41  65  93 123 156 204 259 315 369
#     4   9  19  34  51  78 119 164 204 240 287 353
#     4  10  20  36  61  91 123 159 202 255 307 368
#     4  11  26  46  66  92 126 166 214 263 316 378
#
# _framework density 19.95534
#
# number of rings (size 3 to 8) (size 9 to 14) (size 15 to 20)
#    0.000    2.143    1.429    1.714    4.000    4.571 
#    0.000    5.714    0.000    0.000    0.000    0.000 
#    0.000    0.000    0.000    0.000    0.000    0.000 
#
# Total GULP energy -694103.239215 kJ/mol
# GULP energy per Si atom -12394.700700 kJ/mol
# Density = 1.990992 g / cm^3
# Si number density = 19.955340 Si / 1000 Ang^3
#
#
#
# Elastic Constant Matrix: (Units=GPa)
#
#
# Indices 1 2 3 4 5 6 
#
# 1 102.8107 43.8749 80.1666 0.0000 0.0000 0.0000
# 2 43.8749 98.8432 48.6806 0.0000 0.0000 0.0000
# 3 80.1666 48.6806 115.6413 0.0000 0.0000 0.0000
# 4 0.0000 0.0000 0.0000 27.5906 0.0000 0.0000
# 5 0.0000 0.0000 0.0000 0.0000 44.1245 0.0000
# 6 0.0000 0.0000 0.0000 0.0000 0.0000 26.5390
#
#
#
# Elastic Compliance Matrix: (Units=1/GPa)
#
#
# Indices 1 2 3 4 5 6 
#
# 1 0.021774 -0.002814 -0.013909 0.000000 0.000000 0.000000
# 2 -0.002814 0.013127 -0.003575 0.000000 0.000000 0.000000
# 3 -0.013909 -0.003575 0.019795 0.000000 0.000000 0.000000
# 4 0.000000 0.000000 0.000000 0.036244 0.000000 0.000000
# 5 0.000000 0.000000 0.000000 0.000000 0.022663 0.000000
# 6 0.000000 0.000000 0.000000 0.000000 0.000000 0.037680
#
#
# Mechanical properties :
#
#
# Convention : Reuss Voigt Hill
#
# Bulk Modulus (GPa) = 70.93291 73.63770 72.28530
# Shear Modulus (GPa) = 25.43494 29.28903 27.36199
#
# Velocity S-wave (km/s) = 3.57402 3.83525 3.70694
# Velocity P-wave (km/s) = 7.25634 7.52287 7.39081
#
# Compressibility (1/GPa) = 0.01409783
#
# Stress axis : x y z
#
# Youngs Moduli (GPa) = 45.92720 76.17908 50.51826
#
# Poissons Ratio (x) = 0.21441 0.70268
# Poissons Ratio (y) = 0.12926 0.18059
# Poissons Ratio (z) = 0.63882 0.27233
#
# Static dielectric constant tensor:
#      x y z
#    x 3.498040 0.000000 0.000000 
#    y 0.000000 3.570940 0.000000 
#    z 0.000000 0.000000 3.557790 
# 
# 
# High freq. dielectric constant tensor:
#      x y z
#    x 1.768060 0.000000 0.000000 
#    y 0.000000 1.784270 0.000000 
#    z 0.000000 0.000000 1.773140 
# 
# From -- ./inp_files/30232.got.cif
#   From: 2010.06.25/outbox.cif.g09.slc.cpg/sg58_16_cif.got.tgz:30232.got - 2010.06.26 21:38:00.
