data_PCOD8237679
_publ_section_title
;
Structure prediction by ZEFSAII (Michael W. Deem and Ramdas Pophale) SiO2 
 PCOD8237679
Probable space group: P N N M
;
_chemical_formula_sum "Si O2"
_cell_formula_units_Z 64
_cell_length_a 15.950236
_cell_length_b 9.334055
_cell_length_c 21.247154
_cell_angle_alpha 90.000000
_cell_angle_beta 90.000000
_cell_angle_gamma 90.000000
_cell_volume 3163.284363
_symmetry_space_group_name_H-M "P N N M"
_symmetry_group_IT_number 58
_symmetry_cell_setting 'orthorhombic'
loop_
_space_group_symop_operation_xyz
x,y,z
-x,-y,z
1/2+x,1/2-y,1/2-z
1/2-x,1/2+y,1/2-z
-x,-y,-z
x,y,-z
1/2-x,1/2+y,1/2+z
1/2+x,1/2-y,1/2+z
loop_
_atom_site_type_symbol
_atom_site_label
_atom_site_fract_x
_atom_site_fract_y
_atom_site_fract_z
Si Si1 0.785479 0.378758 0.569076
Si Si2 0.136069 0.309700 0.930055
Si Si3 0.218902 0.036051 0.427078
Si Si4 0.385049 0.333838 0.849679
Si Si5 0.715732 0.161635 0.129988
Si Si6 0.536991 0.280145 0.314697
Si Si7 0.034694 0.345605 0.684358
Si Si8 0.371947 0.433709 0.290938
O O1 0.820169 0.329170 0.500000
O O2 0.687019 0.339570 0.572515
O O3 0.833432 0.304056 0.626623
O O4 0.795967 0.549287 0.573297
O O5 0.201227 0.436002 0.914174
O O6 0.062761 0.302556 0.878526
O O7 0.096880 0.332070 0.000000
O O8 0.198436 0.054061 0.500000
O O9 0.135300 0.967130 0.395645
O O10 0.243672 0.187014 0.397375
O O11 0.482201 0.284148 0.848612
O O12 0.358859 0.379681 0.779932
O O13 0.629832 0.178813 0.166707
O O14 0.784567 0.096449 0.176097
O O15 0.527947 0.163405 0.259737
O O16 0.446555 0.350860 0.326742
O O17 0.605912 0.397658 0.292720
O O18 0.000000 0.500000 0.662325
#
# Coordination Sequence:
#
# PCOD8237679 Si02
#       8
#     8   8   8   8   8   8   8   8
#     4  10  20  37  63  89 124 162 207 261 306 371
#     4   9  19  38  64  91 123 171 217 255 311 382
#     4  10  23  41  64  94 129 170 216 265 317 379
#     4  10  21  42  61  87 127 167 214 256 314 382
#     4  12  23  39  64  94 131 159 215 262 325 370
#     4  10  21  42  62  93 133 167 212 260 321 375
#     4  11  24  40  63  96 131 163 212 275 319 375
#     4  10  23  38  65  97 126 169 208 266 318 384
#
# _framework density 20.232137000000002
#
# number of rings (size 3 to 8) (size 9 to 14) (size 15 to 20)
#    0.000    1.750    2.500    2.250    3.500    4.500 
#    0.000    6.250    0.000    1.875    0.000    0.000 
#    0.000    0.000    0.000    0.000    0.000    0.000 
#
# Total GULP energy -793462.924212 kJ/mol
# GULP energy per Si atom -12397.858191 kJ/mol
# Density = 2.018609 g / cm^3
# Si number density = 20.232137 Si / 1000 Ang^3
#
#
#
# Elastic Constant Matrix: (Units=GPa)
#
#
# Indices 1 2 3 4 5 6 
#
# 1 75.1720 2.7060 31.9371 0.0000 0.0000 0.0000
# 2 2.7060 86.2307 14.1034 0.0000 0.0000 0.0000
# 3 31.9371 14.1034 91.4582 0.0000 0.0000 0.0000
# 4 0.0000 0.0000 0.0000 28.3967 0.0000 0.0000
# 5 0.0000 0.0000 0.0000 0.0000 35.9090 0.0000
# 6 0.0000 0.0000 0.0000 0.0000 0.0000 14.8951
#
#
#
# Elastic Compliance Matrix: (Units=1/GPa)
#
#
# Indices 1 2 3 4 5 6 
#
# 1 0.015635 0.000413 -0.005523 0.000000 0.000000 0.000000
# 2 0.000413 0.011908 -0.001980 0.000000 0.000000 0.000000
# 3 -0.005523 -0.001980 0.013168 0.000000 0.000000 0.000000
# 4 0.000000 0.000000 0.000000 0.035215 0.000000 0.000000
# 5 0.000000 0.000000 0.000000 0.000000 0.027848 0.000000
# 6 0.000000 0.000000 0.000000 0.000000 0.000000 0.067136
#
#
# Mechanical properties :
#
#
# Convention : Reuss Voigt Hill
#
# Bulk Modulus (GPa) = 37.69518 38.92823 38.31170
# Shear Modulus (GPa) = 25.78186 29.44777 27.61482
#
# Velocity S-wave (km/s) = 3.57361 3.81923 3.69846
# Velocity P-wave (km/s) = 5.97489 6.22345 6.10044
#
# Compressibility (1/GPa) = 0.02652859
#
# Stress axis : x y z
#
# Youngs Moduli (GPa) = 63.96106 83.97896 75.94149
#
# Poissons Ratio (x) = -0.03466 0.41944
# Poissons Ratio (y) = -0.02640 0.15039
# Poissons Ratio (z) = 0.35327 0.16631
#
# Static dielectric constant tensor:
#      x y z
#    x 3.520230 0.000000 0.000000 
#    y 0.000000 3.824910 0.000000 
#    z 0.000000 0.000000 3.658910 
# 
# 
# High freq. dielectric constant tensor:
#      x y z
#    x 1.774410 0.000000 0.000000 
#    y 0.000000 1.797520 0.000000 
#    z 0.000000 0.000000 1.790810 
# 
# From -- ./inp_files/30266.got.cif
#   From: 2010.06.25/outbox.cif.g09.slc.cpg/sg58_16_cif.got.tgz:30266.got - 2010.06.26 21:38:00.
