data_PCOD8237369
_publ_section_title
;
Structure prediction by ZEFSAII (Michael W. Deem and Ramdas Pophale) SiO2 
 PCOD8237369
Probable space group: P N N M
;
_chemical_formula_sum "Si O2"
_cell_formula_units_Z 52
_cell_length_a 12.277049
_cell_length_b 8.968151
_cell_length_c 23.137249
_cell_angle_alpha 90.000000
_cell_angle_beta 90.000000
_cell_angle_gamma 90.000000
_cell_volume 2547.467321
_symmetry_space_group_name_H-M "P N N M"
_symmetry_group_IT_number 58
_symmetry_cell_setting 'orthorhombic'
loop_
_space_group_symop_operation_xyz
x,y,z
-x,-y,z
1/2+x,1/2-y,1/2-z
1/2-x,1/2+y,1/2-z
-x,-y,-z
x,y,-z
1/2-x,1/2+y,1/2+z
1/2+x,1/2-y,1/2+z
loop_
_atom_site_type_symbol
_atom_site_label
_atom_site_fract_x
_atom_site_fract_y
_atom_site_fract_z
Si Si1 0.610425 0.679373 0.000000
Si Si2 0.257221 0.238021 0.308074
Si Si3 0.202939 0.782550 0.624426
Si Si4 0.609249 0.142450 0.000000
Si Si5 0.121129 0.473600 0.625049
Si Si6 0.127019 0.512755 0.886356
Si Si7 0.377970 0.465736 0.775420
Si Si8 0.755129 0.910304 0.500000
O O1 0.670033 0.734444 0.057780
O O2 0.628895 0.499658 0.000000
O O3 0.487840 0.737115 0.000000
O O4 0.174802 0.322981 0.351233
O O5 0.348778 0.145727 0.342118
O O6 0.319051 0.349917 0.266455
O O7 0.185202 0.122030 0.271919
O O8 0.196275 0.611884 0.646418
O O9 0.121572 0.892763 0.660057
O O10 0.323609 0.852422 0.633929
O O11 0.608436 0.035851 0.944457
O O12 0.720817 0.235251 0.000000
O O13 0.000000 0.500000 0.651162
O O14 0.000000 0.500000 0.894666
O O15 0.183009 0.550462 0.945839
O O16 0.500000 0.500000 0.755160
#
# Coordination Sequence:
#
# PCOD8237369 Si02
#       8
#     4   8   8   4   8   8   8   4
#     4  10  20  35  63  96 133 165 197 253 323 383
#     4  11  25  42  63  92 121 165 217 266 309 377
#     4  10  22  39  62  97 127 164 210 258 311 385
#     4  12  21  35  63 101 135 167 200 246 331 384
#     4  12  22  38  63  96 137 165 197 256 322 384
#     4  10  22  42  66  87 121 169 216 263 314 364
#     4  11  25  44  66  90 125 166 216 265 320 371
#     4  10  20  37  61  96 129 163 209 264 303 385
#
# _framework density 20.412430000000001
#
# number of rings (size 3 to 8) (size 9 to 14) (size 15 to 20)
#    0.000    1.231    3.077    3.000    0.000    3.692 
#    0.000    1.538    0.000    0.923    0.000    0.000 
#    0.000    0.000    0.000    0.000    0.000    0.000 
#
# Total GULP energy -644582.613264 kJ/mol
# GULP energy per Si atom -12395.819486 kJ/mol
# Density = 2.036597 g / cm^3
# Si number density = 20.412430 Si / 1000 Ang^3
#
#
#
# Elastic Constant Matrix: (Units=GPa)
#
#
# Indices 1 2 3 4 5 6 
#
# 1 123.1034 72.8561 32.2659 0.0000 0.0000 0.0000
# 2 72.8561 149.3011 35.5869 0.0000 0.0000 0.0000
# 3 32.2659 35.5869 82.6848 0.0000 0.0000 0.0000
# 4 0.0000 0.0000 0.0000 27.3507 0.0000 0.0000
# 5 0.0000 0.0000 0.0000 0.0000 17.4359 0.0000
# 6 0.0000 0.0000 0.0000 0.0000 0.0000 23.0856
#
#
#
# Elastic Compliance Matrix: (Units=1/GPa)
#
#
# Indices 1 2 3 4 5 6 
#
# 1 0.011826 -0.005205 -0.002375 0.000000 0.000000 0.000000
# 2 -0.005205 0.009754 -0.002167 0.000000 0.000000 0.000000
# 3 -0.002375 -0.002167 0.013954 0.000000 0.000000 0.000000
# 4 0.000000 0.000000 0.000000 0.036562 0.000000 0.000000
# 5 0.000000 0.000000 0.000000 0.000000 0.057353 0.000000
# 6 0.000000 0.000000 0.000000 0.000000 0.000000 0.043317
#
#
# Mechanical properties :
#
#
# Convention : Reuss Voigt Hill
#
# Bulk Modulus (GPa) = 62.34220 70.72302 66.53261
# Shear Modulus (GPa) = 25.30284 27.86646 26.58465
#
# Velocity S-wave (km/s) = 3.52459 3.69883 3.61276
# Velocity P-wave (km/s) = 6.86813 7.27764 7.07585
#
# Compressibility (1/GPa) = 0.01604050
#
# Stress axis : x y z
#
# Youngs Moduli (GPa) = 84.55904 102.51906 71.66654
#
# Poissons Ratio (x) = 0.53360 0.17019
# Poissons Ratio (y) = 0.44012 0.15531
# Poissons Ratio (z) = 0.20080 0.22217
#
# Static dielectric constant tensor:
#      x y z
#    x 3.490320 0.000000 0.000000 
#    y 0.000000 3.973620 0.000000 
#    z 0.000000 0.000000 3.250460 
# 
# 
# High freq. dielectric constant tensor:
#      x y z
#    x 1.779730 0.000000 0.000000 
#    y 0.000000 1.817830 0.000000 
#    z 0.000000 0.000000 1.801030 
# 
# From -- ./inp_files/33567.got.cif
#   From: 2010.06.25/outbox.cif.g09.slc.cpg/sg58_17_cif.got.tgz:33567.got - 2010.06.26 21:38:00.
