data_PCOD8237913
_publ_section_title
;
Structure prediction by ZEFSAII (Michael W. Deem and Ramdas Pophale) SiO2 
 PCOD8237913
Probable space group: P N N M
;
_chemical_formula_sum "Si O2"
_cell_formula_units_Z 64
_cell_length_a 21.743075
_cell_length_b 17.063825
_cell_length_c 9.487353
_cell_angle_alpha 90.000000
_cell_angle_beta 90.000000
_cell_angle_gamma 90.000000
_cell_volume 3519.997964
_symmetry_space_group_name_H-M "P N N M"
_symmetry_group_IT_number 58
_symmetry_cell_setting 'orthorhombic'
loop_
_space_group_symop_operation_xyz
x,y,z
-x,-y,z
1/2+x,1/2-y,1/2-z
1/2-x,1/2+y,1/2-z
-x,-y,-z
x,y,-z
1/2-x,1/2+y,1/2+z
1/2+x,1/2-y,1/2+z
loop_
_atom_site_type_symbol
_atom_site_label
_atom_site_fract_x
_atom_site_fract_y
_atom_site_fract_z
Si Si1 0.507817 0.415005 0.160168
Si Si2 0.689827 0.774737 0.663672
Si Si3 0.424084 0.697154 0.348999
Si Si4 0.623025 0.083582 0.836508
Si Si5 0.385120 0.071290 0.659110
Si Si6 0.195855 0.288937 0.164170
Si Si7 0.499998 0.164956 0.753226
Si Si8 0.410761 0.287971 0.151846
O O1 0.500000 0.500000 0.231337
O O2 0.561981 0.366661 0.231877
O O3 0.443391 0.370797 0.175618
O O4 0.529240 0.424586 0.000000
O O5 0.703691 0.757284 0.500000
O O6 0.668472 0.864555 0.686732
O O7 0.746560 0.751150 0.760440
O O8 0.633799 0.720566 0.715572
O O9 0.432611 0.656213 0.500000
O O10 0.354417 0.721619 0.325478
O O11 0.467410 0.774064 0.352023
O O12 0.672308 0.134860 0.749138
O O13 0.553408 0.116247 0.831071
O O14 0.624420 0.996767 0.772209
O O15 0.643385 0.080273 0.000000
O O16 0.379250 0.038149 0.500000
O O17 0.453712 0.107167 0.671762
O O18 0.209619 0.311125 0.000000
O O19 0.460457 0.217519 0.861254
O O20 0.375987 0.288569 0.000000
#
# Coordination Sequence:
#
# PCOD8237913 Si02
#       8
#     8   8   8   8   8   8   8   8
#     4   9  18  32  50  75 106 137 168 206 255 307
#     4  10  21  37  56  76 100 134 176 217 256 302
#     4   9  18  32  52  78 102 130 170 212 255 304
#     4  11  22  34  52  80 111 139 171 212 256 305
#     4  10  21  35  52  77 109 142 173 209 257 309
#     4  10  21  38  58  76  99 134 176 218 261 309
#     4   9  18  31  52  78 108 140 171 206 250 305
#     4   9  17  31  52  75 101 135 173 211 252 303
#
# _framework density 18.181829
#
# number of rings (size 3 to 8) (size 9 to 14) (size 15 to 20)
#    0.000    2.375    0.000    2.250    0.000   12.250 
#    0.000    1.250    0.000    4.500    0.000    0.000 
#    0.000    0.000    0.000    0.000    0.000    0.000 
#
# Total GULP energy -793178.641928 kJ/mol
# GULP energy per Si atom -12393.416280 kJ/mol
# Density = 1.814045 g / cm^3
# Si number density = 18.181829 Si / 1000 Ang^3
#
#
#
# Elastic Constant Matrix: (Units=GPa)
#
#
# Indices 1 2 3 4 5 6 
#
# 1 93.3383 42.3174 55.0397 0.0000 0.0000 0.0000
# 2 42.3174 108.8459 62.8629 0.0000 0.0000 0.0000
# 3 55.0397 62.8629 137.1187 0.0000 0.0000 0.0000
# 4 0.0000 0.0000 0.0000 21.1362 0.0000 0.0000
# 5 0.0000 0.0000 0.0000 0.0000 23.7771 0.0000
# 6 0.0000 0.0000 0.0000 0.0000 0.0000 16.0984
#
#
#
# Elastic Compliance Matrix: (Units=1/GPa)
#
#
# Indices 1 2 3 4 5 6 
#
# 1 0.014793 -0.003158 -0.004490 0.000000 0.000000 0.000000
# 2 -0.003158 0.013170 -0.004770 0.000000 0.000000 0.000000
# 3 -0.004490 -0.004770 0.011282 0.000000 0.000000 0.000000
# 4 0.000000 0.000000 0.000000 0.047312 0.000000 0.000000
# 5 0.000000 0.000000 0.000000 0.000000 0.042057 0.000000
# 6 0.000000 0.000000 0.000000 0.000000 0.000000 0.062118
#
#
# Mechanical properties :
#
#
# Convention : Reuss Voigt Hill
#
# Bulk Modulus (GPa) = 69.40309 73.30477 71.35393
# Shear Modulus (GPa) = 22.68878 24.14119 23.41499
#
# Velocity S-wave (km/s) = 3.53637 3.64780 3.59252
# Velocity P-wave (km/s) = 7.41142 7.62542 7.51918
#
# Compressibility (1/GPa) = 0.01440858
#
# Stress axis : x y z
#
# Youngs Moduli (GPa) = 67.59806 75.92934 88.63456
#
# Poissons Ratio (x) = 0.23979 0.39799
# Poissons Ratio (y) = 0.21348 0.42281
# Poissons Ratio (z) = 0.30353 0.36220
#
# Static dielectric constant tensor:
#      x y z
#    x 3.287400 0.000000 0.000000 
#    y 0.000000 3.294480 0.000000 
#    z 0.000000 0.000000 3.441250 
# 
# 
# High freq. dielectric constant tensor:
#      x y z
#    x 1.690750 0.000000 0.000000 
#    y 0.000000 1.695680 0.000000 
#    z 0.000000 0.000000 1.714120 
# 
# From -- ./inp_files/9301.got.cif
#   From: 2010.06.25/outbox.cif.g09.slc.cpg/sg58_5_cif.got.tgz:9301.got - 2010.06.26 21:38:00.
