data_PCOD8237601
_publ_section_title
;
Structure prediction by ZEFSAII (Michael W. Deem and Ramdas Pophale) SiO2 
 PCOD8237601
Probable space group: P N N M
;
_chemical_formula_sum "Si O2"
_cell_formula_units_Z 36
_cell_length_a 5.133506
_cell_length_b 15.863839
_cell_length_c 21.800907
_cell_angle_alpha 90.000000
_cell_angle_beta 90.000000
_cell_angle_gamma 90.000000
_cell_volume 1775.402920
_symmetry_space_group_name_H-M "P N N M"
_symmetry_group_IT_number 58
_symmetry_cell_setting 'orthorhombic'
loop_
_space_group_symop_operation_xyz
x,y,z
-x,-y,z
1/2+x,1/2-y,1/2-z
1/2-x,1/2+y,1/2-z
-x,-y,-z
x,y,-z
1/2-x,1/2+y,1/2+z
1/2+x,1/2-y,1/2+z
loop_
_atom_site_type_symbol
_atom_site_label
_atom_site_fract_x
_atom_site_fract_y
_atom_site_fract_z
Si Si1 0.000000 0.000000 0.655647
Si Si2 0.775502 0.377097 0.931033
Si Si3 0.264197 0.266098 0.068890
Si Si4 0.676441 0.637149 0.245929
Si Si5 0.320595 0.179294 0.812780
O O1 0.171628 0.936524 0.696100
O O2 0.782380 0.954682 0.613799
O O3 0.534553 0.314371 0.929149
O O4 0.031866 0.327558 0.907976
O O5 0.819456 0.412054 0.000000
O O6 0.292170 0.185113 0.113404
O O7 0.201887 0.233988 0.000000
O O8 0.675687 0.725226 0.210837
O O9 0.421045 0.627125 0.287275
O O10 0.923505 0.629412 0.290952
#
# Coordination Sequence:
#
# PCOD8237601 Si02
#       5
#     4   8   8   8   8
#     4  12  23  38  56  88 119 164 192 234 282 358
#     4  10  22  35  54  84 121 157 189 228 277 344
#     4  10  20  37  60  83 110 152 197 237 285 340
#     4  10  23  33  58  76 114 152 196 226 292 326
#     4  10  20  40  52  81 108 151 193 246 274 337
#
# _framework density 20.277087999999999
#
# number of rings (size 3 to 8) (size 9 to 14) (size 15 to 20)
#    0.000    1.778    2.222    1.667    6.222    3.556 
#    0.000    3.333    0.000    0.000    0.000    4.667 
#    0.000    0.000    0.000    0.000    0.000    0.000 
#
# Total GULP energy -446460.945246 kJ/mol
# GULP energy per Si atom -12401.692923 kJ/mol
# Density = 2.023094 g / cm^3
# Si number density = 20.277088 Si / 1000 Ang^3
#
#
#
# Elastic Constant Matrix: (Units=GPa)
#
#
# Indices 1 2 3 4 5 6 
#
# 1 111.1639 22.3358 51.7576 0.0000 0.0000 0.0000
# 2 22.3358 41.9729 51.7565 0.0000 0.0000 0.0000
# 3 51.7576 51.7565 134.3788 0.0000 0.0000 0.0000
# 4 0.0000 0.0000 0.0000 -285.2153 0.0000 0.0000
# 5 0.0000 0.0000 0.0000 0.0000 52.3354 0.0000
# 6 0.0000 0.0000 0.0000 0.0000 0.0000 18.0540
#
#
#
# Elastic Compliance Matrix: (Units=1/GPa)
#
#
# Indices 1 2 3 4 5 6 
#
# 1 0.010993 -0.001198 -0.003773 0.000000 0.000000 0.000000
# 2 -0.001198 0.045505 -0.017065 0.000000 0.000000 0.000000
# 3 -0.003773 -0.017065 0.015467 0.000000 0.000000 0.000000
# 4 0.000000 0.000000 0.000000 -0.003506 0.000000 0.000000
# 5 0.000000 0.000000 0.000000 0.000000 0.019108 0.000000
# 6 0.000000 0.000000 0.000000 0.000000 0.000000 0.055389
#
#
# Mechanical properties :
#
#
# Convention : Reuss Voigt Hill
#
# Bulk Modulus (GPa) = 35.84959 59.91282 47.88121
# Shear Modulus (GPa) = 25.46789 -32.18746 -3.35978
#
# Velocity S-wave (km/s) = 3.54784 -3.98852 -1.28862
# Velocity P-wave (km/s) = 5.87377 2.89831 4.63149
#
# Compressibility (1/GPa) = 0.02789432
#
# Stress axis : x y z
#
# Youngs Moduli (GPa) = 90.96722 21.97554 64.65175
#
# Poissons Ratio (x) = 0.02632 0.24392
# Poissons Ratio (y) = 0.10895 1.10329
# Poissons Ratio (z) = 0.34320 0.37502
#
# Static dielectric constant tensor:
#      x y z
#    x 3.944230 0.000000 0.000000 
#    y 0.000000 3.205910 0.000000 
#    z 0.000000 0.000000 4.117810 
# 
# 
# High freq. dielectric constant tensor:
#      x y z
#    x 1.814280 0.000000 0.000000 
#    y 0.000000 1.734820 0.000000 
#    z 0.000000 0.000000 1.800520 
# 
# From -- ./inp_files/28000.got.cif
#   From: 2010.06.25/outbox.cif.g09.slc.cpg/sg58_14_cif.got.tgz:28000.got - 2010.06.26 21:38:00.
