data_PCOD8237288
_publ_section_title
;
Structure prediction by ZEFSAII (Michael W. Deem and Ramdas Pophale) SiO2 
 PCOD8237288
Probable space group: P N N M
;
_chemical_formula_sum "Si O2"
_cell_formula_units_Z 64
_cell_length_a 12.042533
_cell_length_b 29.287223
_cell_length_c 8.950665
_cell_angle_alpha 90.000000
_cell_angle_beta 90.000000
_cell_angle_gamma 90.000000
_cell_volume 3156.831068
_symmetry_space_group_name_H-M "P N N M"
_symmetry_group_IT_number 58
_symmetry_cell_setting 'orthorhombic'
loop_
_space_group_symop_operation_xyz
x,y,z
-x,-y,z
1/2+x,1/2-y,1/2-z
1/2-x,1/2+y,1/2-z
-x,-y,-z
x,y,-z
1/2-x,1/2+y,1/2+z
1/2+x,1/2-y,1/2+z
loop_
_atom_site_type_symbol
_atom_site_label
_atom_site_fract_x
_atom_site_fract_y
_atom_site_fract_z
Si Si1 0.123589 0.661736 0.670941
Si Si2 0.983047 0.433354 0.332889
Si Si3 0.546630 0.222960 0.323079
Si Si4 0.174469 0.115616 0.328542
Si Si5 0.993151 0.187667 0.328379
Si Si6 0.749110 0.661699 0.177427
Si Si7 0.796234 0.560323 0.824565
Si Si8 0.242728 0.027664 0.173595
O O1 0.150429 0.674725 0.500000
O O2 0.037013 0.620409 0.681056
O O3 0.237705 0.648903 0.750375
O O4 0.067763 0.704421 0.752955
O O5 0.024820 0.445634 0.500000
O O6 0.870850 0.460182 0.296702
O O7 0.074968 0.448627 0.214645
O O8 0.538833 0.220040 0.500000
O O9 0.558296 0.275116 0.270362
O O10 0.652606 0.194397 0.262905
O O11 0.210225 0.108922 0.500000
O O12 0.166707 0.066151 0.250903
O O13 0.054536 0.139070 0.313935
O O14 0.992671 0.204233 0.500000
O O15 0.868259 0.181437 0.266509
O O16 0.763076 0.610123 0.238676
O O17 0.752368 0.659689 0.000000
O O18 0.719723 0.521942 0.745392
O O19 0.778321 0.556171 0.000000
O O20 0.212478 0.027066 0.000000
#
# Coordination Sequence:
#
# PCOD8237288 Si02
#       8
#     8   8   8   8   8   8   8   8
#     4  10  20  35  57  84 119 158 190 233 297 352
#     4   9  18  32  50  77 115 154 187 229 288 351
#     4  11  22  38  61  90 119 151 197 244 293 357
#     4  10  21  38  61  87 116 152 203 251 289 349
#     4  10  23  43  63  85 117 157 198 246 301 356
#     4   9  21  41  61  85 120 157 193 242 300 354
#     4  11  20  33  56  84 114 153 198 244 294 348
#     4  10  21  36  55  82 119 159 196 239 299 358
#
# _framework density 20.273493999999999
#
# number of rings (size 3 to 8) (size 9 to 14) (size 15 to 20)
#    0.000    2.000    1.250    3.000    1.750    5.000 
#    0.000    2.500    0.000    3.750    0.000    0.000 
#    0.000    0.000    0.000    0.000    0.000    0.000 
#
# Total GULP energy -793738.735976 kJ/mol
# GULP energy per Si atom -12402.167750 kJ/mol
# Density = 2.022735 g / cm^3
# Si number density = 20.273494 Si / 1000 Ang^3
#
#
#
# Elastic Constant Matrix: (Units=GPa)
#
#
# Indices 1 2 3 4 5 6 
#
# 1 67.7222 32.7822 26.0446 0.0000 0.0000 0.0000
# 2 32.7822 128.5413 42.4183 0.0000 0.0000 0.0000
# 3 26.0446 42.4183 97.5175 0.0000 0.0000 0.0000
# 4 0.0000 0.0000 0.0000 36.2626 0.0000 0.0000
# 5 0.0000 0.0000 0.0000 0.0000 17.6816 0.0000
# 6 0.0000 0.0000 0.0000 0.0000 0.0000 17.2495
#
#
#
# Elastic Compliance Matrix: (Units=1/GPa)
#
#
# Indices 1 2 3 4 5 6 
#
# 1 0.017672 -0.003444 -0.003222 0.000000 0.000000 0.000000
# 2 -0.003444 0.009755 -0.003323 0.000000 0.000000 0.000000
# 3 -0.003222 -0.003323 0.012561 0.000000 0.000000 0.000000
# 4 0.000000 0.000000 0.000000 0.027577 0.000000 0.000000
# 5 0.000000 0.000000 0.000000 0.000000 0.056556 0.000000
# 6 0.000000 0.000000 0.000000 0.000000 0.000000 0.057973
#
#
# Mechanical properties :
#
#
# Convention : Reuss Voigt Hill
#
# Bulk Modulus (GPa) = 49.97610 55.14126 52.55868
# Shear Modulus (GPa) = 23.95317 27.07446 25.51381
#
# Velocity S-wave (km/s) = 3.44103 3.65836 3.55136
# Velocity P-wave (km/s) = 6.36333 6.71584 6.54196
#
# Compressibility (1/GPa) = 0.02000957
#
# Stress axis : x y z
#
# Youngs Moduli (GPa) = 56.58574 102.51617 79.61386
#
# Poissons Ratio (x) = 0.35305 0.25650
# Poissons Ratio (y) = 0.19487 0.26458
# Poissons Ratio (z) = 0.18231 0.34069
#
# Static dielectric constant tensor:
#      x y z
#    x 3.439130 0.000000 0.000000 
#    y 0.000000 3.821090 0.000000 
#    z 0.000000 0.000000 3.562940 
# 
# 
# High freq. dielectric constant tensor:
#      x y z
#    x 1.767950 0.000000 0.000000 
#    y 0.000000 1.804050 0.000000 
#    z 0.000000 0.000000 1.783510 
# 
# From -- ./inp_files/4748.got.cif
#   From: 2010.06.25/outbox.cif.g09.slc.cpg/sg58_3_cif.got.tgz:4748.got - 2010.06.26 21:38:00.
