data_PCOD8237322
_publ_section_title
;
Structure prediction by ZEFSAII (Michael W. Deem and Ramdas Pophale) SiO2 
 PCOD8237322
Probable space group: P N N M
;
_chemical_formula_sum "Si O2"
_cell_formula_units_Z 48
_cell_length_a 18.907961
_cell_length_b 14.957962
_cell_length_c 9.009488
_cell_angle_alpha 90.000000
_cell_angle_beta 90.000000
_cell_angle_gamma 90.000000
_cell_volume 2548.104499
_symmetry_space_group_name_H-M "P N N M"
_symmetry_group_IT_number 58
_symmetry_cell_setting 'orthorhombic'
loop_
_space_group_symop_operation_xyz
x,y,z
-x,-y,z
1/2+x,1/2-y,1/2-z
1/2-x,1/2+y,1/2-z
-x,-y,-z
x,y,-z
1/2-x,1/2+y,1/2+z
1/2+x,1/2-y,1/2+z
loop_
_atom_site_type_symbol
_atom_site_label
_atom_site_fract_x
_atom_site_fract_y
_atom_site_fract_z
Si Si1 0.424074 0.532265 0.326166
Si Si2 0.927307 0.785353 0.673839
Si Si3 0.664354 0.116223 0.828168
Si Si4 0.419520 0.220842 0.824407
Si Si5 0.170916 0.866222 0.828535
Si Si6 0.577057 0.966941 0.324789
O O1 0.500000 0.500000 0.264380
O O2 0.428508 0.549779 0.500000
O O3 0.401249 0.624424 0.250872
O O4 0.365623 0.459228 0.283758
O O5 0.928037 0.802601 0.500000
O O6 0.872674 0.708341 0.719162
O O7 0.005074 0.758194 0.731338
O O8 0.746755 0.125105 0.796220
O O9 0.635284 0.037561 0.726303
O O10 0.648415 0.093990 0.000000
O O11 0.358403 0.287693 0.773796
O O12 0.404395 0.125971 0.751483
O O13 0.418034 0.209263 0.000000
O O14 0.155207 0.842988 0.000000
O O15 0.580769 0.954638 0.500000
O O16 0.500000 0.000000 0.272437
#
# Coordination Sequence:
#
# PCOD8237322 Si02
#       6
#     8   8   8   8   8   8
#     4  10  20  35  58  85 113 149 191 238 288 345
#     4  10  21  36  58  86 113 150 194 239 287 342
#     4  10  22  41  61  85 121 157 192 240 297 354
#     4  11  22  37  61  88 116 153 198 244 290 349
#     4  10  22  40  60  86 121 156 192 240 298 350
#     4  11  23  38  61  90 118 153 198 247 295 350
#
# _framework density 18.837530999999998
#
# number of rings (size 3 to 8) (size 9 to 14) (size 15 to 20)
#    0.000    1.667    3.333    1.000    0.000    5.000 
#    0.000    3.333    0.000    0.000    0.000    0.000 
#    0.000    0.000    0.000    0.000    0.000    0.000 
#
# Total GULP energy -595509.218358 kJ/mol
# GULP energy per Si atom -12406.442049 kJ/mol
# Density = 1.879466 g / cm^3
# Si number density = 18.837531 Si / 1000 Ang^3
#
#
#
# Elastic Constant Matrix: (Units=GPa)
#
#
# Indices 1 2 3 4 5 6 
#
# 1 121.5737 66.9702 40.6159 0.0000 0.0000 0.0000
# 2 66.9702 163.9784 57.9443 0.0000 0.0000 0.0000
# 3 40.6159 57.9443 60.2580 0.0000 0.0000 0.0000
# 4 0.0000 0.0000 0.0000 40.0321 0.0000 0.0000
# 5 0.0000 0.0000 0.0000 0.0000 19.9775 0.0000
# 6 0.0000 0.0000 0.0000 0.0000 0.0000 28.5022
#
#
#
# Elastic Compliance Matrix: (Units=1/GPa)
#
#
# Indices 1 2 3 4 5 6 
#
# 1 0.011494 -0.002964 -0.004898 0.000000 0.000000 0.000000
# 2 -0.002964 0.010001 -0.007620 0.000000 0.000000 0.000000
# 3 -0.004898 -0.007620 0.027223 0.000000 0.000000 0.000000
# 4 0.000000 0.000000 0.000000 0.024980 0.000000 0.000000
# 5 0.000000 0.000000 0.000000 0.000000 0.050056 0.000000
# 6 0.000000 0.000000 0.000000 0.000000 0.000000 0.035085
#
#
# Mechanical properties :
#
#
# Convention : Reuss Voigt Hill
#
# Bulk Modulus (GPa) = 56.31525 75.20787 65.76156
# Shear Modulus (GPa) = 25.54655 29.72102 27.63379
#
# Velocity S-wave (km/s) = 3.68659 3.97641 3.83424
# Velocity P-wave (km/s) = 6.93408 7.81624 7.38833
#
# Compressibility (1/GPa) = 0.01775718
#
# Stress axis : x y z
#
# Youngs Moduli (GPa) = 86.99983 99.98724 36.73300
#
# Poissons Ratio (x) = 0.29633 0.17990
# Poissons Ratio (y) = 0.25784 0.27989
# Poissons Ratio (z) = 0.42609 0.76186
#
# Static dielectric constant tensor:
#      x y z
#    x 3.460740 0.000000 0.000000 
#    y 0.000000 3.146350 0.000000 
#    z 0.000000 0.000000 3.361830 
# 
# 
# High freq. dielectric constant tensor:
#      x y z
#    x 1.731790 0.000000 0.000000 
#    y 0.000000 1.745020 0.000000 
#    z 0.000000 0.000000 1.727710 
# 
# From -- ./inp_files/5784.got.cif
#   From: 2010.06.25/outbox.cif.g09.slc.cpg/sg58_3_cif.got.tgz:5784.got - 2010.06.26 21:38:00.
