data_PCOD8237983
_publ_section_title
;
Structure prediction by ZEFSAII (Michael W. Deem and Ramdas Pophale) SiO2 
 PCOD8237983
Probable space group: P N N M
;
_chemical_formula_sum "Si O2"
_cell_formula_units_Z 48
_cell_length_a 15.016709
_cell_length_b 18.822863
_cell_length_c 8.908405
_cell_angle_alpha 90.000000
_cell_angle_beta 90.000000
_cell_angle_gamma 90.000000
_cell_volume 2518.027096
_symmetry_space_group_name_H-M "P N N M"
_symmetry_group_IT_number 58
_symmetry_cell_setting 'orthorhombic'
loop_
_space_group_symop_operation_xyz
x,y,z
-x,-y,z
1/2+x,1/2-y,1/2-z
1/2-x,1/2+y,1/2-z
-x,-y,-z
x,y,-z
1/2-x,1/2+y,1/2+z
1/2+x,1/2-y,1/2+z
loop_
_atom_site_type_symbol
_atom_site_label
_atom_site_fract_x
_atom_site_fract_y
_atom_site_fract_z
Si Si1 0.352303 0.666204 0.172039
Si Si2 0.347462 0.324353 0.822833
Si Si3 0.337489 0.827759 0.173481
Si Si4 0.995750 0.082567 0.174942
Si Si5 0.506610 0.917620 0.173884
Si Si6 0.351132 0.175962 0.674776
O O1 0.373959 0.748695 0.203806
O O2 0.410744 0.618066 0.280879
O O3 0.249281 0.651718 0.210339
O O4 0.374410 0.646789 0.000000
O O5 0.248605 0.345548 0.771760
O O6 0.415127 0.383903 0.767060
O O7 0.376799 0.247920 0.760311
O O8 0.351549 0.320864 0.000000
O O9 0.413749 0.882251 0.221613
O O10 0.309570 0.835897 0.000000
O O11 0.978458 0.095034 0.000000
O O12 0.000000 0.000000 0.215922
O O13 0.585823 0.887288 0.273549
O O14 0.500000 0.000000 0.210032
O O15 0.527599 0.902511 0.000000
O O16 0.363275 0.191743 0.500000
#
# Coordination Sequence:
#
# PCOD8237983 Si02
#       6
#     8   8   8   8   8   8
#     4   9  19  36  58  83 110 144 186 233 280 325
#     4  11  22  37  60  85 109 142 186 233 280 332
#     4   9  19  37  58  82 113 145 183 231 277 325
#     4  11  24  39  56  81 114 151 187 226 276 333
#     4  10  21  36  56  84 118 154 188 226 275 329
#     4  10  21  38  60  84 112 145 184 232 280 329
#
# _framework density 19.062545
#
# number of rings (size 3 to 8) (size 9 to 14) (size 15 to 20)
#    0.000    2.000    0.000    4.500    0.000    8.333 
#    0.000    5.000    0.000    0.000    0.000    0.000 
#    0.000    0.000    0.000    0.000    0.000    0.000 
#
# Total GULP energy -595456.239765 kJ/mol
# GULP energy per Si atom -12405.338328 kJ/mol
# Density = 1.901916 g / cm^3
# Si number density = 19.062545 Si / 1000 Ang^3
#
#
#
# Elastic Constant Matrix: (Units=GPa)
#
#
# Indices 1 2 3 4 5 6 
#
# 1 120.3858 85.3700 65.0599 0.0000 0.0000 0.0000
# 2 85.3700 121.1503 61.6066 0.0000 0.0000 0.0000
# 3 65.0599 61.6066 106.3773 0.0000 0.0000 0.0000
# 4 0.0000 0.0000 0.0000 27.0993 0.0000 0.0000
# 5 0.0000 0.0000 0.0000 0.0000 32.2949 0.0000
# 6 0.0000 0.0000 0.0000 0.0000 0.0000 -1.2539
#
#
#
# Elastic Compliance Matrix: (Units=1/GPa)
#
#
# Indices 1 2 3 4 5 6 
#
# 1 0.018524 -0.010336 -0.005343 0.000000 0.000000 0.000000
# 2 -0.010336 0.017467 -0.003794 0.000000 0.000000 0.000000
# 3 -0.005343 -0.003794 0.014866 0.000000 0.000000 0.000000
# 4 0.000000 0.000000 0.000000 0.036901 0.000000 0.000000
# 5 0.000000 0.000000 0.000000 0.000000 0.030965 0.000000
# 6 0.000000 0.000000 0.000000 0.000000 0.000000 -0.797528
#
#
# Mechanical properties :
#
#
# Convention : Reuss Voigt Hill
#
# Bulk Modulus (GPa) = 83.96501 85.77627 84.87064
# Shear Modulus (GPa) = -7.86302 20.68652 6.41175
#
# Velocity S-wave (km/s) = -2.03318 3.29780 1.83598
# Velocity P-wave (km/s) = 6.21538 7.71982 7.00809
#
# Compressibility (1/GPa) = 0.01190972
#
# Stress axis : x y z
#
# Youngs Moduli (GPa) = 53.98441 57.25077 67.26855
#
# Poissons Ratio (x) = 0.59174 0.35943
# Poissons Ratio (y) = 0.55798 0.25524
# Poissons Ratio (z) = 0.28845 0.21723
#
# Static dielectric constant tensor:
#      x y z
#    x 3.536620 0.000000 0.000000 
#    y 0.000000 3.412380 0.000000 
#    z 0.000000 0.000000 3.461320 
# 
# 
# High freq. dielectric constant tensor:
#      x y z
#    x 1.751700 0.000000 0.000000 
#    y 0.000000 1.738350 0.000000 
#    z 0.000000 0.000000 1.743030 
# 
# From -- ./inp_files/5798.got.cif
#   From: 2010.06.25/outbox.cif.g09.slc.cpg/sg58_3_cif.got.tgz:5798.got - 2010.06.26 21:38:00.
