data_PCOD8237558
_publ_section_title
;
Structure prediction by ZEFSAII (Michael W. Deem and Ramdas Pophale) SiO2 
 PCOD8237558
Probable space group: P N N M
;
_chemical_formula_sum "Si O2"
_cell_formula_units_Z 64
_cell_length_a 12.713239
_cell_length_b 29.204422
_cell_length_c 9.131403
_cell_angle_alpha 90.000000
_cell_angle_beta 90.000000
_cell_angle_gamma 90.000000
_cell_volume 3390.332844
_symmetry_space_group_name_H-M "P N N M"
_symmetry_group_IT_number 58
_symmetry_cell_setting 'orthorhombic'
loop_
_space_group_symop_operation_xyz
x,y,z
-x,-y,z
1/2+x,1/2-y,1/2-z
1/2-x,1/2+y,1/2-z
-x,-y,-z
x,y,-z
1/2-x,1/2+y,1/2+z
1/2+x,1/2-y,1/2+z
loop_
_atom_site_type_symbol
_atom_site_label
_atom_site_fract_x
_atom_site_fract_y
_atom_site_fract_z
Si Si1 0.116789 0.946624 0.673515
Si Si2 0.035902 0.253417 0.667191
Si Si3 0.288747 0.122486 0.326029
Si Si4 0.233566 0.375264 0.671613
Si Si5 0.496213 0.143496 0.829440
Si Si6 0.714804 0.290283 0.337242
Si Si7 0.338184 0.297066 0.159762
Si Si8 0.118530 0.050104 0.673289
O O1 0.128614 0.941730 0.500000
O O2 0.203403 0.914930 0.747808
O O3 0.997947 0.932813 0.724038
O O4 0.139183 0.998367 0.726914
O O5 0.078015 0.256523 0.500000
O O6 0.988507 0.302904 0.710883
O O7 0.126750 0.244346 0.781865
O O8 0.962548 0.208274 0.686981
O O9 0.297988 0.122081 0.500000
O O10 0.405314 0.116577 0.258817
O O11 0.234562 0.169236 0.275649
O O12 0.212330 0.082079 0.267036
O O13 0.249116 0.380988 0.500000
O O14 0.110334 0.377006 0.714203
O O15 0.280663 0.325915 0.715775
O O16 0.473258 0.135736 0.000000
O O17 0.689764 0.309774 0.500000
O O18 0.814109 0.257012 0.344355
O O19 0.314771 0.319679 0.000000
O O20 0.118109 0.050639 0.500000
#
# Coordination Sequence:
#
# PCOD8237558 Si02
#       8
#     8   8   8   8   8   8   8   8
#     4   9  18  39  66  85 110 144 181 224 282 342
#     4  10  20  37  54  72 106 152 193 233 274 320
#     4  11  22  36  58  86 113 145 192 235 278 335
#     4  11  23  37  56  84 116 146 186 234 285 335
#     4  10  21  39  56  76 114 156 190 233 282 327
#     4  11  22  36  53  80 114 149 189 229 279 332
#     4  10  21  36  54  75 107 150 196 230 267 327
#     4   8  18  38  63  88 110 141 181 228 279 336
#
# _framework density 18.877202
#
# number of rings (size 3 to 8) (size 9 to 14) (size 15 to 20)
#    0.000    2.000    2.500    1.875    1.750    2.500 
#    0.000    3.750    0.000    3.750    0.000    0.000 
#    0.000    0.000    0.000    0.000    0.000    0.000 
#
# Total GULP energy -793210.551821 kJ/mol
# GULP energy per Si atom -12393.914872 kJ/mol
# Density = 1.883424 g / cm^3
# Si number density = 18.877202 Si / 1000 Ang^3
#
#
#
# Elastic Constant Matrix: (Units=GPa)
#
#
# Indices 1 2 3 4 5 6 
#
# 1 123.4643 64.4565 48.7103 0.0000 0.0000 0.0000
# 2 64.4565 97.0157 34.6429 0.0000 0.0000 0.0000
# 3 48.7103 34.6429 66.2027 0.0000 0.0000 0.0000
# 4 0.0000 0.0000 0.0000 25.4396 0.0000 0.0000
# 5 0.0000 0.0000 0.0000 0.0000 27.4398 0.0000
# 6 0.0000 0.0000 0.0000 0.0000 0.0000 36.0526
#
#
#
# Elastic Compliance Matrix: (Units=1/GPa)
#
#
# Indices 1 2 3 4 5 6 
#
# 1 0.014625 -0.007224 -0.006980 0.000000 0.000000 0.000000
# 2 -0.007224 0.016245 -0.003185 0.000000 0.000000 0.000000
# 3 -0.006980 -0.003185 0.021908 0.000000 0.000000 0.000000
# 4 0.000000 0.000000 0.000000 0.039309 0.000000 0.000000
# 5 0.000000 0.000000 0.000000 0.000000 0.036443 0.000000
# 6 0.000000 0.000000 0.000000 0.000000 0.000000 0.027737
#
#
# Mechanical properties :
#
#
# Convention : Reuss Voigt Hill
#
# Bulk Modulus (GPa) = 55.56179 64.70022 60.13101
# Shear Modulus (GPa) = 25.37482 27.04461 26.20972
#
# Velocity S-wave (km/s) = 3.67032 3.78916 3.73021
# Velocity P-wave (km/s) = 6.88904 7.31384 7.10461
#
# Compressibility (1/GPa) = 0.01799798
#
# Stress axis : x y z
#
# Youngs Moduli (GPa) = 68.37648 61.55866 45.64556
#
# Poissons Ratio (x) = 0.44470 0.31862
# Poissons Ratio (y) = 0.49396 0.14539
# Poissons Ratio (z) = 0.47729 0.19608
#
# Static dielectric constant tensor:
#      x y z
#    x 3.670410 0.000000 0.000000 
#    y 0.000000 3.429250 0.000000 
#    z 0.000000 0.000000 3.280350 
# 
# 
# High freq. dielectric constant tensor:
#      x y z
#    x 1.745040 0.000000 0.000000 
#    y 0.000000 1.718660 0.000000 
#    z 0.000000 0.000000 1.719890 
# 
# From -- ./inp_files/4819.got.cif
#   From: 2010.06.25/outbox.cif.g09.slc.cpg/sg58_3_cif.got.tgz:4819.got - 2010.06.26 21:38:00.
