data_PCOD8237160
_publ_section_title
;
Structure prediction by ZEFSAII (Michael W. Deem and Ramdas Pophale) SiO2 
 PCOD8237160
Probable space group: P N N M
;
_chemical_formula_sum "Si O2"
_cell_formula_units_Z 40
_cell_length_a 8.851323
_cell_length_b 7.411691
_cell_length_c 21.785129
_cell_angle_alpha 90.000000
_cell_angle_beta 90.000000
_cell_angle_gamma 90.000000
_cell_volume 1429.175722
_symmetry_space_group_name_H-M "P N N M"
_symmetry_group_IT_number 58
_symmetry_cell_setting 'orthorhombic'
loop_
_space_group_symop_operation_xyz
x,y,z
-x,-y,z
1/2+x,1/2-y,1/2-z
1/2-x,1/2+y,1/2-z
-x,-y,-z
x,y,-z
1/2-x,1/2+y,1/2+z
1/2+x,1/2-y,1/2+z
loop_
_atom_site_type_symbol
_atom_site_label
_atom_site_fract_x
_atom_site_fract_y
_atom_site_fract_z
Si Si1 0.018958 0.234365 0.798636
Si Si2 0.111667 0.252796 0.932316
Si Si3 0.834637 0.957604 0.399774
Si Si4 0.156886 0.437209 0.429445
Si Si5 0.256633 0.035007 0.267412
O O1 0.004338 0.270690 0.872511
O O2 0.120350 0.049878 0.784474
O O3 0.118355 0.380124 0.760155
O O4 0.849825 0.269702 0.771558
O O5 0.213838 0.430042 0.939119
O O6 0.212262 0.079451 0.917546
O O7 0.029803 0.230073 0.000000
O O8 0.788695 0.749744 0.401786
O O9 0.831355 0.016280 0.329347
O O10 0.000000 0.000000 0.427385
O O11 0.122124 0.405315 0.500000
O O12 0.000000 0.500000 0.397160
#
# Coordination Sequence:
#
# PCOD8237160 Si02
#       5
#     8   8   8   8   8
#     4  10  24  46  67  99 133 176 225 281 341 411
#     4  10  22  41  66  95 135 179 219 276 342 403
#     4  11  22  38  63  95 134 175 224 275 338 399
#     4  10  20  34  57  94 132 173 223 270 323 395
#     4  10  25  43  67  98 131 172 228 281 343 403
#
# _framework density 27.988159
#
# number of rings (size 3 to 8) (size 9 to 14) (size 15 to 20)
#    0.000    1.800    2.000    0.600    8.400    0.800 
#    0.000    9.000    0.000    2.400    0.000    0.000 
#    0.000    0.000    0.000    0.000    0.000    0.000 
#
# Total GULP energy -495669.423921 kJ/mol
# GULP energy per Si atom -12391.735598 kJ/mol
# Density = 2.792446 g / cm^3
# Si number density = 27.988159 Si / 1000 Ang^3
#
#
#
# Elastic Constant Matrix: (Units=GPa)
#
#
# Indices 1 2 3 4 5 6 
#
# 1 106.5202 -13.1712 38.5355 0.0000 0.0000 0.0000
# 2 -13.1712 80.5050 -21.3182 0.0000 0.0000 0.0000
# 3 38.5355 -21.3182 132.2180 0.0000 0.0000 0.0000
# 4 0.0000 0.0000 0.0000 34.4806 0.0000 0.0000
# 5 0.0000 0.0000 0.0000 0.0000 30.1706 0.0000
# 6 0.0000 0.0000 0.0000 0.0000 0.0000 30.1011
#
#
#
# Elastic Compliance Matrix: (Units=1/GPa)
#
#
# Indices 1 2 3 4 5 6 
#
# 1 0.010564 0.000954 -0.002925 0.000000 0.000000 0.000000
# 2 0.000954 0.013062 0.001828 0.000000 0.000000 0.000000
# 3 -0.002925 0.001828 0.008711 0.000000 0.000000 0.000000
# 4 0.000000 0.000000 0.000000 0.029002 0.000000 0.000000
# 5 0.000000 0.000000 0.000000 0.000000 0.033145 0.000000
# 6 0.000000 0.000000 0.000000 0.000000 0.000000 0.033221
#
#
# Mechanical properties :
#
#
# Convention : Reuss Voigt Hill
#
# Bulk Modulus (GPa) = 31.20167 36.37061 33.78614
# Shear Modulus (GPa) = 36.05571 39.96360 38.00965
#
# Velocity S-wave (km/s) = 3.59311 3.78282 3.68919
# Velocity P-wave (km/s) = 5.32788 5.66594 5.49951
#
# Compressibility (1/GPa) = 0.03204956
#
# Stress axis : x y z
#
# Youngs Moduli (GPa) = 94.66067 76.55966 114.80319
#
# Poissons Ratio (x) = -0.07302 0.33582
# Poissons Ratio (y) = -0.09028 -0.20986
# Poissons Ratio (z) = 0.27690 -0.13995
#
# Static dielectric constant tensor:
#      x y z
#    x 5.113660 0.000000 0.000000 
#    y 0.000000 5.704980 0.000000 
#    z 0.000000 0.000000 4.756120 
# 
# 
# High freq. dielectric constant tensor:
#      x y z
#    x 2.143190 0.000000 0.000000 
#    y 0.000000 2.158830 0.000000 
#    z 0.000000 0.000000 2.107020 
# 
# From -- ./inp_files/31264.got.cif
#   From: 2010.06.25/outbox.cif.g09.slc.cpg/sg58_16_cif.got.tgz:31264.got - 2010.06.26 21:38:00.
