data_PCOD8237408
_publ_section_title
;
Structure prediction by ZEFSAII (Michael W. Deem and Ramdas Pophale) SiO2 
 PCOD8237408
Probable space group: P N N M
;
_chemical_formula_sum "Si O2"
_cell_formula_units_Z 52
_cell_length_a 9.348693
_cell_length_b 13.636486
_cell_length_c 20.045010
_cell_angle_alpha 90.000000
_cell_angle_beta 90.000000
_cell_angle_gamma 90.000000
_cell_volume 2555.404449
_symmetry_space_group_name_H-M "P N N M"
_symmetry_group_IT_number 58
_symmetry_cell_setting 'orthorhombic'
loop_
_space_group_symop_operation_xyz
x,y,z
-x,-y,z
1/2+x,1/2-y,1/2-z
1/2-x,1/2+y,1/2-z
-x,-y,-z
x,y,-z
1/2-x,1/2+y,1/2+z
1/2+x,1/2-y,1/2+z
loop_
_atom_site_type_symbol
_atom_site_label
_atom_site_fract_x
_atom_site_fract_y
_atom_site_fract_z
Si Si1 0.212697 0.766451 0.000000
Si Si2 0.857731 0.058675 0.390889
Si Si3 0.282974 0.289681 0.357041
Si Si4 0.911551 0.353888 0.245500
Si Si5 0.717494 0.062056 0.251179
Si Si6 0.547783 0.766378 0.880938
Si Si7 0.835597 0.467287 0.000000
Si Si8 0.010704 0.616075 0.500000
O O1 0.140733 0.803749 0.069861
O O2 0.369377 0.816150 0.000000
O O3 0.201359 0.648026 0.000000
O O4 0.825711 0.058907 0.312405
O O5 0.886248 0.169577 0.413621
O O6 0.728500 0.014071 0.432901
O O7 0.000000 0.000000 0.406602
O O8 0.354971 0.197859 0.320547
O O9 0.294003 0.389624 0.313794
O O10 0.121740 0.256221 0.371059
O O11 0.827194 0.451827 0.264716
O O12 0.883185 0.284022 0.308563
O O13 0.078340 0.373322 0.231974
O O14 0.590577 0.854798 0.931351
O O15 0.000000 0.500000 0.000000
O O16 0.000000 0.500000 0.500000
#
# Coordination Sequence:
#
# PCOD8237408 Si02
#       8
#     4   8   8   8   8   8   4   4
#     4  10  22  38  60  89 127 170 214 265 324 398
#     4  12  23  42  65  94 131 167 216 272 331 401
#     4  10  20  39  59  90 126 164 215 264 326 384
#     4  10  20  36  57  86 132 160 219 266 318 394
#     4  10  22  35  61  90 123 169 210 269 327 386
#     4  10  21  36  59  90 123 167 207 270 325 377
#     4  12  28  43  69  97 132 174 214 275 352 411
#     4  10  21  35  62  92 125 166 220 264 321 385
#
# _framework density 20.349028000000001
#
# number of rings (size 3 to 8) (size 9 to 14) (size 15 to 20)
#    0.000    1.538    1.538    4.385   10.769    0.000 
#    0.000    0.000    0.000    0.000    0.000    2.692 
#    0.000    0.000    0.000    0.000    0.000    0.000 
#
# Total GULP energy -644481.522934 kJ/mol
# GULP energy per Si atom -12393.875441 kJ/mol
# Density = 2.030271 g / cm^3
# Si number density = 20.349028 Si / 1000 Ang^3
#
#
#
# Elastic Constant Matrix: (Units=GPa)
#
#
# Indices 1 2 3 4 5 6 
#
# 1 62.2823 34.9173 33.4331 0.0000 0.0000 0.0000
# 2 34.9173 121.9339 52.6816 0.0000 0.0000 0.0000
# 3 33.4331 52.6816 176.6348 0.0000 0.0000 0.0000
# 4 0.0000 0.0000 0.0000 38.8300 0.0000 0.0000
# 5 0.0000 0.0000 0.0000 0.0000 23.2511 0.0000
# 6 0.0000 0.0000 0.0000 0.0000 0.0000 21.5246
#
#
#
# Elastic Compliance Matrix: (Units=1/GPa)
#
#
# Indices 1 2 3 4 5 6 
#
# 1 0.019962 -0.004688 -0.002380 0.000000 0.000000 0.000000
# 2 -0.004688 0.010515 -0.002249 0.000000 0.000000 0.000000
# 3 -0.002380 -0.002249 0.006783 0.000000 0.000000 0.000000
# 4 0.000000 0.000000 0.000000 0.025753 0.000000 0.000000
# 5 0.000000 0.000000 0.000000 0.000000 0.043009 0.000000
# 6 0.000000 0.000000 0.000000 0.000000 0.000000 0.046459
#
#
# Mechanical properties :
#
#
# Convention : Reuss Voigt Hill
#
# Bulk Modulus (GPa) = 53.68913 66.99055 60.33984
# Shear Modulus (GPa) = 28.19719 32.70908 30.45313
#
# Velocity S-wave (km/s) = 3.72651 4.01359 3.87271
# Velocity P-wave (km/s) = 6.70501 7.38043 7.05082
#
# Compressibility (1/GPa) = 0.01862574
#
# Stress axis : x y z
#
# Youngs Moduli (GPa) = 50.09564 95.10005 147.43536
#
# Poissons Ratio (x) = 0.44583 0.35092
# Poissons Ratio (y) = 0.23485 0.33156
# Poissons Ratio (z) = 0.11923 0.21387
#
# Static dielectric constant tensor:
#      x y z
#    x 3.415570 0.000000 0.000000 
#    y 0.000000 3.760510 0.000000 
#    z 0.000000 0.000000 4.332970 
# 
# 
# High freq. dielectric constant tensor:
#      x y z
#    x 1.755950 0.000000 0.000000 
#    y 0.000000 1.802150 0.000000 
#    z 0.000000 0.000000 1.819820 
# 
# From -- ./inp_files/28926.got.cif
#   From: 2010.06.25/outbox.cif.g09.slc.cpg/sg58_15_cif.got.tgz:28926.got - 2010.06.26 21:38:00.
