data_PCOD8237682
_publ_section_title
;
Structure prediction by ZEFSAII (Michael W. Deem and Ramdas Pophale) SiO2 
 PCOD8237682
Probable space group: P N N M
;
_chemical_formula_sum "Si O2"
_cell_formula_units_Z 64
_cell_length_a 34.493005
_cell_length_b 11.201674
_cell_length_c 8.551516
_cell_angle_alpha 90.000000
_cell_angle_beta 90.000000
_cell_angle_gamma 90.000000
_cell_volume 3304.129598
_symmetry_space_group_name_H-M "P N N M"
_symmetry_group_IT_number 58
_symmetry_cell_setting 'orthorhombic'
loop_
_space_group_symop_operation_xyz
x,y,z
-x,-y,z
1/2+x,1/2-y,1/2-z
1/2-x,1/2+y,1/2-z
-x,-y,-z
x,y,-z
1/2-x,1/2+y,1/2+z
1/2+x,1/2-y,1/2+z
loop_
_atom_site_type_symbol
_atom_site_label
_atom_site_fract_x
_atom_site_fract_y
_atom_site_fract_z
Si Si1 0.272019 0.140013 0.684187
Si Si2 0.077676 0.238190 0.681596
Si Si3 0.638806 0.863941 0.321467
Si Si4 0.544708 0.488553 0.680378
Si Si5 0.997565 0.630548 0.685671
Si Si6 0.071317 0.778159 0.318212
Si Si7 0.647378 0.131101 0.678527
Si Si8 0.270060 0.881433 0.182214
O O1 0.266202 0.131256 0.500000
O O2 0.316881 0.153918 0.730925
O O3 0.251391 0.261254 0.750014
O O4 0.256219 0.010921 0.748549
O O5 0.084603 0.265569 0.500000
O O6 0.067357 0.101359 0.707734
O O7 0.041304 0.310275 0.752987
O O8 0.116579 0.268925 0.774540
O O9 0.632733 0.822441 0.500000
O O10 0.612066 0.787001 0.207483
O O11 0.627302 0.002314 0.300192
O O12 0.500000 0.500000 0.735597
O O13 0.546786 0.448910 0.500000
O O14 0.568685 0.608440 0.706753
O O15 0.995031 0.628103 0.500000
O O16 0.000000 0.500000 0.758890
O O17 0.035998 0.697042 0.740580
O O18 0.067175 0.812750 0.500000
O O19 0.660924 0.149431 0.500000
O O20 0.684767 0.140935 0.787424
O O21 0.261406 0.889139 0.000000
#
# Coordination Sequence:
#
# PCOD8237682 Si02
#       8
#     8   8   8   8   8   8   8   8
#     4   9  20  39  61  88 123 157 194 242 292 349
#     4  11  21  36  58  81 110 145 190 238 280 334
#     4   9  19  37  58  81 115 152 185 229 284 338
#     4  11  23  39  57  76 108 151 192 233 287 346
#     4   9  18  31  50  78 109 138 173 225 280 325
#     4  11  21  35  56  81 110 144 189 236 282 333
#     4  10  21  38  59  85 119 154 186 231 288 341
#     4  10  20  37  63  91 119 157 200 242 292 351
#
# _framework density 19.369699000000001
#
# number of rings (size 3 to 8) (size 9 to 14) (size 15 to 20)
#    0.000    2.000    1.250    3.375    0.000    5.000 
#    2.250    0.000    0.000    3.000    0.000    0.000 
#    0.000    0.000    0.000    0.000    0.000    0.000 
#
# Total GULP energy -793452.255879 kJ/mol
# GULP energy per Si atom -12397.691498 kJ/mol
# Density = 1.932561 g / cm^3
# Si number density = 19.369699 Si / 1000 Ang^3
#
#
#
# Elastic Constant Matrix: (Units=GPa)
#
#
# Indices 1 2 3 4 5 6 
#
# 1 76.3096 47.0240 15.4792 0.0000 0.0000 0.0000
# 2 47.0240 132.2942 22.2215 0.0000 0.0000 0.0000
# 3 15.4792 22.2215 42.5669 0.0000 0.0000 0.0000
# 4 0.0000 0.0000 0.0000 26.5158 0.0000 0.0000
# 5 0.0000 0.0000 0.0000 0.0000 23.3738 0.0000
# 6 0.0000 0.0000 0.0000 0.0000 0.0000 37.1600
#
#
#
# Elastic Compliance Matrix: (Units=1/GPa)
#
#
# Indices 1 2 3 4 5 6 
#
# 1 0.017207 -0.005552 -0.003359 0.000000 0.000000 0.000000
# 2 -0.005552 0.010077 -0.003242 0.000000 0.000000 0.000000
# 3 -0.003359 -0.003242 0.026406 0.000000 0.000000 0.000000
# 4 0.000000 0.000000 0.000000 0.037713 0.000000 0.000000
# 5 0.000000 0.000000 0.000000 0.000000 0.042783 0.000000
# 6 0.000000 0.000000 0.000000 0.000000 0.000000 0.026911
#
#
# Mechanical properties :
#
#
# Convention : Reuss Voigt Hill
#
# Bulk Modulus (GPa) = 34.03080 46.73556 40.38318
# Shear Modulus (GPa) = 25.61511 28.50631 27.06071
#
# Velocity S-wave (km/s) = 3.64047 3.84043 3.74179
# Velocity P-wave (km/s) = 5.93952 6.62161 6.28982
#
# Compressibility (1/GPa) = 0.02938514
#
# Stress axis : x y z
#
# Youngs Moduli (GPa) = 58.11511 99.23689 37.87008
#
# Poissons Ratio (x) = 0.55098 0.12720
# Poissons Ratio (y) = 0.32266 0.12276
# Poissons Ratio (z) = 0.19520 0.32168
#
# Static dielectric constant tensor:
#      x y z
#    x 3.429910 0.000000 0.000000 
#    y 0.000000 3.759210 0.000000 
#    z 0.000000 0.000000 3.295480 
# 
# 
# High freq. dielectric constant tensor:
#      x y z
#    x 1.745440 0.000000 0.000000 
#    y 0.000000 1.761800 0.000000 
#    z 0.000000 0.000000 1.742650 
# 
# From -- ./inp_files/11039.got.cif
#   From: 2010.06.25/outbox.cif.g09.slc.cpg/sg58_6_cif.got.tgz:11039.got - 2010.06.26 21:38:00.
