data_PCOD8237458
_publ_section_title
;
Structure prediction by ZEFSAII (Michael W. Deem and Ramdas Pophale) SiO2 
 PCOD8237458
Probable space group: P N N M
;
_chemical_formula_sum "Si O2"
_cell_formula_units_Z 48
_cell_length_a 18.714532
_cell_length_b 14.904150
_cell_length_c 8.940313
_cell_angle_alpha 90.000000
_cell_angle_beta 90.000000
_cell_angle_gamma 90.000000
_cell_volume 2493.669581
_symmetry_space_group_name_H-M "P N N M"
_symmetry_group_IT_number 58
_symmetry_cell_setting 'orthorhombic'
loop_
_space_group_symop_operation_xyz
x,y,z
-x,-y,z
1/2+x,1/2-y,1/2-z
1/2-x,1/2+y,1/2-z
-x,-y,-z
x,y,-z
1/2-x,1/2+y,1/2+z
1/2+x,1/2-y,1/2+z
loop_
_atom_site_type_symbol
_atom_site_label
_atom_site_fract_x
_atom_site_fract_y
_atom_site_fract_z
Si Si1 0.338022 0.102682 0.325691
Si Si2 0.808560 0.900797 0.827380
Si Si3 0.431277 0.736342 0.327027
Si Si4 0.168527 0.398313 0.172088
Si Si5 0.186021 0.892403 0.173246
Si Si6 0.579786 0.743007 0.823740
O O1 0.342856 0.123738 0.500000
O O2 0.259096 0.128922 0.270350
O O3 0.397091 0.161505 0.242902
O O4 0.355382 0.999228 0.288371
O O5 0.874813 0.839609 0.780436
O O6 0.829967 0.003286 0.796045
O O7 0.787686 0.885681 0.000000
O O8 0.453631 0.726085 0.500000
O O9 0.398300 0.834279 0.295880
O O10 0.499244 0.722118 0.223560
O O11 0.234425 0.367411 0.273995
O O12 0.193531 0.391317 0.000000
O O13 0.129228 0.836741 0.266125
O O14 0.178628 0.867245 0.000000
O O15 0.585326 0.747720 0.000000
#
# Coordination Sequence:
#
# PCOD8237458 Si02
#       6
#     8   8   8   8   8   8
#     4  10  20  36  59  85 112 144 183 225 272 328
#     4   9  19  36  60  87 113 143 179 223 274 329
#     4  10  21  38  57  79 111 147 181 220 273 334
#     4   9  19  36  60  87 113 143 179 223 274 329
#     4  10  20  36  59  85 112 144 183 225 272 328
#     4  12  25  38  53  77 111 149 189 232 277 322
#
# _framework density 19.248740999999999
#
# number of rings (size 3 to 8) (size 9 to 14) (size 15 to 20)
#    0.000    2.000    0.000    3.500    0.000    5.333 
#    0.000    6.667    0.000    0.000    0.000    0.000 
#    0.000    0.000    0.000    0.000    0.000    0.000 
#
# Total GULP energy -595457.092096 kJ/mol
# GULP energy per Si atom -12405.356085 kJ/mol
# Density = 1.920493 g / cm^3
# Si number density = 19.248741 Si / 1000 Ang^3
#
#
#
# Elastic Constant Matrix: (Units=GPa)
#
#
# Indices 1 2 3 4 5 6 
#
# 1 48.9332 7.0306 23.7601 0.0000 0.0000 0.0000
# 2 7.0306 54.1961 13.0045 0.0000 0.0000 0.0000
# 3 23.7601 13.0045 88.6820 0.0000 0.0000 0.0000
# 4 0.0000 0.0000 0.0000 20.5141 0.0000 0.0000
# 5 0.0000 0.0000 0.0000 0.0000 38.4123 0.0000
# 6 0.0000 0.0000 0.0000 0.0000 0.0000 13.3014
#
#
#
# Elastic Compliance Matrix: (Units=1/GPa)
#
#
# Indices 1 2 3 4 5 6 
#
# 1 0.023626 -0.001602 -0.006095 0.000000 0.000000 0.000000
# 2 -0.001602 0.019233 -0.002391 0.000000 0.000000 0.000000
# 3 -0.006095 -0.002391 0.013260 0.000000 0.000000 0.000000
# 4 0.000000 0.000000 0.000000 0.048747 0.000000 0.000000
# 5 0.000000 0.000000 0.000000 0.000000 0.026033 0.000000
# 6 0.000000 0.000000 0.000000 0.000000 0.000000 0.075180
#
#
# Mechanical properties :
#
#
# Convention : Reuss Voigt Hill
#
# Bulk Modulus (GPa) = 27.82264 31.04465 29.43364
# Shear Modulus (GPa) = 20.98752 24.31328 22.65040
#
# Velocity S-wave (km/s) = 3.30560 3.55788 3.43406
# Velocity P-wave (km/s) = 5.39027 5.74815 5.57208
#
# Compressibility (1/GPa) = 0.03594195
#
# Stress axis : x y z
#
# Youngs Moduli (GPa) = 42.32673 51.99359 75.41550
#
# Poissons Ratio (x) = 0.08331 0.45965
# Poissons Ratio (y) = 0.06782 0.18032
# Poissons Ratio (z) = 0.25798 0.12432
#
# Static dielectric constant tensor:
#      x y z
#    x 3.378810 0.000000 0.000000 
#    y 0.000000 3.745890 0.000000 
#    z 0.000000 0.000000 3.547580 
# 
# 
# High freq. dielectric constant tensor:
#      x y z
#    x 1.741020 0.000000 0.000000 
#    y 0.000000 1.763950 0.000000 
#    z 0.000000 0.000000 1.750760 
# 
# From -- ./inp_files/5838.got.cif
#   From: 2010.06.25/outbox.cif.g09.slc.cpg/sg58_3_cif.got.tgz:5838.got - 2010.06.26 21:38:00.
