data_PCOD8237113
_publ_section_title
;
Structure prediction by ZEFSAII (Michael W. Deem and Ramdas Pophale) SiO2 
 PCOD8237113
Probable space group: P N N M
;
_chemical_formula_sum "Si O2"
_cell_formula_units_Z 48
_cell_length_a 18.754923
_cell_length_b 14.820068
_cell_length_c 9.353787
_cell_angle_alpha 90.000000
_cell_angle_beta 90.000000
_cell_angle_gamma 90.000000
_cell_volume 2599.877933
_symmetry_space_group_name_H-M "P N N M"
_symmetry_group_IT_number 58
_symmetry_cell_setting 'orthorhombic'
loop_
_space_group_symop_operation_xyz
x,y,z
-x,-y,z
1/2+x,1/2-y,1/2-z
1/2-x,1/2+y,1/2-z
-x,-y,-z
x,y,-z
1/2-x,1/2+y,1/2+z
1/2+x,1/2-y,1/2+z
loop_
_atom_site_type_symbol
_atom_site_label
_atom_site_fract_x
_atom_site_fract_y
_atom_site_fract_z
Si Si1 0.242844 0.699577 0.834269
Si Si2 0.023851 0.402722 0.170288
Si Si3 0.414228 0.244844 0.330558
Si Si4 0.429448 0.448156 0.668625
Si Si5 0.292581 0.499548 0.835502
Si Si6 0.819586 0.652006 0.831256
O O1 0.164700 0.723269 0.772868
O O2 0.254009 0.594105 0.810299
O O3 0.301820 0.754316 0.746099
O O4 0.249658 0.726676 0.000000
O O5 0.103443 0.381100 0.223073
O O6 0.000000 0.500000 0.230782
O O7 0.970538 0.326743 0.233134
O O8 0.020878 0.403653 0.000000
O O9 0.414521 0.236818 0.500000
O O10 0.436501 0.344716 0.280276
O O11 0.500000 0.500000 0.718166
O O12 0.417752 0.454524 0.500000
O O13 0.363059 0.496538 0.741471
O O14 0.238035 0.422523 0.785330
O O15 0.314127 0.486213 0.000000
O O16 0.820035 0.668755 0.000000
#
# Coordination Sequence:
#
# PCOD8237113 Si02
#       6
#     8   8   8   8   8   8
#     4  10  20  35  55  77 106 144 177 212 267 324
#     4   9  17  30  52  80 106 133 170 220 268 308
#     4   9  17  32  52  75 104 138 173 213 262 313
#     4  10  21  35  54  79 106 140 183 224 262 312
#     4  10  21  36  54  79 110 142 177 217 269 328
#     4  10  20  34  55  83 108 133 176 225 262 311
#
# _framework density 18.462403999999999
#
# number of rings (size 3 to 8) (size 9 to 14) (size 15 to 20)
#    0.000    2.333    1.667    1.000    2.333    5.000 
#    0.000    0.000    0.000    1.500    0.000    0.000 
#    0.000    0.000    0.000    0.000    0.000    0.000 
#
# Total GULP energy -595321.958392 kJ/mol
# GULP energy per Si atom -12402.540800 kJ/mol
# Density = 1.842038 g / cm^3
# Si number density = 18.462404 Si / 1000 Ang^3
#
#
#
# Elastic Constant Matrix: (Units=GPa)
#
#
# Indices 1 2 3 4 5 6 
#
# 1 135.4265 45.4921 27.1424 0.0000 0.0000 0.0000
# 2 45.4921 103.4617 21.0435 0.0000 0.0000 0.0000
# 3 27.1424 21.0435 23.2550 0.0000 0.0000 0.0000
# 4 0.0000 0.0000 0.0000 23.9534 0.0000 0.0000
# 5 0.0000 0.0000 0.0000 0.0000 21.8509 0.0000
# 6 0.0000 0.0000 0.0000 0.0000 0.0000 40.4568
#
#
#
# Elastic Compliance Matrix: (Units=1/GPa)
#
#
# Indices 1 2 3 4 5 6 
#
# 1 0.010146 -0.002516 -0.009566 0.000000 0.000000 0.000000
# 2 -0.002516 0.012469 -0.008347 0.000000 0.000000 0.000000
# 3 -0.009566 -0.008347 0.061720 0.000000 0.000000 0.000000
# 4 0.000000 0.000000 0.000000 0.041748 0.000000 0.000000
# 5 0.000000 0.000000 0.000000 0.000000 0.045765 0.000000
# 6 0.000000 0.000000 0.000000 0.000000 0.000000 0.024718
#
#
# Mechanical properties :
#
#
# Convention : Reuss Voigt Hill
#
# Bulk Modulus (GPa) = 23.00023 49.94435 36.47229
# Shear Modulus (GPa) = 19.84782 28.48325 24.16553
#
# Velocity S-wave (km/s) = 3.28234 3.93207 3.62180
# Velocity P-wave (km/s) = 5.18169 6.90837 6.10637
#
# Compressibility (1/GPa) = 0.04347782
#
# Stress axis : x y z
#
# Youngs Moduli (GPa) = 98.55735 80.19654 16.20214
#
# Poissons Ratio (x) = 0.20175 0.15499
# Poissons Ratio (y) = 0.24794 0.13525
# Poissons Ratio (z) = 0.94280 0.66943
#
# Static dielectric constant tensor:
#      x y z
#    x 3.555390 0.000000 0.000000 
#    y 0.000000 3.553870 0.000000 
#    z 0.000000 0.000000 2.967650 
# 
# 
# High freq. dielectric constant tensor:
#      x y z
#    x 1.728440 0.000000 0.000000 
#    y 0.000000 1.732530 0.000000 
#    z 0.000000 0.000000 1.668600 
# 
# From -- ./inp_files/5861.got.cif
#   From: 2010.06.25/outbox.cif.g09.slc.cpg/sg58_3_cif.got.tgz:5861.got - 2010.06.26 21:38:00.
