data_PCOD8237261
_publ_section_title
;
Structure prediction by ZEFSAII (Michael W. Deem and Ramdas Pophale) SiO2 
 PCOD8237261
Probable space group: P N N M
;
_chemical_formula_sum "Si O2"
_cell_formula_units_Z 56
_cell_length_a 23.335748
_cell_length_b 13.651413
_cell_length_c 8.970805
_cell_angle_alpha 90.000000
_cell_angle_beta 90.000000
_cell_angle_gamma 90.000000
_cell_volume 2857.792870
_symmetry_space_group_name_H-M "P N N M"
_symmetry_group_IT_number 58
_symmetry_cell_setting 'orthorhombic'
loop_
_space_group_symop_operation_xyz
x,y,z
-x,-y,z
1/2+x,1/2-y,1/2-z
1/2-x,1/2+y,1/2-z
-x,-y,-z
x,y,-z
1/2-x,1/2+y,1/2+z
1/2+x,1/2-y,1/2+z
loop_
_atom_site_type_symbol
_atom_site_label
_atom_site_fract_x
_atom_site_fract_y
_atom_site_fract_z
Si Si1 0.476820 0.608640 0.670532
Si Si2 0.545498 0.777598 0.822486
Si Si3 0.837580 0.528280 0.828431
Si Si4 0.062186 0.389655 0.336058
Si Si5 0.626457 0.315657 0.167732
Si Si6 0.727223 0.219035 0.322694
Si Si7 0.167085 0.691152 0.174637
O O1 0.500000 0.500000 0.678355
O O2 0.472696 0.646106 0.500000
O O3 0.519850 0.676273 0.763065
O O4 0.413412 0.607978 0.743530
O O5 0.502845 0.868700 0.781018
O O6 0.604854 0.795606 0.742336
O O7 0.552936 0.769362 0.000000
O O8 0.901922 0.535333 0.763364
O O9 0.794144 0.611498 0.767283
O O10 0.812377 0.420753 0.795861
O O11 0.846325 0.548592 0.000000
O O12 0.060795 0.436510 0.500000
O O13 0.093560 0.286081 0.337979
O O14 0.686036 0.302829 0.255571
O O15 0.639048 0.354094 0.000000
O O16 0.729065 0.228228 0.500000
O O17 0.790266 0.234608 0.256572
O O18 0.165643 0.715551 0.000000
#
# Coordination Sequence:
#
# PCOD8237261 Si02
#       7
#     8   8   8   8   8   8   8
#     4  10  20  35  56  84 116 149 190 237 284 339
#     4  10  21  37  56  82 115 151 187 231 287 341
#     4   9  20  37  58  82 109 144 187 230 284 343
#     4   8  16  31  54  81 109 139 177 220 269 329
#     4   9  17  32  55  81 108 144 185 228 279 332
#     4  10  20  38  60  81 108 147 193 240 285 340
#     4  11  23  39  57  82 116 151 189 239 291 343
#
# _framework density 19.595542999999999
#
# number of rings (size 3 to 8) (size 9 to 14) (size 15 to 20)
#    0.000    2.429    0.000    3.000    0.000    7.429 
#    2.571    2.857    0.000    0.000    0.000    0.000 
#    0.000    0.000    0.000    0.000    0.000    0.000 
#
# Total GULP energy -694262.320983 kJ/mol
# GULP energy per Si atom -12397.541446 kJ/mol
# Density = 1.955094 g / cm^3
# Si number density = 19.595543 Si / 1000 Ang^3
#
#
#
# Elastic Constant Matrix: (Units=GPa)
#
#
# Indices 1 2 3 4 5 6 
#
# 1 121.1035 28.6979 41.5640 0.0000 0.0000 0.0000
# 2 28.6979 50.5490 32.6151 0.0000 0.0000 0.0000
# 3 41.5640 32.6151 89.2007 0.0000 0.0000 0.0000
# 4 0.0000 0.0000 0.0000 22.9334 0.0000 0.0000
# 5 0.0000 0.0000 0.0000 0.0000 39.6612 0.0000
# 6 0.0000 0.0000 0.0000 0.0000 0.0000 25.4054
#
#
#
# Elastic Compliance Matrix: (Units=1/GPa)
#
#
# Indices 1 2 3 4 5 6 
#
# 1 0.010307 -0.003603 -0.003486 0.000000 0.000000 0.000000
# 2 -0.003603 0.027150 -0.008248 0.000000 0.000000 0.000000
# 3 -0.003486 -0.008248 0.015851 0.000000 0.000000 0.000000
# 4 0.000000 0.000000 0.000000 0.043604 0.000000 0.000000
# 5 0.000000 0.000000 0.000000 0.000000 0.025214 0.000000
# 6 0.000000 0.000000 0.000000 0.000000 0.000000 0.039362
#
#
# Mechanical properties :
#
#
# Convention : Reuss Voigt Hill
#
# Bulk Modulus (GPa) = 44.17960 51.84523 48.01241
# Shear Modulus (GPa) = 25.03677 28.13177 26.58427
#
# Velocity S-wave (km/s) = 3.57834 3.79307 3.68727
# Velocity P-wave (km/s) = 6.29820 6.76005 6.53321
#
# Compressibility (1/GPa) = 0.02263488
#
# Stress axis : x y z
#
# Youngs Moduli (GPa) = 97.01730 36.83221 63.08882
#
# Poissons Ratio (x) = 0.13270 0.21990
# Poissons Ratio (y) = 0.34954 0.52038
# Poissons Ratio (z) = 0.33816 0.30380
#
# Static dielectric constant tensor:
#      x y z
#    x 3.718390 0.000000 0.000000 
#    y 0.000000 3.471520 0.000000 
#    z 0.000000 0.000000 3.759970 
# 
# 
# High freq. dielectric constant tensor:
#      x y z
#    x 1.764650 0.000000 0.000000 
#    y 0.000000 1.745080 0.000000 
#    z 0.000000 0.000000 1.772360 
# 
# From -- ./inp_files/6311.got.cif
#   From: 2010.06.25/outbox.cif.g09.slc.cpg/sg58_4_cif.got.tgz:6311.got - 2010.06.26 21:38:00.
