data_PCOD8237231
_publ_section_title
;
Structure prediction by ZEFSAII (Michael W. Deem and Ramdas Pophale) SiO2 
 PCOD8237231
Probable space group: P N N M
;
_chemical_formula_sum "Si O2"
_cell_formula_units_Z 48
_cell_length_a 30.431576
_cell_length_b 9.250653
_cell_length_c 9.196885
_cell_angle_alpha 90.000000
_cell_angle_beta 90.000000
_cell_angle_gamma 90.000000
_cell_volume 2589.033029
_symmetry_space_group_name_H-M "P N N M"
_symmetry_group_IT_number 58
_symmetry_cell_setting 'orthorhombic'
loop_
_space_group_symop_operation_xyz
x,y,z
-x,-y,z
1/2+x,1/2-y,1/2-z
1/2-x,1/2+y,1/2-z
-x,-y,-z
x,y,-z
1/2-x,1/2+y,1/2+z
1/2+x,1/2-y,1/2+z
loop_
_atom_site_type_symbol
_atom_site_label
_atom_site_fract_x
_atom_site_fract_y
_atom_site_fract_z
Si Si1 0.039603 0.099728 0.169185
Si Si2 0.618553 0.890360 0.169151
Si Si3 0.709908 0.568345 0.165513
Si Si4 0.459523 0.901988 0.170445
Si Si5 0.217573 0.595285 0.663219
Si Si6 0.622383 0.596599 0.670010
O O1 0.038689 0.250255 0.250919
O O2 0.085290 0.021052 0.201693
O O3 0.033104 0.132221 0.000000
O O4 0.000000 0.000000 0.227400
O O5 0.667547 0.947428 0.202625
O O6 0.607425 0.747914 0.260729
O O7 0.585383 0.016926 0.213516
O O8 0.614180 0.847015 0.000000
O O9 0.750694 0.476650 0.221388
O O10 0.723428 0.734112 0.176887
O O11 0.666861 0.534982 0.259836
O O12 0.699808 0.523811 0.000000
O O13 0.500000 0.000000 0.223268
O O14 0.462336 0.872359 0.000000
O O15 0.229199 0.543109 0.500000
O O16 0.630067 0.621335 0.500000
#
# Coordination Sequence:
#
# PCOD8237231 Si02
#       6
#     8   8   8   8   8   8
#     4  10  22  38  55  79 110 142 178 219 262 312
#     4   9  19  36  55  78 109 141 176 220 266 313
#     4  10  21  36  55  79 107 140 177 219 268 317
#     4  10  21  36  56  83 111 140 177 219 263 314
#     4   9  19  35  53  76 107 140 177 220 262 312
#     4  10  20  35  56  80 106 139 179 220 263 314
#
# _framework density 18.539740999999999
#
# number of rings (size 3 to 8) (size 9 to 14) (size 15 to 20)
#    0.000    2.333    0.000    3.000    0.000    7.333 
#    0.000    3.333    0.000    0.000    0.000    0.000 
#    0.000    0.000    0.000    0.000    0.000    0.000 
#
# Total GULP energy -595354.532226 kJ/mol
# GULP energy per Si atom -12403.219421 kJ/mol
# Density = 1.849754 g / cm^3
# Si number density = 18.539741 Si / 1000 Ang^3
#
#
#
# Elastic Constant Matrix: (Units=GPa)
#
#
# Indices 1 2 3 4 5 6 
#
# 1 132.1441 83.8302 70.4507 0.0000 0.0000 0.0000
# 2 83.8302 120.4525 71.1580 0.0000 0.0000 0.0000
# 3 70.4507 71.1580 97.2359 0.0000 0.0000 0.0000
# 4 0.0000 0.0000 0.0000 38.6774 0.0000 0.0000
# 5 0.0000 0.0000 0.0000 0.0000 32.6284 0.0000
# 6 0.0000 0.0000 0.0000 0.0000 0.0000 30.9332
#
#
#
# Elastic Compliance Matrix: (Units=1/GPa)
#
#
# Indices 1 2 3 4 5 6 
#
# 1 0.015182 -0.007166 -0.005756 0.000000 0.000000 0.000000
# 2 -0.007166 0.018007 -0.007986 0.000000 0.000000 0.000000
# 3 -0.005756 -0.007986 0.020299 0.000000 0.000000 0.000000
# 4 0.000000 0.000000 0.000000 0.025855 0.000000 0.000000
# 5 0.000000 0.000000 0.000000 0.000000 0.030648 0.000000
# 6 0.000000 0.000000 0.000000 0.000000 0.000000 0.032328
#
#
# Mechanical properties :
#
#
# Convention : Reuss Voigt Hill
#
# Bulk Modulus (GPa) = 85.67006 88.96780 87.31893
# Shear Modulus (GPa) = 26.59243 28.74070 27.66656
#
# Velocity S-wave (km/s) = 3.79139 3.94156 3.86720
# Velocity P-wave (km/s) = 8.09168 8.29496 8.19395
#
# Compressibility (1/GPa) = 0.01167269
#
# Stress axis : x y z
#
# Youngs Moduli (GPa) = 65.86735 55.53506 49.26455
#
# Poissons Ratio (x) = 0.39795 0.28356
# Poissons Ratio (y) = 0.47199 0.39341
# Poissons Ratio (z) = 0.37913 0.44348
#
# Static dielectric constant tensor:
#      x y z
#    x 3.586710 0.000000 0.000000 
#    y 0.000000 3.304140 0.000000 
#    z 0.000000 0.000000 3.432250 
# 
# 
# High freq. dielectric constant tensor:
#      x y z
#    x 1.734060 0.000000 0.000000 
#    y 0.000000 1.713900 0.000000 
#    z 0.000000 0.000000 1.721490 
# 
# From -- ./inp_files/2869.got.cif
#   From: 2010.06.25/outbox.cif.g09.slc.cpg/sg58_2_cif.got.tgz:2869.got - 2010.06.26 21:38:00.
