data_PCOD8237130
_publ_section_title
;
Structure prediction by ZEFSAII (Michael W. Deem and Ramdas Pophale) SiO2 
 PCOD8237130
Probable space group: P N N M
;
_chemical_formula_sum "Si O2"
_cell_formula_units_Z 64
_cell_length_a 15.127933
_cell_length_b 24.724973
_cell_length_c 9.136452
_cell_angle_alpha 90.000000
_cell_angle_beta 90.000000
_cell_angle_gamma 90.000000
_cell_volume 3417.377812
_symmetry_space_group_name_H-M "P N N M"
_symmetry_group_IT_number 58
_symmetry_cell_setting 'orthorhombic'
loop_
_space_group_symop_operation_xyz
x,y,z
-x,-y,z
1/2+x,1/2-y,1/2-z
1/2-x,1/2+y,1/2-z
-x,-y,-z
x,y,-z
1/2-x,1/2+y,1/2+z
1/2+x,1/2-y,1/2+z
loop_
_atom_site_type_symbol
_atom_site_label
_atom_site_fract_x
_atom_site_fract_y
_atom_site_fract_z
Si Si1 0.298857 0.645493 0.174308
Si Si2 0.027821 0.281896 0.667583
Si Si3 0.175607 0.440087 0.327309
Si Si4 0.504301 0.340605 0.171916
Si Si5 0.165644 0.863012 0.827303
Si Si6 0.168760 0.552379 0.169719
Si Si7 0.511348 0.113800 0.330750
Si Si8 0.230025 0.262539 0.669399
O O1 0.400363 0.636865 0.224542
O O2 0.238115 0.596773 0.229662
O O3 0.262246 0.702563 0.240527
O O4 0.296564 0.650428 0.000000
O O5 0.002375 0.293797 0.500000
O O6 0.983092 0.327228 0.770045
O O7 0.132515 0.286293 0.690328
O O8 0.994969 0.222566 0.714784
O O9 0.159783 0.440966 0.500000
O O10 0.266758 0.410513 0.285599
O O11 0.183040 0.500247 0.267356
O O12 0.093961 0.409106 0.256652
O O13 0.428705 0.374867 0.253189
O O14 0.493392 0.348697 0.000000
O O15 0.202475 0.806004 0.761546
O O16 0.152723 0.859915 0.000000
O O17 0.069793 0.573295 0.191131
O O18 0.186920 0.538672 0.000000
O O19 0.536861 0.119128 0.500000
O O20 0.252470 0.257585 0.500000
#
# Coordination Sequence:
#
# PCOD8237130 Si02
#       8
#     8   8   8   8   8   8   8   8
#     4   8  16  34  57  78 106 144 183 221 272 329
#     4   9  17  33  53  78 114 149 180 214 264 331
#     4  11  23  40  58  78 108 150 189 223 275 335
#     4   9  19  34  56  83 112 146 183 226 273 325
#     4  10  20  34  56  81 108 145 186 224 273 329
#     4  10  22  38  57  81 107 141 186 233 275 323
#     4  11  22  34  54  85 115 143 182 230 275 321
#     4   8  14  29  53  76 103 143 180 213 259 324
#
# _framework density 18.727809000000001
#
# number of rings (size 3 to 8) (size 9 to 14) (size 15 to 20)
#    0.000    2.500    1.250    2.625    1.750    4.000 
#    0.000    1.250    0.000    4.500    0.000    0.000 
#    0.000    0.000    0.000    0.000    0.000    0.000 
#
# Total GULP energy -793432.120645 kJ/mol
# GULP energy per Si atom -12397.376885 kJ/mol
# Density = 1.868518 g / cm^3
# Si number density = 18.727809 Si / 1000 Ang^3
#
#
#
# Elastic Constant Matrix: (Units=GPa)
#
#
# Indices 1 2 3 4 5 6 
#
# 1 75.1725 43.8418 38.0991 0.0000 0.0000 0.0000
# 2 43.8418 101.1730 49.2321 0.0000 0.0000 0.0000
# 3 38.0991 49.2321 58.4776 0.0000 0.0000 0.0000
# 4 0.0000 0.0000 0.0000 23.9716 0.0000 0.0000
# 5 0.0000 0.0000 0.0000 0.0000 25.8817 0.0000
# 6 0.0000 0.0000 0.0000 0.0000 0.0000 24.9771
#
#
#
# Elastic Compliance Matrix: (Units=1/GPa)
#
#
# Indices 1 2 3 4 5 6 
#
# 1 0.020819 -0.004102 -0.010111 0.000000 0.000000 0.000000
# 2 -0.004102 0.017552 -0.012104 0.000000 0.000000 0.000000
# 3 -0.010111 -0.012104 0.033879 0.000000 0.000000 0.000000
# 4 0.000000 0.000000 0.000000 0.041716 0.000000 0.000000
# 5 0.000000 0.000000 0.000000 0.000000 0.038637 0.000000
# 6 0.000000 0.000000 0.000000 0.000000 0.000000 0.040037
#
#
# Mechanical properties :
#
#
# Convention : Reuss Voigt Hill
#
# Bulk Modulus (GPa) = 50.97970 55.24103 53.11036
# Shear Modulus (GPa) = 19.85609 21.87610 20.86609
#
# Velocity S-wave (km/s) = 3.25967 3.42147 3.34155
# Velocity P-wave (km/s) = 6.43800 6.72082 6.58093
#
# Compressibility (1/GPa) = 0.01961565
#
# Stress axis : x y z
#
# Youngs Moduli (GPa) = 48.03226 56.97502 29.51711
#
# Poissons Ratio (x) = 0.23369 0.29845
# Poissons Ratio (y) = 0.19701 0.35728
# Poissons Ratio (z) = 0.48565 0.68964
#
# Static dielectric constant tensor:
#      x y z
#    x 3.470600 0.000000 0.000000 
#    y 0.000000 3.606220 0.000000 
#    z 0.000000 0.000000 3.131080 
# 
# 
# High freq. dielectric constant tensor:
#      x y z
#    x 1.729100 0.000000 0.000000 
#    y 0.000000 1.726180 0.000000 
#    z 0.000000 0.000000 1.698170 
# 
# From -- ./inp_files/6778.got.cif
#   From: 2010.06.25/outbox.cif.g09.slc.cpg/sg58_4_cif.got.tgz:6778.got - 2010.06.26 21:38:00.
