data_PCOD8237780
_publ_section_title
;
Structure prediction by ZEFSAII (Michael W. Deem and Ramdas Pophale) SiO2 
 PCOD8237780
Probable space group: P N N M
;
_chemical_formula_sum "Si O2"
_cell_formula_units_Z 48
_cell_length_a 20.543601
_cell_length_b 14.974831
_cell_length_c 7.594510
_cell_angle_alpha 90.000000
_cell_angle_beta 90.000000
_cell_angle_gamma 90.000000
_cell_volume 2336.351917
_symmetry_space_group_name_H-M "P N N M"
_symmetry_group_IT_number 58
_symmetry_cell_setting 'orthorhombic'
loop_
_space_group_symop_operation_xyz
x,y,z
-x,-y,z
1/2+x,1/2-y,1/2-z
1/2-x,1/2+y,1/2-z
-x,-y,-z
x,y,-z
1/2-x,1/2+y,1/2+z
1/2+x,1/2-y,1/2+z
loop_
_atom_site_type_symbol
_atom_site_label
_atom_site_fract_x
_atom_site_fract_y
_atom_site_fract_z
Si Si1 0.304386 0.909014 0.197909
Si Si2 0.804764 0.956838 0.792430
Si Si3 0.403445 0.260380 0.208020
Si Si4 0.435457 0.457712 0.799517
Si Si5 0.401963 0.949835 0.500000
Si Si6 0.040193 0.639704 0.000000
Si Si7 0.753836 0.270440 0.293681
O O1 0.365378 0.923472 0.322341
O O2 0.284474 0.805954 0.191089
O O3 0.243586 0.965571 0.273226
O O4 0.322974 0.940469 0.000000
O O5 0.776006 0.863278 0.725190
O O6 0.876048 0.972880 0.713467
O O7 0.811114 0.958253 0.000000
O O8 0.415821 0.361247 0.278905
O O9 0.449334 0.196162 0.321778
O O10 0.329752 0.233289 0.252521
O O11 0.418402 0.248393 0.000000
O O12 0.500000 0.500000 0.706311
O O13 0.453425 0.439795 0.000000
O O14 0.466874 0.892735 0.500000
O O15 0.411899 0.055543 0.500000
O O16 0.742413 0.256430 0.500000
#
# Coordination Sequence:
#
# PCOD8237780 Si02
#       7
#     8   8   8   8   4   4   8
#     4  11  23  41  66  95 129 167 214 272 331 386
#     4  10  22  37  60  95 125 161 216 268 324 390
#     4  10  22  42  66  94 131 174 217 269 326 394
#     4  10  22  39  60  90 130 172 215 263 328 396
#     4  11  26  46  64  98 129 168 218 280 323 382
#     4  11  26  44  69  92 128 174 227 258 329 414
#     4  10  20  38  63  94 130 167 214 271 324 381
#
# _framework density 20.54485
#
# number of rings (size 3 to 8) (size 9 to 14) (size 15 to 20)
#    0.000    1.667    2.500    1.000    3.500    5.000 
#    0.000    3.333    0.000    0.000    0.000    0.000 
#    0.000    0.000    0.000    0.000    0.000    0.000 
#
# Total GULP energy -595303.646319 kJ/mol
# GULP energy per Si atom -12402.159298 kJ/mol
# Density = 2.049809 g / cm^3
# Si number density = 20.544850 Si / 1000 Ang^3
#
#
#
# Elastic Constant Matrix: (Units=GPa)
#
#
# Indices 1 2 3 4 5 6 
#
# 1 122.4532 78.7552 37.4348 0.0000 0.0000 0.0000
# 2 78.7552 165.5388 29.0625 0.0000 0.0000 0.0000
# 3 37.4348 29.0625 76.2803 0.0000 0.0000 0.0000
# 4 0.0000 0.0000 0.0000 15.1945 0.0000 0.0000
# 5 0.0000 0.0000 0.0000 0.0000 28.6975 0.0000
# 6 0.0000 0.0000 0.0000 0.0000 0.0000 36.0236
#
#
#
# Elastic Compliance Matrix: (Units=1/GPa)
#
#
# Indices 1 2 3 4 5 6 
#
# 1 0.012961 -0.005411 -0.004299 0.000000 0.000000 0.000000
# 2 -0.005411 0.008733 -0.000672 0.000000 0.000000 0.000000
# 3 -0.004299 -0.000672 0.015475 0.000000 0.000000 0.000000
# 4 0.000000 0.000000 0.000000 0.065813 0.000000 0.000000
# 5 0.000000 0.000000 0.000000 0.000000 0.034846 0.000000
# 6 0.000000 0.000000 0.000000 0.000000 0.000000 0.027760
#
#
# Mechanical properties :
#
#
# Convention : Reuss Voigt Hill
#
# Bulk Modulus (GPa) = 60.95564 72.75305 66.85434
# Shear Modulus (GPa) = 26.06598 30.58443 28.32521
#
# Velocity S-wave (km/s) = 3.56580 3.86251 3.71711
# Velocity P-wave (km/s) = 6.83280 7.44182 7.14380
#
# Compressibility (1/GPa) = 0.01640537
#
# Stress axis : x y z
#
# Youngs Moduli (GPa) = 77.15503 114.50431 64.61979
#
# Poissons Ratio (x) = 0.61963 0.27779
# Poissons Ratio (y) = 0.41752 0.04340
# Poissons Ratio (z) = 0.33168 0.07691
#
# Static dielectric constant tensor:
#      x y z
#    x 3.696610 0.000000 0.000000 
#    y 0.000000 3.957580 0.000000 
#    z 0.000000 0.000000 3.556380 
# 
# 
# High freq. dielectric constant tensor:
#      x y z
#    x 1.798150 0.000000 0.000000 
#    y 0.000000 1.815220 0.000000 
#    z 0.000000 0.000000 1.801630 
# 
# From -- ./inp_files/5935.got.cif
#   From: 2010.06.25/outbox.cif.g09.slc.cpg/sg58_3_cif.got.tgz:5935.got - 2010.06.26 21:38:00.
