data_PCOD8237820
_publ_section_title
;
Structure prediction by ZEFSAII (Michael W. Deem and Ramdas Pophale) SiO2 
 PCOD8237820
Probable space group: P N N M
;
_chemical_formula_sum "Si O2"
_cell_formula_units_Z 64
_cell_length_a 24.457241
_cell_length_b 14.566127
_cell_length_c 9.022620
_cell_angle_alpha 90.000000
_cell_angle_beta 90.000000
_cell_angle_gamma 90.000000
_cell_volume 3214.283820
_symmetry_space_group_name_H-M "P N N M"
_symmetry_group_IT_number 58
_symmetry_cell_setting 'orthorhombic'
loop_
_space_group_symop_operation_xyz
x,y,z
-x,-y,z
1/2+x,1/2-y,1/2-z
1/2-x,1/2+y,1/2-z
-x,-y,-z
x,y,-z
1/2-x,1/2+y,1/2+z
1/2+x,1/2-y,1/2+z
loop_
_atom_site_type_symbol
_atom_site_label
_atom_site_fract_x
_atom_site_fract_y
_atom_site_fract_z
Si Si1 0.057786 0.740996 0.331434
Si Si2 0.849839 0.125110 0.671134
Si Si3 0.260836 0.834820 0.826236
Si Si4 0.553126 0.947465 0.675152
Si Si5 0.170115 0.481536 0.173883
Si Si6 0.233448 0.120570 0.328646
Si Si7 0.024388 0.097196 0.326728
Si Si8 0.627080 0.449547 0.674960
O O1 0.047963 0.709161 0.500000
O O2 0.119743 0.777707 0.311554
O O3 0.048570 0.657287 0.223061
O O4 0.016728 0.821589 0.286373
O O5 0.843392 0.097522 0.500000
O O6 0.791127 0.123202 0.745462
O O7 0.886091 0.048321 0.752502
O O8 0.312978 0.889027 0.761072
O O9 0.261802 0.727530 0.789868
O O10 0.256418 0.853764 0.000000
O O11 0.553052 0.949984 0.500000
O O12 0.500000 0.000000 0.739516
O O13 0.609587 0.992487 0.733074
O O14 0.210204 0.567467 0.208192
O O15 0.169701 0.458925 0.000000
O O16 0.217260 0.106517 0.500000
O O17 0.186834 0.082032 0.223582
O O18 0.038041 0.095067 0.500000
O O19 0.080182 0.118253 0.236666
O O20 0.000000 0.000000 0.274222
O O21 0.624397 0.455124 0.500000
#
# Coordination Sequence:
#
# PCOD8237820 Si02
#       8
#     8   8   8   8   8   8   8   8
#     4  10  22  39  64  92 117 160 211 251 300 365
#     4  11  21  38  61  87 122 162 200 246 311 369
#     4  11  23  38  61  94 123 157 206 257 302 357
#     4  10  23  43  65  90 123 161 202 255 312 359
#     4  10  21  40  64  87 120 168 205 242 307 374
#     4  10  22  40  60  85 124 167 202 244 308 369
#     4  10  20  39  61  84 123 165 198 239 302 372
#     4  12  24  36  57  90 123 157 203 254 299 353
#
# _framework density 19.911123
#
# number of rings (size 3 to 8) (size 9 to 14) (size 15 to 20)
#    0.000    1.500    2.500    2.625    0.000    5.500 
#    0.000    2.500    0.000    0.000    0.000    0.000 
#    0.000    0.000    0.000    0.000    0.000    0.000 
#
# Total GULP energy -793743.931109 kJ/mol
# GULP energy per Si atom -12402.248924 kJ/mol
# Density = 1.986580 g / cm^3
# Si number density = 19.911123 Si / 1000 Ang^3
#
#
#
# Elastic Constant Matrix: (Units=GPa)
#
#
# Indices 1 2 3 4 5 6 
#
# 1 139.2293 48.9927 46.3996 0.0000 0.0000 0.0000
# 2 48.9927 96.6182 37.8788 0.0000 0.0000 0.0000
# 3 46.3996 37.8788 75.3697 0.0000 0.0000 0.0000
# 4 0.0000 0.0000 0.0000 33.5285 0.0000 0.0000
# 5 0.0000 0.0000 0.0000 0.0000 16.0809 0.0000
# 6 0.0000 0.0000 0.0000 0.0000 0.0000 26.4113
#
#
#
# Elastic Compliance Matrix: (Units=1/GPa)
#
#
# Indices 1 2 3 4 5 6 
#
# 1 0.009788 -0.003239 -0.004398 0.000000 0.000000 0.000000
# 2 -0.003239 0.013962 -0.005023 0.000000 0.000000 0.000000
# 3 -0.004398 -0.005023 0.018500 0.000000 0.000000 0.000000
# 4 0.000000 0.000000 0.000000 0.029825 0.000000 0.000000
# 5 0.000000 0.000000 0.000000 0.000000 0.062185 0.000000
# 6 0.000000 0.000000 0.000000 0.000000 0.000000 0.037863
#
#
# Mechanical properties :
#
#
# Convention : Reuss Voigt Hill
#
# Bulk Modulus (GPa) = 59.06678 64.19546 61.63112
# Shear Modulus (GPa) = 24.62028 27.06722 25.84375
#
# Velocity S-wave (km/s) = 3.52022 3.69101 3.60662
# Velocity P-wave (km/s) = 6.80090 7.10463 6.95442
#
# Compressibility (1/GPa) = 0.01692999
#
# Stress axis : x y z
#
# Youngs Moduli (GPa) = 102.16855 71.62525 54.05524
#
# Poissons Ratio (x) = 0.23199 0.23772
# Poissons Ratio (y) = 0.33092 0.27150
# Poissons Ratio (z) = 0.44931 0.35975
#
# Static dielectric constant tensor:
#      x y z
#    x 3.908850 0.000000 0.000000 
#    y 0.000000 3.667100 0.000000 
#    z 0.000000 0.000000 3.481870 
# 
# 
# High freq. dielectric constant tensor:
#      x y z
#    x 1.786500 0.000000 0.000000 
#    y 0.000000 1.775030 0.000000 
#    z 0.000000 0.000000 1.769140 
# 
# From -- ./inp_files/9990.got.cif
#   From: 2010.06.25/outbox.cif.g09.slc.cpg/sg58_5_cif.got.tgz:9990.got - 2010.06.26 21:38:00.
