data_PCOD8237150
_publ_section_title
;
Structure prediction by ZEFSAII (Michael W. Deem and Ramdas Pophale) SiO2 
 PCOD8237150
Probable space group: P N N M
;
_chemical_formula_sum "Si O2"
_cell_formula_units_Z 48
_cell_length_a 9.339957
_cell_length_b 15.407922
_cell_length_c 18.068819
_cell_angle_alpha 90.000000
_cell_angle_beta 90.000000
_cell_angle_gamma 90.000000
_cell_volume 2600.271617
_symmetry_space_group_name_H-M "P N N M"
_symmetry_group_IT_number 58
_symmetry_cell_setting 'orthorhombic'
loop_
_space_group_symop_operation_xyz
x,y,z
-x,-y,z
1/2+x,1/2-y,1/2-z
1/2-x,1/2+y,1/2-z
-x,-y,-z
x,y,-z
1/2-x,1/2+y,1/2+z
1/2+x,1/2-y,1/2+z
loop_
_atom_site_type_symbol
_atom_site_label
_atom_site_fract_x
_atom_site_fract_y
_atom_site_fract_z
Si Si1 0.687014 0.300939 0.585383
Si Si2 0.345502 0.534695 0.689212
Si Si3 0.009396 0.262101 0.415499
Si Si4 0.670017 0.330807 0.804614
Si Si5 0.908145 0.582931 0.310123
Si Si6 0.500852 0.789700 0.695587
O O1 0.652733 0.321606 0.500000
O O2 0.696894 0.391588 0.629741
O O3 0.566508 0.233687 0.615488
O O4 0.839148 0.252734 0.594669
O O5 0.500000 0.500000 0.671208
O O6 0.322823 0.571623 0.772938
O O7 0.254890 0.446864 0.684748
O O8 0.052619 0.274348 0.500000
O O9 0.092912 0.176407 0.384668
O O10 0.068088 0.344435 0.371388
O O11 0.560479 0.282636 0.750006
O O12 0.826724 0.286484 0.807202
O O13 0.949942 0.617158 0.227817
O O14 0.000000 0.500000 0.331256
#
# Coordination Sequence:
#
# PCOD8237150 Si02
#       6
#     8   8   8   8   8   8
#     4  10  22  39  55  80 114 148 183 221 271 329
#     4  11  23  34  55  85 113 143 178 232 278 318
#     4  10  22  37  57  80 111 151 184 220 270 332
#     4  10  20  36  54  80 107 143 190 223 264 323
#     4  11  19  36  56  82 109 141 182 223 275 323
#     4  10  20  34  57  78 106 146 186 227 264 323
#
# _framework density 18.459610000000001
#
# number of rings (size 3 to 8) (size 9 to 14) (size 15 to 20)
#    0.000    1.667    3.333    3.000   11.667    2.000 
#    0.000    0.000    0.000    2.000    0.000    0.000 
#    0.000    0.000    0.000    0.000    0.000    0.000 
#
# Total GULP energy -594875.393815 kJ/mol
# GULP energy per Si atom -12393.237371 kJ/mol
# Density = 1.841760 g / cm^3
# Si number density = 18.459610 Si / 1000 Ang^3
#
#
#
# Elastic Constant Matrix: (Units=GPa)
#
#
# Indices 1 2 3 4 5 6 
#
# 1 101.7089 5.6553 32.3107 0.0000 0.0000 0.0000
# 2 5.6553 27.3747 43.7902 0.0000 0.0000 0.0000
# 3 32.3107 43.7902 108.9539 0.0000 0.0000 0.0000
# 4 0.0000 0.0000 0.0000 16.7948 0.0000 0.0000
# 5 0.0000 0.0000 0.0000 0.0000 28.8463 0.0000
# 6 0.0000 0.0000 0.0000 0.0000 0.0000 24.4729
#
#
#
# Elastic Compliance Matrix: (Units=1/GPa)
#
#
# Indices 1 2 3 4 5 6 
#
# 1 0.011543 0.008657 -0.006903 0.000000 0.000000 0.000000
# 2 0.008657 0.108797 -0.046294 0.000000 0.000000 0.000000
# 3 -0.006903 -0.046294 0.029832 0.000000 0.000000 0.000000
# 4 0.000000 0.000000 0.000000 0.059542 0.000000 0.000000
# 5 0.000000 0.000000 0.000000 0.000000 0.034666 0.000000
# 6 0.000000 0.000000 0.000000 0.000000 0.000000 0.040861
#
#
# Mechanical properties :
#
#
# Convention : Reuss Voigt Hill
#
# Bulk Modulus (GPa) = 16.36872 44.61665 30.49268
# Shear Modulus (GPa) = 12.66831 24.44156 18.55493
#
# Velocity S-wave (km/s) = 2.62252 3.64271 3.17387
# Velocity P-wave (km/s) = 4.24932 6.47416 5.47592
#
# Compressibility (1/GPa) = 0.06109214
#
# Stress axis : x y z
#
# Youngs Moduli (GPa) = 86.62901 9.19146 33.52148
#
# Poissons Ratio (x) = -0.07957 0.23139
# Poissons Ratio (y) = -0.74998 1.55185
# Poissons Ratio (z) = 0.59798 0.42551
#
# Static dielectric constant tensor:
#      x y z
#    x 3.683710 0.000000 0.000000 
#    y 0.000000 4.060290 0.000000 
#    z 0.000000 0.000000 3.648080 
# 
# 
# High freq. dielectric constant tensor:
#      x y z
#    x 1.736330 0.000000 0.000000 
#    y 0.000000 1.696550 0.000000 
#    z 0.000000 0.000000 1.699570 
# 
# From -- ./inp_files/19827.got.cif
#   From: 2010.06.25/outbox.cif.g09.slc.cpg/sg58_10_cif.got.tgz:19827.got - 2010.06.26 21:38:00.
