data_PCOD8237164
_publ_section_title
;
Structure prediction by ZEFSAII (Michael W. Deem and Ramdas Pophale) SiO2 
 PCOD8237164
Probable space group: P N N M
;
_chemical_formula_sum "Si O2"
_cell_formula_units_Z 56
_cell_length_a 14.627078
_cell_length_b 21.709652
_cell_length_c 9.178486
_cell_angle_alpha 90.000000
_cell_angle_beta 90.000000
_cell_angle_gamma 90.000000
_cell_volume 2914.616969
_symmetry_space_group_name_H-M "P N N M"
_symmetry_group_IT_number 58
_symmetry_cell_setting 'orthorhombic'
loop_
_space_group_symop_operation_xyz
x,y,z
-x,-y,z
1/2+x,1/2-y,1/2-z
1/2-x,1/2+y,1/2-z
-x,-y,-z
x,y,-z
1/2-x,1/2+y,1/2+z
1/2+x,1/2-y,1/2+z
loop_
_atom_site_type_symbol
_atom_site_label
_atom_site_fract_x
_atom_site_fract_y
_atom_site_fract_z
Si Si1 0.935812 0.678633 0.673486
Si Si2 0.615021 0.753431 0.827448
Si Si3 0.917494 0.541047 0.672605
Si Si4 0.794489 0.778366 0.668037
Si Si5 0.611192 0.407089 0.166413
Si Si6 0.096724 0.887184 0.670499
Si Si7 0.214041 0.987060 0.172075
O O1 0.938232 0.679212 0.500000
O O2 0.925282 0.609975 0.737388
O O3 0.849818 0.719061 0.726376
O O4 0.028788 0.708675 0.733771
O O5 0.703739 0.785869 0.761814
O O6 0.606443 0.682929 0.776046
O O7 0.620231 0.757696 0.000000
O O8 0.926996 0.544750 0.500000
O O9 0.820729 0.511291 0.716987
O O10 0.000000 0.500000 0.738087
O O11 0.767004 0.770578 0.500000
O O12 0.858474 0.837258 0.691109
O O13 0.504456 0.412209 0.205117
O O14 0.667951 0.450926 0.271491
O O15 0.628222 0.427857 0.000000
O O16 0.118082 0.893076 0.500000
O O17 0.169017 0.926804 0.759375
O O18 0.201745 0.983103 0.000000
#
# Coordination Sequence:
#
# PCOD8237164 Si02
#       7
#     8   8   8   8   8   8   8
#     4   9  17  34  57  78 107 146 186 223 265 330
#     4  10  20  34  58  86 109 142 187 233 276 326
#     4   9  19  34  53  80 112 145 181 224 277 335
#     4  10  20  36  57  82 112 148 189 232 280 333
#     4  10  21  38  58  80 110 152 194 229 278 344
#     4  10  20  38  59  82 112 151 192 225 275 346
#     4  11  23  36  56  87 114 144 187 238 290 328
#
# _framework density 19.213502999999999
#
# number of rings (size 3 to 8) (size 9 to 14) (size 15 to 20)
#    0.000    2.143    1.429    1.714    2.000    4.571 
#    0.000    0.714    0.000    3.429    0.000    0.000 
#    0.000    0.000    0.000    0.000    0.000    0.000 
#
# Total GULP energy -694535.150578 kJ/mol
# GULP energy per Si atom -12402.413403 kJ/mol
# Density = 1.916977 g / cm^3
# Si number density = 19.213503 Si / 1000 Ang^3
#
#
#
# Elastic Constant Matrix: (Units=GPa)
#
#
# Indices 1 2 3 4 5 6 
#
# 1 120.2679 27.6061 34.4559 0.0000 0.0000 0.0000
# 2 27.6061 84.7397 25.5044 0.0000 0.0000 0.0000
# 3 34.4559 25.5044 35.6949 0.0000 0.0000 0.0000
# 4 0.0000 0.0000 0.0000 17.2141 0.0000 0.0000
# 5 0.0000 0.0000 0.0000 0.0000 28.5578 0.0000
# 6 0.0000 0.0000 0.0000 0.0000 0.0000 33.0556
#
#
#
# Elastic Compliance Matrix: (Units=1/GPa)
#
#
# Indices 1 2 3 4 5 6 
#
# 1 0.011511 -0.000517 -0.010742 0.000000 0.000000 0.000000
# 2 -0.000517 0.015057 -0.010259 0.000000 0.000000 0.000000
# 3 -0.010742 -0.010259 0.045715 0.000000 0.000000 0.000000
# 4 0.000000 0.000000 0.000000 0.058092 0.000000 0.000000
# 5 0.000000 0.000000 0.000000 0.000000 0.035017 0.000000
# 6 0.000000 0.000000 0.000000 0.000000 0.000000 0.030252
#
#
# Mechanical properties :
#
#
# Convention : Reuss Voigt Hill
#
# Bulk Modulus (GPa) = 34.19270 46.20395 40.19832
# Shear Modulus (GPa) = 20.12647 25.97456 23.05051
#
# Velocity S-wave (km/s) = 3.24005 3.68080 3.46743
# Velocity P-wave (km/s) = 5.64199 6.49340 6.08261
#
# Compressibility (1/GPa) = 0.02924601
#
# Stress axis : x y z
#
# Youngs Moduli (GPa) = 86.87384 66.41395 21.87473
#
# Poissons Ratio (x) = 0.03433 0.23498
# Poissons Ratio (y) = 0.04491 0.22442
# Poissons Ratio (z) = 0.93320 0.68137
#
# Static dielectric constant tensor:
#      x y z
#    x 3.646300 0.000000 0.000000 
#    y 0.000000 3.679210 0.000000 
#    z 0.000000 0.000000 3.155630 
# 
# 
# High freq. dielectric constant tensor:
#      x y z
#    x 1.762090 0.000000 0.000000 
#    y 0.000000 1.761020 0.000000 
#    z 0.000000 0.000000 1.707570 
# 
# From -- ./inp_files/6373.got.cif
#   From: 2010.06.25/outbox.cif.g09.slc.cpg/sg58_4_cif.got.tgz:6373.got - 2010.06.26 21:38:00.
