data_PCOD8237333
_publ_section_title
;
Structure prediction by ZEFSAII (Michael W. Deem and Ramdas Pophale) SiO2 
 PCOD8237333
Probable space group: P N N M
;
_chemical_formula_sum "Si O2"
_cell_formula_units_Z 64
_cell_length_a 17.577033
_cell_length_b 17.758256
_cell_length_c 9.326519
_cell_angle_alpha 90.000000
_cell_angle_beta 90.000000
_cell_angle_gamma 90.000000
_cell_volume 2911.155874
_symmetry_space_group_name_H-M "P N N M"
_symmetry_group_IT_number 58
_symmetry_cell_setting 'orthorhombic'
loop_
_space_group_symop_operation_xyz
x,y,z
-x,-y,z
1/2+x,1/2-y,1/2-z
1/2-x,1/2+y,1/2-z
-x,-y,-z
x,y,-z
1/2-x,1/2+y,1/2+z
1/2+x,1/2-y,1/2+z
loop_
_atom_site_type_symbol
_atom_site_label
_atom_site_fract_x
_atom_site_fract_y
_atom_site_fract_z
Si Si1 0.652954 0.167668 0.167384
Si Si2 0.832294 0.163334 0.835105
Si Si3 0.814041 0.027578 0.656697
Si Si4 0.545358 0.430261 0.842210
Si Si5 0.233159 0.583737 0.662463
Si Si6 0.117426 0.185414 0.162630
Si Si7 0.888730 0.326476 0.835652
Si Si8 0.464302 0.920590 0.665098
O O1 0.742502 0.167214 0.196876
O O2 0.620636 0.241724 0.240705
O O3 0.610183 0.096546 0.239371
O O4 0.633896 0.169858 0.000000
O O5 0.860823 0.095988 0.732226
O O6 0.876245 0.239432 0.790989
O O7 0.848335 0.142845 0.000000
O O8 0.782607 0.053151 0.500000
O O9 0.868613 0.956915 0.633788
O O10 0.747250 0.996593 0.759555
O O11 0.500000 0.500000 0.774382
O O12 0.546923 0.362610 0.728007
O O13 0.511767 0.407070 0.000000
O O14 0.211953 0.563578 0.500000
O O15 0.304122 0.640098 0.667799
O O16 0.161681 0.621672 0.735850
O O17 0.096041 0.207435 0.000000
O O18 0.975693 0.351984 0.815254
O O19 0.861758 0.337352 0.000000
O O20 0.438703 0.927300 0.500000
O O21 0.500000 0.000000 0.716215
#
# Coordination Sequence:
#
# PCOD8237333 Si02
#       8
#     8   8   8   8   8   8   8   8
#     4  11  23  40  62  87 120 160 201 253 307 365
#     4  10  22  39  60  88 120 157 204 254 307 363
#     4  10  21  35  56  84 116 154 196 246 306 363
#     4   9  19  36  56  82 118 157 196 238 292 362
#     4  10  20  35  58  88 119 152 195 250 301 360
#     4  10  20  35  58  87 117 152 196 244 298 354
#     4  10  21  40  63  87 121 162 203 254 312 366
#     4  10  24  44  64  91 126 165 210 256 308 374
#
# _framework density 21.984394000000002
#
# number of rings (size 3 to 8) (size 9 to 14) (size 15 to 20)
#    0.000    2.000    1.250    1.500    1.750    5.000 
#    0.000    2.500    0.000    0.000    0.000    0.000 
#    0.000    0.000    0.000    0.000    0.000    0.000 
#
# Total GULP energy -793499.640231 kJ/mol
# GULP energy per Si atom -12398.431879 kJ/mol
# Density = 2.193436 g / cm^3
# Si number density = 21.984394 Si / 1000 Ang^3
#
#
#
# Elastic Constant Matrix: (Units=GPa)
#
#
# Indices 1 2 3 4 5 6 
#
# 1 26.7949 3.6723 16.4953 0.0000 0.0000 0.0000
# 2 3.6723 86.2035 33.1704 0.0000 0.0000 0.0000
# 3 16.4953 33.1704 105.3927 0.0000 0.0000 0.0000
# 4 0.0000 0.0000 0.0000 36.8530 0.0000 0.0000
# 5 0.0000 0.0000 0.0000 0.0000 24.0686 0.0000
# 6 0.0000 0.0000 0.0000 0.0000 0.0000 34.1821
#
#
#
# Elastic Compliance Matrix: (Units=1/GPa)
#
#
# Indices 1 2 3 4 5 6 
#
# 1 0.041352 0.000829 -0.006733 0.000000 0.000000 0.000000
# 2 0.000829 0.013216 -0.004289 0.000000 0.000000 0.000000
# 3 -0.006733 -0.004289 0.011892 0.000000 0.000000 0.000000
# 4 0.000000 0.000000 0.000000 0.027135 0.000000 0.000000
# 5 0.000000 0.000000 0.000000 0.000000 0.041548 0.000000
# 6 0.000000 0.000000 0.000000 0.000000 0.000000 0.029255
#
#
# Mechanical properties :
#
#
# Convention : Reuss Voigt Hill
#
# Bulk Modulus (GPa) = 21.70443 36.11856 28.91150
# Shear Modulus (GPa) = 24.98237 30.02429 27.50333
#
# Velocity S-wave (km/s) = 3.37466 3.69956 3.54084
# Velocity P-wave (km/s) = 5.00785 5.89184 5.46774
#
# Compressibility (1/GPa) = 0.04607355
#
# Stress axis : x y z
#
# Youngs Moduli (GPa) = 24.18267 75.66846 84.08978
#
# Poissons Ratio (x) = -0.06274 0.56618
# Poissons Ratio (y) = -0.02005 0.36067
# Poissons Ratio (z) = 0.16282 0.32455
#
# Static dielectric constant tensor:
#      x y z
#    x 3.771440 0.000000 0.000000 
#    y 0.000000 3.998650 0.000000 
#    z 0.000000 0.000000 4.137180 
# 
# 
# High freq. dielectric constant tensor:
#      x y z
#    x 1.850800 0.000000 0.000000 
#    y 0.000000 1.868070 0.000000 
#    z 0.000000 0.000000 1.866510 
# 
# From -- ./inp_files/9311.got.cif
#   From: 2010.06.25/outbox.cif.g09.slc.cpg/sg58_5_cif.got.tgz:9311.got - 2010.06.26 21:38:00.
