data_PCOD8237342
_publ_section_title
;
Structure prediction by ZEFSAII (Michael W. Deem and Ramdas Pophale) SiO2 
 PCOD8237342
Probable space group: P N N M
;
_chemical_formula_sum "Si O2"
_cell_formula_units_Z 64
_cell_length_a 25.099702
_cell_length_b 14.320518
_cell_length_c 9.286470
_cell_angle_alpha 90.000000
_cell_angle_beta 90.000000
_cell_angle_gamma 90.000000
_cell_volume 3337.935596
_symmetry_space_group_name_H-M "P N N M"
_symmetry_group_IT_number 58
_symmetry_cell_setting 'orthorhombic'
loop_
_space_group_symop_operation_xyz
x,y,z
-x,-y,z
1/2+x,1/2-y,1/2-z
1/2-x,1/2+y,1/2-z
-x,-y,-z
x,y,-z
1/2-x,1/2+y,1/2+z
1/2+x,1/2-y,1/2+z
loop_
_atom_site_type_symbol
_atom_site_label
_atom_site_fract_x
_atom_site_fract_y
_atom_site_fract_z
Si Si1 0.925586 0.260890 0.329991
Si Si2 0.751345 0.056293 0.164138
Si Si3 0.444862 0.051747 0.331664
Si Si4 0.992162 0.895951 0.329542
Si Si5 0.808138 0.204810 0.330722
Si Si6 0.218180 0.153339 0.165412
Si Si7 0.130999 0.414565 0.667723
Si Si8 0.613738 0.296351 0.831449
O O1 0.930888 0.280975 0.500000
O O2 0.948925 0.348316 0.244342
O O3 0.864949 0.244484 0.281543
O O4 0.958471 0.168999 0.284205
O O5 0.796889 0.105337 0.258355
O O6 0.692744 0.088527 0.213710
O O7 0.755644 0.946718 0.187267
O O8 0.761237 0.085422 0.000000
O O9 0.433241 0.065017 0.500000
O O10 0.500000 0.000000 0.302794
O O11 0.397521 0.992058 0.262909
O O12 0.988262 0.902318 0.500000
O O13 0.937682 0.850503 0.269887
O O14 0.000000 0.000000 0.264082
O O15 0.807896 0.189829 0.500000
O O16 0.762411 0.274962 0.277402
O O17 0.164921 0.161163 0.255841
O O18 0.203967 0.173388 0.000000
O O19 0.125071 0.442318 0.500000
O O20 0.106003 0.313404 0.701098
O O21 0.621451 0.312855 0.000000
#
# Coordination Sequence:
#
# PCOD8237342 Si02
#       8
#     8   8   8   8   8   8   8   8
#     4  10  21  39  62  86 115 155 198 243 293 347
#     4  10  21  37  57  83 116 152 190 236 288 343
#     4  11  24  39  58  87 119 152 191 240 297 353
#     4   9  19  35  57  86 115 145 191 247 287 324
#     4  10  21  37  59  87 116 151 193 235 288 347
#     4  10  21  36  54  81 119 154 184 228 289 348
#     4  10  20  37  60  86 115 150 194 239 285 348
#     4  10  20  35  59  85 110 147 194 238 282 334
#
# _framework density 19.173525999999999
#
# number of rings (size 3 to 8) (size 9 to 14) (size 15 to 20)
#    0.000    2.000    1.250    1.875    1.750    6.000 
#    0.000    1.875    0.000    0.750    0.000    0.000 
#    0.000    0.000    0.000    0.000    0.000    0.000 
#
# Total GULP energy -793840.666767 kJ/mol
# GULP energy per Si atom -12403.760418 kJ/mol
# Density = 1.912989 g / cm^3
# Si number density = 19.173526 Si / 1000 Ang^3
#
#
#
# Elastic Constant Matrix: (Units=GPa)
#
#
# Indices 1 2 3 4 5 6 
#
# 1 121.7317 54.1700 39.8673 0.0000 0.0000 0.0000
# 2 54.1700 116.7904 39.7591 0.0000 0.0000 0.0000
# 3 39.8673 39.7591 46.5312 0.0000 0.0000 0.0000
# 4 0.0000 0.0000 0.0000 28.6845 0.0000 0.0000
# 5 0.0000 0.0000 0.0000 0.0000 25.6627 0.0000
# 6 0.0000 0.0000 0.0000 0.0000 0.0000 36.1420
#
#
#
# Elastic Compliance Matrix: (Units=1/GPa)
#
#
# Indices 1 2 3 4 5 6 
#
# 1 0.012093 -0.002936 -0.007853 0.000000 0.000000 0.000000
# 2 -0.002936 0.012787 -0.008411 0.000000 0.000000 0.000000
# 3 -0.007853 -0.008411 0.035406 0.000000 0.000000 0.000000
# 4 0.000000 0.000000 0.000000 0.034862 0.000000 0.000000
# 5 0.000000 0.000000 0.000000 0.000000 0.038967 0.000000
# 6 0.000000 0.000000 0.000000 0.000000 0.000000 0.027669
#
#
# Mechanical properties :
#
#
# Convention : Reuss Voigt Hill
#
# Bulk Modulus (GPa) = 45.68825 61.40512 53.54669
# Shear Modulus (GPa) = 24.09888 28.18162 26.14025
#
# Velocity S-wave (km/s) = 3.54910 3.83798 3.69636
# Velocity P-wave (km/s) = 6.37772 7.19275 6.79746
#
# Compressibility (1/GPa) = 0.02188746
#
# Stress axis : x y z
#
# Youngs Moduli (GPa) = 82.69321 78.20211 28.24388
#
# Poissons Ratio (x) = 0.22958 0.22179
# Poissons Ratio (y) = 0.24276 0.23756
# Poissons Ratio (z) = 0.64936 0.65776
#
# Static dielectric constant tensor:
#      x y z
#    x 3.660170 0.000000 0.000000 
#    y 0.000000 3.630230 0.000000 
#    z 0.000000 0.000000 3.329750 
# 
# 
# High freq. dielectric constant tensor:
#      x y z
#    x 1.756330 0.000000 0.000000 
#    y 0.000000 1.758540 0.000000 
#    z 0.000000 0.000000 1.721530 
# 
# From -- ./inp_files/10094.got.cif
#   From: 2010.06.25/outbox.cif.g09.slc.cpg/sg58_6_cif.got.tgz:10094.got - 2010.06.26 21:38:00.
