data_PCOD8237666
_publ_section_title
;
Structure prediction by ZEFSAII (Michael W. Deem and Ramdas Pophale) SiO2 
 PCOD8237666
Probable space group: P N N M
;
_chemical_formula_sum "Si O2"
_cell_formula_units_Z 56
_cell_length_a 19.882595
_cell_length_b 15.129413
_cell_length_c 8.912302
_cell_angle_alpha 90.000000
_cell_angle_beta 90.000000
_cell_angle_gamma 90.000000
_cell_volume 2680.927311
_symmetry_space_group_name_H-M "P N N M"
_symmetry_group_IT_number 58
_symmetry_cell_setting 'orthorhombic'
loop_
_space_group_symop_operation_xyz
x,y,z
-x,-y,z
1/2+x,1/2-y,1/2-z
1/2-x,1/2+y,1/2-z
-x,-y,-z
x,y,-z
1/2-x,1/2+y,1/2+z
1/2+x,1/2-y,1/2+z
loop_
_atom_site_type_symbol
_atom_site_label
_atom_site_fract_x
_atom_site_fract_y
_atom_site_fract_z
Si Si1 0.562902 0.823794 0.171149
Si Si2 0.423888 0.820355 0.676648
Si Si3 0.125368 0.852710 0.331739
Si Si4 0.771392 0.000008 0.325472
Si Si5 0.628221 0.342997 0.825679
Si Si6 0.997531 0.899749 0.160589
Si Si7 0.871069 0.504391 0.322766
O O1 0.499155 0.790253 0.270879
O O2 0.626133 0.754712 0.178285
O O3 0.589734 0.916949 0.231775
O O4 0.537031 0.832035 0.000000
O O5 0.419268 0.830755 0.500000
O O6 0.367797 0.748885 0.732042
O O7 0.408933 0.914315 0.748792
O O8 0.104029 0.882510 0.500000
O O9 0.071901 0.878461 0.209778
O O10 0.194059 0.904429 0.292355
O O11 0.752443 0.992183 0.500000
O O12 0.817309 0.916421 0.275821
O O13 0.705599 0.997326 0.226166
O O14 0.554792 0.381870 0.793060
O O15 0.635519 0.320629 0.000000
O O16 0.979373 0.850605 0.000000
O O17 0.000000 0.000000 0.120390
O O18 0.874005 0.514417 0.500000
#
# Coordination Sequence:
#
# PCOD8237666 Si02
#       7
#     8   8   8   8   8   8   8
#     4  10  22  41  66  93 121 158 206 257 313 374
#     4  12  25  41  65  95 123 158 207 266 318 362
#     4  10  20  37  62  90 123 163 203 249 308 372
#     4  10  23  41  62  92 128 168 208 246 302 373
#     4  11  22  38  62  92 127 166 205 250 311 374
#     4  11  21  32  53  90 129 161 201 253 306 360
#     4  11  25  44  64  88 123 169 212 256 310 369
#
# _framework density 20.888294999999999
#
# number of rings (size 3 to 8) (size 9 to 14) (size 15 to 20)
#    0.000    1.286    2.857    3.000    0.000    6.286 
#    0.000    1.429    0.000    0.000    0.000    0.000 
#    0.000    0.000    0.000    0.000    0.000    0.000 
#
# Total GULP energy -694074.239267 kJ/mol
# GULP energy per Si atom -12394.182844 kJ/mol
# Density = 2.084075 g / cm^3
# Si number density = 20.888295 Si / 1000 Ang^3
#
#
#
# Elastic Constant Matrix: (Units=GPa)
#
#
# Indices 1 2 3 4 5 6 
#
# 1 73.3367 29.2152 31.3409 0.0000 0.0000 0.0000
# 2 29.2152 122.9961 33.9616 0.0000 0.0000 0.0000
# 3 31.3409 33.9616 82.2742 0.0000 0.0000 0.0000
# 4 0.0000 0.0000 0.0000 22.3233 0.0000 0.0000
# 5 0.0000 0.0000 0.0000 0.0000 33.7842 0.0000
# 6 0.0000 0.0000 0.0000 0.0000 0.0000 119.0836
#
#
#
# Elastic Compliance Matrix: (Units=1/GPa)
#
#
# Indices 1 2 3 4 5 6 
#
# 1 0.016959 -0.002533 -0.005414 0.000000 0.000000 0.000000
# 2 -0.002533 0.009555 -0.002979 0.000000 0.000000 0.000000
# 3 -0.005414 -0.002979 0.015447 0.000000 0.000000 0.000000
# 4 0.000000 0.000000 0.000000 0.044796 0.000000 0.000000
# 5 0.000000 0.000000 0.000000 0.000000 0.029600 0.000000
# 6 0.000000 0.000000 0.000000 0.000000 0.000000 0.008397
#
#
# Mechanical properties :
#
#
# Convention : Reuss Voigt Hill
#
# Bulk Modulus (GPa) = 49.73454 51.96023 50.84738
# Shear Modulus (GPa) = 32.61386 47.31084 39.96235
#
# Velocity S-wave (km/s) = 3.95567 4.76431 4.37870
# Velocity P-wave (km/s) = 6.68764 7.42927 7.06819
#
# Compressibility (1/GPa) = 0.02010675
#
# Stress axis : x y z
#
# Youngs Moduli (GPa) = 58.96644 104.66149 64.73863
#
# Poissons Ratio (x) = 0.26512 0.35053
# Poissons Ratio (y) = 0.14937 0.19286
# Poissons Ratio (z) = 0.31927 0.31179
#
# Static dielectric constant tensor:
#      x y z
#    x 3.522780 0.000000 0.000000 
#    y 0.000000 4.240630 0.000000 
#    z 0.000000 0.000000 3.733490 
# 
# 
# High freq. dielectric constant tensor:
#      x y z
#    x 1.792190 0.000000 0.000000 
#    y 0.000000 1.842500 0.000000 
#    z 0.000000 0.000000 1.822190 
# 
# From -- ./inp_files/9005.got.cif
#   From: 2010.06.25/outbox.cif.g09.slc.cpg/sg58_5_cif.got.tgz:9005.got - 2010.06.26 21:38:00.
