data_PCOD8237953
_publ_section_title
;
Structure prediction by ZEFSAII (Michael W. Deem and Ramdas Pophale) SiO2 
 PCOD8237953
Probable space group: P N N M
;
_chemical_formula_sum "Si O2"
_cell_formula_units_Z 64
_cell_length_a 40.783783
_cell_length_b 9.600111
_cell_length_c 9.209169
_cell_angle_alpha 90.000000
_cell_angle_beta 90.000000
_cell_angle_gamma 90.000000
_cell_volume 3605.655291
_symmetry_space_group_name_H-M "P N N M"
_symmetry_group_IT_number 58
_symmetry_cell_setting 'orthorhombic'
loop_
_space_group_symop_operation_xyz
x,y,z
-x,-y,z
1/2+x,1/2-y,1/2-z
1/2-x,1/2+y,1/2-z
-x,-y,-z
x,y,-z
1/2-x,1/2+y,1/2+z
1/2+x,1/2-y,1/2+z
loop_
_atom_site_type_symbol
_atom_site_label
_atom_site_fract_x
_atom_site_fract_y
_atom_site_fract_z
Si Si1 0.969481 0.589683 0.669784
Si Si2 0.722689 0.587671 0.830879
Si Si3 0.030519 0.089683 0.330216
Si Si4 0.904604 0.910260 0.830781
Si Si5 0.404604 0.910260 0.330781
Si Si6 0.156967 0.588941 0.832641
Si Si7 0.156967 0.911059 0.832641
Si Si8 0.777311 0.412329 0.330879
O O1 0.964160 0.566585 0.500000
O O2 0.976579 0.750000 0.708465
O O3 0.936791 0.535908 0.748344
O O4 0.000000 0.500000 0.727837
O O5 0.687706 0.545528 0.764960
O O6 0.750000 0.500000 0.750000
O O7 0.729957 0.750000 0.804338
O O8 0.722783 0.549606 0.000000
O O9 0.035840 0.066585 0.500000
O O10 0.063209 0.035908 0.251656
O O11 0.000000 0.000000 0.272163
O O12 0.897227 0.750000 0.792808
O O13 0.873777 0.999817 0.776876
O O14 0.910939 0.932999 0.000000
O O15 0.410939 0.932999 0.500000
O O16 0.373777 0.999817 0.276876
O O17 0.147905 0.750000 0.812038
O O18 0.187706 0.545528 0.735039
O O19 0.165420 0.554779 0.000000
O O20 0.165420 0.945221 0.000000
O O21 0.777217 0.450394 0.500000
#
# Coordination Sequence:
#
# PCOD8237953 Si02
#       8
#     8   8   8   8   8   8   8   8
#     4   9  18  32  48  67  93 124 157 194 237 284
#     4  10  21  36  54  77 104 134 169 208 250 297
#     4   9  18  32  48  67  93 124 157 194 237 284
#     4   9  18  32  49  70  96 125 158 197 240 286
#     4   9  18  32  49  70  96 125 158 197 240 286
#     4   9  18  33  51  71  98 130 162 199 244 292
#     4   9  18  33  51  71  98 130 162 199 244 292
#     4  10  21  36  54  77 104 134 169 208 250 297
#
# _framework density 17.749894999999999
#
# number of rings (size 3 to 8) (size 9 to 14) (size 15 to 20)
#    0.000    2.750    0.000    0.750    0.000    5.000 
#    0.000    2.500    0.000    0.000    0.000    0.000 
#    0.000    0.000    0.000    0.000    0.000    0.000 
#
# Total GULP energy -793796.215249 kJ/mol
# GULP energy per Si atom -12403.065863 kJ/mol
# Density = 1.770950 g / cm^3
# Si number density = 17.749895 Si / 1000 Ang^3
#
#
#
# Elastic Constant Matrix: (Units=GPa)
#
#
# Indices 1 2 3 4 5 6 
#
# 1 193.9800 91.2147 84.8320 0.0000 0.0000 0.0000
# 2 91.2147 72.3077 47.4137 0.0000 0.0000 0.0000
# 3 84.8320 47.4137 79.7852 0.0000 0.0000 0.0000
# 4 0.0000 0.0000 0.0000 22.7456 0.0000 0.0000
# 5 0.0000 0.0000 0.0000 0.0000 39.1780 0.0000
# 6 0.0000 0.0000 0.0000 0.0000 0.0000 42.2245
#
#
#
# Elastic Compliance Matrix: (Units=1/GPa)
#
#
# Indices 1 2 3 4 5 6 
#
# 1 0.015138 -0.013996 -0.007778 0.000000 0.000000 0.000000
# 2 -0.013996 0.035600 -0.006274 0.000000 0.000000 0.000000
# 3 -0.007778 -0.006274 0.024533 0.000000 0.000000 0.000000
# 4 0.000000 0.000000 0.000000 0.043965 0.000000 0.000000
# 5 0.000000 0.000000 0.000000 0.000000 0.025525 0.000000
# 6 0.000000 0.000000 0.000000 0.000000 0.000000 0.023683
#
#
# Mechanical properties :
#
#
# Convention : Reuss Voigt Hill
#
# Bulk Modulus (GPa) = 52.15663 88.11042 70.13352
# Shear Modulus (GPa) = 21.65148 29.00378 25.32763
#
# Velocity S-wave (km/s) = 3.49637 4.04669 3.78155
# Velocity P-wave (km/s) = 6.76368 8.46062 7.65929
#
# Compressibility (1/GPa) = 0.01917302
#
# Stress axis : x y z
#
# Youngs Moduli (GPa) = 66.05843 28.09010 40.76201
#
# Poissons Ratio (x) = 0.39315 0.31706
# Poissons Ratio (y) = 0.92455 0.25576
# Poissons Ratio (z) = 0.51382 0.17625
#
# Static dielectric constant tensor:
#      x y z
#    x 3.414970 0.000000 0.000000 
#    y 0.000000 3.321220 0.000000 
#    z 0.000000 0.000000 3.277580 
# 
# 
# High freq. dielectric constant tensor:
#      x y z
#    x 1.693860 0.000000 0.000000 
#    y 0.000000 1.682190 0.000000 
#    z 0.000000 0.000000 1.684380 
# 
# From -- ./inp_files/10952.got.cif
#   From: 2010.06.25/outbox.cif.g09.slc.cpg/sg58_6_cif.got.tgz:10952.got - 2010.06.26 21:38:00.
