data_PCOD8237247
_publ_section_title
;
Structure prediction by ZEFSAII (Michael W. Deem and Ramdas Pophale) SiO2 
 PCOD8237247
Probable space group: P N N M
;
_chemical_formula_sum "Si O2"
_cell_formula_units_Z 56
_cell_length_a 17.197119
_cell_length_b 18.803539
_cell_length_c 9.169178
_cell_angle_alpha 90.000000
_cell_angle_beta 90.000000
_cell_angle_gamma 90.000000
_cell_volume 2965.006811
_symmetry_space_group_name_H-M "P N N M"
_symmetry_group_IT_number 58
_symmetry_cell_setting 'orthorhombic'
loop_
_space_group_symop_operation_xyz
x,y,z
-x,-y,z
1/2+x,1/2-y,1/2-z
1/2-x,1/2+y,1/2-z
-x,-y,-z
x,y,-z
1/2-x,1/2+y,1/2+z
1/2+x,1/2-y,1/2+z
loop_
_atom_site_type_symbol
_atom_site_label
_atom_site_fract_x
_atom_site_fract_y
_atom_site_fract_z
Si Si1 0.236040 0.276701 0.327168
Si Si2 0.837922 0.442562 0.665850
Si Si3 0.590496 0.702795 0.672500
Si Si4 0.464667 0.144600 0.328165
Si Si5 0.682324 0.363222 0.667632
Si Si6 0.618724 0.101277 0.830290
Si Si7 0.017966 0.078291 0.173794
O O1 0.238740 0.267810 0.500000
O O2 0.322195 0.292313 0.263695
O O3 0.202234 0.205228 0.261210
O O4 0.181355 0.341245 0.277820
O O5 0.865833 0.428357 0.500000
O O6 0.887921 0.395204 0.774578
O O7 0.747879 0.423138 0.685512
O O8 0.845842 0.524837 0.706708
O O9 0.595942 0.696737 0.500000
O O10 0.541706 0.772742 0.717054
O O11 0.546184 0.633729 0.735649
O O12 0.470515 0.135060 0.500000
O O13 0.539503 0.109785 0.256792
O O14 0.673359 0.339157 0.500000
O O15 0.602713 0.397114 0.727519
O O16 0.599480 0.109881 0.000000
O O17 0.015255 0.076550 0.000000
O O18 0.000000 0.000000 0.237460
#
# Coordination Sequence:
#
# PCOD8237247 Si02
#       7
#     8   8   8   8   8   8   8
#     4  10  20  36  57  79 108 148 185 219 267 325
#     4  10  21  36  54  80 113 144 178 223 272 325
#     4   9  18  32  51  77 108 139 177 222 267 321
#     4  11  21  36  57  80 109 143 180 223 274 328
#     4  10  20  35  56  82 111 142 181 227 273 319
#     4  10  22  36  54  79 109 143 180 224 273 324
#     4   9  18  31  53  83 111 139 177 229 277 317
#
# _framework density 18.886970000000002
#
# number of rings (size 3 to 8) (size 9 to 14) (size 15 to 20)
#    0.000    2.143    1.429    1.714    2.000    4.000 
#    0.000    0.000    0.000    0.429    0.000    0.000 
#    0.000    0.000    0.000    0.000    0.000    0.000 
#
# Total GULP energy -694518.783614 kJ/mol
# GULP energy per Si atom -12402.121136 kJ/mol
# Density = 1.884398 g / cm^3
# Si number density = 18.886970 Si / 1000 Ang^3
#
#
#
# Elastic Constant Matrix: (Units=GPa)
#
#
# Indices 1 2 3 4 5 6 
#
# 1 138.1270 68.8139 21.9080 0.0000 0.0000 0.0000
# 2 68.8139 136.4556 13.7742 0.0000 0.0000 0.0000
# 3 21.9080 13.7742 15.6072 0.0000 0.0000 0.0000
# 4 0.0000 0.0000 0.0000 25.0668 0.0000 0.0000
# 5 0.0000 0.0000 0.0000 0.0000 13.1432 0.0000
# 6 0.0000 0.0000 0.0000 0.0000 0.0000 35.0073
#
#
#
# Elastic Compliance Matrix: (Units=1/GPa)
#
#
# Indices 1 2 3 4 5 6 
#
# 1 0.011405 -0.004540 -0.012003 0.000000 0.000000 0.000000
# 2 -0.004540 0.009852 -0.002322 0.000000 0.000000 0.000000
# 3 -0.012003 -0.002322 0.082971 0.000000 0.000000 0.000000
# 4 0.000000 0.000000 0.000000 0.039893 0.000000 0.000000
# 5 0.000000 0.000000 0.000000 0.000000 0.076085 0.000000
# 6 0.000000 0.000000 0.000000 0.000000 0.000000 0.028565
#
#
# Mechanical properties :
#
#
# Convention : Reuss Voigt Hill
#
# Bulk Modulus (GPa) = 15.03795 55.46467 35.25131
# Shear Modulus (GPa) = 16.19856 27.02304 21.61080
#
# Velocity S-wave (km/s) = 2.93176 3.78666 3.38630
# Velocity P-wave (km/s) = 4.40904 6.96770 5.83046
#
# Compressibility (1/GPa) = 0.06649844
#
# Stress axis : x y z
#
# Youngs Moduli (GPa) = 87.67862 101.49889 12.05234
#
# Poissons Ratio (x) = 0.46081 0.14466
# Poissons Ratio (y) = 0.39806 0.02799
# Poissons Ratio (z) = 1.05240 0.23571
#
# Static dielectric constant tensor:
#      x y z
#    x 3.676170 0.000000 0.000000 
#    y 0.000000 3.690020 0.000000 
#    z 0.000000 0.000000 3.148140 
# 
# 
# High freq. dielectric constant tensor:
#      x y z
#    x 1.749540 0.000000 0.000000 
#    y 0.000000 1.747310 0.000000 
#    z 0.000000 0.000000 1.695240 
# 
# From -- ./inp_files/6426.got.cif
#   From: 2010.06.25/outbox.cif.g09.slc.cpg/sg58_4_cif.got.tgz:6426.got - 2010.06.26 21:38:00.
