data_PCOD8237906
_publ_section_title
;
Structure prediction by ZEFSAII (Michael W. Deem and Ramdas Pophale) SiO2 
 PCOD8237906
Probable space group: P N N M
;
_chemical_formula_sum "Si O2"
_cell_formula_units_Z 64
_cell_length_a 34.018554
_cell_length_b 11.967169
_cell_length_c 8.934380
_cell_angle_alpha 90.000000
_cell_angle_beta 90.000000
_cell_angle_gamma 90.000000
_cell_volume 3637.237782
_symmetry_space_group_name_H-M "P N N M"
_symmetry_group_IT_number 58
_symmetry_cell_setting 'orthorhombic'
loop_
_space_group_symop_operation_xyz
x,y,z
-x,-y,z
1/2+x,1/2-y,1/2-z
1/2-x,1/2+y,1/2-z
-x,-y,-z
x,y,-z
1/2-x,1/2+y,1/2+z
1/2+x,1/2-y,1/2+z
loop_
_atom_site_type_symbol
_atom_site_label
_atom_site_fract_x
_atom_site_fract_y
_atom_site_fract_z
Si Si1 0.661597 0.059622 0.171540
Si Si2 0.448999 0.107289 0.323084
Si Si3 0.178203 0.101559 0.821351
Si Si4 0.370868 0.174364 0.172944
Si Si5 0.534288 0.140786 0.322431
Si Si6 0.731658 0.214614 0.824921
Si Si7 0.888732 0.740486 0.176154
Si Si8 0.810575 0.137198 0.676643
O O1 0.706014 0.102052 0.200203
O O2 0.631607 0.127012 0.272874
O O3 0.657567 0.929675 0.215898
O O4 0.649854 0.081169 0.000000
O O5 0.445256 0.111938 0.500000
O O6 0.412129 0.173377 0.258007
O O7 0.489854 0.166808 0.267965
O O8 0.450584 0.979807 0.263628
O O9 0.212286 0.180447 0.758216
O O10 0.135665 0.151367 0.768827
O O11 0.181661 0.981730 0.748741
O O12 0.182358 0.093360 0.000000
O O13 0.348319 0.287446 0.214621
O O14 0.381374 0.169603 0.000000
O O15 0.533496 0.133336 0.500000
O O16 0.565572 0.236111 0.268036
O O17 0.773493 0.195435 0.751585
O O18 0.736129 0.242635 0.000000
O O19 0.887555 0.739207 0.000000
O O20 0.803403 0.126194 0.500000
#
# Coordination Sequence:
#
# PCOD8237906 Si02
#       8
#     8   8   8   8   8   8   8   8
#     4   9  18  32  50  74 104 133 163 206 259 310
#     4   9  16  28  49  75 107 139 170 208 255 317
#     4  10  21  37  56  78 105 136 177 223 261 312
#     4  10  21  35  50  73 107 142 171 212 264 310
#     4   8  14  26  47  78 108 134 165 209 261 307
#     4  10  21  37  58  81 104 133 171 218 268 320
#     4   9  16  30  53  77 102 134 169 209 257 308
#     4  11  24  39  55  75 104 143 181 221 268 312
#
# _framework density 17.595770999999999
#
# number of rings (size 3 to 8) (size 9 to 14) (size 15 to 20)
#    0.000    2.500    1.250    1.875    1.750    2.000 
#    0.000    1.875    0.000    0.750    0.000    5.250 
#    0.000    0.000    0.000    0.000    0.000    0.000 
#
# Total GULP energy -793187.383399 kJ/mol
# GULP energy per Si atom -12393.552866 kJ/mol
# Density = 1.755572 g / cm^3
# Si number density = 17.595771 Si / 1000 Ang^3
#
#
#
# Elastic Constant Matrix: (Units=GPa)
#
#
# Indices 1 2 3 4 5 6 
#
# 1 154.4263 70.5966 57.2647 0.0000 0.0000 0.0000
# 2 70.5966 117.7782 48.4071 0.0000 0.0000 0.0000
# 3 57.2647 48.4071 48.6503 0.0000 0.0000 0.0000
# 4 0.0000 0.0000 0.0000 12.9705 0.0000 0.0000
# 5 0.0000 0.0000 0.0000 0.0000 25.2106 0.0000
# 6 0.0000 0.0000 0.0000 0.0000 0.0000 21.5512
#
#
#
# Elastic Compliance Matrix: (Units=1/GPa)
#
#
# Indices 1 2 3 4 5 6 
#
# 1 0.011854 -0.002319 -0.011646 0.000000 0.000000 0.000000
# 2 -0.002319 0.014819 -0.012015 0.000000 0.000000 0.000000
# 3 -0.011646 -0.012015 0.046218 0.000000 0.000000 0.000000
# 4 0.000000 0.000000 0.000000 0.077098 0.000000 0.000000
# 5 0.000000 0.000000 0.000000 0.000000 0.039666 0.000000
# 6 0.000000 0.000000 0.000000 0.000000 0.000000 0.046401
#
#
# Mechanical properties :
#
#
# Convention : Reuss Voigt Hill
#
# Bulk Modulus (GPa) = 47.77606 74.82127 61.29867
# Shear Modulus (GPa) = 16.94956 21.58554 19.26755
#
# Velocity S-wave (km/s) = 3.10703 3.50629 3.31268
# Velocity P-wave (km/s) = 6.33107 7.68158 7.03879
#
# Compressibility (1/GPa) = 0.02093099
#
# Stress axis : x y z
#
# Youngs Moduli (GPa) = 84.35785 67.48200 21.63672
#
# Poissons Ratio (x) = 0.15649 0.25198
# Poissons Ratio (y) = 0.19563 0.25997
# Poissons Ratio (z) = 0.98242 0.81080
#
# Static dielectric constant tensor:
#      x y z
#    x 3.710230 0.000000 0.000000 
#    y 0.000000 3.186200 0.000000 
#    z 0.000000 0.000000 3.189920 
# 
# 
# High freq. dielectric constant tensor:
#      x y z
#    x 1.689990 0.000000 0.000000 
#    y 0.000000 1.656100 0.000000 
#    z 0.000000 0.000000 1.672450 
# 
# From -- ./inp_files/11022.got.cif
#   From: 2010.06.25/outbox.cif.g09.slc.cpg/sg58_6_cif.got.tgz:11022.got - 2010.06.26 21:38:00.
