data_PCOD8237448
_publ_section_title
;
Structure prediction by ZEFSAII (Michael W. Deem and Ramdas Pophale) SiO2 
 PCOD8237448
Probable space group: P N N M
;
_chemical_formula_sum "Si O2"
_cell_formula_units_Z 48
_cell_length_a 15.088751
_cell_length_b 18.859372
_cell_length_c 8.618760
_cell_angle_alpha 90.000000
_cell_angle_beta 90.000000
_cell_angle_gamma 90.000000
_cell_volume 2452.591993
_symmetry_space_group_name_H-M "P N N M"
_symmetry_group_IT_number 58
_symmetry_cell_setting 'orthorhombic'
loop_
_space_group_symop_operation_xyz
x,y,z
-x,-y,z
1/2+x,1/2-y,1/2-z
1/2-x,1/2+y,1/2-z
-x,-y,-z
x,y,-z
1/2-x,1/2+y,1/2+z
1/2+x,1/2-y,1/2+z
loop_
_atom_site_type_symbol
_atom_site_label
_atom_site_fract_x
_atom_site_fract_y
_atom_site_fract_z
Si Si1 0.912781 0.832061 0.319455
Si Si2 0.251887 0.419184 0.180453
Si Si3 0.240472 0.582323 0.180467
Si Si4 0.407336 0.178024 0.180679
Si Si5 0.406198 0.816808 0.318957
Si Si6 0.401077 0.327630 0.680462
O O1 0.936615 0.833698 0.500000
O O2 0.837234 0.888225 0.276951
O O3 0.879368 0.753665 0.274519
O O4 0.000345 0.853085 0.224484
O O5 0.237369 0.500364 0.226268
O O6 0.162445 0.378118 0.225317
O O7 0.333551 0.389841 0.278679
O O8 0.275207 0.410879 0.000000
O O9 0.167833 0.621412 0.282980
O O10 0.218885 0.595062 0.000000
O O11 0.496020 0.156877 0.273127
O O12 0.374391 0.256371 0.227848
O O13 0.429234 0.177325 0.000000
O O14 0.403941 0.798705 0.500000
O O15 0.396957 0.310050 0.500000
#
# Coordination Sequence:
#
# PCOD8237448 Si02
#       6
#     8   8   8   8   8   8
#     4  10  20  36  59  83 109 143 185 231 276 327
#     4  10  22  39  58  82 114 151 187 226 277 334
#     4  10  22  39  58  82 114 151 187 226 277 334
#     4  11  22  37  59  84 112 145 185 232 278 329
#     4  10  20  36  59  83 109 143 185 231 276 327
#     4  11  22  37  59  84 112 145 185 232 278 329
#
# _framework density 19.571131999999999
#
# number of rings (size 3 to 8) (size 9 to 14) (size 15 to 20)
#    0.000    1.667    0.000    7.000    0.000    7.333 
#    0.000    6.667    0.000    0.000    0.000    0.000 
#    0.000    0.000    0.000    0.000    0.000    0.000 
#
# Total GULP energy -595478.334956 kJ/mol
# GULP energy per Si atom -12405.798645 kJ/mol
# Density = 1.952659 g / cm^3
# Si number density = 19.571132 Si / 1000 Ang^3
#
#
#
# Elastic Constant Matrix: (Units=GPa)
#
#
# Indices 1 2 3 4 5 6 
#
# 1 63.6950 26.6482 20.1286 0.0000 0.0000 0.0000
# 2 26.6482 59.9846 13.6421 0.0000 0.0000 0.0000
# 3 20.1286 13.6421 51.5960 0.0000 0.0000 0.0000
# 4 0.0000 0.0000 0.0000 26.9291 0.0000 0.0000
# 5 0.0000 0.0000 0.0000 0.0000 18.1239 0.0000
# 6 0.0000 0.0000 0.0000 0.0000 0.0000 10.4485
#
#
#
# Elastic Compliance Matrix: (Units=1/GPa)
#
#
# Indices 1 2 3 4 5 6 
#
# 1 0.020931 -0.007918 -0.006072 0.000000 0.000000 0.000000
# 2 -0.007918 0.020733 -0.002393 0.000000 0.000000 0.000000
# 3 -0.006072 -0.002393 0.022383 0.000000 0.000000 0.000000
# 4 0.000000 0.000000 0.000000 0.037135 0.000000 0.000000
# 5 0.000000 0.000000 0.000000 0.000000 0.055176 0.000000
# 6 0.000000 0.000000 0.000000 0.000000 0.000000 0.095708
#
#
# Mechanical properties :
#
#
# Convention : Reuss Voigt Hill
#
# Bulk Modulus (GPa) = 31.96819 32.90150 32.43485
# Shear Modulus (GPa) = 16.93436 18.75741 17.84589
#
# Velocity S-wave (km/s) = 2.94474 3.09920 3.02296
# Velocity P-wave (km/s) = 5.28506 5.44559 5.36592
#
# Compressibility (1/GPa) = 0.03128109
#
# Stress axis : x y z
#
# Youngs Moduli (GPa) = 47.77525 48.23307 44.67691
#
# Poissons Ratio (x) = 0.38190 0.27129
# Poissons Ratio (y) = 0.37827 0.10691
# Poissons Ratio (z) = 0.29010 0.11542
#
# Static dielectric constant tensor:
#      x y z
#    x 3.612890 0.000000 0.000000 
#    y 0.000000 3.523280 0.000000 
#    z 0.000000 0.000000 3.582110 
# 
# 
# High freq. dielectric constant tensor:
#      x y z
#    x 1.772780 0.000000 0.000000 
#    y 0.000000 1.755840 0.000000 
#    z 0.000000 0.000000 1.767660 
# 
# From -- ./inp_files/5749.got.cif
#   From: 2010.06.25/outbox.cif.g09.slc.cpg/sg58_3_cif.got.tgz:5749.got - 2010.06.26 21:38:00.
