data_PCOD8237061
_publ_section_title
;
Structure prediction by ZEFSAII (Michael W. Deem and Ramdas Pophale) SiO2 
 PCOD8237061
Probable space group: P N N M
;
_chemical_formula_sum "Si O2"
_cell_formula_units_Z 64
_cell_length_a 17.231457
_cell_length_b 18.777667
_cell_length_c 10.620271
_cell_angle_alpha 90.000000
_cell_angle_beta 90.000000
_cell_angle_gamma 90.000000
_cell_volume 3436.364569
_symmetry_space_group_name_H-M "P N N M"
_symmetry_group_IT_number 58
_symmetry_cell_setting 'orthorhombic'
loop_
_space_group_symop_operation_xyz
x,y,z
-x,-y,z
1/2+x,1/2-y,1/2-z
1/2-x,1/2+y,1/2-z
-x,-y,-z
x,y,-z
1/2-x,1/2+y,1/2+z
1/2+x,1/2-y,1/2+z
loop_
_atom_site_type_symbol
_atom_site_label
_atom_site_fract_x
_atom_site_fract_y
_atom_site_fract_z
Si Si1 0.581692 0.038952 0.637733
Si Si2 0.132289 0.547851 0.361117
Si Si3 0.802411 0.954663 0.141733
Si Si4 0.621813 0.178024 0.248335
Si Si5 0.926804 0.208155 0.144547
Si Si6 0.401503 0.670520 0.644638
Si Si7 0.779375 0.111672 0.146992
Si Si8 0.536374 0.815498 0.139733
O O1 0.617093 0.019875 0.500000
O O2 0.581056 0.125060 0.649190
O O3 0.500000 0.000000 0.649845
O O4 0.633043 0.012940 0.755000
O O5 0.119694 0.512692 0.500000
O O6 0.217690 0.582847 0.356145
O O7 0.065677 0.604756 0.335349
O O8 0.861607 0.899267 0.209930
O O9 0.796469 0.033145 0.205839
O O10 0.832414 0.967733 0.000000
O O11 0.634076 0.256771 0.302057
O O12 0.705225 0.149383 0.207982
O O13 0.557398 0.184383 0.138111
O O14 0.854947 0.158073 0.174959
O O15 0.925939 0.270484 0.247393
O O16 0.006156 0.163978 0.163257
O O17 0.922468 0.237818 0.000000
O O18 0.377101 0.669574 0.500000
O O19 0.761347 0.104432 0.000000
O O20 0.563366 0.789279 0.000000
#
# Coordination Sequence:
#
# PCOD8237061 Si02
#       8
#     8   8   8   8   8   8   8   8
#     4  11  22  35  52  79 115 153 186 221 276 334
#     4  10  20  34  53  78 109 145 188 227 266 320
#     4   9  18  33  55  81 108 138 182 236 274 316
#     4  11  20  34  54  80 113 149 183 225 271 336
#     4   9  20  37  56  82 111 144 184 229 282 332
#     4   9  19  35  55  79 108 142 183 230 278 327
#     4  10  20  34  55  82 110 141 183 234 280 324
#     4  10  21  35  55  81 111 150 188 224 270 329
#
# _framework density 18.624333
#
# number of rings (size 3 to 8) (size 9 to 14) (size 15 to 20)
#    0.000    2.125    2.500    0.750    1.750    2.250 
#    0.000    3.125    0.000    0.750    0.000    3.500 
#    0.000    0.000    0.000    0.000    0.000    0.000 
#
# Total GULP energy -792897.525834 kJ/mol
# GULP energy per Si atom -12389.023841 kJ/mol
# Density = 1.858194 g / cm^3
# Si number density = 18.624333 Si / 1000 Ang^3
#
#
#
# Elastic Constant Matrix: (Units=GPa)
#
#
# Indices 1 2 3 4 5 6 
#
# 1 96.2585 66.7156 30.9714 0.0000 0.0000 0.0000
# 2 66.7156 120.2413 45.8247 0.0000 0.0000 0.0000
# 3 30.9714 45.8247 93.1085 0.0000 0.0000 0.0000
# 4 0.0000 0.0000 0.0000 23.9772 0.0000 0.0000
# 5 0.0000 0.0000 0.0000 0.0000 16.1105 0.0000
# 6 0.0000 0.0000 0.0000 0.0000 0.0000 34.8614
#
#
#
# Elastic Compliance Matrix: (Units=1/GPa)
#
#
# Indices 1 2 3 4 5 6 
#
# 1 0.016997 -0.008956 -0.001246 0.000000 0.000000 0.000000
# 2 -0.008956 0.014955 -0.004382 0.000000 0.000000 0.000000
# 3 -0.001246 -0.004382 0.013311 0.000000 0.000000 0.000000
# 4 0.000000 0.000000 0.000000 0.041706 0.000000 0.000000
# 5 0.000000 0.000000 0.000000 0.000000 0.062071 0.000000
# 6 0.000000 0.000000 0.000000 0.000000 0.000000 0.028685
#
#
# Mechanical properties :
#
#
# Convention : Reuss Voigt Hill
#
# Bulk Modulus (GPa) = 62.12476 66.29240 64.20858
# Shear Modulus (GPa) = 23.55625 26.06294 24.80959
#
# Velocity S-wave (km/s) = 3.56028 3.74492 3.65376
# Velocity P-wave (km/s) = 7.09436 7.37367 7.23536
#
# Compressibility (1/GPa) = 0.01609664
#
# Stress axis : x y z
#
# Youngs Moduli (GPa) = 58.83497 66.86508 75.12527
#
# Poissons Ratio (x) = 0.59882 0.09361
# Poissons Ratio (y) = 0.52691 0.32917
# Poissons Ratio (z) = 0.07331 0.29297
#
# Static dielectric constant tensor:
#      x y z
#    x 3.443130 0.000000 0.000000 
#    y 0.000000 3.500710 0.000000 
#    z 0.000000 0.000000 3.364360 
# 
# 
# High freq. dielectric constant tensor:
#      x y z
#    x 1.725410 0.000000 0.000000 
#    y 0.000000 1.719350 0.000000 
#    z 0.000000 0.000000 1.699430 
# 
# From -- ./inp_files/16523.got.cif
#   From: 2010.06.25/outbox.cif.g09.slc.cpg/sg58_9_cif.got.tgz:16523.got - 2010.06.26 21:38:00.
