data_PCOD8237922
_publ_section_title
;
Structure prediction by ZEFSAII (Michael W. Deem and Ramdas Pophale) SiO2 
 PCOD8237922
Probable space group: P N N M
;
_chemical_formula_sum "Si O2"
_cell_formula_units_Z 56
_cell_length_a 14.694370
_cell_length_b 22.192245
_cell_length_c 8.682211
_cell_angle_alpha 90.000000
_cell_angle_beta 90.000000
_cell_angle_gamma 90.000000
_cell_volume 2831.278203
_symmetry_space_group_name_H-M "P N N M"
_symmetry_group_IT_number 58
_symmetry_cell_setting 'orthorhombic'
loop_
_space_group_symop_operation_xyz
x,y,z
-x,-y,z
1/2+x,1/2-y,1/2-z
1/2-x,1/2+y,1/2-z
-x,-y,-z
x,y,-z
1/2-x,1/2+y,1/2+z
1/2+x,1/2-y,1/2+z
loop_
_atom_site_type_symbol
_atom_site_label
_atom_site_fract_x
_atom_site_fract_y
_atom_site_fract_z
Si Si1 0.185462 0.536920 0.675347
Si Si2 0.534356 0.872881 0.826500
Si Si3 0.659733 0.657316 0.321559
Si Si4 0.502757 0.430241 0.681787
Si Si5 0.317186 0.215990 0.181860
Si Si6 0.180363 0.128748 0.680124
Si Si7 0.656041 0.093898 0.819642
O O1 0.224941 0.537299 0.500000
O O2 0.083273 0.562403 0.676647
O O3 0.251200 0.574944 0.783173
O O4 0.181563 0.470897 0.750084
O O5 0.600906 0.824402 0.746893
O O6 0.436077 0.878917 0.742967
O O7 0.517330 0.850359 0.000000
O O8 0.644793 0.673224 0.500000
O O9 0.590606 0.604200 0.271463
O O10 0.651187 0.716912 0.220518
O O11 0.762211 0.638233 0.286629
O O12 0.500000 0.500000 0.744086
O O13 0.515806 0.432325 0.500000
O O14 0.582960 0.389439 0.750666
O O15 0.221365 0.192040 0.253389
O O16 0.307770 0.206764 0.000000
O O17 0.167845 0.137500 0.500000
O O18 0.637756 0.083172 0.000000
#
# Coordination Sequence:
#
# PCOD8237922 Si02
#       7
#     8   8   8   8   8   8   8
#     4   9  16  30  54  82 110 139 172 213 266 330
#     4   8  15  28  51  80 104 131 172 217 256 309
#     4  10  21  35  54  81 112 144 181 229 277 327
#     4  10  21  39  61  85 116 154 193 233 286 350
#     4  10  21  38  57  78 108 146 187 228 276 334
#     4  11  22  36  57  82 110 146 189 237 281 325
#     4   9  16  29  52  81 108 135 170 212 264 327
#
# _framework density 19.779053000000001
#
# number of rings (size 3 to 8) (size 9 to 14) (size 15 to 20)
#    0.000    2.429    0.000    3.857    0.000    6.000 
#    0.000    3.571    0.000   11.143    0.000    0.000 
#    0.000    0.000    0.000    0.000    0.000    0.000 
#
# Total GULP energy -694028.144871 kJ/mol
# GULP energy per Si atom -12393.359730 kJ/mol
# Density = 1.973404 g / cm^3
# Si number density = 19.779053 Si / 1000 Ang^3
#
#
#
# Elastic Constant Matrix: (Units=GPa)
#
#
# Indices 1 2 3 4 5 6 
#
# 1 87.6974 11.1230 24.3509 0.0000 0.0000 0.0000
# 2 11.1230 99.2398 24.2926 0.0000 0.0000 0.0000
# 3 24.3509 24.2926 41.9743 0.0000 0.0000 0.0000
# 4 0.0000 0.0000 0.0000 25.6024 0.0000 0.0000
# 5 0.0000 0.0000 0.0000 0.0000 15.5242 0.0000
# 6 0.0000 0.0000 0.0000 0.0000 0.0000 25.7534
#
#
#
# Elastic Compliance Matrix: (Units=1/GPa)
#
#
# Indices 1 2 3 4 5 6 
#
# 1 0.013612 0.000475 -0.008171 0.000000 0.000000 0.000000
# 2 0.000475 0.011756 -0.007079 0.000000 0.000000 0.000000
# 3 -0.008171 -0.007079 0.032662 0.000000 0.000000 0.000000
# 4 0.000000 0.000000 0.000000 0.039059 0.000000 0.000000
# 5 0.000000 0.000000 0.000000 0.000000 0.064415 0.000000
# 6 0.000000 0.000000 0.000000 0.000000 0.000000 0.038830
#
#
# Mechanical properties :
#
#
# Convention : Reuss Voigt Hill
#
# Bulk Modulus (GPa) = 35.11525 38.71606 36.91565
# Shear Modulus (GPa) = 20.88746 24.65235 22.76991
#
# Velocity S-wave (km/s) = 3.25320 3.53425 3.39663
# Velocity P-wave (km/s) = 5.64831 6.02257 5.83844
#
# Compressibility (1/GPa) = 0.02847766
#
# Stress axis : x y z
#
# Youngs Moduli (GPa) = 73.46692 85.06058 30.61690
#
# Poissons Ratio (x) = -0.04037 0.25018
# Poissons Ratio (y) = -0.03487 0.21675
# Poissons Ratio (z) = 0.60032 0.60217
#
# Static dielectric constant tensor:
#      x y z
#    x 3.815890 0.000000 0.000000 
#    y 0.000000 3.628890 0.000000 
#    z 0.000000 0.000000 3.178340 
# 
# 
# High freq. dielectric constant tensor:
#      x y z
#    x 1.780940 0.000000 0.000000 
#    y 0.000000 1.774350 0.000000 
#    z 0.000000 0.000000 1.726200 
# 
# From -- ./inp_files/6397.got.cif
#   From: 2010.06.25/outbox.cif.g09.slc.cpg/sg58_4_cif.got.tgz:6397.got - 2010.06.26 21:38:00.
