data_PCOD8237642
_publ_section_title
;
Structure prediction by ZEFSAII (Michael W. Deem and Ramdas Pophale) SiO2 
 PCOD8237642
Probable space group: P N N M
;
_chemical_formula_sum "Si O2"
_cell_formula_units_Z 48
_cell_length_a 9.362491
_cell_length_b 28.217136
_cell_length_c 8.773700
_cell_angle_alpha 90.000000
_cell_angle_beta 90.000000
_cell_angle_gamma 90.000000
_cell_volume 2317.859596
_symmetry_space_group_name_H-M "P N N M"
_symmetry_group_IT_number 58
_symmetry_cell_setting 'orthorhombic'
loop_
_space_group_symop_operation_xyz
x,y,z
-x,-y,z
1/2+x,1/2-y,1/2-z
1/2-x,1/2+y,1/2-z
-x,-y,-z
x,y,-z
1/2-x,1/2+y,1/2+z
1/2+x,1/2-y,1/2+z
loop_
_atom_site_type_symbol
_atom_site_label
_atom_site_fract_x
_atom_site_fract_y
_atom_site_fract_z
Si Si1 0.355251 0.020005 0.326809
Si Si2 0.473160 0.197948 0.680177
Si Si3 0.198931 0.617903 0.677351
Si Si4 0.704723 0.718704 0.820611
Si Si5 0.979939 0.138419 0.176001
Si Si6 0.905455 0.043410 0.327533
O O1 0.377609 0.037825 0.500000
O O2 0.293903 0.063679 0.231299
O O3 0.500000 0.000000 0.253724
O O4 0.255862 0.974019 0.322420
O O5 0.470077 0.199017 0.500000
O O6 0.426957 0.145931 0.736762
O O7 0.357729 0.234828 0.742344
O O8 0.633466 0.209656 0.738506
O O9 0.164085 0.618951 0.500000
O O10 0.351690 0.642173 0.711893
O O11 0.604520 0.674559 0.781910
O O12 0.704615 0.727108 0.000000
O O13 0.923523 0.086187 0.211491
O O14 0.949450 0.150449 0.000000
O O15 0.950944 0.058434 0.500000
O O16 0.000000 0.000000 0.268932
#
# Coordination Sequence:
#
# PCOD8237642 Si02
#       6
#     8   8   8   8   8   8
#     4  10  22  39  60  87 123 164 208 257 307 361
#     4  11  25  44  67  94 125 159 201 251 305 364
#     4  11  24  41  62  91 126 165 208 253 305 364
#     4  11  25  44  67  95 125 159 201 250 305 366
#     4  11  24  40  62  92 127 164 206 254 305 362
#     4  10  20  37  61  88 120 163 210 253 303 361
#
# _framework density 20.708760000000002
#
# number of rings (size 3 to 8) (size 9 to 14) (size 15 to 20)
#    0.000    1.333    1.667    3.000    2.333   10.000 
#    0.000    0.000    0.000    0.000    0.000    0.000 
#    0.000    0.000    0.000    0.000    0.000    0.000 
#
# Total GULP energy -595397.195920 kJ/mol
# GULP energy per Si atom -12404.108248 kJ/mol
# Density = 2.066163 g / cm^3
# Si number density = 20.708760 Si / 1000 Ang^3
#
#
#
# Elastic Constant Matrix: (Units=GPa)
#
#
# Indices 1 2 3 4 5 6 
#
# 1 105.7311 17.6091 39.1389 0.0000 0.0000 0.0000
# 2 17.6091 68.7723 23.0638 0.0000 0.0000 0.0000
# 3 39.1389 23.0638 66.8266 0.0000 0.0000 0.0000
# 4 0.0000 0.0000 0.0000 16.6828 0.0000 0.0000
# 5 0.0000 0.0000 0.0000 0.0000 17.4292 0.0000
# 6 0.0000 0.0000 0.0000 0.0000 0.0000 38.2703
#
#
#
# Elastic Compliance Matrix: (Units=1/GPa)
#
#
# Indices 1 2 3 4 5 6 
#
# 1 0.012117 -0.000817 -0.006814 0.000000 0.000000 0.000000
# 2 -0.000817 0.016499 -0.005216 0.000000 0.000000 0.000000
# 3 -0.006814 -0.005216 0.020755 0.000000 0.000000 0.000000
# 4 0.000000 0.000000 0.000000 0.059942 0.000000 0.000000
# 5 0.000000 0.000000 0.000000 0.000000 0.057375 0.000000
# 6 0.000000 0.000000 0.000000 0.000000 0.000000 0.026130
#
#
# Mechanical properties :
#
#
# Convention : Reuss Voigt Hill
#
# Bulk Modulus (GPa) = 42.23616 44.55041 43.39329
# Shear Modulus (GPa) = 22.08437 25.24434 23.66435
#
# Velocity S-wave (km/s) = 3.26916 3.49523 3.38408
# Velocity P-wave (km/s) = 5.88978 6.15210 6.02237
#
# Compressibility (1/GPa) = 0.02367639
#
# Stress axis : x y z
#
# Youngs Moduli (GPa) = 82.53168 60.60916 48.18053
#
# Poissons Ratio (x) = 0.04953 0.32832
# Poissons Ratio (y) = 0.06744 0.25130
# Poissons Ratio (z) = 0.56240 0.31612
#
# Static dielectric constant tensor:
#      x y z
#    x 4.033570 0.000000 0.000000 
#    y 0.000000 3.825580 0.000000 
#    z 0.000000 0.000000 3.684370 
# 
# 
# High freq. dielectric constant tensor:
#      x y z
#    x 1.824800 0.000000 0.000000 
#    y 0.000000 1.815500 0.000000 
#    z 0.000000 0.000000 1.805950 
# 
# From -- ./inp_files/2852.got.cif
#   From: 2010.06.25/outbox.cif.g09.slc.cpg/sg58_2_cif.got.tgz:2852.got - 2010.06.26 21:38:00.
