data_PCOD8237193
_publ_section_title
;
Structure prediction by ZEFSAII (Michael W. Deem and Ramdas Pophale) SiO2 
 PCOD8237193
Probable space group: P N N M
;
_chemical_formula_sum "Si O2"
_cell_formula_units_Z 40
_cell_length_a 14.191253
_cell_length_b 11.797381
_cell_length_c 13.657862
_cell_angle_alpha 90.000000
_cell_angle_beta 90.000000
_cell_angle_gamma 90.000000
_cell_volume 2286.594046
_symmetry_space_group_name_H-M "P N N M"
_symmetry_group_IT_number 58
_symmetry_cell_setting 'orthorhombic'
loop_
_space_group_symop_operation_xyz
x,y,z
-x,-y,z
1/2+x,1/2-y,1/2-z
1/2-x,1/2+y,1/2-z
-x,-y,-z
x,y,-z
1/2-x,1/2+y,1/2+z
1/2+x,1/2-y,1/2+z
loop_
_atom_site_type_symbol
_atom_site_label
_atom_site_fract_x
_atom_site_fract_y
_atom_site_fract_z
Si Si1 0.898355 0.545965 0.194013
Si Si2 0.240771 0.106163 0.389345
Si Si3 0.392020 0.523499 0.723327
Si Si4 0.746865 0.666986 0.293244
Si Si5 0.331860 0.738999 0.611692
O O1 0.841007 0.446993 0.139853
O O2 0.839600 0.584604 0.291401
O O3 0.906924 0.656833 0.122978
O O4 0.000000 0.500000 0.225066
O O5 0.216945 0.074069 0.500000
O O6 0.246344 0.241904 0.379316
O O7 0.155781 0.058038 0.325089
O O8 0.500000 0.500000 0.744196
O O9 0.345861 0.406434 0.686509
O O10 0.380284 0.620691 0.641487
O O11 0.744659 0.732310 0.186295
O O12 0.295652 0.731010 0.500000
#
# Coordination Sequence:
#
# PCOD8237193 Si02
#       5
#     8   8   8   8   8
#     4   9  19  33  54  77 102 128 165 216 261 298
#     4  10  20  35  54  77 102 134 174 209 249 305
#     4  10  21  36  52  76 108 140 169 208 256 308
#     4   8  20  35  51  75 104 135 168 209 256 305
#     4   9  19  34  52  77 105 129 167 214 258 305
#
# _framework density 17.493266999999999
#
# number of rings (size 3 to 8) (size 9 to 14) (size 15 to 20)
#    1.200    1.600    0.000    0.600    2.800    3.200 
#    0.000    0.000    0.000    0.600    0.000    0.000 
#    0.000    0.000    0.000    0.000    0.000    0.000 
#
# Total GULP energy -495565.399085 kJ/mol
# GULP energy per Si atom -12389.134977 kJ/mol
# Density = 1.745345 g / cm^3
# Si number density = 17.493267 Si / 1000 Ang^3
#
#
#
# Elastic Constant Matrix: (Units=GPa)
#
#
# Indices 1 2 3 4 5 6 
#
# 1 104.3542 39.9720 19.4695 0.0000 0.0000 0.0000
# 2 39.9720 100.5058 20.0341 0.0000 0.0000 0.0000
# 3 19.4695 20.0341 42.0199 0.0000 0.0000 0.0000
# 4 0.0000 0.0000 0.0000 12.4000 0.0000 0.0000
# 5 0.0000 0.0000 0.0000 0.0000 7.3170 0.0000
# 6 0.0000 0.0000 0.0000 0.0000 0.0000 15.7964
#
#
#
# Elastic Compliance Matrix: (Units=1/GPa)
#
#
# Indices 1 2 3 4 5 6 
#
# 1 0.011768 -0.003971 -0.003559 0.000000 0.000000 0.000000
# 2 -0.003971 0.012334 -0.004041 0.000000 0.000000 0.000000
# 3 -0.003559 -0.004041 0.027374 0.000000 0.000000 0.000000
# 4 0.000000 0.000000 0.000000 0.080645 0.000000 0.000000
# 5 0.000000 0.000000 0.000000 0.000000 0.136668 0.000000
# 6 0.000000 0.000000 0.000000 0.000000 0.000000 0.063306
#
#
# Mechanical properties :
#
#
# Convention : Reuss Voigt Hill
#
# Bulk Modulus (GPa) = 35.29301 45.09235 40.19268
# Shear Modulus (GPa) = 13.71059 18.26296 15.98677
#
# Velocity S-wave (km/s) = 2.80262 3.23460 3.02633
# Velocity P-wave (km/s) = 5.54002 6.30739 5.93612
#
# Compressibility (1/GPa) = 0.02833422
#
# Stress axis : x y z
#
# Youngs Moduli (GPa) = 84.97809 81.07449 36.53092
#
# Poissons Ratio (x) = 0.32192 0.13003
# Poissons Ratio (y) = 0.33742 0.14762
# Poissons Ratio (z) = 0.30247 0.32762
#
# Static dielectric constant tensor:
#      x y z
#    x 2.898500 0.000000 0.000000 
#    y 0.000000 3.552330 0.000000 
#    z 0.000000 0.000000 2.929410 
# 
# 
# High freq. dielectric constant tensor:
#      x y z
#    x 1.645650 0.000000 0.000000 
#    y 0.000000 1.698440 0.000000 
#    z 0.000000 0.000000 1.646960 
# 
# From -- ./inp_files/15381.got.cif
#   From: 2010.06.25/outbox.cif.g09.slc.cpg/sg58_8_cif.got.tgz:15381.got - 2010.06.26 21:38:00.
