data_PCOD8237162
_publ_section_title
;
Structure prediction by ZEFSAII (Michael W. Deem and Ramdas Pophale) SiO2 
 PCOD8237162
Probable space group: P N N M
;
_chemical_formula_sum "Si O2"
_cell_formula_units_Z 48
_cell_length_a 16.941707
_cell_length_b 16.996319
_cell_length_c 8.854550
_cell_angle_alpha 90.000000
_cell_angle_beta 90.000000
_cell_angle_gamma 90.000000
_cell_volume 2549.638068
_symmetry_space_group_name_H-M "P N N M"
_symmetry_group_IT_number 58
_symmetry_cell_setting 'orthorhombic'
loop_
_space_group_symop_operation_xyz
x,y,z
-x,-y,z
1/2+x,1/2-y,1/2-z
1/2-x,1/2+y,1/2-z
-x,-y,-z
x,y,-z
1/2-x,1/2+y,1/2+z
1/2+x,1/2-y,1/2+z
loop_
_atom_site_type_symbol
_atom_site_label
_atom_site_fract_x
_atom_site_fract_y
_atom_site_fract_z
Si Si1 0.506675 0.591007 0.676217
Si Si2 0.318558 0.149624 0.177885
Si Si3 0.347776 0.323672 0.178055
Si Si4 0.683041 0.151161 0.178807
Si Si5 0.146218 0.188904 0.822355
Si Si6 0.411338 0.001268 0.179959
O O1 0.500000 0.500000 0.719330
O O2 0.525057 0.602405 0.500000
O O3 0.576434 0.628335 0.771737
O O4 0.425473 0.632763 0.723840
O O5 0.357665 0.232413 0.227483
O O6 0.227219 0.146809 0.230675
O O7 0.366681 0.077291 0.250601
O O8 0.322258 0.140475 0.000000
O O9 0.270503 0.359246 0.255866
O O10 0.336303 0.330608 0.000000
O O11 0.637737 0.228025 0.238632
O O12 0.633009 0.076698 0.234854
O O13 0.688656 0.155460 0.000000
O O14 0.148480 0.206042 0.000000
O O15 0.500000 0.000000 0.244459
O O16 0.412429 0.005803 0.000000
#
# Coordination Sequence:
#
# PCOD8237162 Si02
#       6
#     8   8   8   8   8   8
#     4  10  22  37  58  84 111 145 190 234 276 335
#     4   8  16  32  53  75 104 144 181 217 269 323
#     4  10  21  37  58  80 112 148 182 229 285 335
#     4  10  20  34  58  84 110 144 188 231 269 329
#     4   9  19  36  56  78 110 148 181 224 281 333
#     4   9  18  30  51  83 110 136 180 229 265 312
#
# _framework density 18.8262
#
# number of rings (size 3 to 8) (size 9 to 14) (size 15 to 20)
#    0.000    2.667    0.000    2.000    4.667    1.000 
#    0.000    0.000    0.000    5.000    0.000    0.000 
#    0.000    0.000    0.000    0.000    0.000    0.000 
#
# Total GULP energy -595187.033896 kJ/mol
# GULP energy per Si atom -12399.729873 kJ/mol
# Density = 1.878335 g / cm^3
# Si number density = 18.826200 Si / 1000 Ang^3
#
#
#
# Elastic Constant Matrix: (Units=GPa)
#
#
# Indices 1 2 3 4 5 6 
#
# 1 146.3198 111.8237 37.1150 0.0000 0.0000 0.0000
# 2 111.8237 169.6029 38.6434 0.0000 0.0000 0.0000
# 3 37.1150 38.6434 42.2895 0.0000 0.0000 0.0000
# 4 0.0000 0.0000 0.0000 25.8727 0.0000 0.0000
# 5 0.0000 0.0000 0.0000 0.0000 19.1822 0.0000
# 6 0.0000 0.0000 0.0000 0.0000 0.0000 36.6142
#
#
#
# Elastic Compliance Matrix: (Units=1/GPa)
#
#
# Indices 1 2 3 4 5 6 
#
# 1 0.014588 -0.008463 -0.005070 0.000000 0.000000 0.000000
# 2 -0.008463 0.012357 -0.003863 0.000000 0.000000 0.000000
# 3 -0.005070 -0.003863 0.031626 0.000000 0.000000 0.000000
# 4 0.000000 0.000000 0.000000 0.038651 0.000000 0.000000
# 5 0.000000 0.000000 0.000000 0.000000 0.052132 0.000000
# 6 0.000000 0.000000 0.000000 0.000000 0.000000 0.027312
#
#
# Mechanical properties :
#
#
# Convention : Reuss Voigt Hill
#
# Bulk Modulus (GPa) = 42.05529 81.48626 61.77077
# Shear Modulus (GPa) = 22.79108 27.70917 25.25012
#
# Velocity S-wave (km/s) = 3.48315 3.84062 3.66624
# Velocity P-wave (km/s) = 6.20996 7.94006 7.12770
#
# Compressibility (1/GPa) = 0.02377822
#
# Stress axis : x y z
#
# Youngs Moduli (GPa) = 68.54765 80.92888 31.61945
#
# Poissons Ratio (x) = 0.68493 0.16030
# Poissons Ratio (y) = 0.58015 0.12216
# Poissons Ratio (z) = 0.34751 0.31266
#
# Static dielectric constant tensor:
#      x y z
#    x 3.669500 0.000000 0.000000 
#    y 0.000000 3.687850 0.000000 
#    z 0.000000 0.000000 3.116890 
# 
# 
# High freq. dielectric constant tensor:
#      x y z
#    x 1.741360 0.000000 0.000000 
#    y 0.000000 1.741740 0.000000 
#    z 0.000000 0.000000 1.698150 
# 
# From -- ./inp_files/5771.got.cif
#   From: 2010.06.25/outbox.cif.g09.slc.cpg/sg58_3_cif.got.tgz:5771.got - 2010.06.26 21:38:00.
