data_PCOD8237033
_publ_section_title
;
Structure prediction by ZEFSAII (Michael W. Deem and Ramdas Pophale) SiO2 
 PCOD8237033
Probable space group: P N N M
;
_chemical_formula_sum "Si O2"
_cell_formula_units_Z 48
_cell_length_a 30.816281
_cell_length_b 9.360773
_cell_length_c 9.036425
_cell_angle_alpha 90.000000
_cell_angle_beta 90.000000
_cell_angle_gamma 90.000000
_cell_volume 2606.685209
_symmetry_space_group_name_H-M "P N N M"
_symmetry_group_IT_number 58
_symmetry_cell_setting 'orthorhombic'
loop_
_space_group_symop_operation_xyz
x,y,z
-x,-y,z
1/2+x,1/2-y,1/2-z
1/2-x,1/2+y,1/2-z
-x,-y,-z
x,y,-z
1/2-x,1/2+y,1/2+z
1/2+x,1/2-y,1/2+z
loop_
_atom_site_type_symbol
_atom_site_label
_atom_site_fract_x
_atom_site_fract_y
_atom_site_fract_z
Si Si1 0.711971 0.598867 0.174465
Si Si2 0.039130 0.085594 0.331259
Si Si3 0.865659 0.895785 0.675931
Si Si4 0.129592 0.399062 0.826917
Si Si5 0.958749 0.584551 0.669636
Si Si6 0.209297 0.597187 0.172404
O O1 0.668635 0.515146 0.223602
O O2 0.753021 0.507942 0.230820
O O3 0.712468 0.753248 0.246034
O O4 0.713672 0.620070 0.000000
O O5 0.040711 0.033297 0.500000
O O6 0.086924 0.054323 0.263672
O O7 0.028513 0.251154 0.316979
O O8 0.000000 0.000000 0.249148
O O9 0.866872 0.870222 0.500000
O O10 0.853380 0.744462 0.748257
O O11 0.083478 0.452336 0.765317
O O12 0.163271 0.525171 0.792923
O O13 0.125744 0.367302 0.000000
O O14 0.949073 0.541176 0.500000
O O15 0.000000 0.500000 0.733477
O O16 0.215875 0.627038 0.000000
#
# Coordination Sequence:
#
# PCOD8237033 Si02
#       6
#     8   8   8   8   8   8
#     4  10  21  36  55  78 102 134 177 219 259 307
#     4   8  14  26  45  69  96 123 154 200 253 296
#     4   9  18  33  53  76 100 130 173 218 256 302
#     4  10  20  34  52  74 104 140 172 207 259 316
#     4   9  18  32  51  74  99 131 172 214 254 297
#     4  10  22  37  52  76 107 136 170 213 261 311
#
# _framework density 18.414193000000001
#
# number of rings (size 3 to 8) (size 9 to 14) (size 15 to 20)
#    0.000    2.667    0.000    2.500    0.000    4.333 
#    0.000    3.333    0.000    8.000    0.000    0.000 
#    0.000    0.000    0.000    0.000    0.000    0.000 
#
# Total GULP energy -595120.875042 kJ/mol
# GULP energy per Si atom -12398.351563 kJ/mol
# Density = 1.837228 g / cm^3
# Si number density = 18.414193 Si / 1000 Ang^3
#
#
#
# Elastic Constant Matrix: (Units=GPa)
#
#
# Indices 1 2 3 4 5 6 
#
# 1 146.9935 89.9219 44.7437 0.0000 0.0000 0.0000
# 2 89.9219 126.8711 45.7338 0.0000 0.0000 0.0000
# 3 44.7437 45.7338 46.1483 0.0000 0.0000 0.0000
# 4 0.0000 0.0000 0.0000 28.7052 0.0000 0.0000
# 5 0.0000 0.0000 0.0000 0.0000 23.5237 0.0000
# 6 0.0000 0.0000 0.0000 0.0000 0.0000 37.6759
#
#
#
# Elastic Compliance Matrix: (Units=1/GPa)
#
#
# Indices 1 2 3 4 5 6 
#
# 1 0.012798 -0.007153 -0.005320 0.000000 0.000000 0.000000
# 2 -0.007153 0.016261 -0.009179 0.000000 0.000000 0.000000
# 3 -0.005320 -0.009179 0.035924 0.000000 0.000000 0.000000
# 4 0.000000 0.000000 0.000000 0.034837 0.000000 0.000000
# 5 0.000000 0.000000 0.000000 0.000000 0.042510 0.000000
# 6 0.000000 0.000000 0.000000 0.000000 0.000000 0.026542
#
#
# Mechanical properties :
#
#
# Convention : Reuss Voigt Hill
#
# Bulk Modulus (GPa) = 46.12856 75.64575 60.88715
# Shear Modulus (GPa) = 22.78908 27.28852 25.03880
#
# Velocity S-wave (km/s) = 3.52175 3.85376 3.69149
# Velocity P-wave (km/s) = 6.45305 7.80841 7.16286
#
# Compressibility (1/GPa) = 0.02167854
#
# Stress axis : x y z
#
# Youngs Moduli (GPa) = 78.13523 61.49683 27.83669
#
# Poissons Ratio (x) = 0.43991 0.14808
# Poissons Ratio (y) = 0.55893 0.25552
# Poissons Ratio (z) = 0.41565 0.56449
#
# Static dielectric constant tensor:
#      x y z
#    x 3.770200 0.000000 0.000000 
#    y 0.000000 3.298180 0.000000 
#    z 0.000000 0.000000 3.155280 
# 
# 
# High freq. dielectric constant tensor:
#      x y z
#    x 1.733630 0.000000 0.000000 
#    y 0.000000 1.711460 0.000000 
#    z 0.000000 0.000000 1.686110 
# 
# From -- ./inp_files/2948.got.cif
#   From: 2010.06.25/outbox.cif.g09.slc.cpg/sg58_2_cif.got.tgz:2948.got - 2010.06.26 21:38:00.
