data_PCOD8237893
_publ_section_title
;
Structure prediction by ZEFSAII (Michael W. Deem and Ramdas Pophale) SiO2 
 PCOD8237893
Probable space group: P N N M
;
_chemical_formula_sum "Si O2"
_cell_formula_units_Z 56
_cell_length_a 20.081877
_cell_length_b 16.254534
_cell_length_c 9.068780
_cell_angle_alpha 90.000000
_cell_angle_beta 90.000000
_cell_angle_gamma 90.000000
_cell_volume 2960.245247
_symmetry_space_group_name_H-M "P N N M"
_symmetry_group_IT_number 58
_symmetry_cell_setting 'orthorhombic'
loop_
_space_group_symop_operation_xyz
x,y,z
-x,-y,z
1/2+x,1/2-y,1/2-z
1/2-x,1/2+y,1/2-z
-x,-y,-z
x,y,-z
1/2-x,1/2+y,1/2+z
1/2+x,1/2-y,1/2+z
loop_
_atom_site_type_symbol
_atom_site_label
_atom_site_fract_x
_atom_site_fract_y
_atom_site_fract_z
Si Si1 0.050398 0.069364 0.826705
Si Si2 0.171540 0.532532 0.171073
Si Si3 0.676289 0.493932 0.828705
Si Si4 0.104773 0.681785 0.324875
Si Si5 0.024418 0.254547 0.174178
Si Si6 0.799339 0.175880 0.675546
Si Si7 0.654150 0.153192 0.325828
O O1 0.123326 0.060650 0.758014
O O2 0.021339 0.158405 0.784223
O O3 0.059179 0.060124 0.000000
O O4 0.000000 0.000000 0.764391
O O5 0.250216 0.541478 0.201812
O O6 0.131487 0.594133 0.274123
O O7 0.145903 0.442272 0.217378
O O8 0.155905 0.550565 0.000000
O O9 0.671846 0.588077 0.771465
O O10 0.658654 0.489333 0.000000
O O11 0.099952 0.684212 0.500000
O O12 0.154396 0.751855 0.262440
O O13 0.032830 0.696641 0.257130
O O14 0.093477 0.292579 0.235422
O O15 0.016719 0.268479 0.000000
O O16 0.797172 0.176306 0.500000
O O17 0.724235 0.187711 0.738100
O O18 0.656961 0.160733 0.500000
#
# Coordination Sequence:
#
# PCOD8237893 Si02
#       7
#     8   8   8   8   8   8   8
#     4  10  21  34  51  80 115 145 175 218 272 328
#     4   9  19  36  56  78 103 132 178 228 267 311
#     4   9  18  34  56  79 103 136 177 223 265 312
#     4  11  22  34  54  81 110 140 174 220 273 324
#     4  10  21  36  55  76 104 145 185 219 260 315
#     4   8  16  32  54  78 103 135 179 219 256 311
#     4   8  16  34  57  76  96 136 188 223 249 306
#
# _framework density 18.917349999999999
#
# number of rings (size 3 to 8) (size 9 to 14) (size 15 to 20)
#    0.000    2.714    0.000    3.000    2.000    2.000 
#    0.000    4.286    0.000    2.571    0.000    0.000 
#    0.000    0.000    0.000    0.000    0.000    0.000 
#
# Total GULP energy -694363.966983 kJ/mol
# GULP energy per Si atom -12399.356553 kJ/mol
# Density = 1.887429 g / cm^3
# Si number density = 18.917350 Si / 1000 Ang^3
#
#
#
# Elastic Constant Matrix: (Units=GPa)
#
#
# Indices 1 2 3 4 5 6 
#
# 1 105.2556 42.3741 28.3844 0.0000 0.0000 0.0000
# 2 42.3741 71.6041 23.1434 0.0000 0.0000 0.0000
# 3 28.3844 23.1434 30.8812 0.0000 0.0000 0.0000
# 4 0.0000 0.0000 0.0000 21.7941 0.0000 0.0000
# 5 0.0000 0.0000 0.0000 0.0000 30.9355 0.0000
# 6 0.0000 0.0000 0.0000 0.0000 0.0000 36.2427
#
#
#
# Elastic Compliance Matrix: (Units=1/GPa)
#
#
# Indices 1 2 3 4 5 6 
#
# 1 0.014093 -0.005481 -0.008846 0.000000 0.000000 0.000000
# 2 -0.005481 0.020561 -0.010372 0.000000 0.000000 0.000000
# 3 -0.008846 -0.010372 0.048286 0.000000 0.000000 0.000000
# 4 0.000000 0.000000 0.000000 0.045884 0.000000 0.000000
# 5 0.000000 0.000000 0.000000 0.000000 0.032325 0.000000
# 6 0.000000 0.000000 0.000000 0.000000 0.000000 0.027592
#
#
# Mechanical properties :
#
#
# Convention : Reuss Voigt Hill
#
# Bulk Modulus (GPa) = 29.81236 43.94941 36.88089
# Shear Modulus (GPa) = 20.05467 25.38371 22.71919
#
# Velocity S-wave (km/s) = 3.25948 3.66706 3.46926
# Velocity P-wave (km/s) = 5.47349 6.41970 5.96539
#
# Compressibility (1/GPa) = 0.03354313
#
# Stress axis : x y z
#
# Youngs Moduli (GPa) = 70.95949 48.63481 20.71004
#
# Poissons Ratio (x) = 0.26655 0.18320
# Poissons Ratio (y) = 0.38891 0.21480
# Poissons Ratio (z) = 0.62769 0.50443
#
# Static dielectric constant tensor:
#      x y z
#    x 3.757260 0.000000 0.000000 
#    y 0.000000 3.572680 0.000000 
#    z 0.000000 0.000000 3.049570 
# 
# 
# High freq. dielectric constant tensor:
#      x y z
#    x 1.744860 0.000000 0.000000 
#    y 0.000000 1.741090 0.000000 
#    z 0.000000 0.000000 1.698340 
# 
# From -- ./inp_files/6433.got.cif
#   From: 2010.06.25/outbox.cif.g09.slc.cpg/sg58_4_cif.got.tgz:6433.got - 2010.06.26 21:38:00.
