data_PCOD8237419
_publ_section_title
;
Structure prediction by ZEFSAII (Michael W. Deem and Ramdas Pophale) SiO2 
 PCOD8237419
Probable space group: P N N M
;
_chemical_formula_sum "Si O2"
_cell_formula_units_Z 64
_cell_length_a 12.704333
_cell_length_b 29.036458
_cell_length_c 8.962977
_cell_angle_alpha 90.000000
_cell_angle_beta 90.000000
_cell_angle_gamma 90.000000
_cell_volume 3306.342113
_symmetry_space_group_name_H-M "P N N M"
_symmetry_group_IT_number 58
_symmetry_cell_setting 'orthorhombic'
loop_
_space_group_symop_operation_xyz
x,y,z
-x,-y,z
1/2+x,1/2-y,1/2-z
1/2-x,1/2+y,1/2-z
-x,-y,-z
x,y,-z
1/2-x,1/2+y,1/2+z
1/2+x,1/2-y,1/2+z
loop_
_atom_site_type_symbol
_atom_site_label
_atom_site_fract_x
_atom_site_fract_y
_atom_site_fract_z
Si Si1 0.880232 0.390477 0.322216
Si Si2 0.808426 0.032299 0.822959
Si Si3 0.457607 0.394066 0.173543
Si Si4 0.935683 0.298309 0.170434
Si Si5 0.337986 0.831100 0.335276
Si Si6 0.680430 0.436934 0.825825
Si Si7 0.893572 0.582464 0.673545
Si Si8 0.115426 0.793590 0.331386
O O1 0.874079 0.391475 0.500000
O O2 0.878560 0.337527 0.268357
O O3 0.780593 0.416605 0.257800
O O4 0.987081 0.416278 0.259796
O O5 0.881519 0.074274 0.771617
O O6 0.684143 0.040618 0.780160
O O7 0.846714 0.987020 0.738470
O O8 0.820899 0.026165 0.000000
O O9 0.579362 0.405214 0.205003
O O10 0.440275 0.340973 0.219723
O O11 0.428308 0.401633 0.000000
O O12 0.910293 0.247148 0.220369
O O13 0.060165 0.300474 0.191877
O O14 0.899822 0.305533 0.000000
O O15 0.340197 0.854034 0.500000
O O16 0.330452 0.871731 0.216477
O O17 0.240357 0.797619 0.318877
O O18 0.705771 0.440690 0.000000
O O19 0.909844 0.582017 0.500000
O O20 0.080561 0.781203 0.500000
#
# Coordination Sequence:
#
# PCOD8237419 Si02
#       8
#     8   8   8   8   8   8   8   8
#     4  10  21  40  61  82 114 154 192 237 292 346
#     4  11  22  37  60  89 117 150 195 243 294 349
#     4  10  22  40  60  83 116 154 195 242 291 345
#     4  10  21  36  56  85 115 145 185 236 288 343
#     4   9  18  34  56  79 107 143 187 234 282 336
#     4  11  24  40  58  84 120 159 197 238 290 348
#     4   9  19  35  58  85 112 144 187 237 287 339
#     4  10  20  36  58  83 110 147 191 234 285 344
#
# _framework density 19.356739000000001
#
# number of rings (size 3 to 8) (size 9 to 14) (size 15 to 20)
#    0.000    2.000    1.250    1.875    0.000    6.500 
#    0.000    5.000    0.000    0.000    0.000    0.000 
#    0.000    0.000    0.000    0.000    0.000    0.000 
#
# Total GULP energy -793413.744590 kJ/mol
# GULP energy per Si atom -12397.089759 kJ/mol
# Density = 1.931268 g / cm^3
# Si number density = 19.356739 Si / 1000 Ang^3
#
#
#
# Elastic Constant Matrix: (Units=GPa)
#
#
# Indices 1 2 3 4 5 6 
#
# 1 78.1557 22.9298 39.6544 0.0000 0.0000 0.0000
# 2 22.9298 62.6073 25.4019 0.0000 0.0000 0.0000
# 3 39.6544 25.4019 55.2827 0.0000 0.0000 0.0000
# 4 0.0000 0.0000 0.0000 35.9960 0.0000 0.0000
# 5 0.0000 0.0000 0.0000 0.0000 27.5791 0.0000
# 6 0.0000 0.0000 0.0000 0.0000 0.0000 22.9040
#
#
#
# Elastic Compliance Matrix: (Units=1/GPa)
#
#
# Indices 1 2 3 4 5 6 
#
# 1 0.020294 -0.001876 -0.013695 0.000000 0.000000 0.000000
# 2 -0.001876 0.019806 -0.007755 0.000000 0.000000 0.000000
# 3 -0.013695 -0.007755 0.031475 0.000000 0.000000 0.000000
# 4 0.000000 0.000000 0.000000 0.027781 0.000000 0.000000
# 5 0.000000 0.000000 0.000000 0.000000 0.036259 0.000000
# 6 0.000000 0.000000 0.000000 0.000000 0.000000 0.043661
#
#
# Mechanical properties :
#
#
# Convention : Reuss Voigt Hill
#
# Bulk Modulus (GPa) = 40.12246 41.33534 40.72890
# Shear Modulus (GPa) = 21.34604 24.49980 22.92292
#
# Velocity S-wave (km/s) = 3.32440 3.56153 3.44500
# Velocity P-wave (km/s) = 5.95889 6.18979 6.07544
#
# Compressibility (1/GPa) = 0.02492369
#
# Stress axis : x y z
#
# Youngs Moduli (GPa) = 49.27626 50.48931 31.77087
#
# Poissons Ratio (x) = 0.09473 0.43509
# Poissons Ratio (y) = 0.09245 0.24638
# Poissons Ratio (z) = 0.67482 0.39154
#
# Static dielectric constant tensor:
#      x y z
#    x 3.844040 0.000000 0.000000 
#    y 0.000000 3.467950 0.000000 
#    z 0.000000 0.000000 3.593360 
# 
# 
# High freq. dielectric constant tensor:
#      x y z
#    x 1.764800 0.000000 0.000000 
#    y 0.000000 1.745840 0.000000 
#    z 0.000000 0.000000 1.754380 
# 
# From -- ./inp_files/4789.got.cif
#   From: 2010.06.25/outbox.cif.g09.slc.cpg/sg58_3_cif.got.tgz:4789.got - 2010.06.26 21:38:00.
