data_PCOD8237823
_publ_section_title
;
Structure prediction by ZEFSAII (Michael W. Deem and Ramdas Pophale) SiO2 
 PCOD8237823
Probable space group: P N N M
;
_chemical_formula_sum "Si O2"
_cell_formula_units_Z 40
_cell_length_a 8.649781
_cell_length_b 18.909603
_cell_length_c 12.347690
_cell_angle_alpha 90.000000
_cell_angle_beta 90.000000
_cell_angle_gamma 90.000000
_cell_volume 2019.636638
_symmetry_space_group_name_H-M "P N N M"
_symmetry_group_IT_number 58
_symmetry_cell_setting 'orthorhombic'
loop_
_space_group_symop_operation_xyz
x,y,z
-x,-y,z
1/2+x,1/2-y,1/2-z
1/2-x,1/2+y,1/2-z
-x,-y,-z
x,y,-z
1/2-x,1/2+y,1/2+z
1/2+x,1/2-y,1/2+z
loop_
_atom_site_type_symbol
_atom_site_label
_atom_site_fract_x
_atom_site_fract_y
_atom_site_fract_z
Si Si1 0.338332 0.421374 0.376079
Si Si2 0.823036 0.923201 0.811675
Si Si3 0.891062 0.677292 0.250276
Si Si4 0.594667 0.929179 0.374978
Si Si5 0.673238 0.781969 0.877662
O O1 0.363180 0.397011 0.500000
O O2 0.494207 0.406685 0.307459
O O3 0.294206 0.503929 0.375499
O O4 0.201180 0.378021 0.322952
O O5 0.756225 0.929995 0.690074
O O6 0.733425 0.862381 0.876054
O O7 0.780844 0.732306 0.192924
O O8 0.990782 0.637226 0.159629
O O9 0.001263 0.721800 0.329571
O O10 0.638943 0.921712 0.500000
O O11 0.500000 0.000000 0.350810
O O12 0.669763 0.753854 0.000000
#
# Coordination Sequence:
#
# PCOD8237823 Si02
#       5
#     8   8   8   8   8
#     4  11  21  38  62  89 121 157 194 251 303 352
#     4  10  21  38  61  91 120 153 201 244 298 362
#     4  11  23  40  61  91 120 159 204 247 295 367
#     4  10  20  39  61  86 121 160 201 247 298 350
#     4  11  23  40  61  88 121 159 197 249 304 357
#
# _framework density 19.805543
#
# number of rings (size 3 to 8) (size 9 to 14) (size 15 to 20)
#    0.000    1.400    2.000    4.800    0.000    0.000 
#    0.000   20.000    0.000    0.000    0.000    0.000 
#    0.000    0.000    0.000    0.000    0.000    0.000 
#
# Total GULP energy -496175.347708 kJ/mol
# GULP energy per Si atom -12404.383693 kJ/mol
# Density = 1.976046 g / cm^3
# Si number density = 19.805543 Si / 1000 Ang^3
#
#
#
# Elastic Constant Matrix: (Units=GPa)
#
#
# Indices 1 2 3 4 5 6 
#
# 1 99.1273 23.2132 44.9573 0.0000 0.0000 0.0000
# 2 23.2132 56.5039 19.8955 0.0000 0.0000 0.0000
# 3 44.9573 19.8955 104.7830 0.0000 0.0000 0.0000
# 4 0.0000 0.0000 0.0000 21.0599 0.0000 0.0000
# 5 0.0000 0.0000 0.0000 0.0000 24.8799 0.0000
# 6 0.0000 0.0000 0.0000 0.0000 0.0000 40.8762
#
#
#
# Elastic Compliance Matrix: (Units=1/GPa)
#
#
# Indices 1 2 3 4 5 6 
#
# 1 0.013201 -0.003675 -0.004966 0.000000 0.000000 0.000000
# 2 -0.003675 0.019989 -0.002219 0.000000 0.000000 0.000000
# 3 -0.004966 -0.002219 0.012096 0.000000 0.000000 0.000000
# 4 0.000000 0.000000 0.000000 0.047484 0.000000 0.000000
# 5 0.000000 0.000000 0.000000 0.000000 0.040193 0.000000
# 6 0.000000 0.000000 0.000000 0.000000 0.000000 0.024464
#
#
# Mechanical properties :
#
#
# Convention : Reuss Voigt Hill
#
# Bulk Modulus (GPa) = 42.43371 48.50515 45.46943
# Shear Modulus (GPa) = 26.73793 28.85308 27.79551
#
# Velocity S-wave (km/s) = 3.67825 3.82097 3.75029
# Velocity P-wave (km/s) = 6.28578 6.63402 6.46225
#
# Compressibility (1/GPa) = 0.02356617
#
# Stress axis : x y z
#
# Youngs Moduli (GPa) = 75.75274 50.02816 82.67512
#
# Poissons Ratio (x) = 0.18383 0.41058
# Poissons Ratio (y) = 0.27836 0.18343
# Poissons Ratio (z) = 0.37620 0.11100
#
# Static dielectric constant tensor:
#      x y z
#    x 3.694070 0.000000 0.000000 
#    y 0.000000 3.635510 0.000000 
#    z 0.000000 0.000000 3.531860 
# 
# 
# High freq. dielectric constant tensor:
#      x y z
#    x 1.779160 0.000000 0.000000 
#    y 0.000000 1.776940 0.000000 
#    z 0.000000 0.000000 1.772000 
# 
# From -- ./inp_files/12671.got.cif
#   From: 2010.06.25/outbox.cif.g09.slc.cpg/sg58_7_cif.got.tgz:12671.got - 2010.06.26 21:38:00.
