data_PCOD8237284
_publ_section_title
;
Structure prediction by ZEFSAII (Michael W. Deem and Ramdas Pophale) SiO2 
 PCOD8237284
Probable space group: P N N M
;
_chemical_formula_sum "Si O2"
_cell_formula_units_Z 56
_cell_length_a 14.196043
_cell_length_b 12.649483
_cell_length_c 15.636737
_cell_angle_alpha 90.000000
_cell_angle_beta 90.000000
_cell_angle_gamma 90.000000
_cell_volume 2807.929590
_symmetry_space_group_name_H-M "P N N M"
_symmetry_group_IT_number 58
_symmetry_cell_setting 'orthorhombic'
loop_
_space_group_symop_operation_xyz
x,y,z
-x,-y,z
1/2+x,1/2-y,1/2-z
1/2-x,1/2+y,1/2-z
-x,-y,-z
x,y,-z
1/2-x,1/2+y,1/2+z
1/2+x,1/2-y,1/2+z
loop_
_atom_site_type_symbol
_atom_site_label
_atom_site_fract_x
_atom_site_fract_y
_atom_site_fract_z
Si Si1 0.800283 0.863084 0.648174
Si Si2 0.017472 0.114224 0.902309
Si Si3 0.185410 0.904870 0.597904
Si Si4 0.604852 0.805752 0.594272
Si Si5 0.502595 0.721697 0.096545
Si Si6 0.995892 0.618786 0.254424
Si Si7 0.171204 0.255559 0.187220
O O1 0.717066 0.817558 0.589302
O O2 0.899536 0.825859 0.610785
O O3 0.779077 0.815894 0.741430
O O4 0.796282 0.990184 0.653102
O O5 0.105141 0.175894 0.863914
O O6 0.922986 0.183360 0.889136
O O7 0.043366 0.094009 0.000000
O O8 0.000000 0.000000 0.857310
O O9 0.210727 0.930796 0.500000
O O10 0.250313 0.807718 0.627799
O O11 0.076541 0.873198 0.607804
O O12 0.564624 0.839595 0.500000
O O13 0.561947 0.875999 0.670307
O O14 0.530028 0.809709 0.166337
O O15 0.509171 0.768568 0.000000
O O16 0.890065 0.650954 0.229331
O O17 0.000000 0.500000 0.288465
#
# Coordination Sequence:
#
# PCOD8237284 Si02
#       7
#     8   8   8   8   8   8   8
#     4  11  22  36  57  85 115 151 193 236 286 339
#     4   9  19  37  59  83 112 147 186 230 285 345
#     4  11  22  38  60  83 113 153 194 239 288 339
#     4  10  20  35  57  84 114 145 184 235 284 341
#     4  10  22  39  58  82 113 151 198 243 280 333
#     4  10  21  37  56  81 112 146 185 232 291 349
#     4  10  22  35  55  85 115 146 186 237 285 343
#
# _framework density 19.943519999999999
#
# number of rings (size 3 to 8) (size 9 to 14) (size 15 to 20)
#    0.000    1.857    0.000    3.857    0.000    6.857 
#    0.000    1.429    0.000    3.429    0.000    0.000 
#    0.000    0.000    0.000    0.000    0.000    0.000 
#
# Total GULP energy -694340.724649 kJ/mol
# GULP energy per Si atom -12398.941512 kJ/mol
# Density = 1.989813 g / cm^3
# Si number density = 19.943520 Si / 1000 Ang^3
#
#
#
# Elastic Constant Matrix: (Units=GPa)
#
#
# Indices 1 2 3 4 5 6 
#
# 1 94.8732 39.8200 31.3573 0.0000 0.0000 0.0000
# 2 39.8200 131.9899 50.5819 0.0000 0.0000 0.0000
# 3 31.3573 50.5819 100.4765 0.0000 0.0000 0.0000
# 4 0.0000 0.0000 0.0000 22.8132 0.0000 0.0000
# 5 0.0000 0.0000 0.0000 0.0000 25.9292 0.0000
# 6 0.0000 0.0000 0.0000 0.0000 0.0000 21.9462
#
#
#
# Elastic Compliance Matrix: (Units=1/GPa)
#
#
# Indices 1 2 3 4 5 6 
#
# 1 0.012553 -0.002832 -0.002492 0.000000 0.000000 0.000000
# 2 -0.002832 0.010026 -0.004164 0.000000 0.000000 0.000000
# 3 -0.002492 -0.004164 0.012826 0.000000 0.000000 0.000000
# 4 0.000000 0.000000 0.000000 0.043834 0.000000 0.000000
# 5 0.000000 0.000000 0.000000 0.000000 0.038567 0.000000
# 6 0.000000 0.000000 0.000000 0.000000 0.000000 0.045566
#
#
# Mechanical properties :
#
#
# Convention : Reuss Voigt Hill
#
# Bulk Modulus (GPa) = 60.86311 63.42865 62.14588
# Shear Modulus (GPa) = 26.62071 27.84310 27.23190
#
# Velocity S-wave (km/s) = 3.65746 3.74049 3.69921
# Velocity P-wave (km/s) = 6.95845 7.10832 7.03378
#
# Compressibility (1/GPa) = 0.01643031
#
# Stress axis : x y z
#
# Youngs Moduli (GPa) = 79.66457 99.73717 77.96507
#
# Poissons Ratio (x) = 0.28246 0.19427
# Poissons Ratio (y) = 0.22562 0.32462
# Poissons Ratio (z) = 0.19851 0.41527
#
# Static dielectric constant tensor:
#      x y z
#    x 3.620870 0.000000 0.000000 
#    y 0.000000 3.599260 0.000000 
#    z 0.000000 0.000000 3.810970 
# 
# 
# High freq. dielectric constant tensor:
#      x y z
#    x 1.779060 0.000000 0.000000 
#    y 0.000000 1.772470 0.000000 
#    z 0.000000 0.000000 1.785460 
# 
# From -- ./inp_files/22172.got.cif
#   From: 2010.06.25/outbox.cif.g09.slc.cpg/sg58_12_cif.got.tgz:22172.got - 2010.06.26 21:38:00.
