data_PCOD8237907
_publ_section_title
;
Structure prediction by ZEFSAII (Michael W. Deem and Ramdas Pophale) SiO2 
 PCOD8237907
Probable space group: P N N M
;
_chemical_formula_sum "Si O2"
_cell_formula_units_Z 56
_cell_length_a 21.750203
_cell_length_b 14.590111
_cell_length_c 9.657073
_cell_angle_alpha 90.000000
_cell_angle_beta 90.000000
_cell_angle_gamma 90.000000
_cell_volume 3064.555035
_symmetry_space_group_name_H-M "P N N M"
_symmetry_group_IT_number 58
_symmetry_cell_setting 'orthorhombic'
loop_
_space_group_symop_operation_xyz
x,y,z
-x,-y,z
1/2+x,1/2-y,1/2-z
1/2-x,1/2+y,1/2-z
-x,-y,-z
x,y,-z
1/2-x,1/2+y,1/2+z
1/2+x,1/2-y,1/2+z
loop_
_atom_site_type_symbol
_atom_site_label
_atom_site_fract_x
_atom_site_fract_y
_atom_site_fract_z
Si Si1 0.572196 0.499719 0.661550
Si Si2 0.653359 0.974088 0.157799
Si Si3 0.863350 0.843715 0.661684
Si Si4 0.886379 0.202728 0.159703
Si Si5 0.956600 0.338086 0.656324
Si Si6 0.408205 0.848988 0.836646
Si Si7 0.279058 0.163765 0.658490
O O1 0.500000 0.500000 0.705158
O O2 0.577542 0.474239 0.500000
O O3 0.610316 0.427184 0.750433
O O4 0.606825 0.595449 0.693756
O O5 0.588796 0.922620 0.166412
O O6 0.703241 0.923981 0.250744
O O7 0.640123 0.075432 0.220355
O O8 0.678042 0.976649 0.000000
O O9 0.876425 0.863564 0.500000
O O10 0.895992 0.752679 0.719022
O O11 0.792099 0.821106 0.687862
O O12 0.937660 0.254091 0.247592
O O13 0.818582 0.244435 0.197412
O O14 0.901562 0.220592 0.000000
O O15 0.960202 0.299303 0.500000
O O16 0.022604 0.375362 0.705683
O O17 0.399125 0.851194 0.000000
O O18 0.291853 0.137796 0.500000
#
# Coordination Sequence:
#
# PCOD8237907 Si02
#       7
#     8   8   8   8   8   8   8
#     4  10  21  36  54  78 105 133 169 212 256 300
#     4   9  17  30  51  75  98 127 161 197 241 295
#     4  10  21  35  51  71  97 131 169 208 246 291
#     4   9  18  33  52  71  98 136 167 198 247 302
#     4   9  16  28  49  77 103 124 155 201 243 285
#     4   9  17  30  49  73  99 127 159 196 243 295
#     4   9  19  35  50  69  98 129 166 207 246 292
#
# _framework density 18.273451999999999
#
# number of rings (size 3 to 8) (size 9 to 14) (size 15 to 20)
#    0.000    2.714    0.000    1.286    0.000    4.286 
#    0.000    4.286    0.000    3.429    0.000    0.000 
#    0.000    0.000    0.000    0.000    0.000    0.000 
#
# Total GULP energy -694110.905577 kJ/mol
# GULP energy per Si atom -12394.837600 kJ/mol
# Density = 1.823186 g / cm^3
# Si number density = 18.273452 Si / 1000 Ang^3
#
#
#
# Elastic Constant Matrix: (Units=GPa)
#
#
# Indices 1 2 3 4 5 6 
#
# 1 64.7950 26.1191 27.6870 0.0000 0.0000 0.0000
# 2 26.1191 104.2353 39.0626 0.0000 0.0000 0.0000
# 3 27.6870 39.0626 48.0859 0.0000 0.0000 0.0000
# 4 0.0000 0.0000 0.0000-1296.9376 0.0000 0.0000
# 5 0.0000 0.0000 0.0000 0.0000 24.8745 0.0000
# 6 0.0000 0.0000 0.0000 0.0000 0.0000 21.1352
#
#
#
# Elastic Compliance Matrix: (Units=1/GPa)
#
#
# Indices 1 2 3 4 5 6 
#
# 1 0.020546 -0.001028 -0.010995 0.000000 0.000000 0.000000
# 2 -0.001028 0.013844 -0.010654 0.000000 0.000000 0.000000
# 3 -0.010995 -0.010654 0.035782 0.000000 0.000000 0.000000
# 4 0.000000 0.000000 0.000000 -0.000771 0.000000 0.000000
# 5 0.000000 0.000000 0.000000 0.000000 0.040202 0.000000
# 6 0.000000 0.000000 0.000000 0.000000 0.000000 0.047314
#
#
# Mechanical properties :
#
#
# Convention : Reuss Voigt Hill
#
# Bulk Modulus (GPa) = 40.29436 44.76150 42.52793
# Shear Modulus (GPa) = 23.74810 -241.90240 -109.07715
#
# Velocity S-wave (km/s) = 3.60890 -11.51810 -7.73442
# Velocity P-wave (km/s) = 6.28205 12.34262 7.51252
#
# Compressibility (1/GPa) = 0.02481737
#
# Stress axis : x y z
#
# Youngs Moduli (GPa) = 48.67179 72.23352 27.94722
#
# Poissons Ratio (x) = 0.07425 0.30727
# Poissons Ratio (y) = 0.05003 0.29776
# Poissons Ratio (z) = 0.53514 0.76960
#
# Static dielectric constant tensor:
#      x y z
#    x 3.405260 0.000000 0.000000 
#    y 0.000000 3.537810 0.000000 
#    z 0.000000 0.000000 3.316440 
# 
# 
# High freq. dielectric constant tensor:
#      x y z
#    x 1.710620 0.000000 0.000000 
#    y 0.000000 1.712360 0.000000 
#    z 0.000000 0.000000 1.687120 
# 
# From -- ./inp_files/6247.got.cif
#   From: 2010.06.25/outbox.cif.g09.slc.cpg/sg58_4_cif.got.tgz:6247.got - 2010.06.26 21:38:00.
