data_PCOD8237617
_publ_section_title
;
Structure prediction by ZEFSAII (Michael W. Deem and Ramdas Pophale) SiO2 
 PCOD8237617
Probable space group: P N N M
;
_chemical_formula_sum "Si O2"
_cell_formula_units_Z 64
_cell_length_a 11.945768
_cell_length_b 30.397143
_cell_length_c 8.958779
_cell_angle_alpha 90.000000
_cell_angle_beta 90.000000
_cell_angle_gamma 90.000000
_cell_volume 3253.086908
_symmetry_space_group_name_H-M "P N N M"
_symmetry_group_IT_number 58
_symmetry_cell_setting 'orthorhombic'
loop_
_space_group_symop_operation_xyz
x,y,z
-x,-y,z
1/2+x,1/2-y,1/2-z
1/2-x,1/2+y,1/2-z
-x,-y,-z
x,y,-z
1/2-x,1/2+y,1/2+z
1/2+x,1/2-y,1/2+z
loop_
_atom_site_type_symbol
_atom_site_label
_atom_site_fract_x
_atom_site_fract_y
_atom_site_fract_z
Si Si1 0.146776 0.625199 0.823247
Si Si2 0.199314 0.044577 0.329279
Si Si3 0.497546 0.330340 0.669669
Si Si4 0.747726 0.552763 0.171490
Si Si5 0.093665 0.379852 0.322615
Si Si6 0.755653 0.196281 0.177279
Si Si7 0.793708 0.793025 0.323596
Si Si8 0.515665 0.568829 0.329851
O O1 0.223191 0.584267 0.771908
O O2 0.205738 0.670225 0.768639
O O3 0.030204 0.621430 0.740248
O O4 0.126563 0.624531 0.000000
O O5 0.163012 0.053170 0.500000
O O6 0.085843 0.039394 0.232955
O O7 0.268788 0.999498 0.313234
O O8 0.505807 0.313354 0.500000
O O9 0.373880 0.322094 0.735089
O O10 0.582343 0.302862 0.768571
O O11 0.527424 0.381376 0.680303
O O12 0.843605 0.576776 0.264869
O O13 0.625595 0.564223 0.231791
O O14 0.754892 0.567875 0.000000
O O15 0.090309 0.382007 0.500000
O O16 0.158640 0.336337 0.264600
O O17 0.739919 0.245394 0.241538
O O18 0.753399 0.196560 0.000000
O O19 0.796421 0.792438 0.500000
O O20 0.542211 0.555147 0.500000
#
# Coordination Sequence:
#
# PCOD8237617 Si02
#       8
#     8   8   8   8   8   8   8   8
#     4  10  22  40  60  84 115 151 194 240 287 341
#     4  10  22  40  60  85 118 154 192 242 293 341
#     4  10  20  37  60  85 119 154 186 233 291 340
#     4  11  23  39  61  86 115 153 196 239 291 348
#     4  11  23  41  61  83 118 155 192 240 293 345
#     4   9  20  39  59  84 119 154 187 237 294 339
#     4  10  21  38  62  87 115 153 196 238 282 341
#     4  11  21  36  60  89 121 155 190 235 292 348
#
# _framework density 19.673621000000001
#
# number of rings (size 3 to 8) (size 9 to 14) (size 15 to 20)
#    0.000    1.750    2.500    1.500    1.750    4.500 
#    0.000    3.750    0.000    0.000    0.000    0.000 
#    0.000    0.000    0.000    0.000    0.000    0.000 
#
# Total GULP energy -793805.067529 kJ/mol
# GULP energy per Si atom -12403.204180 kJ/mol
# Density = 1.962884 g / cm^3
# Si number density = 19.673621 Si / 1000 Ang^3
#
#
#
# Elastic Constant Matrix: (Units=GPa)
#
#
# Indices 1 2 3 4 5 6 
#
# 1 129.3940 37.8017 39.0287 0.0000 0.0000 0.0000
# 2 37.8017 98.6107 30.9697 0.0000 0.0000 0.0000
# 3 39.0287 30.9697 46.2736 0.0000 0.0000 0.0000
# 4 0.0000 0.0000 0.0000 23.3845 0.0000 0.0000
# 5 0.0000 0.0000 0.0000 0.0000 38.2568 0.0000
# 6 0.0000 0.0000 0.0000 0.0000 0.0000 27.7291
#
#
#
# Elastic Compliance Matrix: (Units=1/GPa)
#
#
# Indices 1 2 3 4 5 6 
#
# 1 0.010557 -0.001583 -0.007844 0.000000 0.000000 0.000000
# 2 -0.001583 0.013077 -0.007417 0.000000 0.000000 0.000000
# 3 -0.007844 -0.007417 0.033191 0.000000 0.000000 0.000000
# 4 0.000000 0.000000 0.000000 0.042763 0.000000 0.000000
# 5 0.000000 0.000000 0.000000 0.000000 0.026139 0.000000
# 6 0.000000 0.000000 0.000000 0.000000 0.000000 0.036063
#
#
# Mechanical properties :
#
#
# Convention : Reuss Voigt Hill
#
# Bulk Modulus (GPa) = 43.22306 54.43093 48.82699
# Shear Modulus (GPa) = 24.60730 28.97262 26.78996
#
# Velocity S-wave (km/s) = 3.54047 3.84169 3.69415
# Velocity P-wave (km/s) = 6.22342 6.88514 6.56263
#
# Compressibility (1/GPa) = 0.02313580
#
# Stress axis : x y z
#
# Youngs Moduli (GPa) = 94.72405 76.46916 30.12887
#
# Poissons Ratio (x) = 0.12107 0.23634
# Poissons Ratio (y) = 0.14998 0.22346
# Poissons Ratio (z) = 0.74306 0.56716
#
# Static dielectric constant tensor:
#      x y z
#    x 3.514170 0.000000 0.000000 
#    y 0.000000 3.947720 0.000000 
#    z 0.000000 0.000000 3.454740 
# 
# 
# High freq. dielectric constant tensor:
#      x y z
#    x 1.767770 0.000000 0.000000 
#    y 0.000000 1.780660 0.000000 
#    z 0.000000 0.000000 1.752120 
# 
# From -- ./inp_files/4781.got.cif
#   From: 2010.06.25/outbox.cif.g09.slc.cpg/sg58_3_cif.got.tgz:4781.got - 2010.06.26 21:38:00.
