data_PCOD8237835
_publ_section_title
;
Structure prediction by ZEFSAII (Michael W. Deem and Ramdas Pophale) SiO2 
 PCOD8237835
Probable space group: P N N M
;
_chemical_formula_sum "Si O2"
_cell_formula_units_Z 48
_cell_length_a 15.721229
_cell_length_b 18.812962
_cell_length_c 7.719594
_cell_angle_alpha 90.000000
_cell_angle_beta 90.000000
_cell_angle_gamma 90.000000
_cell_volume 2283.169383
_symmetry_space_group_name_H-M "P N N M"
_symmetry_group_IT_number 58
_symmetry_cell_setting 'orthorhombic'
loop_
_space_group_symop_operation_xyz
x,y,z
-x,-y,z
1/2+x,1/2-y,1/2-z
1/2-x,1/2+y,1/2-z
-x,-y,-z
x,y,-z
1/2-x,1/2+y,1/2+z
1/2+x,1/2-y,1/2+z
loop_
_atom_site_type_symbol
_atom_site_label
_atom_site_fract_x
_atom_site_fract_y
_atom_site_fract_z
Si Si1 0.978798 0.383082 0.500000
Si Si2 0.250278 0.943187 0.694936
Si Si3 0.868633 0.522631 0.500000
Si Si4 0.739046 0.714894 0.297102
Si Si5 0.943510 0.276650 0.803056
Si Si6 0.103174 0.188077 0.705235
Si Si7 0.087368 0.028646 0.296227
O O1 0.923385 0.452721 0.500000
O O2 0.962280 0.341013 0.675532
O O3 0.077465 0.404727 0.500000
O O4 0.271803 0.969010 0.500000
O O5 0.315697 0.979246 0.824285
O O6 0.253383 0.858316 0.697374
O O7 0.158231 0.971219 0.754011
O O8 0.745056 0.699019 0.500000
O O9 0.646381 0.743553 0.245395
O O10 0.811685 0.770245 0.236357
O O11 0.018686 0.219298 0.792652
O O12 0.937491 0.305437 0.000000
O O13 0.091647 0.193661 0.500000
O O14 0.112034 0.107126 0.772689
O O15 0.075614 0.034917 0.500000
O O16 0.000000 0.000000 0.211276
#
# Coordination Sequence:
#
# PCOD8237835 Si02
#       7
#     4   8   4   8   8   8   8
#     4  11  26  46  68  90 131 180 214 277 342 381
#     4  11  23  41  68  95 131 174 223 267 327 398
#     4  11  26  46  65  94 132 172 225 277 329 394
#     4  10  22  39  62  93 131 171 214 273 326 386
#     4  11  24  42  66  98 132 166 224 273 323 393
#     4  10  20  39  64  91 129 171 209 265 330 384
#     4   9  19  36  61  93 131 172 211 260 330 397
#
# _framework density 21.023408
#
# number of rings (size 3 to 8) (size 9 to 14) (size 15 to 20)
#    0.000    1.667    1.667    2.000    3.500    4.667 
#    1.500    2.083    0.000    0.000    0.000    0.000 
#    0.000    0.000    0.000    0.000    0.000    0.000 
#
# Total GULP energy -595310.188415 kJ/mol
# GULP energy per Si atom -12402.295592 kJ/mol
# Density = 2.097556 g / cm^3
# Si number density = 21.023408 Si / 1000 Ang^3
#
#
#
# Elastic Constant Matrix: (Units=GPa)
#
#
# Indices 1 2 3 4 5 6 
#
# 1 150.0758 49.8568 27.7825 0.0000 0.0000 0.0000
# 2 49.8568 120.0948 21.7940 0.0000 0.0000 0.0000
# 3 27.7825 21.7940 81.9894 0.0000 0.0000 0.0000
# 4 0.0000 0.0000 0.0000 18.6208 0.0000 0.0000
# 5 0.0000 0.0000 0.0000 0.0000 28.5595 0.0000
# 6 0.0000 0.0000 0.0000 0.0000 0.0000 30.1493
#
#
#
# Elastic Compliance Matrix: (Units=1/GPa)
#
#
# Indices 1 2 3 4 5 6 
#
# 1 0.008008 -0.002975 -0.001923 0.000000 0.000000 0.000000
# 2 -0.002975 0.009854 -0.001611 0.000000 0.000000 0.000000
# 3 -0.001923 -0.001611 0.013276 0.000000 0.000000 0.000000
# 4 0.000000 0.000000 0.000000 0.053703 0.000000 0.000000
# 5 0.000000 0.000000 0.000000 0.000000 0.035015 0.000000
# 6 0.000000 0.000000 0.000000 0.000000 0.000000 0.033168
#
#
# Mechanical properties :
#
#
# Convention : Reuss Voigt Hill
#
# Bulk Modulus (GPa) = 55.18717 61.22519 58.20618
# Shear Modulus (GPa) = 29.05571 32.31436 30.68504
#
# Velocity S-wave (km/s) = 3.72165 3.92480 3.82457
# Velocity P-wave (km/s) = 6.69140 7.05155 6.87383
#
# Compressibility (1/GPa) = 0.01812015
#
# Stress axis : x y z
#
# Youngs Moduli (GPa) = 124.87999 101.47751 75.32139
#
# Poissons Ratio (x) = 0.30194 0.14481
# Poissons Ratio (y) = 0.37158 0.12136
# Poissons Ratio (z) = 0.24008 0.16350
#
# Static dielectric constant tensor:
#      x y z
#    x 4.126260 0.000000 0.000000 
#    y 0.000000 3.852830 0.000000 
#    z 0.000000 0.000000 3.678190 
# 
# 
# High freq. dielectric constant tensor:
#      x y z
#    x 1.837420 0.000000 0.000000 
#    y 0.000000 1.827480 0.000000 
#    z 0.000000 0.000000 1.816460 
# 
# From -- ./inp_files/5948.got.cif
#   From: 2010.06.25/outbox.cif.g09.slc.cpg/sg58_3_cif.got.tgz:5948.got - 2010.06.26 21:38:00.
