data_PCOD8237262
_publ_section_title
;
Structure prediction by ZEFSAII (Michael W. Deem and Ramdas Pophale) SiO2 
 PCOD8237262
Probable space group: P N N M
;
_chemical_formula_sum "Si O2"
_cell_formula_units_Z 64
_cell_length_a 23.207497
_cell_length_b 15.230095
_cell_length_c 9.219709
_cell_angle_alpha 90.000000
_cell_angle_beta 90.000000
_cell_angle_gamma 90.000000
_cell_volume 3258.728126
_symmetry_space_group_name_H-M "P N N M"
_symmetry_group_IT_number 58
_symmetry_cell_setting 'orthorhombic'
loop_
_space_group_symop_operation_xyz
x,y,z
-x,-y,z
1/2+x,1/2-y,1/2-z
1/2-x,1/2+y,1/2-z
-x,-y,-z
x,y,-z
1/2-x,1/2+y,1/2+z
1/2+x,1/2-y,1/2+z
loop_
_atom_site_type_symbol
_atom_site_label
_atom_site_fract_x
_atom_site_fract_y
_atom_site_fract_z
Si Si1 0.674217 0.008280 0.165970
Si Si2 0.307307 0.787222 0.164966
Si Si3 0.997659 0.901908 0.835182
Si Si4 0.551807 0.939530 0.827603
Si Si5 0.712273 0.489799 0.831994
Si Si6 0.931477 0.243123 0.330987
Si Si7 0.633943 0.356633 0.665361
Si Si8 0.803489 0.192798 0.334687
O O1 0.674819 0.112526 0.177032
O O2 0.725563 0.968938 0.262251
O O3 0.613269 0.975062 0.229348
O O4 0.683059 0.976999 0.000000
O O5 0.353501 0.736216 0.260774
O O6 0.243922 0.766945 0.227605
O O7 0.308647 0.753746 0.000000
O O8 0.933766 0.866508 0.825615
O O9 0.038501 0.836478 0.749578
O O10 0.020461 0.905379 0.000000
O O11 0.000000 0.000000 0.767674
O O12 0.544358 0.837940 0.778422
O O13 0.500000 0.000000 0.763589
O O14 0.551405 0.946044 0.000000
O O15 0.664080 0.433564 0.753472
O O16 0.692057 0.589105 0.808024
O O17 0.715482 0.464170 0.000000
O O18 0.943513 0.229672 0.500000
O O19 0.863447 0.239781 0.298049
O O20 0.655890 0.358265 0.500000
O O21 0.784765 0.211877 0.500000
#
# Coordination Sequence:
#
# PCOD8237262 Si02
#       8
#     8   8   8   8   8   8   8   8
#     4   9  19  36  58  83 114 152 191 231 287 349
#     4  10  21  35  56  86 115 148 191 239 287 343
#     4  10  23  42  61  84 116 155 195 240 297 355
#     4   9  19  35  57  84 114 152 197 242 285 339
#     4  10  20  35  56  84 117 148 186 236 288 347
#     4  10  21  36  61  90 116 153 198 242 290 343
#     4  11  23  37  57  82 113 151 192 236 293 355
#     4   9  19  36  56  84 119 152 186 232 292 351
#
# _framework density 19.639564
#
# number of rings (size 3 to 8) (size 9 to 14) (size 15 to 20)
#    0.000    2.250    0.000    1.875    3.500    2.750 
#    0.000    0.625    0.000    0.750    0.000    0.000 
#    0.000    0.000    0.000    0.000    0.000    0.000 
#
# Total GULP energy -793704.626776 kJ/mol
# GULP energy per Si atom -12401.634793 kJ/mol
# Density = 1.959486 g / cm^3
# Si number density = 19.639564 Si / 1000 Ang^3
#
#
#
# Elastic Constant Matrix: (Units=GPa)
#
#
# Indices 1 2 3 4 5 6 
#
# 1 67.1889 33.0746 32.9755 0.0000 0.0000 0.0000
# 2 33.0746 86.3667 30.9959 0.0000 0.0000 0.0000
# 3 32.9755 30.9959 89.0991 0.0000 0.0000 0.0000
# 4 0.0000 0.0000 0.0000 26.0542 0.0000 0.0000
# 5 0.0000 0.0000 0.0000 0.0000 27.7006 0.0000
# 6 0.0000 0.0000 0.0000 0.0000 0.0000 36.6882
#
#
#
# Elastic Compliance Matrix: (Units=1/GPa)
#
#
# Indices 1 2 3 4 5 6 
#
# 1 0.020488 -0.005856 -0.005545 0.000000 0.000000 0.000000
# 2 -0.005856 0.014904 -0.003018 0.000000 0.000000 0.000000
# 3 -0.005545 -0.003018 0.014326 0.000000 0.000000 0.000000
# 4 0.000000 0.000000 0.000000 0.038381 0.000000 0.000000
# 5 0.000000 0.000000 0.000000 0.000000 0.036100 0.000000
# 6 0.000000 0.000000 0.000000 0.000000 0.000000 0.027257
#
#
# Mechanical properties :
#
#
# Convention : Reuss Voigt Hill
#
# Bulk Modulus (GPa) = 47.89322 48.52743 48.21032
# Shear Modulus (GPa) = 26.70188 27.79586 27.24887
#
# Velocity S-wave (km/s) = 3.69127 3.76613 3.72889
# Velocity P-wave (km/s) = 6.52735 6.60865 6.56813
#
# Compressibility (1/GPa) = 0.02087978
#
# Stress axis : x y z
#
# Youngs Moduli (GPa) = 48.81023 67.09611 69.80527
#
# Poissons Ratio (x) = 0.39289 0.38709
# Poissons Ratio (y) = 0.28582 0.21065
# Poissons Ratio (z) = 0.27067 0.20247
#
# Static dielectric constant tensor:
#      x y z
#    x 3.664140 0.000000 0.000000 
#    y 0.000000 3.664360 0.000000 
#    z 0.000000 0.000000 3.579640 
# 
# 
# High freq. dielectric constant tensor:
#      x y z
#    x 1.769260 0.000000 0.000000 
#    y 0.000000 1.776060 0.000000 
#    z 0.000000 0.000000 1.750110 
# 
# From -- ./inp_files/10096.got.cif
#   From: 2010.06.25/outbox.cif.g09.slc.cpg/sg58_6_cif.got.tgz:10096.got - 2010.06.26 21:38:00.
