data_PCOD8237927
_publ_section_title
;
Structure prediction by ZEFSAII (Michael W. Deem and Ramdas Pophale) SiO2 
 PCOD8237927
Probable space group: P N N M
;
_chemical_formula_sum "Si O2"
_cell_formula_units_Z 64
_cell_length_a 24.340956
_cell_length_b 14.494238
_cell_length_c 9.369736
_cell_angle_alpha 90.000000
_cell_angle_beta 90.000000
_cell_angle_gamma 90.000000
_cell_volume 3305.676680
_symmetry_space_group_name_H-M "P N N M"
_symmetry_group_IT_number 58
_symmetry_cell_setting 'orthorhombic'
loop_
_space_group_symop_operation_xyz
x,y,z
-x,-y,z
1/2+x,1/2-y,1/2-z
1/2-x,1/2+y,1/2-z
-x,-y,-z
x,y,-z
1/2-x,1/2+y,1/2+z
1/2+x,1/2-y,1/2+z
loop_
_atom_site_type_symbol
_atom_site_label
_atom_site_fract_x
_atom_site_fract_y
_atom_site_fract_z
Si Si1 0.253563 0.654652 0.663674
Si Si2 0.562003 0.747587 0.166581
Si Si3 0.672705 0.514752 0.664077
Si Si4 0.352554 0.143502 0.662867
Si Si5 0.474262 0.904953 0.164939
Si Si6 0.050619 0.933618 0.835177
Si Si7 0.626874 0.061198 0.661623
Si Si8 0.242406 0.368093 0.834398
O O1 0.233852 0.642166 0.500000
O O2 0.305696 0.588797 0.696475
O O3 0.206622 0.623002 0.771454
O O4 0.268077 0.760383 0.695327
O O5 0.617744 0.778044 0.245048
O O6 0.515155 0.821938 0.195254
O O7 0.541306 0.652937 0.232946
O O8 0.575195 0.735878 0.000000
O O9 0.682007 0.540564 0.500000
O O10 0.608173 0.516539 0.703276
O O11 0.704776 0.593265 0.751893
O O12 0.346958 0.178004 0.500000
O O13 0.385910 0.047819 0.670258
O O14 0.417954 0.883729 0.247366
O O15 0.500000 0.000000 0.222782
O O16 0.459238 0.915068 0.000000
O O17 0.049950 0.901652 0.000000
O O18 0.000000 0.000000 0.801662
O O19 0.623097 0.097928 0.500000
O O20 0.687687 0.081104 0.721949
O O21 0.252856 0.388775 0.000000
#
# Coordination Sequence:
#
# PCOD8237927 Si02
#       8
#     8   8   8   8   8   8   8   8
#     4  10  21  36  58  84 115 155 196 238 290 349
#     4  11  23  39  61  88 118 157 200 244 294 348
#     4  10  21  38  60  87 116 153 196 239 291 350
#     4  11  21  35  57  86 118 151 195 243 290 346
#     4  10  21  37  56  81 116 154 192 235 285 346
#     4  10  23  43  65  89 118 154 198 249 299 346
#     4  10  21  35  55  83 115 150 188 238 293 344
#     4  10  21  38  57  85 119 152 191 238 289 342
#
# _framework density 19.360636
#
# number of rings (size 3 to 8) (size 9 to 14) (size 15 to 20)
#    0.000    1.750    2.500    1.500    0.000    6.500 
#    0.000    2.500    0.000    0.000    0.000    0.000 
#    0.000    0.000    0.000    0.000    0.000    0.000 
#
# Total GULP energy -793800.829282 kJ/mol
# GULP energy per Si atom -12403.137958 kJ/mol
# Density = 1.931657 g / cm^3
# Si number density = 19.360636 Si / 1000 Ang^3
#
#
#
# Elastic Constant Matrix: (Units=GPa)
#
#
# Indices 1 2 3 4 5 6 
#
# 1 139.4058 55.9237 68.7337 0.0000 0.0000 0.0000
# 2 55.9237 119.1946 59.3518 0.0000 0.0000 0.0000
# 3 68.7337 59.3518 94.7968 0.0000 0.0000 0.0000
# 4 0.0000 0.0000 0.0000 30.9980 0.0000 0.0000
# 5 0.0000 0.0000 0.0000 0.0000 31.4415 0.0000
# 6 0.0000 0.0000 0.0000 0.0000 0.0000 28.1883
#
#
#
# Elastic Compliance Matrix: (Units=1/GPa)
#
#
# Indices 1 2 3 4 5 6 
#
# 1 0.011423 -0.001795 -0.007159 0.000000 0.000000 0.000000
# 2 -0.001795 0.012472 -0.006507 0.000000 0.000000 0.000000
# 3 -0.007159 -0.006507 0.019813 0.000000 0.000000 0.000000
# 4 0.000000 0.000000 0.000000 0.032260 0.000000 0.000000
# 5 0.000000 0.000000 0.000000 0.000000 0.031805 0.000000
# 6 0.000000 0.000000 0.000000 0.000000 0.000000 0.035476
#
#
# Mechanical properties :
#
#
# Convention : Reuss Voigt Hill
#
# Bulk Modulus (GPa) = 78.20467 80.15726 79.18096
# Shear Modulus (GPa) = 28.02175 29.41809 28.71992
#
# Velocity S-wave (km/s) = 3.80854 3.90228 3.85570
# Velocity P-wave (km/s) = 7.73442 7.86103 7.79798
#
# Compressibility (1/GPa) = 0.01278696
#
# Stress axis : x y z
#
# Youngs Moduli (GPa) = 87.54418 80.17979 50.47080
#
# Poissons Ratio (x) = 0.14391 0.36130
# Poissons Ratio (y) = 0.15713 0.32843
# Poissons Ratio (z) = 0.62669 0.52175
#
# Static dielectric constant tensor:
#      x y z
#    x 3.519820 0.000000 0.000000 
#    y 0.000000 3.507910 0.000000 
#    z 0.000000 0.000000 3.509690 
# 
# 
# High freq. dielectric constant tensor:
#      x y z
#    x 1.753960 0.000000 0.000000 
#    y 0.000000 1.753410 0.000000 
#    z 0.000000 0.000000 1.751590 
# 
# From -- ./inp_files/6781.got.cif
#   From: 2010.06.25/outbox.cif.g09.slc.cpg/sg58_4_cif.got.tgz:6781.got - 2010.06.26 21:38:00.
