data_PCOD8237134
_publ_section_title
;
Structure prediction by ZEFSAII (Michael W. Deem and Ramdas Pophale) SiO2 
 PCOD8237134
Probable space group: P N N M
;
_chemical_formula_sum "Si O2"
_cell_formula_units_Z 64
_cell_length_a 28.973101
_cell_length_b 12.687364
_cell_length_c 9.114404
_cell_angle_alpha 90.000000
_cell_angle_beta 90.000000
_cell_angle_gamma 90.000000
_cell_volume 3350.384534
_symmetry_space_group_name_H-M "P N N M"
_symmetry_group_IT_number 58
_symmetry_cell_setting 'orthorhombic'
loop_
_space_group_symop_operation_xyz
x,y,z
-x,-y,z
1/2+x,1/2-y,1/2-z
1/2-x,1/2+y,1/2-z
-x,-y,-z
x,y,-z
1/2-x,1/2+y,1/2+z
1/2+x,1/2-y,1/2+z
loop_
_atom_site_type_symbol
_atom_site_label
_atom_site_fract_x
_atom_site_fract_y
_atom_site_fract_z
Si Si1 0.393579 0.890749 0.827286
Si Si2 0.823472 0.331562 0.161224
Si Si3 0.297712 0.365590 0.171824
Si Si4 0.425499 0.087646 0.333230
Si Si5 0.200545 0.437291 0.168273
Si Si6 0.106489 0.953376 0.328142
Si Si7 0.033985 0.803145 0.826221
Si Si8 0.559888 0.328590 0.829614
O O1 0.342605 0.895118 0.760213
O O2 0.414762 0.778504 0.782982
O O3 0.427353 0.983093 0.766717
O O4 0.389535 0.905048 0.000000
O O5 0.807099 0.254606 0.287728
O O6 0.876647 0.356851 0.183558
O O7 0.794290 0.437407 0.176498
O O8 0.815681 0.280700 0.000000
O O9 0.248292 0.396934 0.240660
O O10 0.340503 0.438083 0.225407
O O11 0.292524 0.377177 0.000000
O O12 0.434370 0.050614 0.500000
O O13 0.461677 0.178364 0.284739
O O14 0.193053 0.400532 0.000000
O O15 0.101268 0.927392 0.500000
O O16 0.093297 0.073728 0.293580
O O17 0.075034 0.871349 0.241381
O O18 0.985986 0.845473 0.764374
O O19 0.035781 0.817963 0.000000
O O20 0.545912 0.326581 0.000000
#
# Coordination Sequence:
#
# PCOD8237134 Si02
#       8
#     8   8   8   8   8   8   8   8
#     4  10  21  37  58  83 111 147 192 235 275 333
#     4   9  17  33  54  75 106 143 177 224 278 325
#     4  10  20  34  56  83 107 141 187 228 272 332
#     4   9  19  36  57  80 111 146 180 226 284 334
#     4   9  20  37  55  79 113 148 181 225 287 341
#     4  10  21  38  58  80 113 152 188 231 282 336
#     4  11  22  37  59  86 112 145 190 235 283 336
#     4  10  23  40  56  80 116 153 187 228 284 338
#
# _framework density 19.102284000000001
#
# number of rings (size 3 to 8) (size 9 to 14) (size 15 to 20)
#    0.000    2.250    1.250    1.875    0.000    8.000 
#    0.000    5.000    0.000    0.000    0.000    0.000 
#    0.000    0.000    0.000    0.000    0.000    0.000 
#
# Total GULP energy -793510.955062 kJ/mol
# GULP energy per Si atom -12398.608673 kJ/mol
# Density = 1.905881 g / cm^3
# Si number density = 19.102284 Si / 1000 Ang^3
#
#
#
# Elastic Constant Matrix: (Units=GPa)
#
#
# Indices 1 2 3 4 5 6 
#
# 1 57.5400 19.5184 22.4442 0.0000 0.0000 0.0000
# 2 19.5184 86.3222 31.1363 0.0000 0.0000 0.0000
# 3 22.4442 31.1363 50.1836 0.0000 0.0000 0.0000
# 4 0.0000 0.0000 0.0000 27.3193 0.0000 0.0000
# 5 0.0000 0.0000 0.0000 0.0000 17.7743 0.0000
# 6 0.0000 0.0000 0.0000 0.0000 0.0000 9.5894
#
#
#
# Elastic Compliance Matrix: (Units=1/GPa)
#
#
# Indices 1 2 3 4 5 6 
#
# 1 0.021261 -0.001775 -0.008408 0.000000 0.000000 0.000000
# 2 -0.001775 0.015073 -0.008558 0.000000 0.000000 0.000000
# 3 -0.008408 -0.008558 0.028997 0.000000 0.000000 0.000000
# 4 0.000000 0.000000 0.000000 0.036604 0.000000 0.000000
# 5 0.000000 0.000000 0.000000 0.000000 0.056261 0.000000
# 6 0.000000 0.000000 0.000000 0.000000 0.000000 0.104282
#
#
# Mechanical properties :
#
#
# Convention : Reuss Voigt Hill
#
# Bulk Modulus (GPa) = 35.90721 37.80485 36.85603
# Shear Modulus (GPa) = 16.16859 18.99973 17.58416
#
# Velocity S-wave (km/s) = 2.91249 3.15720 3.03731
# Velocity P-wave (km/s) = 5.49074 5.75537 5.62461
#
# Compressibility (1/GPa) = 0.02784956
#
# Stress axis : x y z
#
# Youngs Moduli (GPa) = 47.03519 66.34531 34.48645
#
# Poissons Ratio (x) = 0.11774 0.28995
# Poissons Ratio (y) = 0.08347 0.29514
# Poissons Ratio (z) = 0.39545 0.56779
#
# Static dielectric constant tensor:
#      x y z
#    x 3.695050 0.000000 0.000000 
#    y 0.000000 3.605710 0.000000 
#    z 0.000000 0.000000 3.428000 
# 
# 
# High freq. dielectric constant tensor:
#      x y z
#    x 1.744380 0.000000 0.000000 
#    y 0.000000 1.746020 0.000000 
#    z 0.000000 0.000000 1.734800 
# 
# From -- ./inp_files/11043.got.cif
#   From: 2010.06.25/outbox.cif.g09.slc.cpg/sg58_6_cif.got.tgz:11043.got - 2010.06.26 21:38:00.
