data_PCOD8237801
_publ_section_title
;
Structure prediction by ZEFSAII (Michael W. Deem and Ramdas Pophale) SiO2 
 PCOD8237801
Probable space group: P N N M
;
_chemical_formula_sum "Si O2"
_cell_formula_units_Z 56
_cell_length_a 14.517053
_cell_length_b 13.294175
_cell_length_c 14.292769
_cell_angle_alpha 90.000000
_cell_angle_beta 90.000000
_cell_angle_gamma 90.000000
_cell_volume 2758.393549
_symmetry_space_group_name_H-M "P N N M"
_symmetry_group_IT_number 58
_symmetry_cell_setting 'orthorhombic'
loop_
_space_group_symop_operation_xyz
x,y,z
-x,-y,z
1/2+x,1/2-y,1/2-z
1/2-x,1/2+y,1/2-z
-x,-y,-z
x,y,-z
1/2-x,1/2+y,1/2+z
1/2+x,1/2-y,1/2+z
loop_
_atom_site_type_symbol
_atom_site_label
_atom_site_fract_x
_atom_site_fract_y
_atom_site_fract_z
Si Si1 0.500834 0.729356 0.736281
Si Si2 0.271272 0.003577 0.608231
Si Si3 0.424964 0.414437 0.107942
Si Si4 0.086468 0.072229 0.895359
Si Si5 0.669784 0.775425 0.608760
Si Si6 0.744477 0.065717 0.891481
Si Si7 0.910432 0.566923 0.745869
O O1 0.549977 0.677816 0.824865
O O2 0.431411 0.658159 0.679712
O O3 0.576160 0.775869 0.666996
O O4 0.437831 0.818664 0.774290
O O5 0.288448 0.984021 0.500000
O O6 0.273775 0.122940 0.630670
O O7 0.172733 0.960210 0.639550
O O8 0.352356 0.943191 0.659033
O O9 0.500000 0.500000 0.121966
O O10 0.423125 0.377144 0.000000
O O11 0.173049 0.007397 0.860561
O O12 0.103424 0.116523 0.000000
O O13 0.000000 0.000000 0.898342
O O14 0.641906 0.767286 0.500000
O O15 0.731541 0.680029 0.637603
O O16 0.653196 0.029165 0.839097
O O17 0.723971 0.056607 0.000000
O O18 0.000000 0.500000 0.751980
#
# Coordination Sequence:
#
# PCOD8237801 Si02
#       7
#     8   8   8   8   8   8   8
#     4  12  23  39  66  98 128 168 211 278 322 381
#     4  10  23  44  67  92 133 174 214 267 321 386
#     4  10  24  44  67  98 130 169 217 263 321 387
#     4  10  20  38  65  98 129 159 203 267 331 380
#     4  10  20  38  68  99 127 166 213 262 326 390
#     4  10  23  42  64  93 131 170 214 264 322 393
#     4  12  27  43  61  91 130 174 223 261 324 392
#
# _framework density 20.301670999999999
#
# number of rings (size 3 to 8) (size 9 to 14) (size 15 to 20)
#    0.000    1.429    2.857    1.714    4.000    2.286 
#    2.571    0.000    0.000    0.000    0.000    0.000 
#    0.000    0.000    0.000    0.000    0.000    0.000 
#
# Total GULP energy -694600.843126 kJ/mol
# GULP energy per Si atom -12403.586484 kJ/mol
# Density = 2.025546 g / cm^3
# Si number density = 20.301671 Si / 1000 Ang^3
#
#
#
# Elastic Constant Matrix: (Units=GPa)
#
#
# Indices 1 2 3 4 5 6 
#
# 1 165.2768 67.9555 67.7465 0.0000 0.0000 0.0000
# 2 67.9555 119.2164 60.0935 0.0000 0.0000 0.0000
# 3 67.7465 60.0935 91.6950 0.0000 0.0000 0.0000
# 4 0.0000 0.0000 0.0000 -5.6669 0.0000 0.0000
# 5 0.0000 0.0000 0.0000 0.0000 23.6260 0.0000
# 6 0.0000 0.0000 0.0000 0.0000 0.0000 34.5281
#
#
#
# Elastic Compliance Matrix: (Units=1/GPa)
#
#
# Indices 1 2 3 4 5 6 
#
# 1 0.009236 -0.002725 -0.005038 0.000000 0.000000 0.000000
# 2 -0.002725 0.013330 -0.006723 0.000000 0.000000 0.000000
# 3 -0.005038 -0.006723 0.019033 0.000000 0.000000 0.000000
# 4 0.000000 0.000000 0.000000 -0.176462 0.000000 0.000000
# 5 0.000000 0.000000 0.000000 0.000000 0.042326 0.000000
# 6 0.000000 0.000000 0.000000 0.000000 0.000000 0.028962
#
#
# Mechanical properties :
#
#
# Convention : Reuss Voigt Hill
#
# Bulk Modulus (GPa) = 79.18651 85.30879 82.24765
# Shear Modulus (GPa) = -164.50761 22.52362 -70.99200
#
# Velocity S-wave (km/s) = -9.01152 3.33445 -5.91984
# Velocity P-wave (km/s) = 8.31787 7.54563 2.47492
#
# Compressibility (1/GPa) = 0.01262841
#
# Stress axis : x y z
#
# Youngs Moduli (GPa) = 108.27289 75.01727 52.53918
#
# Poissons Ratio (x) = 0.20445 0.26467
# Poissons Ratio (y) = 0.29508 0.35320
# Poissons Ratio (z) = 0.54544 0.50431
#
# Static dielectric constant tensor:
#      x y z
#    x 3.631910 0.000000 0.000000 
#    y 0.000000 3.592280 0.000000 
#    z 0.000000 0.000000 3.811070 
# 
# 
# High freq. dielectric constant tensor:
#      x y z
#    x 1.797730 0.000000 0.000000 
#    y 0.000000 1.786700 0.000000 
#    z 0.000000 0.000000 1.802840 
# 
# From -- ./inp_files/21269.got.cif
#   From: 2010.06.25/outbox.cif.g09.slc.cpg/sg58_11_cif.got.tgz:21269.got - 2010.06.26 21:38:00.
