data_PCOD8237397
_publ_section_title
;
Structure prediction by ZEFSAII (Michael W. Deem and Ramdas Pophale) SiO2 
 PCOD8237397
Probable space group: P N N M
;
_chemical_formula_sum "Si O2"
_cell_formula_units_Z 64
_cell_length_a 25.330028
_cell_length_b 14.373487
_cell_length_c 8.907300
_cell_angle_alpha 90.000000
_cell_angle_beta 90.000000
_cell_angle_gamma 90.000000
_cell_volume 3242.977161
_symmetry_space_group_name_H-M "P N N M"
_symmetry_group_IT_number 58
_symmetry_cell_setting 'orthorhombic'
loop_
_space_group_symop_operation_xyz
x,y,z
-x,-y,z
1/2+x,1/2-y,1/2-z
1/2-x,1/2+y,1/2-z
-x,-y,-z
x,y,-z
1/2-x,1/2+y,1/2+z
1/2+x,1/2-y,1/2+z
loop_
_atom_site_type_symbol
_atom_site_label
_atom_site_fract_x
_atom_site_fract_y
_atom_site_fract_z
Si Si1 0.927136 0.253657 0.321496
Si Si2 0.746807 0.041673 0.328769
Si Si3 0.446256 0.053669 0.326798
Si Si4 0.989480 0.896441 0.321531
Si Si5 0.811322 0.217756 0.325605
Si Si6 0.224800 0.141896 0.176482
Si Si7 0.130733 0.392934 0.826476
Si Si8 0.617176 0.298728 0.822503
O O1 0.926435 0.250139 0.500000
O O2 0.947197 0.354090 0.271673
O O3 0.868747 0.235150 0.253102
O O4 0.965950 0.173796 0.258422
O O5 0.747766 0.003867 0.500000
O O6 0.752343 0.959466 0.210670
O O7 0.795349 0.111091 0.299539
O O8 0.692933 0.097207 0.298233
O O9 0.440086 0.082146 0.500000
O O10 0.500000 0.000000 0.296056
O O11 0.398159 0.987416 0.274882
O O12 0.991983 0.898471 0.500000
O O13 0.932387 0.860242 0.267738
O O14 0.000000 0.000000 0.256714
O O15 0.814403 0.242249 0.500000
O O16 0.767032 0.285300 0.254821
O O17 0.168974 0.154684 0.255060
O O18 0.216704 0.156465 0.000000
O O19 0.108977 0.306786 0.731595
O O20 0.117949 0.372438 0.000000
O O21 0.621959 0.298805 0.000000
#
# Coordination Sequence:
#
# PCOD8237397 Si02
#       8
#     8   8   8   8   8   8   8   8
#     4  10  20  36  60  85 110 147 191 241 288 330
#     4  10  20  36  57  82 110 149 194 231 280 343
#     4  10  21  36  56  83 115 152 186 223 283 346
#     4   9  20  37  58  84 112 147 194 244 291 338
#     4   9  19  36  58  82 113 149 185 227 285 341
#     4  11  22  38  57  84 119 153 189 235 289 343
#     4  10  20  37  59  82 117 157 186 229 290 345
#     4  11  22  36  59  87 113 148 194 240 285 341
#
# _framework density 19.734953999999998
#
# number of rings (size 3 to 8) (size 9 to 14) (size 15 to 20)
#    0.000    2.000    1.250    2.250    1.750    1.250 
#    0.000    1.875    0.000    1.875    0.000    0.000 
#    0.000    0.000    0.000    0.000    0.000    0.000 
#
# Total GULP energy -793754.785807 kJ/mol
# GULP energy per Si atom -12402.418528 kJ/mol
# Density = 1.969004 g / cm^3
# Si number density = 19.734954 Si / 1000 Ang^3
#
#
#
# Elastic Constant Matrix: (Units=GPa)
#
#
# Indices 1 2 3 4 5 6 
#
# 1 137.0554 59.6475 31.9760 0.0000 0.0000 0.0000
# 2 59.6475 130.7376 30.6520 0.0000 0.0000 0.0000
# 3 31.9760 30.6520 39.1494 0.0000 0.0000 0.0000
# 4 0.0000 0.0000 0.0000 31.3622 0.0000 0.0000
# 5 0.0000 0.0000 0.0000 0.0000 22.2149 0.0000
# 6 0.0000 0.0000 0.0000 0.0000 0.0000 34.8580
#
#
#
# Elastic Compliance Matrix: (Units=1/GPa)
#
#
# Indices 1 2 3 4 5 6 
#
# 1 0.010029 -0.003252 -0.005645 0.000000 0.000000 0.000000
# 2 -0.003252 0.010423 -0.005505 0.000000 0.000000 0.000000
# 3 -0.005645 -0.005505 0.034464 0.000000 0.000000 0.000000
# 4 0.000000 0.000000 0.000000 0.031886 0.000000 0.000000
# 5 0.000000 0.000000 0.000000 0.000000 0.045015 0.000000
# 6 0.000000 0.000000 0.000000 0.000000 0.000000 0.028688
#
#
# Mechanical properties :
#
#
# Convention : Reuss Voigt Hill
#
# Bulk Modulus (GPa) = 38.29622 61.27705 49.78663
# Shear Modulus (GPa) = 25.25113 29.99815 27.62464
#
# Velocity S-wave (km/s) = 3.58091 3.90301 3.74543
# Velocity P-wave (km/s) = 6.04521 7.17139 6.63225
#
# Compressibility (1/GPa) = 0.02611224
#
# Stress axis : x y z
#
# Youngs Moduli (GPa) = 99.71500 95.93992 29.01607
#
# Poissons Ratio (x) = 0.31199 0.16379
# Poissons Ratio (y) = 0.32427 0.15973
# Poissons Ratio (z) = 0.56288 0.52812
#
# Static dielectric constant tensor:
#      x y z
#    x 3.903640 0.000000 0.000000 
#    y 0.000000 3.637830 0.000000 
#    z 0.000000 0.000000 3.271990 
# 
# 
# High freq. dielectric constant tensor:
#      x y z
#    x 1.786840 0.000000 0.000000 
#    y 0.000000 1.778920 0.000000 
#    z 0.000000 0.000000 1.733520 
# 
# From -- ./inp_files/10092.got.cif
#   From: 2010.06.25/outbox.cif.g09.slc.cpg/sg58_6_cif.got.tgz:10092.got - 2010.06.26 21:38:00.
