data_PCOD8237439
_publ_section_title
;
Structure prediction by ZEFSAII (Michael W. Deem and Ramdas Pophale) SiO2 
 PCOD8237439
Probable space group: P N N M
;
_chemical_formula_sum "Si O2"
_cell_formula_units_Z 56
_cell_length_a 14.341470
_cell_length_b 21.311225
_cell_length_c 9.182587
_cell_angle_alpha 90.000000
_cell_angle_beta 90.000000
_cell_angle_gamma 90.000000
_cell_volume 2806.513495
_symmetry_space_group_name_H-M "P N N M"
_symmetry_group_IT_number 58
_symmetry_cell_setting 'orthorhombic'
loop_
_space_group_symop_operation_xyz
x,y,z
-x,-y,z
1/2+x,1/2-y,1/2-z
1/2-x,1/2+y,1/2-z
-x,-y,-z
x,y,-z
1/2-x,1/2+y,1/2+z
1/2+x,1/2-y,1/2+z
loop_
_atom_site_type_symbol
_atom_site_label
_atom_site_fract_x
_atom_site_fract_y
_atom_site_fract_z
Si Si1 0.383429 0.936257 0.667305
Si Si2 0.903946 0.968648 0.166396
Si Si3 0.792827 0.091432 0.834131
Si Si4 0.913468 0.189840 0.331633
Si Si5 0.906831 0.419362 0.831770
Si Si6 0.800760 0.312320 0.328312
Si Si7 0.121344 0.158946 0.329923
O O1 0.355187 0.928231 0.500000
O O2 0.308056 0.898794 0.762050
O O3 0.484126 0.905733 0.697393
O O4 0.384696 0.009241 0.709537
O O5 0.879395 0.911892 0.271765
O O6 0.821451 0.018940 0.180543
O O7 0.913629 0.944420 0.000000
O O8 0.000000 0.000000 0.218520
O O9 0.871099 0.133355 0.759484
O O10 0.785683 0.113129 0.000000
O O11 0.893928 0.175444 0.500000
O O12 0.867822 0.255280 0.283738
O O13 0.023551 0.193449 0.299240
O O14 0.845330 0.376578 0.727777
O O15 0.882179 0.405759 0.000000
O O16 0.786189 0.317419 0.500000
O O17 0.700703 0.301418 0.252904
O O18 0.144964 0.156630 0.500000
#
# Coordination Sequence:
#
# PCOD8237439 Si02
#       7
#     8   8   8   8   8   8   8
#     4   9  19  36  59  86 120 153 188 236 288 343
#     4  10  20  36  58  88 124 155 189 240 301 355
#     4  11  22  35  57  88 119 153 193 239 292 350
#     4  10  24  43  59  80 114 154 196 240 287 343
#     4   9  19  38  61  86 114 152 196 237 283 342
#     4  11  24  41  61  85 117 155 195 244 297 348
#     4  11  23  40  63  89 117 154 201 245 292 355
#
# _framework density 19.953582999999998
#
# number of rings (size 3 to 8) (size 9 to 14) (size 15 to 20)
#    0.000    1.857    1.429    3.000    0.000    7.714 
#    0.000    4.286    0.000    0.000    0.000    0.000 
#    0.000    0.000    0.000    0.000    0.000    0.000 
#
# Total GULP energy -694654.418089 kJ/mol
# GULP energy per Si atom -12404.543180 kJ/mol
# Density = 1.990817 g / cm^3
# Si number density = 19.953583 Si / 1000 Ang^3
#
#
#
# Elastic Constant Matrix: (Units=GPa)
#
#
# Indices 1 2 3 4 5 6 
#
# 1 133.3192 39.6653 63.7840 0.0000 0.0000 0.0000
# 2 39.6653 68.6468 44.4170 0.0000 0.0000 0.0000
# 3 63.7840 44.4170 98.3718 0.0000 0.0000 0.0000
# 4 0.0000 0.0000 0.0000 22.1760 0.0000 0.0000
# 5 0.0000 0.0000 0.0000 0.0000 30.9358 0.0000
# 6 0.0000 0.0000 0.0000 0.0000 0.0000 29.4714
#
#
#
# Elastic Compliance Matrix: (Units=1/GPa)
#
#
# Indices 1 2 3 4 5 6 
#
# 1 0.011169 -0.002498 -0.006114 0.000000 0.000000 0.000000
# 2 -0.002498 0.021138 -0.007925 0.000000 0.000000 0.000000
# 3 -0.006114 -0.007925 0.017708 0.000000 0.000000 0.000000
# 4 0.000000 0.000000 0.000000 0.045094 0.000000 0.000000
# 5 0.000000 0.000000 0.000000 0.000000 0.032325 0.000000
# 6 0.000000 0.000000 0.000000 0.000000 0.000000 0.033931
#
#
# Mechanical properties :
#
#
# Convention : Reuss Voigt Hill
#
# Bulk Modulus (GPa) = 59.02493 66.23004 62.62748
# Shear Modulus (GPa) = 24.98915 26.68139 25.83527
#
# Velocity S-wave (km/s) = 3.54271 3.66070 3.60219
# Velocity P-wave (km/s) = 6.81027 7.15065 6.98253
#
# Compressibility (1/GPa) = 0.01694199
#
# Stress axis : x y z
#
# Youngs Moduli (GPa) = 89.53226 47.30773 56.47051
#
# Poissons Ratio (x) = 0.11815 0.34528
# Poissons Ratio (y) = 0.22361 0.44753
# Poissons Ratio (z) = 0.54743 0.37491
#
# Static dielectric constant tensor:
#      x y z
#    x 3.855010 0.000000 0.000000 
#    y 0.000000 3.412170 0.000000 
#    z 0.000000 0.000000 3.588260 
# 
# 
# High freq. dielectric constant tensor:
#      x y z
#    x 1.796220 0.000000 0.000000 
#    y 0.000000 1.761810 0.000000 
#    z 0.000000 0.000000 1.778970 
# 
# From -- ./inp_files/6458.got.cif
#   From: 2010.06.25/outbox.cif.g09.slc.cpg/sg58_4_cif.got.tgz:6458.got - 2010.06.26 21:38:00.
