data_PCOD8237948
_publ_section_title
;
Structure prediction by ZEFSAII (Michael W. Deem and Ramdas Pophale) SiO2 
 PCOD8237948
Probable space group: P N N M
;
_chemical_formula_sum "Si O2"
_cell_formula_units_Z 48
_cell_length_a 8.812587
_cell_length_b 30.042941
_cell_length_c 9.897393
_cell_angle_alpha 90.000000
_cell_angle_beta 90.000000
_cell_angle_gamma 90.000000
_cell_volume 2620.394491
_symmetry_space_group_name_H-M "P N N M"
_symmetry_group_IT_number 58
_symmetry_cell_setting 'orthorhombic'
loop_
_space_group_symop_operation_xyz
x,y,z
-x,-y,z
1/2+x,1/2-y,1/2-z
1/2-x,1/2+y,1/2-z
-x,-y,-z
x,y,-z
1/2-x,1/2+y,1/2+z
1/2+x,1/2-y,1/2+z
loop_
_atom_site_type_symbol
_atom_site_label
_atom_site_fract_x
_atom_site_fract_y
_atom_site_fract_z
Si Si1 0.750685 0.885974 0.153606
Si Si2 0.745899 0.224631 0.156373
Si Si3 0.147225 0.941996 0.651843
Si Si4 0.207557 0.039022 0.348572
Si Si5 0.902383 0.133597 0.155511
Si Si6 0.897933 0.294659 0.344908
O O1 0.705682 0.927941 0.246876
O O2 0.633432 0.846507 0.183985
O O3 0.918966 0.867890 0.184896
O O4 0.739272 0.902604 0.000000
O O5 0.846766 0.182336 0.197822
O O6 0.572187 0.213937 0.187443
O O7 0.792326 0.265849 0.248149
O O8 0.771208 0.237274 0.000000
O O9 0.191114 0.927051 0.500000
O O10 0.188678 0.902828 0.755986
O O11 0.970001 0.951849 0.660091
O O12 0.237386 0.987330 0.690828
O O13 0.267336 0.048177 0.500000
O O14 0.862960 0.123549 0.000000
O O15 0.856831 0.283015 0.500000
#
# Coordination Sequence:
#
# PCOD8237948 Si02
#       6
#     8   8   8   8   8   8
#     4   9  17  29  46  69  96 124 156 196 239 283
#     4  10  21  36  53  73  98 128 162 201 245 293
#     4   8  14  25  42  66  95 124 155 193 235 278
#     4   8  14  25  42  66  95 124 155 193 235 278
#     4   9  17  29  46  69  96 124 156 196 239 283
#     4  10  21  36  53  73  98 128 162 201 245 293
#
# _framework density 18.317852999999999
#
# number of rings (size 3 to 8) (size 9 to 14) (size 15 to 20)
#    0.000    3.000    0.000    2.000    0.000    4.000 
#    0.000    6.667    0.000    1.000    0.000    7.000 
#    0.000    0.000    0.000    0.000    0.000    0.000 
#
# Total GULP energy -595117.634543 kJ/mol
# GULP energy per Si atom -12398.284053 kJ/mol
# Density = 1.827616 g / cm^3
# Si number density = 18.317853 Si / 1000 Ang^3
#
#
#
# Elastic Constant Matrix: (Units=GPa)
#
#
# Indices 1 2 3 4 5 6 
#
# 1 23.6343 -4.7614 7.4424 0.0000 0.0000 0.0000
# 2 -4.7614 43.2993 30.2897 0.0000 0.0000 0.0000
# 3 7.4424 30.2897 65.2446 0.0000 0.0000 0.0000
# 4 0.0000 0.0000 0.0000 43.8124 0.0000 0.0000
# 5 0.0000 0.0000 0.0000 0.0000 15.4334 0.0000
# 6 0.0000 0.0000 0.0000 0.0000 0.0000 17.4949
#
#
#
# Elastic Compliance Matrix: (Units=1/GPa)
#
#
# Indices 1 2 3 4 5 6 
#
# 1 0.048837 0.013725 -0.011942 0.000000 0.000000 0.000000
# 2 0.013725 0.038060 -0.019235 0.000000 0.000000 0.000000
# 3 -0.011942 -0.019235 0.025619 0.000000 0.000000 0.000000
# 4 0.000000 0.000000 0.000000 0.022825 0.000000 0.000000
# 5 0.000000 0.000000 0.000000 0.000000 0.064795 0.000000
# 6 0.000000 0.000000 0.000000 0.000000 0.000000 0.057159
#
#
# Mechanical properties :
#
#
# Convention : Reuss Voigt Hill
#
# Bulk Modulus (GPa) = 12.88488 22.01330 17.44909
# Shear Modulus (GPa) = 15.71984 21.96197 18.84090
#
# Velocity S-wave (km/s) = 2.93263 3.46633 3.21059
# Velocity P-wave (km/s) = 4.30307 5.29755 4.82600
#
# Compressibility (1/GPa) = 0.07761037
#
# Stress axis : x y z
#
# Youngs Moduli (GPa) = 20.47631 26.27445 39.03369
#
# Poissons Ratio (x) = -0.36060 0.46616
# Poissons Ratio (y) = -0.28103 0.75080
# Poissons Ratio (z) = 0.24454 0.50538
#
# Static dielectric constant tensor:
#      x y z
#    x 3.030150 0.000000 0.000000 
#    y 0.000000 3.582020 0.000000 
#    z 0.000000 0.000000 3.487900 
# 
# 
# High freq. dielectric constant tensor:
#      x y z
#    x 1.674980 0.000000 0.000000 
#    y 0.000000 1.714730 0.000000 
#    z 0.000000 0.000000 1.710360 
# 
# From -- ./inp_files/2987.got.cif
#   From: 2010.06.25/outbox.cif.g09.slc.cpg/sg58_2_cif.got.tgz:2987.got - 2010.06.26 21:38:00.
