data_PCOD8237107
_publ_section_title
;
Structure prediction by ZEFSAII (Michael W. Deem and Ramdas Pophale) SiO2 
 PCOD8237107
Probable space group: P N N M
;
_chemical_formula_sum "Si O2"
_cell_formula_units_Z 64
_cell_length_a 24.589700
_cell_length_b 14.772929
_cell_length_c 9.226462
_cell_angle_alpha 90.000000
_cell_angle_beta 90.000000
_cell_angle_gamma 90.000000
_cell_volume 3351.622045
_symmetry_space_group_name_H-M "P N N M"
_symmetry_group_IT_number 58
_symmetry_cell_setting 'orthorhombic'
loop_
_space_group_symop_operation_xyz
x,y,z
-x,-y,z
1/2+x,1/2-y,1/2-z
1/2-x,1/2+y,1/2-z
-x,-y,-z
x,y,-z
1/2-x,1/2+y,1/2+z
1/2+x,1/2-y,1/2+z
loop_
_atom_site_type_symbol
_atom_site_label
_atom_site_fract_x
_atom_site_fract_y
_atom_site_fract_z
Si Si1 0.240779 0.360601 0.669615
Si Si2 0.370512 0.958897 0.836738
Si Si3 0.446939 0.447661 0.672873
Si Si4 0.014916 0.400470 0.664453
Si Si5 0.052729 0.744489 0.165694
Si Si6 0.652041 0.876538 0.334295
Si Si7 0.170754 0.004374 0.171733
Si Si8 0.257959 0.671214 0.328115
O O1 0.247819 0.338225 0.500000
O O2 0.185447 0.411905 0.704284
O O3 0.290607 0.422395 0.728236
O O4 0.235734 0.267830 0.755357
O O5 0.419914 0.887541 0.824600
O O6 0.383094 0.038692 0.722366
O O7 0.368068 0.998709 0.000000
O O8 0.500000 0.500000 0.733037
O O9 0.446000 0.449245 0.500000
O O10 0.450476 0.345152 0.731166
O O11 0.390825 0.492767 0.731687
O O12 0.993622 0.393028 0.500000
O O13 0.000000 0.500000 0.725827
O O14 0.988450 0.320186 0.752878
O O15 0.115226 0.712873 0.179135
O O16 0.033714 0.744241 0.000000
O O17 0.670913 0.890739 0.500000
O O18 0.702522 0.872710 0.226789
O O19 0.193556 0.102757 0.219530
O O20 0.171686 0.998289 0.000000
O O21 0.255758 0.682351 0.500000
#
# Coordination Sequence:
#
# PCOD8237107 Si02
#       8
#     8   8   8   8   8   8   8   8
#     4  10  20  37  57  79 113 152 186 228 283 342
#     4  10  20  36  56  79 111 153 190 227 283 342
#     4   9  18  34  56  81 108 142 186 232 279 333
#     4  10  20  34  55  81 112 150 189 225 277 346
#     4  10  21  35  56  84 111 146 191 237 286 336
#     4  11  21  34  55  82 113 147 188 235 285 340
#     4   9  18  35  57  78 109 149 185 225 281 339
#     4  11  22  36  57  85 113 148 192 235 283 342
#
# _framework density 19.095231999999999
#
# number of rings (size 3 to 8) (size 9 to 14) (size 15 to 20)
#    0.000    2.000    2.500    1.500    0.000    4.750 
#    0.000    1.250    0.000    1.875    0.000    0.000 
#    0.000    0.000    0.000    0.000    0.000    0.000 
#
# Total GULP energy -793474.358096 kJ/mol
# GULP energy per Si atom -12398.036845 kJ/mol
# Density = 1.905177 g / cm^3
# Si number density = 19.095232 Si / 1000 Ang^3
#
#
#
# Elastic Constant Matrix: (Units=GPa)
#
#
# Indices 1 2 3 4 5 6 
#
# 1 140.0749 63.7197 25.3665 0.0000 0.0000 0.0000
# 2 63.7197 135.1825 40.9384 0.0000 0.0000 0.0000
# 3 25.3665 40.9384 44.2583 0.0000 0.0000 0.0000
# 4 0.0000 0.0000 0.0000 29.1686 0.0000 0.0000
# 5 0.0000 0.0000 0.0000 0.0000 16.6143 0.0000
# 6 0.0000 0.0000 0.0000 0.0000 0.0000 27.8974
#
#
#
# Elastic Compliance Matrix: (Units=1/GPa)
#
#
# Indices 1 2 3 4 5 6 
#
# 1 0.009184 -0.003799 -0.001750 0.000000 0.000000 0.000000
# 2 -0.003799 0.011848 -0.008781 0.000000 0.000000 0.000000
# 3 -0.001750 -0.008781 0.031720 0.000000 0.000000 0.000000
# 4 0.000000 0.000000 0.000000 0.034283 0.000000 0.000000
# 5 0.000000 0.000000 0.000000 0.000000 0.060189 0.000000
# 6 0.000000 0.000000 0.000000 0.000000 0.000000 0.035846
#
#
# Mechanical properties :
#
#
# Convention : Reuss Voigt Hill
#
# Bulk Modulus (GPa) = 41.50861 64.39611 52.95236
# Shear Modulus (GPa) = 22.75201 27.36879 25.06040
#
# Velocity S-wave (km/s) = 3.45556 3.78997 3.62662
# Velocity P-wave (km/s) = 6.14053 7.27659 6.73256
#
# Compressibility (1/GPa) = 0.02409139
#
# Stress axis : x y z
#
# Youngs Moduli (GPa) = 108.88359 84.40592 31.52576
#
# Poissons Ratio (x) = 0.32067 0.05516
# Poissons Ratio (y) = 0.41367 0.27684
# Poissons Ratio (z) = 0.19051 0.74120
#
# Static dielectric constant tensor:
#      x y z
#    x 3.793140 0.000000 0.000000 
#    y 0.000000 3.730410 0.000000 
#    z 0.000000 0.000000 3.210930 
# 
# 
# High freq. dielectric constant tensor:
#      x y z
#    x 1.754140 0.000000 0.000000 
#    y 0.000000 1.743300 0.000000 
#    z 0.000000 0.000000 1.710300 
# 
# From -- ./inp_files/6799.got.cif
#   From: 2010.06.25/outbox.cif.g09.slc.cpg/sg58_4_cif.got.tgz:6799.got - 2010.06.26 21:38:00.
