data_PCOD8237361
_publ_section_title
;
Structure prediction by ZEFSAII (Michael W. Deem and Ramdas Pophale) SiO2 
 PCOD8237361
Probable space group: P N N M
;
_chemical_formula_sum "Si O2"
_cell_formula_units_Z 40
_cell_length_a 12.440410
_cell_length_b 18.441156
_cell_length_c 9.083736
_cell_angle_alpha 90.000000
_cell_angle_beta 90.000000
_cell_angle_gamma 90.000000
_cell_volume 2083.950213
_symmetry_space_group_name_H-M "P N N M"
_symmetry_group_IT_number 58
_symmetry_cell_setting 'orthorhombic'
loop_
_space_group_symop_operation_xyz
x,y,z
-x,-y,z
1/2+x,1/2-y,1/2-z
1/2-x,1/2+y,1/2-z
-x,-y,-z
x,y,-z
1/2-x,1/2+y,1/2+z
1/2+x,1/2-y,1/2+z
loop_
_atom_site_type_symbol
_atom_site_label
_atom_site_fract_x
_atom_site_fract_y
_atom_site_fract_z
Si Si1 0.822682 0.381383 0.169631
Si Si2 0.957248 0.647314 0.674407
Si Si3 0.289505 0.950153 0.669155
Si Si4 0.892302 0.804929 0.674646
Si Si5 0.948665 0.073680 0.675298
O O1 0.787026 0.463943 0.189744
O O2 0.724720 0.331513 0.226239
O O3 0.922378 0.362616 0.271107
O O4 0.851982 0.365353 0.000000
O O5 0.956788 0.644248 0.500000
O O6 0.884176 0.582647 0.733900
O O7 0.911974 0.723960 0.733871
O O8 0.311346 0.929283 0.500000
O O9 0.175307 0.918968 0.725080
O O10 0.898538 0.807821 0.500000
O O11 0.985053 0.857875 0.738450
O O12 0.954272 0.070346 0.500000
O O13 0.000000 0.000000 0.740268
#
# Coordination Sequence:
#
# PCOD8237361 Si02
#       5
#     8   8   8   8   8
#     4  10  20  38  60  81 107 142 188 233 269 315
#     4  11  24  37  53  81 118 152 177 216 280 339
#     4  10  20  35  61  87 106 139 189 235 271 316
#     4   9  19  35  54  80 112 142 176 225 281 326
#     4   9  15  30  57  85 106 132 180 236 275 309
#
# _framework density 19.194317000000002
#
# number of rings (size 3 to 8) (size 9 to 14) (size 15 to 20)
#    0.000    2.200    2.000    1.200    2.800    3.200 
#    0.000    1.000    0.000    1.800    0.000    0.000 
#    0.000    0.000    0.000    0.000    0.000    0.000 
#
# Total GULP energy -496053.507562 kJ/mol
# GULP energy per Si atom -12401.337689 kJ/mol
# Density = 1.915063 g / cm^3
# Si number density = 19.194317 Si / 1000 Ang^3
#
#
#
# Elastic Constant Matrix: (Units=GPa)
#
#
# Indices 1 2 3 4 5 6 
#
# 1 131.7430 22.9495 35.4840 0.0000 0.0000 0.0000
# 2 22.9495 50.5607 23.6218 0.0000 0.0000 0.0000
# 3 35.4840 23.6218 44.6514 0.0000 0.0000 0.0000
# 4 0.0000 0.0000 0.0000 17.8374 0.0000 0.0000
# 5 0.0000 0.0000 0.0000 0.0000 1.1897 0.0000
# 6 0.0000 0.0000 0.0000 0.0000 0.0000 29.4557
#
#
#
# Elastic Compliance Matrix: (Units=1/GPa)
#
#
# Indices 1 2 3 4 5 6 
#
# 1 0.009701 -0.001065 -0.007146 0.000000 0.000000 0.000000
# 2 -0.001065 0.026388 -0.013114 0.000000 0.000000 0.000000
# 3 -0.007146 -0.013114 0.035012 0.000000 0.000000 0.000000
# 4 0.000000 0.000000 0.000000 0.056062 0.000000 0.000000
# 5 0.000000 0.000000 0.000000 0.000000 0.840535 0.000000
# 6 0.000000 0.000000 0.000000 0.000000 0.000000 0.033949
#
#
# Mechanical properties :
#
#
# Convention : Reuss Voigt Hill
#
# Bulk Modulus (GPa) = 35.14684 43.45174 39.29929
# Shear Modulus (GPa) = 4.74482 19.35657 12.05070
#
# Velocity S-wave (km/s) = 1.57396 3.17906 2.50836
# Velocity P-wave (km/s) = 4.65338 6.01350 5.37662
#
# Compressibility (1/GPa) = 0.02845206
#
# Stress axis : x y z
#
# Youngs Moduli (GPa) = 103.08584 37.89564 28.56161
#
# Poissons Ratio (x) = 0.04035 0.20409
# Poissons Ratio (y) = 0.10975 0.37456
# Poissons Ratio (z) = 0.73663 0.49696
#
# Static dielectric constant tensor:
#      x y z
#    x 3.662220 0.000000 0.000000 
#    y 0.000000 3.750070 0.000000 
#    z 0.000000 0.000000 3.041400 
# 
# 
# High freq. dielectric constant tensor:
#      x y z
#    x 1.765250 0.000000 0.000000 
#    y 0.000000 1.756260 0.000000 
#    z 0.000000 0.000000 1.697330 
# 
# From -- ./inp_files/3795.got.cif
#   From: 2010.06.25/outbox.cif.g09.slc.cpg/sg58_2_cif.got.tgz:3795.got - 2010.06.26 21:38:00.
