data_PCOD8237452
_publ_section_title
;
Structure prediction by ZEFSAII (Michael W. Deem and Ramdas Pophale) SiO2 
 PCOD8237452
Probable space group: P N N M
;
_chemical_formula_sum "Si O2"
_cell_formula_units_Z 48
_cell_length_a 14.962336
_cell_length_b 18.711916
_cell_length_c 8.805977
_cell_angle_alpha 90.000000
_cell_angle_beta 90.000000
_cell_angle_gamma 90.000000
_cell_volume 2465.444379
_symmetry_space_group_name_H-M "P N N M"
_symmetry_group_IT_number 58
_symmetry_cell_setting 'orthorhombic'
loop_
_space_group_symop_operation_xyz
x,y,z
-x,-y,z
1/2+x,1/2-y,1/2-z
1/2-x,1/2+y,1/2-z
-x,-y,-z
x,y,-z
1/2-x,1/2+y,1/2+z
1/2+x,1/2-y,1/2+z
loop_
_atom_site_type_symbol
_atom_site_label
_atom_site_fract_x
_atom_site_fract_y
_atom_site_fract_z
Si Si1 0.601325 0.016705 0.175971
Si Si2 0.564166 0.436172 0.319715
Si Si3 0.198652 0.736728 0.178480
Si Si4 0.490391 0.285821 0.320637
Si Si5 0.126866 0.318761 0.675611
Si Si6 0.747533 0.919441 0.320838
O O1 0.620703 0.098495 0.213739
O O2 0.500000 0.000000 0.221307
O O3 0.665304 0.969982 0.280112
O O4 0.619597 0.998806 0.000000
O O5 0.500000 0.500000 0.264373
O O6 0.571749 0.435134 0.500000
O O7 0.524218 0.361701 0.255055
O O8 0.662437 0.449475 0.253854
O O9 0.273966 0.794111 0.219971
O O10 0.225870 0.659460 0.245510
O O11 0.106233 0.765791 0.250099
O O12 0.186028 0.728029 0.000000
O O13 0.483471 0.292191 0.500000
O O14 0.557277 0.223020 0.278329
O O15 0.105401 0.302420 0.500000
O O16 0.761433 0.917589 0.500000
#
# Coordination Sequence:
#
# PCOD8237452 Si02
#       6
#     8   8   8   8   8   8
#     4  10  22  38  59  87 117 152 195 239 286 343
#     4  10  22  38  59  85 115 154 198 242 289 345
#     4   9  19  35  56  81 109 149 188 226 287 343
#     4  10  20  36  59  84 111 146 193 240 281 342
#     4  10  20  37  59  81 114 150 184 234 288 341
#     4  11  22  38  60  85 119 156 191 239 293 347
#
# _framework density 19.469106
#
# number of rings (size 3 to 8) (size 9 to 14) (size 15 to 20)
#    0.000    2.000    1.667    1.500    2.333    1.333 
#    0.000    1.667    0.000    0.000    0.000    0.000 
#    0.000    0.000    0.000    0.000    0.000    0.000 
#
# Total GULP energy -595355.697834 kJ/mol
# GULP energy per Si atom -12403.243705 kJ/mol
# Density = 1.942479 g / cm^3
# Si number density = 19.469106 Si / 1000 Ang^3
#
#
#
# Elastic Constant Matrix: (Units=GPa)
#
#
# Indices 1 2 3 4 5 6 
#
# 1 127.6600 60.0211 14.5388 0.0000 0.0000 0.0000
# 2 60.0211 125.2222 18.6086 0.0000 0.0000 0.0000
# 3 14.5388 18.6086 18.7339 0.0000 0.0000 0.0000
# 4 0.0000 0.0000 0.0000 96.3827 0.0000 0.0000
# 5 0.0000 0.0000 0.0000 0.0000 24.9684 0.0000
# 6 0.0000 0.0000 0.0000 0.0000 0.0000 38.7225
#
#
#
# Elastic Compliance Matrix: (Units=1/GPa)
#
#
# Indices 1 2 3 4 5 6 
#
# 1 0.010318 -0.004406 -0.003631 0.000000 0.000000 0.000000
# 2 -0.004406 0.011250 -0.007755 0.000000 0.000000 0.000000
# 3 -0.003631 -0.007755 0.063901 0.000000 0.000000 0.000000
# 4 0.000000 0.000000 0.000000 0.010375 0.000000 0.000000
# 5 0.000000 0.000000 0.000000 0.000000 0.040051 0.000000
# 6 0.000000 0.000000 0.000000 0.000000 0.000000 0.025825
#
#
# Mechanical properties :
#
#
# Convention : Reuss Voigt Hill
#
# Bulk Modulus (GPa) = 18.55845 50.88368 34.72107
# Shear Modulus (GPa) = 23.66672 43.91123 33.78898
#
# Velocity S-wave (km/s) = 3.49033 4.75429 4.17047
# Velocity P-wave (km/s) = 5.07899 7.50533 6.40805
#
# Compressibility (1/GPa) = 0.05388381
#
# Stress axis : x y z
#
# Youngs Moduli (GPa) = 96.91342 88.88673 15.64928
#
# Poissons Ratio (x) = 0.39165 0.05682
# Poissons Ratio (y) = 0.42702 0.12137
# Poissons Ratio (z) = 0.35190 0.68936
#
# Static dielectric constant tensor:
#      x y z
#    x 3.769850 0.000000 0.000000 
#    y 0.000000 3.737780 0.000000 
#    z 0.000000 0.000000 3.222500 
# 
# 
# High freq. dielectric constant tensor:
#      x y z
#    x 1.775360 0.000000 0.000000 
#    y 0.000000 1.771070 0.000000 
#    z 0.000000 0.000000 1.727980 
# 
# From -- ./inp_files/5758.got.cif
#   From: 2010.06.25/outbox.cif.g09.slc.cpg/sg58_3_cif.got.tgz:5758.got - 2010.06.26 21:38:00.
