data_PCOD8237622
_publ_section_title
;
Structure prediction by ZEFSAII (Michael W. Deem and Ramdas Pophale) SiO2 
 PCOD8237622
Probable space group: P N N M
;
_chemical_formula_sum "Si O2"
_cell_formula_units_Z 56
_cell_length_a 23.161538
_cell_length_b 8.496285
_cell_length_c 14.465650
_cell_angle_alpha 90.000000
_cell_angle_beta 90.000000
_cell_angle_gamma 90.000000
_cell_volume 2846.652270
_symmetry_space_group_name_H-M "P N N M"
_symmetry_group_IT_number 58
_symmetry_cell_setting 'orthorhombic'
loop_
_space_group_symop_operation_xyz
x,y,z
-x,-y,z
1/2+x,1/2-y,1/2-z
1/2-x,1/2+y,1/2-z
-x,-y,-z
x,y,-z
1/2-x,1/2+y,1/2+z
1/2+x,1/2-y,1/2+z
loop_
_atom_site_type_symbol
_atom_site_label
_atom_site_fract_x
_atom_site_fract_y
_atom_site_fract_z
Si Si1 0.558847 0.576619 0.807916
Si Si2 0.035119 0.756055 0.500000
Si Si3 0.870462 0.820819 0.783340
Si Si4 0.914622 0.591278 0.500000
Si Si5 0.561034 0.073769 0.607741
Si Si6 0.172662 0.433351 0.659480
Si Si7 0.801832 0.064746 0.895423
Si Si8 0.370632 0.180433 0.294354
O O1 0.500000 0.500000 0.772718
O O2 0.553324 0.638887 0.912462
O O3 0.607321 0.441142 0.795855
O O4 0.574258 0.718117 0.738412
O O5 0.067079 0.590394 0.500000
O O6 0.966864 0.716937 0.500000
O O7 0.924146 0.728103 0.831273
O O8 0.825125 0.700824 0.737544
O O9 0.834256 0.908978 0.861709
O O10 0.876994 0.622982 0.590064
O O11 0.561198 0.119101 0.500000
O O12 0.500000 0.000000 0.638750
O O13 0.609365 0.942397 0.627863
O O14 0.233271 0.455588 0.609516
O O15 0.155666 0.599350 0.703852
O O16 0.819903 0.215205 0.836352
O O17 0.820817 0.092979 0.000000
#
# Coordination Sequence:
#
# PCOD8237622 Si02
#       8
#     8   4   8   4   8   8   8   8
#     4  11  21  37  56  86 122 156 188 239 296 353
#     4  11  23  38  60  92 126 158 194 240 299 350
#     4  10  23  37  59  87 116 154 201 241 300 358
#     4  11  22  38  64  92 118 160 199 242 289 368
#     4  10  20  37  60  87 119 152 195 246 297 360
#     4  11  21  41  60  84 116 155 203 243 294 353
#     4  11  22  39  61  83 116 154 198 254 301 343
#     4  10  22  37  59  85 117 153 202 241 295 357
#
# _framework density 19.672231
#
# number of rings (size 3 to 8) (size 9 to 14) (size 15 to 20)
#    0.000    1.429    2.143    3.643    0.000    1.714 
#    0.000    0.000    0.000    6.857    0.000    0.000 
#    0.000    0.000    0.000    0.000    0.000    0.000 
#
# Total GULP energy -694457.903472 kJ/mol
# GULP energy per Si atom -12401.033991 kJ/mol
# Density = 1.962746 g / cm^3
# Si number density = 19.672231 Si / 1000 Ang^3
#
#
#
# Elastic Constant Matrix: (Units=GPa)
#
#
# Indices 1 2 3 4 5 6 
#
# 1 95.1463 33.3035 38.8207 0.0000 0.0000 0.0000
# 2 33.3035 104.8614 46.2536 0.0000 0.0000 0.0000
# 3 38.8207 46.2536 111.8313 0.0000 0.0000 0.0000
# 4 0.0000 0.0000 0.0000 15.0668 0.0000 0.0000
# 5 0.0000 0.0000 0.0000 0.0000 32.1997 0.0000
# 6 0.0000 0.0000 0.0000 0.0000 0.0000 26.2191
#
#
#
# Elastic Compliance Matrix: (Units=1/GPa)
#
#
# Indices 1 2 3 4 5 6 
#
# 1 0.012788 -0.002573 -0.003375 0.000000 0.000000 0.000000
# 2 -0.002573 0.012182 -0.004145 0.000000 0.000000 0.000000
# 3 -0.003375 -0.004145 0.011828 0.000000 0.000000 0.000000
# 4 0.000000 0.000000 0.000000 0.066371 0.000000 0.000000
# 5 0.000000 0.000000 0.000000 0.000000 0.031056 0.000000
# 6 0.000000 0.000000 0.000000 0.000000 0.000000 0.038140
#
#
# Mechanical properties :
#
#
# Convention : Reuss Voigt Hill
#
# Bulk Modulus (GPa) = 60.19860 60.95496 60.57678
# Shear Modulus (GPa) = 25.24126 27.59454 26.41790
#
# Velocity S-wave (km/s) = 3.58591 3.74935 3.66854
# Velocity P-wave (km/s) = 6.91464 7.05663 6.98600
#
# Compressibility (1/GPa) = 0.01661168
#
# Stress axis : x y z
#
# Youngs Moduli (GPa) = 78.20037 82.08852 84.54378
#
# Poissons Ratio (x) = 0.21118 0.28534
# Poissons Ratio (y) = 0.20118 0.35047
# Poissons Ratio (z) = 0.26393 0.34029
#
# Static dielectric constant tensor:
#      x y z
#    x 3.499020 0.000000 0.000000 
#    y 0.000000 3.696440 0.000000 
#    z 0.000000 0.000000 3.479530 
# 
# 
# High freq. dielectric constant tensor:
#      x y z
#    x 1.762000 0.000000 0.000000 
#    y 0.000000 1.779600 0.000000 
#    z 0.000000 0.000000 1.768470 
# 
# From -- ./inp_files/23291.got.cif
#   From: 2010.06.25/outbox.cif.g09.slc.cpg/sg58_12_cif.got.tgz:23291.got - 2010.06.26 21:38:00.
