data_PCOD8237018
_publ_section_title
;
Structure prediction by ZEFSAII (Michael W. Deem and Ramdas Pophale) SiO2 
 PCOD8237018
Probable space group: P N N M
;
_chemical_formula_sum "Si O2"
_cell_formula_units_Z 64
_cell_length_a 19.727510
_cell_length_b 20.346420
_cell_length_c 8.899919
_cell_angle_alpha 90.000000
_cell_angle_beta 90.000000
_cell_angle_gamma 90.000000
_cell_volume 3572.286904
_symmetry_space_group_name_H-M "P N N M"
_symmetry_group_IT_number 58
_symmetry_cell_setting 'orthorhombic'
loop_
_space_group_symop_operation_xyz
x,y,z
-x,-y,z
1/2+x,1/2-y,1/2-z
1/2-x,1/2+y,1/2-z
-x,-y,-z
x,y,-z
1/2-x,1/2+y,1/2+z
1/2+x,1/2-y,1/2+z
loop_
_atom_site_type_symbol
_atom_site_label
_atom_site_fract_x
_atom_site_fract_y
_atom_site_fract_z
Si Si1 0.931727 0.823445 0.678733
Si Si2 0.073315 0.818776 0.178252
Si Si3 0.171131 0.435026 0.677854
Si Si4 0.327684 0.566642 0.175972
Si Si5 0.926820 0.676827 0.676128
Si Si6 0.080291 0.680350 0.677541
Si Si7 0.672427 0.929120 0.322784
Si Si8 0.173955 0.932771 0.824702
O O1 0.943148 0.824783 0.500000
O O2 0.874150 0.873607 0.733601
O O3 0.909662 0.750455 0.733045
O O4 0.001626 0.843316 0.757928
O O5 0.096831 0.750399 0.249784
O O6 0.128999 0.871842 0.229027
O O7 0.069182 0.811084 0.000000
O O8 0.161689 0.444635 0.500000
O O9 0.124739 0.376436 0.745554
O O10 0.147014 0.501258 0.759594
O O11 0.248417 0.418086 0.720689
O O12 0.250636 0.582117 0.222207
O O13 0.353271 0.498961 0.247885
O O14 0.334854 0.558203 0.000000
O O15 0.916162 0.674875 0.500000
O O16 0.003831 0.658622 0.719477
O O17 0.089833 0.686077 0.500000
O O18 0.130990 0.627815 0.744129
O O19 0.660771 0.926577 0.500000
O O20 0.166812 0.944366 0.000000
#
# Coordination Sequence:
#
# PCOD8237018 Si02
#       8
#     8   8   8   8   8   8   8   8
#     4   9  18  34  53  74  98 131 171 208 247 298
#     4  10  20  34  51  75 104 133 164 207 257 301
#     4   9  17  33  54  73  95 130 170 206 243 294
#     4   9  19  34  53  74 100 133 170 209 248 293
#     4   8  16  31  52  73  94 123 166 209 242 284
#     4  10  20  35  53  74 100 133 170 208 247 299
#     4  10  20  34  51  75 104 132 163 207 255 298
#     4   9  19  33  51  74 101 131 165 204 251 301
#
# _framework density 17.915693999999998
#
# number of rings (size 3 to 8) (size 9 to 14) (size 15 to 20)
#    0.000    2.750    0.000    1.875    0.000    4.000 
#    0.000   11.875    0.000    0.000    0.000    0.000 
#    0.000    0.000    0.000    0.000    0.000    0.000 
#
# Total GULP energy -793594.654024 kJ/mol
# GULP energy per Si atom -12399.916469 kJ/mol
# Density = 1.787492 g / cm^3
# Si number density = 17.915694 Si / 1000 Ang^3
#
#
#
# Elastic Constant Matrix: (Units=GPa)
#
#
# Indices 1 2 3 4 5 6 
#
# 1 109.4170 106.4153 40.3357 0.0000 0.0000 0.0000
# 2 106.4153 164.9408 53.4629 0.0000 0.0000 0.0000
# 3 40.3357 53.4629 46.8160 0.0000 0.0000 0.0000
# 4 0.0000 0.0000 0.0000 31.6755 0.0000 0.0000
# 5 0.0000 0.0000 0.0000 0.0000 25.4683 0.0000
# 6 0.0000 0.0000 0.0000 0.0000 0.0000 39.8725
#
#
#
# Elastic Compliance Matrix: (Units=1/GPa)
#
#
# Indices 1 2 3 4 5 6 
#
# 1 0.025251 -0.014669 -0.005003 0.000000 0.000000 0.000000
# 2 -0.014669 0.018148 -0.008086 0.000000 0.000000 0.000000
# 3 -0.005003 -0.008086 0.034905 0.000000 0.000000 0.000000
# 4 0.000000 0.000000 0.000000 0.031570 0.000000 0.000000
# 5 0.000000 0.000000 0.000000 0.000000 0.039264 0.000000
# 6 0.000000 0.000000 0.000000 0.000000 0.000000 0.025080
#
#
# Mechanical properties :
#
#
# Convention : Reuss Voigt Hill
#
# Bulk Modulus (GPa) = 43.88573 80.17797 62.03185
# Shear Modulus (GPa) = 21.06770 27.46726 24.26748
#
# Velocity S-wave (km/s) = 3.43291 3.91978 3.68440
# Velocity P-wave (km/s) = 6.34524 8.08309 7.26630
#
# Compressibility (1/GPa) = 0.02278645
#
# Stress axis : x y z
#
# Youngs Moduli (GPa) = 39.60303 55.10303 28.64929
#
# Poissons Ratio (x) = 0.80832 0.14335
# Poissons Ratio (y) = 0.58094 0.23165
# Poissons Ratio (z) = 0.19815 0.44555
#
# Static dielectric constant tensor:
#      x y z
#    x 3.452160 0.000000 0.000000 
#    y 0.000000 3.546500 0.000000 
#    z 0.000000 0.000000 3.194490 
# 
# 
# High freq. dielectric constant tensor:
#      x y z
#    x 1.692700 0.000000 0.000000 
#    y 0.000000 1.702050 0.000000 
#    z 0.000000 0.000000 1.682910 
# 
# From -- ./inp_files/8390.got.cif
#   From: 2010.06.25/outbox.cif.g09.slc.cpg/sg58_5_cif.got.tgz:8390.got - 2010.06.26 21:38:00.
