data_PCOD8237775
_publ_section_title
;
Structure prediction by ZEFSAII (Michael W. Deem and Ramdas Pophale) SiO2 
 PCOD8237775
Probable space group: P N N M
;
_chemical_formula_sum "Si O2"
_cell_formula_units_Z 64
_cell_length_a 13.375946
_cell_length_b 13.537148
_cell_length_c 18.380144
_cell_angle_alpha 90.000000
_cell_angle_beta 90.000000
_cell_angle_gamma 90.000000
_cell_volume 3328.132387
_symmetry_space_group_name_H-M "P N N M"
_symmetry_group_IT_number 58
_symmetry_cell_setting 'orthorhombic'
loop_
_space_group_symop_operation_xyz
x,y,z
-x,-y,z
1/2+x,1/2-y,1/2-z
1/2-x,1/2+y,1/2-z
-x,-y,-z
x,y,-z
1/2-x,1/2+y,1/2+z
1/2+x,1/2-y,1/2+z
loop_
_atom_site_type_symbol
_atom_site_label
_atom_site_fract_x
_atom_site_fract_y
_atom_site_fract_z
Si Si1 0.526061 0.197129 0.918939
Si Si2 0.129880 0.764985 0.700553
Si Si3 0.799897 0.564422 0.584882
Si Si4 0.851662 0.221647 0.863514
Si Si5 0.529891 0.390862 0.418497
Si Si6 0.805710 0.862675 0.581301
Si Si7 0.882017 0.010078 0.695958
Si Si8 0.714251 0.395593 0.672354
O O1 0.449344 0.214948 0.853739
O O2 0.582859 0.092505 0.907177
O O3 0.613733 0.276499 0.916271
O O4 0.474989 0.199429 0.000000
O O5 0.095820 0.766676 0.784683
O O6 0.231172 0.702185 0.700335
O O7 0.148418 0.877745 0.678128
O O8 0.766674 0.570712 0.500000
O O9 0.731266 0.635597 0.634172
O O10 0.785526 0.454403 0.615988
O O11 0.800688 0.324407 0.887451
O O12 0.940045 0.187697 0.916932
O O13 0.500000 0.500000 0.389782
O O14 0.570428 0.400058 0.500000
O O15 0.618291 0.352109 0.368142
O O16 0.786023 0.899464 0.500000
O O17 0.851003 0.954201 0.623513
O O18 0.817882 0.966279 0.761842
O O19 0.000000 0.000000 0.712196
#
# Coordination Sequence:
#
# PCOD8237775 Si02
#       8
#     8   8   8   8   8   8   8   8
#     4   9  21  39  62  93 124 162 206 251 307 375
#     4  12  24  38  63  92 124 162 203 256 309 364
#     4  10  20  38  63  89 127 167 202 251 315 377
#     4  11  20  37  61  90 124 161 208 251 300 368
#     4  11  21  35  60  92 122 157 202 251 305 360
#     4  10  21  39  65  91 120 162 208 252 303 363
#     4  12  23  42  64  90 125 160 203 258 307 356
#     4  12  24  38  59  93 127 164 203 253 306 369
#
# _framework density 19.230004000000001
#
# number of rings (size 3 to 8) (size 9 to 14) (size 15 to 20)
#    0.000    1.125    5.000    3.375    0.000    2.250 
#    0.000    1.250    0.000    0.750    0.000    1.750 
#    0.000    0.000    0.000    0.000    0.000    0.000 
#
# Total GULP energy -793460.047567 kJ/mol
# GULP energy per Si atom -12397.813243 kJ/mol
# Density = 1.918624 g / cm^3
# Si number density = 19.230004 Si / 1000 Ang^3
#
#
#
# Elastic Constant Matrix: (Units=GPa)
#
#
# Indices 1 2 3 4 5 6 
#
# 1 77.2693 45.3329 37.4650 0.0000 0.0000 0.0000
# 2 45.3329 81.1467 22.9934 0.0000 0.0000 0.0000
# 3 37.4650 22.9934 113.1558 0.0000 0.0000 0.0000
# 4 0.0000 0.0000 0.0000 24.1830 0.0000 0.0000
# 5 0.0000 0.0000 0.0000 0.0000 33.8609 0.0000
# 6 0.0000 0.0000 0.0000 0.0000 0.0000 27.8105
#
#
#
# Elastic Compliance Matrix: (Units=1/GPa)
#
#
# Indices 1 2 3 4 5 6 
#
# 1 0.021617 -0.010662 -0.004991 0.000000 0.000000 0.000000
# 2 -0.010662 0.018335 -0.000196 0.000000 0.000000 0.000000
# 3 -0.004991 -0.000196 0.010529 0.000000 0.000000 0.000000
# 4 0.000000 0.000000 0.000000 0.041351 0.000000 0.000000
# 5 0.000000 0.000000 0.000000 0.000000 0.029533 0.000000
# 6 0.000000 0.000000 0.000000 0.000000 0.000000 0.035958
#
#
# Mechanical properties :
#
#
# Convention : Reuss Voigt Hill
#
# Bulk Modulus (GPa) = 53.23447 53.68379 53.45913
# Shear Modulus (GPa) = 25.60403 28.22291 26.91347
#
# Velocity S-wave (km/s) = 3.65288 3.83515 3.74512
# Velocity P-wave (km/s) = 6.74793 6.89844 6.82360
#
# Compressibility (1/GPa) = 0.01878482
#
# Stress axis : x y z
#
# Youngs Moduli (GPa) = 46.26008 54.53967 94.97159
#
# Poissons Ratio (x) = 0.58152 0.47397
# Poissons Ratio (y) = 0.49324 0.01857
# Poissons Ratio (z) = 0.23087 0.01067
#
# Static dielectric constant tensor:
#      x y z
#    x 3.453100 0.000000 0.000000 
#    y 0.000000 3.522080 0.000000 
#    z 0.000000 0.000000 3.669110 
# 
# 
# High freq. dielectric constant tensor:
#      x y z
#    x 1.737020 0.000000 0.000000 
#    y 0.000000 1.732360 0.000000 
#    z 0.000000 0.000000 1.762420 
# 
# From -- ./inp_files/26371.got.cif
#   From: 2010.06.25/outbox.cif.g09.slc.cpg/sg58_14_cif.got.tgz:26371.got - 2010.06.26 21:38:00.
