data_PCOD8237779
_publ_section_title
;
Structure prediction by ZEFSAII (Michael W. Deem and Ramdas Pophale) SiO2 
 PCOD8237779
Probable space group: P N N M
;
_chemical_formula_sum "Si O2"
_cell_formula_units_Z 56
_cell_length_a 14.447486
_cell_length_b 21.397729
_cell_length_c 9.110192
_cell_angle_alpha 90.000000
_cell_angle_beta 90.000000
_cell_angle_gamma 90.000000
_cell_volume 2816.355640
_symmetry_space_group_name_H-M "P N N M"
_symmetry_group_IT_number 58
_symmetry_cell_setting 'orthorhombic'
loop_
_space_group_symop_operation_xyz
x,y,z
-x,-y,z
1/2+x,1/2-y,1/2-z
1/2-x,1/2+y,1/2-z
-x,-y,-z
x,y,-z
1/2-x,1/2+y,1/2+z
1/2+x,1/2-y,1/2+z
loop_
_atom_site_type_symbol
_atom_site_label
_atom_site_fract_x
_atom_site_fract_y
_atom_site_fract_z
Si Si1 0.884886 0.752820 0.327068
Si Si2 0.901342 0.623788 0.167339
Si Si3 0.298111 0.218592 0.169820
Si Si4 0.110521 0.608625 0.167413
Si Si5 0.227446 0.489530 0.172677
Si Si6 0.411821 0.458845 0.327419
Si Si7 0.433886 0.328916 0.830797
O O1 0.871640 0.751984 0.500000
O O2 0.892260 0.682443 0.272457
O O3 0.797921 0.787390 0.255337
O O4 0.976103 0.790534 0.280387
O O5 0.826752 0.572955 0.218374
O O6 0.002206 0.592570 0.180759
O O7 0.882300 0.645462 0.000000
O O8 0.368634 0.167228 0.229869
O O9 0.342957 0.286714 0.193092
O O10 0.279925 0.205112 0.000000
O O11 0.167614 0.548931 0.222413
O O12 0.136567 0.625596 0.000000
O O13 0.324107 0.492662 0.256151
O O14 0.246288 0.490398 0.000000
O O15 0.500000 0.500000 0.283848
O O16 0.396925 0.455434 0.500000
O O17 0.424576 0.389228 0.268765
O O18 0.442178 0.349573 0.000000
#
# Coordination Sequence:
#
# PCOD8237779 Si02
#       7
#     8   8   8   8   8   8   8
#     4  11  23  39  61  91 123 158 203 249 300 363
#     4  10  20  38  63  93 126 160 200 247 303 360
#     4  11  23  40  61  90 125 160 202 253 305 359
#     4  10  21  38  62  92 124 160 202 247 300 362
#     4  10  22  40  63  90 122 163 205 247 298 363
#     4  11  26  44  62  89 122 158 205 258 308 358
#     4  10  23  43  64  87 120 161 203 246 299 363
#
# _framework density 19.883852000000001
#
# number of rings (size 3 to 8) (size 9 to 14) (size 15 to 20)
#    0.000    1.571    1.429    2.571    2.000    9.714 
#    0.000    0.000    0.000    2.571    0.000    0.000 
#    0.000    0.000    0.000    0.000    0.000    0.000 
#
# Total GULP energy -694743.234451 kJ/mol
# GULP energy per Si atom -12406.129187 kJ/mol
# Density = 1.983860 g / cm^3
# Si number density = 19.883852 Si / 1000 Ang^3
#
#
#
# Elastic Constant Matrix: (Units=GPa)
#
#
# Indices 1 2 3 4 5 6 
#
# 1 104.7411 11.6530 35.7234 0.0000 0.0000 0.0000
# 2 11.6530 66.3629 28.9864 0.0000 0.0000 0.0000
# 3 35.7234 28.9864 68.2154 0.0000 0.0000 0.0000
# 4 0.0000 0.0000 0.0000 30.5888 0.0000 0.0000
# 5 0.0000 0.0000 0.0000 0.0000 30.9017 0.0000
# 6 0.0000 0.0000 0.0000 0.0000 0.0000 31.8522
#
#
#
# Elastic Compliance Matrix: (Units=1/GPa)
#
#
# Indices 1 2 3 4 5 6 
#
# 1 0.011655 0.000761 -0.006426 0.000000 0.000000 0.000000
# 2 0.000761 0.018552 -0.008282 0.000000 0.000000 0.000000
# 3 -0.006426 -0.008282 0.021544 0.000000 0.000000 0.000000
# 4 0.000000 0.000000 0.000000 0.032692 0.000000 0.000000
# 5 0.000000 0.000000 0.000000 0.000000 0.032361 0.000000
# 6 0.000000 0.000000 0.000000 0.000000 0.000000 0.031395
#
#
# Mechanical properties :
#
#
# Convention : Reuss Voigt Hill
#
# Bulk Modulus (GPa) = 41.91865 43.56055 42.73960
# Shear Modulus (GPa) = 27.16718 29.53231 28.34975
#
# Velocity S-wave (km/s) = 3.70035 3.85806 3.78003
# Velocity P-wave (km/s) = 6.27569 6.46539 6.37125
#
# Compressibility (1/GPa) = 0.02385573
#
# Stress axis : x y z
#
# Youngs Moduli (GPa) = 85.80312 53.90133 46.41665
#
# Poissons Ratio (x) = -0.04099 0.29830
# Poissons Ratio (y) = -0.06525 0.38441
# Poissons Ratio (z) = 0.55141 0.44639
#
# Static dielectric constant tensor:
#      x y z
#    x 3.844710 0.000000 0.000000 
#    y 0.000000 3.550770 0.000000 
#    z 0.000000 0.000000 3.551410 
# 
# 
# High freq. dielectric constant tensor:
#      x y z
#    x 1.794100 0.000000 0.000000 
#    y 0.000000 1.779070 0.000000 
#    z 0.000000 0.000000 1.772090 
# 
# From -- ./inp_files/6391.got.cif
#   From: 2010.06.25/outbox.cif.g09.slc.cpg/sg58_4_cif.got.tgz:6391.got - 2010.06.26 21:38:00.
