data_PCOD8237171
_publ_section_title
;
Structure prediction by ZEFSAII (Michael W. Deem and Ramdas Pophale) SiO2 
 PCOD8237171
Probable space group: P N N M
;
_chemical_formula_sum "Si O2"
_cell_formula_units_Z 48
_cell_length_a 28.754261
_cell_length_b 7.635516
_cell_length_c 10.796025
_cell_angle_alpha 90.000000
_cell_angle_beta 90.000000
_cell_angle_gamma 90.000000
_cell_volume 2370.306370
_symmetry_space_group_name_H-M "P N N M"
_symmetry_group_IT_number 58
_symmetry_cell_setting 'orthorhombic'
loop_
_space_group_symop_operation_xyz
x,y,z
-x,-y,z
1/2+x,1/2-y,1/2-z
1/2-x,1/2+y,1/2-z
-x,-y,-z
x,y,-z
1/2-x,1/2+y,1/2+z
1/2+x,1/2-y,1/2+z
loop_
_atom_site_type_symbol
_atom_site_label
_atom_site_fract_x
_atom_site_fract_y
_atom_site_fract_z
Si Si1 0.221606 0.942008 0.637996
Si Si2 0.089390 0.783629 0.142387
Si Si3 0.145150 0.656444 0.362635
Si Si4 0.606707 0.326155 0.642495
Si Si5 0.988747 0.688491 0.143948
Si Si6 0.690905 0.180418 0.787234
O O1 0.238785 0.901138 0.500000
O O2 0.204635 0.143169 0.641698
O O3 0.180558 0.810346 0.674099
O O4 0.264447 0.909843 0.727367
O O5 0.108277 0.650859 0.248365
O O6 0.033997 0.811248 0.162090
O O7 0.114226 0.968166 0.164956
O O8 0.098814 0.715290 0.000000
O O9 0.123141 0.694918 0.500000
O O10 0.170300 0.468663 0.376752
O O11 0.602505 0.283027 0.500000
O O12 0.557926 0.266818 0.707538
O O13 0.651365 0.223495 0.688404
O O14 0.000000 0.500000 0.204387
O O15 0.977937 0.663734 0.000000
#
# Coordination Sequence:
#
# PCOD8237171 Si02
#       6
#     8   8   8   8   8   8
#     4  11  24  41  60  85 121 160 201 254 307 363
#     4  10  20  37  62  92 126 164 205 251 304 365
#     4  11  24  42  63  89 125 164 204 251 307 363
#     4  10  20  34  59  94 126 158 204 258 309 363
#     4   9  17  31  54  88 126 161 199 251 307 357
#     4  12  22  42  62  89 116 162 207 254 305 374
#
# _framework density 20.250546
#
# number of rings (size 3 to 8) (size 9 to 14) (size 15 to 20)
#    0.000    1.500    3.333    2.500    0.000    4.667 
#    0.000    0.000    0.000    7.500    0.000    0.000 
#    0.000    0.000    0.000    0.000    0.000    0.000 
#
# Total GULP energy -594834.386493 kJ/mol
# GULP energy per Si atom -12392.383052 kJ/mol
# Density = 2.020446 g / cm^3
# Si number density = 20.250546 Si / 1000 Ang^3
#
#
#
# Elastic Constant Matrix: (Units=GPa)
#
#
# Indices 1 2 3 4 5 6 
#
# 1 75.6300 29.8534 28.6938 0.0000 0.0000 0.0000
# 2 29.8534 86.1323 25.4574 0.0000 0.0000 0.0000
# 3 28.6938 25.4574 64.7668 0.0000 0.0000 0.0000
# 4 0.0000 0.0000 0.0000 18.8490 0.0000 0.0000
# 5 0.0000 0.0000 0.0000 0.0000 14.9775 0.0000
# 6 0.0000 0.0000 0.0000 0.0000 0.0000 32.2384
#
#
#
# Elastic Compliance Matrix: (Units=1/GPa)
#
#
# Indices 1 2 3 4 5 6 
#
# 1 0.017128 -0.004179 -0.005945 0.000000 0.000000 0.000000
# 2 -0.004179 0.014156 -0.003713 0.000000 0.000000 0.000000
# 3 -0.005945 -0.003713 0.019533 0.000000 0.000000 0.000000
# 4 0.000000 0.000000 0.000000 0.053053 0.000000 0.000000
# 5 0.000000 0.000000 0.000000 0.000000 0.066767 0.000000
# 6 0.000000 0.000000 0.000000 0.000000 0.000000 0.031019
#
#
# Mechanical properties :
#
#
# Convention : Reuss Voigt Hill
#
# Bulk Modulus (GPa) = 43.21083 43.83759 43.52421
# Shear Modulus (GPa) = 21.09310 22.71460 21.90385
#
# Velocity S-wave (km/s) = 3.23089 3.35278 3.29240
# Velocity P-wave (km/s) = 5.94160 6.05663 5.99939
#
# Compressibility (1/GPa) = 0.02314235
#
# Stress axis : x y z
#
# Youngs Moduli (GPa) = 58.38537 70.64217 51.19457
#
# Poissons Ratio (x) = 0.29523 0.30437
# Poissons Ratio (y) = 0.24400 0.19007
# Poissons Ratio (z) = 0.34712 0.26227
#
# Static dielectric constant tensor:
#      x y z
#    x 3.746930 0.000000 0.000000 
#    y 0.000000 3.789030 0.000000 
#    z 0.000000 0.000000 3.321110 
# 
# 
# High freq. dielectric constant tensor:
#      x y z
#    x 1.793340 0.000000 0.000000 
#    y 0.000000 1.805700 0.000000 
#    z 0.000000 0.000000 1.754520 
# 
# From -- ./inp_files/17683.got.cif
#   From: 2010.06.25/outbox.cif.g09.slc.cpg/sg58_9_cif.got.tgz:17683.got - 2010.06.26 21:38:00.
