data_PCOD8237263
_publ_section_title
;
Structure prediction by ZEFSAII (Michael W. Deem and Ramdas Pophale) SiO2 
 PCOD8237263
Probable space group: P N N M
;
_chemical_formula_sum "Si O2"
_cell_formula_units_Z 64
_cell_length_a 13.800206
_cell_length_b 24.367370
_cell_length_c 9.092221
_cell_angle_alpha 90.000000
_cell_angle_beta 90.000000
_cell_angle_gamma 90.000000
_cell_volume 3057.484123
_symmetry_space_group_name_H-M "P N N M"
_symmetry_group_IT_number 58
_symmetry_cell_setting 'orthorhombic'
loop_
_space_group_symop_operation_xyz
x,y,z
-x,-y,z
1/2+x,1/2-y,1/2-z
1/2-x,1/2+y,1/2-z
-x,-y,-z
x,y,-z
1/2-x,1/2+y,1/2+z
1/2+x,1/2-y,1/2+z
loop_
_atom_site_type_symbol
_atom_site_label
_atom_site_fract_x
_atom_site_fract_y
_atom_site_fract_z
Si Si1 0.719352 0.954516 0.667166
Si Si2 0.050842 0.053146 0.333571
Si Si3 0.597987 0.161817 0.828027
Si Si4 0.592264 0.036752 0.825736
Si Si5 0.778224 0.234951 0.175059
Si Si6 0.221045 0.649504 0.661831
Si Si7 0.031451 0.759638 0.671481
Si Si8 0.440136 0.653592 0.659845
O O1 0.681402 0.954293 0.500000
O O2 0.834357 0.953416 0.672826
O O3 0.673328 0.900950 0.748607
O O4 0.685002 0.009629 0.748877
O O5 0.016430 0.063582 0.500000
O O6 0.007184 0.102549 0.237094
O O7 0.000000 0.000000 0.266658
O O8 0.585535 0.099938 0.766270
O O9 0.692616 0.194815 0.765069
O O10 0.498422 0.196045 0.795120
O O11 0.615841 0.158701 0.000000
O O12 0.500000 0.000000 0.778887
O O13 0.606602 0.035955 0.000000
O O14 0.781517 0.294269 0.250278
O O15 0.882474 0.213281 0.230927
O O16 0.773022 0.241601 0.000000
O O17 0.169730 0.656001 0.500000
O O18 0.331398 0.634126 0.634971
O O19 0.051273 0.769043 0.500000
O O20 0.939639 0.794880 0.727601
O O21 0.487005 0.667259 0.500000
#
# Coordination Sequence:
#
# PCOD8237263 Si02
#       8
#     8   8   8   8   8   8   8   8
#     4  10  21  37  58  86 118 153 196 251 308 358
#     4   9  19  36  58  84 117 158 200 241 296 367
#     4   9  21  41  62  87 124 164 201 251 312 368
#     4  10  22  41  64  87 116 162 213 257 304 363
#     4  11  22  38  60  89 122 157 199 250 310 367
#     4  10  20  36  59  85 114 150 197 247 301 366
#     4  11  22  38  60  87 121 162 205 247 307 375
#     4  10  20  35  56  84 117 151 196 248 300 356
#
# _framework density 20.932241999999999
#
# number of rings (size 3 to 8) (size 9 to 14) (size 15 to 20)
#    0.000    2.000    1.250    1.875    1.750    3.000 
#    0.000    5.000    0.000    0.000    0.000    0.000 
#    0.000    0.000    0.000    0.000    0.000    0.000 
#
# Total GULP energy -793056.205573 kJ/mol
# GULP energy per Si atom -12391.503212 kJ/mol
# Density = 2.088460 g / cm^3
# Si number density = 20.932242 Si / 1000 Ang^3
#
#
#
# Elastic Constant Matrix: (Units=GPa)
#
#
# Indices 1 2 3 4 5 6 
#
# 1 37.5458 17.6215 16.3161 0.0000 0.0000 0.0000
# 2 17.6215 146.6951 49.5686 0.0000 0.0000 0.0000
# 3 16.3161 49.5686 99.2165 0.0000 0.0000 0.0000
# 4 0.0000 0.0000 0.0000 32.9380 0.0000 0.0000
# 5 0.0000 0.0000 0.0000 0.0000 23.5496 0.0000
# 6 0.0000 0.0000 0.0000 0.0000 0.0000 33.2037
#
#
#
# Elastic Compliance Matrix: (Units=1/GPa)
#
#
# Indices 1 2 3 4 5 6 
#
# 1 0.029302 -0.002276 -0.003682 0.000000 0.000000 0.000000
# 2 -0.002276 0.008378 -0.003811 0.000000 0.000000 0.000000
# 3 -0.003682 -0.003811 0.012589 0.000000 0.000000 0.000000
# 4 0.000000 0.000000 0.000000 0.030360 0.000000 0.000000
# 5 0.000000 0.000000 0.000000 0.000000 0.042464 0.000000
# 6 0.000000 0.000000 0.000000 0.000000 0.000000 0.030117
#
#
# Mechanical properties :
#
#
# Convention : Reuss Voigt Hill
#
# Bulk Modulus (GPa) = 32.54046 50.05219 41.29633
# Shear Modulus (GPa) = 27.32367 31.26834 29.29600
#
# Velocity S-wave (km/s) = 3.61687 3.86915 3.74513
# Velocity P-wave (km/s) = 5.74645 6.62751 6.20264
#
# Compressibility (1/GPa) = 0.03073097
#
# Stress axis : x y z
#
# Youngs Moduli (GPa) = 34.12711 119.35825 79.43666
#
# Poissons Ratio (x) = 0.27164 0.29247
# Poissons Ratio (y) = 0.07767 0.30277
# Poissons Ratio (z) = 0.12565 0.45493
#
# Static dielectric constant tensor:
#      x y z
#    x 4.076320 0.000000 0.000000 
#    y 0.000000 3.991210 0.000000 
#    z 0.000000 0.000000 3.949150 
# 
# 
# High freq. dielectric constant tensor:
#      x y z
#    x 1.809640 0.000000 0.000000 
#    y 0.000000 1.826440 0.000000 
#    z 0.000000 0.000000 1.811890 
# 
# From -- ./inp_files/6884.got.cif
#   From: 2010.06.25/outbox.cif.g09.slc.cpg/sg58_4_cif.got.tgz:6884.got - 2010.06.26 21:38:00.
