data_PCOD8237385
_publ_section_title
;
Structure prediction by ZEFSAII (Michael W. Deem and Ramdas Pophale) SiO2 
 PCOD8237385
Probable space group: P N N M
;
_chemical_formula_sum "Si O2"
_cell_formula_units_Z 48
_cell_length_a 9.450076
_cell_length_b 28.279272
_cell_length_c 9.505829
_cell_angle_alpha 90.000000
_cell_angle_beta 90.000000
_cell_angle_gamma 90.000000
_cell_volume 2540.349811
_symmetry_space_group_name_H-M "P N N M"
_symmetry_group_IT_number 58
_symmetry_cell_setting 'orthorhombic'
loop_
_space_group_symop_operation_xyz
x,y,z
-x,-y,z
1/2+x,1/2-y,1/2-z
1/2-x,1/2+y,1/2-z
-x,-y,-z
x,y,-z
1/2-x,1/2+y,1/2+z
1/2+x,1/2-y,1/2+z
loop_
_atom_site_type_symbol
_atom_site_label
_atom_site_fract_x
_atom_site_fract_y
_atom_site_fract_z
Si Si1 0.508529 0.629555 0.338038
Si Si2 0.394163 0.457066 0.844315
Si Si3 0.308376 0.281706 0.666277
Si Si4 0.647781 0.979015 0.665733
Si Si5 0.308745 0.114807 0.159982
Si Si6 0.019248 0.705970 0.663288
O O1 0.542987 0.620298 0.500000
O O2 0.550097 0.582560 0.257906
O O3 0.602867 0.672856 0.282290
O O4 0.342562 0.640420 0.313153
O O5 0.500000 0.500000 0.854399
O O6 0.251571 0.479598 0.782604
O O7 0.371119 0.435045 0.000000
O O8 0.323929 0.273849 0.500000
O O9 0.375482 0.237322 0.744620
O O10 0.144051 0.287906 0.709842
O O11 0.663163 0.969852 0.500000
O O12 0.676387 0.929388 0.738588
O O13 0.500000 0.000000 0.711810
O O14 0.434599 0.151810 0.190013
O O15 0.316472 0.096402 0.000000
O O16 0.039092 0.719614 0.500000
#
# Coordination Sequence:
#
# PCOD8237385 Si02
#       6
#     8   8   8   8   8   8
#     4  10  21  36  57  84 114 147 186 230 278 333
#     4  10  20  36  56  80 111 148 189 230 271 325
#     4  10  22  40  61  87 116 148 187 234 284 339
#     4  10  22  38  55  79 113 149 188 232 278 329
#     4  10  21  37  57  83 114 148 186 230 279 333
#     4  10  22  40  61  86 116 148 188 234 283 340
#
# _framework density 18.895036000000001
#
# number of rings (size 3 to 8) (size 9 to 14) (size 15 to 20)
#    0.000    2.000    1.667    1.000    2.333    4.667 
#    0.000    0.000    0.000    0.000    0.000    0.000 
#    0.000    0.000    0.000    0.000    0.000    0.000 
#
# Total GULP energy -595197.369956 kJ/mol
# GULP energy per Si atom -12399.945207 kJ/mol
# Density = 1.885203 g / cm^3
# Si number density = 18.895036 Si / 1000 Ang^3
#
#
#
# Elastic Constant Matrix: (Units=GPa)
#
#
# Indices 1 2 3 4 5 6 
#
# 1 120.7979 21.4026 24.7367 0.0000 0.0000 0.0000
# 2 21.4026 62.0189 30.0771 0.0000 0.0000 0.0000
# 3 24.7367 30.0771 43.7608 0.0000 0.0000 0.0000
# 4 0.0000 0.0000 0.0000 16.7583 0.0000 0.0000
# 5 0.0000 0.0000 0.0000 0.0000 26.8285 0.0000
# 6 0.0000 0.0000 0.0000 0.0000 0.0000 37.2713
#
#
#
# Elastic Compliance Matrix: (Units=1/GPa)
#
#
# Indices 1 2 3 4 5 6 
#
# 1 0.009403 -0.001001 -0.004627 0.000000 0.000000 0.000000
# 2 -0.001001 0.024292 -0.016131 0.000000 0.000000 0.000000
# 3 -0.004627 -0.016131 0.036554 0.000000 0.000000 0.000000
# 4 0.000000 0.000000 0.000000 0.059672 0.000000 0.000000
# 5 0.000000 0.000000 0.000000 0.000000 0.037274 0.000000
# 6 0.000000 0.000000 0.000000 0.000000 0.000000 0.026830
#
#
# Mechanical properties :
#
#
# Convention : Reuss Voigt Hill
#
# Bulk Modulus (GPa) = 37.40876 42.11228 39.76052
# Shear Modulus (GPa) = 20.28777 26.19567 23.24172
#
# Velocity S-wave (km/s) = 3.28030 3.72745 3.51100
# Velocity P-wave (km/s) = 5.84708 6.39226 6.12574
#
# Compressibility (1/GPa) = 0.02673171
#
# Stress axis : x y z
#
# Youngs Moduli (GPa) = 106.34656 41.16530 27.35689
#
# Poissons Ratio (x) = 0.04120 0.12659
# Poissons Ratio (y) = 0.10644 0.44128
# Poissons Ratio (z) = 0.49211 0.66402
#
# Static dielectric constant tensor:
#      x y z
#    x 3.842080 0.000000 0.000000 
#    y 0.000000 3.284610 0.000000 
#    z 0.000000 0.000000 3.413460 
# 
# 
# High freq. dielectric constant tensor:
#      x y z
#    x 1.754480 0.000000 0.000000 
#    y 0.000000 1.731450 0.000000 
#    z 0.000000 0.000000 1.727080 
# 
# From -- ./inp_files/2930.got.cif
#   From: 2010.06.25/outbox.cif.g09.slc.cpg/sg58_2_cif.got.tgz:2930.got - 2010.06.26 21:38:00.
