data_PCOD8237748
_publ_section_title
;
Structure prediction by ZEFSAII (Michael W. Deem and Ramdas Pophale) SiO2 
 PCOD8237748
Probable space group: P N N M
;
_chemical_formula_sum "Si O2"
_cell_formula_units_Z 64
_cell_length_a 24.404986
_cell_length_b 14.779356
_cell_length_c 9.134619
_cell_angle_alpha 90.000000
_cell_angle_beta 90.000000
_cell_angle_gamma 90.000000
_cell_volume 3294.765510
_symmetry_space_group_name_H-M "P N N M"
_symmetry_group_IT_number 58
_symmetry_cell_setting 'orthorhombic'
loop_
_space_group_symop_operation_xyz
x,y,z
-x,-y,z
1/2+x,1/2-y,1/2-z
1/2-x,1/2+y,1/2-z
-x,-y,-z
x,y,-z
1/2-x,1/2+y,1/2+z
1/2+x,1/2-y,1/2+z
loop_
_atom_site_type_symbol
_atom_site_label
_atom_site_fract_x
_atom_site_fract_y
_atom_site_fract_z
Si Si1 0.238453 0.373824 0.828386
Si Si2 0.365156 0.949971 0.834022
Si Si3 0.447140 0.447373 0.674321
Si Si4 0.015963 0.402200 0.666142
Si Si5 0.050865 0.745777 0.167409
Si Si6 0.646812 0.880465 0.332710
Si Si7 0.173269 0.995550 0.170202
Si Si8 0.254130 0.664385 0.331925
O O1 0.182913 0.415721 0.768558
O O2 0.290873 0.420488 0.754164
O O3 0.233095 0.267669 0.792072
O O4 0.242661 0.391989 0.000000
O O5 0.418484 0.886741 0.827546
O O6 0.383727 0.047224 0.770720
O O7 0.343281 0.959369 0.000000
O O8 0.500000 0.500000 0.738204
O O9 0.448761 0.447267 0.500000
O O10 0.451205 0.345525 0.736393
O O11 0.389677 0.491678 0.726909
O O12 0.994053 0.399074 0.500000
O O13 0.000000 0.500000 0.734607
O O14 0.990989 0.319624 0.753141
O O15 0.113527 0.712696 0.182638
O O16 0.031889 0.747654 0.000000
O O17 0.647834 0.914383 0.500000
O O18 0.708209 0.869384 0.278122
O O19 0.193959 0.098519 0.195789
O O20 0.176520 0.969021 0.000000
O O21 0.234095 0.656280 0.500000
#
# Coordination Sequence:
#
# PCOD8237748 Si02
#       8
#     8   8   8   8   8   8   8   8
#     4  11  23  38  57  88 122 152 193 243 292 345
#     4  11  22  37  57  81 114 155 193 234 290 350
#     4   9  19  37  61  87 114 150 198 244 287 340
#     4  10  21  37  56  80 113 154 194 230 283 352
#     4  10  21  35  57  88 116 148 194 246 296 340
#     4  11  21  34  56  86 118 150 191 242 292 345
#     4  10  20  38  62  85 115 156 198 240 290 349
#     4  10  22  37  57  85 117 156 197 237 288 349
#
# _framework density 19.424751000000001
#
# number of rings (size 3 to 8) (size 9 to 14) (size 15 to 20)
#    0.000    1.750    2.500    1.875    0.000    4.750 
#    0.000    3.125    0.000    1.500    0.000    0.000 
#    0.000    0.000    0.000    0.000    0.000    0.000 
#
# Total GULP energy -793562.775827 kJ/mol
# GULP energy per Si atom -12399.418372 kJ/mol
# Density = 1.938054 g / cm^3
# Si number density = 19.424751 Si / 1000 Ang^3
#
#
#
# Elastic Constant Matrix: (Units=GPa)
#
#
# Indices 1 2 3 4 5 6 
#
# 1 133.6231 64.2990 39.6835 0.0000 0.0000 0.0000
# 2 64.2990 139.1258 40.6295 0.0000 0.0000 0.0000
# 3 39.6835 40.6295 65.0162 0.0000 0.0000 0.0000
# 4 0.0000 0.0000 0.0000 23.0835 0.0000 0.0000
# 5 0.0000 0.0000 0.0000 0.0000 21.0061 0.0000
# 6 0.0000 0.0000 0.0000 0.0000 0.0000 29.6532
#
#
#
# Elastic Compliance Matrix: (Units=1/GPa)
#
#
# Indices 1 2 3 4 5 6 
#
# 1 0.010451 -0.003630 -0.004111 0.000000 0.000000 0.000000
# 2 -0.003630 0.010053 -0.004067 0.000000 0.000000 0.000000
# 3 -0.004111 -0.004067 0.020431 0.000000 0.000000 0.000000
# 4 0.000000 0.000000 0.000000 0.043321 0.000000 0.000000
# 5 0.000000 0.000000 0.000000 0.000000 0.047605 0.000000
# 6 0.000000 0.000000 0.000000 0.000000 0.000000 0.033723
#
#
# Mechanical properties :
#
#
# Convention : Reuss Voigt Hill
#
# Bulk Modulus (GPa) = 57.73389 69.66545 63.69967
# Shear Modulus (GPa) = 25.64463 27.62544 26.63504
#
# Velocity S-wave (km/s) = 3.63740 3.77527 3.70698
# Velocity P-wave (km/s) = 6.88675 7.41253 7.15447
#
# Compressibility (1/GPa) = 0.01732085
#
# Stress axis : x y z
#
# Youngs Moduli (GPa) = 95.68345 99.47402 48.94467
#
# Poissons Ratio (x) = 0.36106 0.20120
# Poissons Ratio (y) = 0.34730 0.19905
# Poissons Ratio (z) = 0.39333 0.40454
#
# Static dielectric constant tensor:
#      x y z
#    x 3.608310 0.000000 0.000000 
#    y 0.000000 3.795150 0.000000 
#    z 0.000000 0.000000 3.428350 
# 
# 
# High freq. dielectric constant tensor:
#      x y z
#    x 1.761100 0.000000 0.000000 
#    y 0.000000 1.758480 0.000000 
#    z 0.000000 0.000000 1.741710 
# 
# From -- ./inp_files/6797.got.cif
#   From: 2010.06.25/outbox.cif.g09.slc.cpg/sg58_4_cif.got.tgz:6797.got - 2010.06.26 21:38:00.
