data_PCOD8237195
_publ_section_title
;
Structure prediction by ZEFSAII (Michael W. Deem and Ramdas Pophale) SiO2 
 PCOD8237195
Probable space group: P N N M
;
_chemical_formula_sum "Si O2"
_cell_formula_units_Z 48
_cell_length_a 25.126357
_cell_length_b 11.798976
_cell_length_c 8.755781
_cell_angle_alpha 90.000000
_cell_angle_beta 90.000000
_cell_angle_gamma 90.000000
_cell_volume 2595.785094
_symmetry_space_group_name_H-M "P N N M"
_symmetry_group_IT_number 58
_symmetry_cell_setting 'orthorhombic'
loop_
_space_group_symop_operation_xyz
x,y,z
-x,-y,z
1/2+x,1/2-y,1/2-z
1/2-x,1/2+y,1/2-z
-x,-y,-z
x,y,-z
1/2-x,1/2+y,1/2+z
1/2+x,1/2-y,1/2+z
loop_
_atom_site_type_symbol
_atom_site_label
_atom_site_fract_x
_atom_site_fract_y
_atom_site_fract_z
Si Si1 0.817769 0.995975 0.827615
Si Si2 0.948313 0.646213 0.819358
Si Si3 0.661373 0.741666 0.673446
Si Si4 0.566231 0.891077 0.680432
Si Si5 0.644554 0.271870 0.821064
Si Si6 0.242116 0.346558 0.179387
O O1 0.844809 0.900982 0.725038
O O2 0.855623 0.108143 0.826184
O O3 0.760521 0.034659 0.757346
O O4 0.809412 0.949998 0.000000
O O5 0.926154 0.521941 0.774230
O O6 0.915104 0.740518 0.729227
O O7 0.009327 0.655816 0.761953
O O8 0.943494 0.666739 0.000000
O O9 0.673341 0.781737 0.500000
O O10 0.614511 0.816459 0.749645
O O11 0.716055 0.753396 0.771593
O O12 0.566462 0.878229 0.500000
O O13 0.683824 0.185657 0.735800
O O14 0.652019 0.257970 0.000000
O O15 0.241350 0.363059 0.000000
#
# Coordination Sequence:
#
# PCOD8237195 Si02
#       6
#     8   8   8   8   8   8
#     4   9  19  36  56  78 106 136 177 226 272 325
#     4   9  18  33  56  83 109 142 184 228 274 323
#     4   8  16  33  56  80 107 138 177 222 271 325
#     4   8  15  33  59  83 108 140 182 227 271 328
#     4  12  23  36  53  77 114 150 184 224 271 323
#     4  10  20  35  54  78 106 141 180 220 273 328
#
# _framework density 18.491515
#
# number of rings (size 3 to 8) (size 9 to 14) (size 15 to 20)
#    1.000    1.667    0.000    4.000    0.000    1.333 
#    0.000    9.167    0.000    5.000    0.000    0.000 
#    0.000    0.000    0.000    0.000    0.000    0.000 
#
# Total GULP energy -594821.487049 kJ/mol
# GULP energy per Si atom -12392.114314 kJ/mol
# Density = 1.844943 g / cm^3
# Si number density = 18.491515 Si / 1000 Ang^3
#
#
#
# Elastic Constant Matrix: (Units=GPa)
#
#
# Indices 1 2 3 4 5 6 
#
# 1 51.7501 -3.8945 16.6207 0.0000 0.0000 0.0000
# 2 -3.8945 26.9556 8.0469 0.0000 0.0000 0.0000
# 3 16.6207 8.0469 82.3698 0.0000 0.0000 0.0000
# 4 0.0000 0.0000 0.0000 21.5835 0.0000 0.0000
# 5 0.0000 0.0000 0.0000 0.0000 24.3332 0.0000
# 6 0.0000 0.0000 0.0000 0.0000 0.0000 35.3032
#
#
#
# Elastic Compliance Matrix: (Units=1/GPa)
#
#
# Indices 1 2 3 4 5 6 
#
# 1 0.021172 0.004464 -0.004708 0.000000 0.000000 0.000000
# 2 0.004464 0.039154 -0.004726 0.000000 0.000000 0.000000
# 3 -0.004708 -0.004726 0.013552 0.000000 0.000000 0.000000
# 4 0.000000 0.000000 0.000000 0.046332 0.000000 0.000000
# 5 0.000000 0.000000 0.000000 0.000000 0.041096 0.000000
# 6 0.000000 0.000000 0.000000 0.000000 0.000000 0.028326
#
#
# Mechanical properties :
#
#
# Convention : Reuss Voigt Hill
#
# Bulk Modulus (GPa) = 15.64010 22.51353 19.07681
# Shear Modulus (GPa) = 22.63636 25.59747 24.11691
#
# Velocity S-wave (km/s) = 3.50258 3.72463 3.61531
# Velocity P-wave (km/s) = 4.98335 5.54064 5.26936
#
# Compressibility (1/GPa) = 0.06393822
#
# Stress axis : x y z
#
# Youngs Moduli (GPa) = 47.23273 25.54034 73.78939
#
# Poissons Ratio (x) = -0.11402 0.34742
# Poissons Ratio (y) = -0.21086 0.34872
# Poissons Ratio (z) = 0.22238 0.12070
#
# Static dielectric constant tensor:
#      x y z
#    x 3.510380 0.000000 0.000000 
#    y 0.000000 3.302580 0.000000 
#    z 0.000000 0.000000 3.163960 
# 
# 
# High freq. dielectric constant tensor:
#      x y z
#    x 1.706280 0.000000 0.000000 
#    y 0.000000 1.705480 0.000000 
#    z 0.000000 0.000000 1.702600 
# 
# From -- ./inp_files/10328.got.cif
#   From: 2010.06.25/outbox.cif.g09.slc.cpg/sg58_6_cif.got.tgz:10328.got - 2010.06.26 21:38:00.
