data_PCOD8237966
_publ_section_title
;
Structure prediction by ZEFSAII (Michael W. Deem and Ramdas Pophale) SiO2 
 PCOD8237966
Probable space group: P N N M
;
_chemical_formula_sum "Si O2"
_cell_formula_units_Z 64
_cell_length_a 14.171051
_cell_length_b 25.027856
_cell_length_c 9.220807
_cell_angle_alpha 90.000000
_cell_angle_beta 90.000000
_cell_angle_gamma 90.000000
_cell_volume 3270.353059
_symmetry_space_group_name_H-M "P N N M"
_symmetry_group_IT_number 58
_symmetry_cell_setting 'orthorhombic'
loop_
_space_group_symop_operation_xyz
x,y,z
-x,-y,z
1/2+x,1/2-y,1/2-z
1/2-x,1/2+y,1/2-z
-x,-y,-z
x,y,-z
1/2-x,1/2+y,1/2+z
1/2+x,1/2-y,1/2+z
loop_
_atom_site_type_symbol
_atom_site_label
_atom_site_fract_x
_atom_site_fract_y
_atom_site_fract_z
Si Si1 0.960090 0.842145 0.669576
Si Si2 0.222579 0.330972 0.840297
Si Si3 0.899180 0.562815 0.160763
Si Si4 0.254188 0.491818 0.668206
Si Si5 0.373419 0.386436 0.668149
Si Si6 0.567408 0.869746 0.327985
Si Si7 0.772210 0.902852 0.669129
Si Si8 0.044205 0.267361 0.171147
O O1 0.982005 0.839358 0.500000
O O2 0.852921 0.859599 0.700078
O O3 0.980822 0.785354 0.741128
O O4 0.029219 0.885504 0.743143
O O5 0.160702 0.383747 0.849563
O O6 0.305940 0.338337 0.724108
O O7 0.152868 0.283059 0.793700
O O8 0.266296 0.319701 0.000000
O O9 0.849311 0.520670 0.266729
O O10 0.002288 0.579865 0.222639
O O11 0.906912 0.536744 0.000000
O O12 0.241212 0.503587 0.500000
O O13 0.326174 0.443569 0.697017
O O14 0.297789 0.543423 0.745204
O O15 0.393515 0.376415 0.500000
O O16 0.561562 0.867481 0.500000
O O17 0.673809 0.878256 0.272222
O O18 0.526696 0.813394 0.269939
O O19 0.765372 0.917216 0.500000
O O20 0.030824 0.257339 0.000000
#
# Coordination Sequence:
#
# PCOD8237966 Si02
#       8
#     8   8   8   8   8   8   8   8
#     4  11  24  38  53  78 109 142 187 234 271 318
#     4   8  15  30  54  83 110 135 170 216 261 312
#     4   8  14  29  55  82 108 140 176 211 251 310
#     4  10  21  36  55  81 110 139 176 224 277 326
#     4  10  21  37  57  78 103 140 183 227 275 325
#     4   8  16  34  59  84 109 143 184 216 254 321
#     4  10  22  39  56  76 107 145 182 220 264 320
#     4   9  18  35  59  84 112 144 175 215 269 323
#
# _framework density 19.569752999999999
#
# number of rings (size 3 to 8) (size 9 to 14) (size 15 to 20)
#    0.000    2.750    0.000    2.625    0.000    5.000 
#    0.000    9.375    0.000    0.000    0.000    0.000 
#    0.000    0.000    0.000    0.000    0.000    0.000 
#
# Total GULP energy -793483.011262 kJ/mol
# GULP energy per Si atom -12398.172051 kJ/mol
# Density = 1.952521 g / cm^3
# Si number density = 19.569753 Si / 1000 Ang^3
#
#
#
# Elastic Constant Matrix: (Units=GPa)
#
#
# Indices 1 2 3 4 5 6 
#
# 1 105.2989 27.4955 45.9603 0.0000 0.0000 0.0000
# 2 27.4955 75.6952 43.2326 0.0000 0.0000 0.0000
# 3 45.9603 43.2326 88.8364 0.0000 0.0000 0.0000
# 4 0.0000 0.0000 0.0000 29.2832 0.0000 0.0000
# 5 0.0000 0.0000 0.0000 0.0000 18.3864 0.0000
# 6 0.0000 0.0000 0.0000 0.0000 0.0000 22.7148
#
#
#
# Elastic Compliance Matrix: (Units=1/GPa)
#
#
# Indices 1 2 3 4 5 6 
#
# 1 0.012340 -0.001158 -0.005821 0.000000 0.000000 0.000000
# 2 -0.001158 0.018405 -0.008358 0.000000 0.000000 0.000000
# 3 -0.005821 -0.008358 0.018335 0.000000 0.000000 0.000000
# 4 0.000000 0.000000 0.000000 0.034149 0.000000 0.000000
# 5 0.000000 0.000000 0.000000 0.000000 0.054388 0.000000
# 6 0.000000 0.000000 0.000000 0.000000 0.000000 0.044024
#
#
# Mechanical properties :
#
#
# Convention : Reuss Voigt Hill
#
# Bulk Modulus (GPa) = 54.32583 55.91191 55.11887
# Shear Modulus (GPa) = 22.88858 24.28636 23.58747
#
# Velocity S-wave (km/s) = 3.42364 3.52663 3.47551
# Velocity P-wave (km/s) = 6.59157 6.72424 6.65823
#
# Compressibility (1/GPa) = 0.01840745
#
# Stress axis : x y z
#
# Youngs Moduli (GPa) = 81.03971 54.33316 54.53955
#
# Poissons Ratio (x) = 0.06291 0.31745
# Poissons Ratio (y) = 0.09384 0.45583
# Poissons Ratio (z) = 0.47169 0.45411
#
# Static dielectric constant tensor:
#      x y z
#    x 3.796880 0.000000 0.000000 
#    y 0.000000 3.414730 0.000000 
#    z 0.000000 0.000000 3.439320 
# 
# 
# High freq. dielectric constant tensor:
#      x y z
#    x 1.764810 0.000000 0.000000 
#    y 0.000000 1.751860 0.000000 
#    z 0.000000 0.000000 1.744140 
# 
# From -- ./inp_files/6898.got.cif
#   From: 2010.06.25/outbox.cif.g09.slc.cpg/sg58_4_cif.got.tgz:6898.got - 2010.06.26 21:38:00.
