data_PCOD8237678
_publ_section_title
;
Structure prediction by ZEFSAII (Michael W. Deem and Ramdas Pophale) SiO2 
 PCOD8237678
Probable space group: P N N M
;
_chemical_formula_sum "Si O2"
_cell_formula_units_Z 64
_cell_length_a 15.357856
_cell_length_b 23.751193
_cell_length_c 8.506578
_cell_angle_alpha 90.000000
_cell_angle_beta 90.000000
_cell_angle_gamma 90.000000
_cell_volume 3102.922356
_symmetry_space_group_name_H-M "P N N M"
_symmetry_group_IT_number 58
_symmetry_cell_setting 'orthorhombic'
loop_
_space_group_symop_operation_xyz
x,y,z
-x,-y,z
1/2+x,1/2-y,1/2-z
1/2-x,1/2+y,1/2-z
-x,-y,-z
x,y,-z
1/2-x,1/2+y,1/2+z
1/2+x,1/2-y,1/2+z
loop_
_atom_site_type_symbol
_atom_site_label
_atom_site_fract_x
_atom_site_fract_y
_atom_site_fract_z
Si Si1 0.254402 0.070378 0.183223
Si Si2 0.151927 0.756881 0.319620
Si Si3 0.163015 0.251303 0.319655
Si Si4 0.406792 0.630666 0.180126
Si Si5 0.253040 0.942158 0.186331
Si Si6 0.090910 0.870844 0.816611
Si Si7 0.906094 0.356337 0.181781
Si Si8 0.085003 0.370375 0.315403
O O1 0.160240 0.097334 0.210705
O O2 0.326624 0.102407 0.282837
O O3 0.252863 0.006261 0.243673
O O4 0.278264 0.074042 0.000000
O O5 0.135967 0.773639 0.500000
O O6 0.253395 0.745275 0.290382
O O7 0.117319 0.806370 0.209672
O O8 0.099256 0.700218 0.283959
O O9 0.195228 0.255136 0.500000
O O10 0.101592 0.197611 0.291694
O O11 0.108833 0.306229 0.273053
O O12 0.503754 0.612265 0.224995
O O13 0.387716 0.614970 0.000000
O O14 0.167356 0.910681 0.251339
O O15 0.339242 0.911001 0.250396
O O16 0.251814 0.937327 0.000000
O O17 0.074815 0.880876 0.000000
O O18 0.996435 0.386944 0.225981
O O19 0.902688 0.340097 0.000000
O O20 0.070779 0.379113 0.500000
#
# Coordination Sequence:
#
# PCOD8237678 Si02
#       8
#     8   8   8   8   8   8   8   8
#     4  11  23  42  65  90 119 162 215 259 303 361
#     4  12  23  37  62  94 126 161 202 248 307 373
#     4  10  20  37  63  89 124 160 198 249 307 365
#     4  11  23  39  61  94 129 163 202 253 310 364
#     4   9  21  41  66  91 120 161 210 258 304 360
#     4  11  22  41  66  93 125 163 205 252 307 367
#     4  12  25  41  61  91 127 163 204 254 312 370
#     4  10  20  40  66  92 122 161 204 251 306 368
#
# _framework density 20.625717999999999
#
# number of rings (size 3 to 8) (size 9 to 14) (size 15 to 20)
#    0.000    1.250    2.500    4.125    0.000    3.000 
#    0.000    8.750    0.000    0.000    0.000    0.000 
#    0.000    0.000    0.000    0.000    0.000    0.000 
#
# Total GULP energy -794031.680150 kJ/mol
# GULP energy per Si atom -12406.745002 kJ/mol
# Density = 2.057877 g / cm^3
# Si number density = 20.625718 Si / 1000 Ang^3
#
#
#
# Elastic Constant Matrix: (Units=GPa)
#
#
# Indices 1 2 3 4 5 6 
#
# 1 122.2188 32.2958 13.0544 0.0000 0.0000 0.0000
# 2 32.2958 116.0158 9.9749 0.0000 0.0000 0.0000
# 3 13.0544 9.9749 58.1832 0.0000 0.0000 0.0000
# 4 0.0000 0.0000 0.0000 24.4949 0.0000 0.0000
# 5 0.0000 0.0000 0.0000 0.0000 30.6561 0.0000
# 6 0.0000 0.0000 0.0000 0.0000 0.0000 7.4090
#
#
#
# Elastic Compliance Matrix: (Units=1/GPa)
#
#
# Indices 1 2 3 4 5 6 
#
# 1 0.008978 -0.002361 -0.001610 0.000000 0.000000 0.000000
# 2 -0.002361 0.009369 -0.001077 0.000000 0.000000 0.000000
# 3 -0.001610 -0.001077 0.017733 0.000000 0.000000 0.000000
# 4 0.000000 0.000000 0.000000 0.040825 0.000000 0.000000
# 5 0.000000 0.000000 0.000000 0.000000 0.032620 0.000000
# 6 0.000000 0.000000 0.000000 0.000000 0.000000 0.134970
#
#
# Mechanical properties :
#
#
# Convention : Reuss Voigt Hill
#
# Bulk Modulus (GPa) = 38.48234 45.22978 41.85606
# Shear Modulus (GPa) = 18.99329 28.58485 23.78907
#
# Velocity S-wave (km/s) = 3.03785 3.72678 3.39981
# Velocity P-wave (km/s) = 5.56800 6.36357 5.97903
#
# Compressibility (1/GPa) = 0.02598594
#
# Stress axis : x y z
#
# Youngs Moduli (GPa) = 111.38587 106.73195 56.39265
#
# Poissons Ratio (x) = 0.25197 0.09077
# Poissons Ratio (y) = 0.26296 0.06071
# Poissons Ratio (z) = 0.17929 0.11490
#
# Static dielectric constant tensor:
#      x y z
#    x 3.837950 0.000000 0.000000 
#    y 0.000000 3.779290 0.000000 
#    z 0.000000 0.000000 3.495540 
# 
# 
# High freq. dielectric constant tensor:
#      x y z
#    x 1.820820 0.000000 0.000000 
#    y 0.000000 1.801870 0.000000 
#    z 0.000000 0.000000 1.793390 
# 
# From -- ./inp_files/6821.got.cif
#   From: 2010.06.25/outbox.cif.g09.slc.cpg/sg58_4_cif.got.tgz:6821.got - 2010.06.26 21:38:00.
