data_PCOD8237152
_publ_section_title
;
Structure prediction by ZEFSAII (Michael W. Deem and Ramdas Pophale) SiO2 
 PCOD8237152
Probable space group: P N N M
;
_chemical_formula_sum "Si O2"
_cell_formula_units_Z 48
_cell_length_a 17.025239
_cell_length_b 16.883664
_cell_length_c 8.851683
_cell_angle_alpha 90.000000
_cell_angle_beta 90.000000
_cell_angle_gamma 90.000000
_cell_volume 2544.402247
_symmetry_space_group_name_H-M "P N N M"
_symmetry_group_IT_number 58
_symmetry_cell_setting 'orthorhombic'
loop_
_space_group_symop_operation_xyz
x,y,z
-x,-y,z
1/2+x,1/2-y,1/2-z
1/2-x,1/2+y,1/2-z
-x,-y,-z
x,y,-z
1/2-x,1/2+y,1/2+z
1/2+x,1/2-y,1/2+z
loop_
_atom_site_type_symbol
_atom_site_label
_atom_site_fract_x
_atom_site_fract_y
_atom_site_fract_z
Si Si1 0.321114 0.844367 0.676899
Si Si2 0.999990 0.088964 0.680001
Si Si3 0.146902 0.816259 0.322803
Si Si4 0.591638 0.996940 0.675778
Si Si5 0.685001 0.856823 0.821247
Si Si6 0.845040 0.820715 0.678649
O O1 0.331534 0.826585 0.500000
O O2 0.229509 0.858505 0.717035
O O3 0.353913 0.769385 0.766921
O O4 0.369685 0.920837 0.728427
O O5 0.994994 0.087468 0.500000
O O6 0.078256 0.132802 0.734636
O O7 0.924693 0.134824 0.750769
O O8 0.000000 0.000000 0.744719
O O9 0.133545 0.814400 0.500000
O O10 0.147595 0.725891 0.262659
O O11 0.608238 0.981005 0.500000
O O12 0.628562 0.926991 0.772184
O O13 0.500000 0.000000 0.712249
O O14 0.770884 0.866263 0.749089
O O15 0.695126 0.856404 0.000000
O O16 0.836414 0.822243 0.500000
#
# Coordination Sequence:
#
# PCOD8237152 Si02
#       6
#     8   8   8   8   8   8
#     4   9  19  36  57  77 109 150 181 221 278 336
#     4   9  18  30  51  82 108 135 178 228 269 318
#     4   8  16  32  52  75 103 140 181 218 266 323
#     4  10  22  37  56  85 115 145 186 233 284 337
#     4  10  21  37  57  79 111 150 187 227 277 336
#     4  10  20  34  57  84 110 140 184 233 275 328
#
# _framework density 18.864941000000002
#
# number of rings (size 3 to 8) (size 9 to 14) (size 15 to 20)
#    0.000    2.667    0.000    2.000    4.667    1.000 
#    0.000    0.000    0.000    3.000    0.000    0.000 
#    0.000    0.000    0.000    0.000    0.000    0.000 
#
# Total GULP energy -595198.757114 kJ/mol
# GULP energy per Si atom -12399.974107 kJ/mol
# Density = 1.882200 g / cm^3
# Si number density = 18.864941 Si / 1000 Ang^3
#
#
#
# Elastic Constant Matrix: (Units=GPa)
#
#
# Indices 1 2 3 4 5 6 
#
# 1 162.3120 97.7098 36.3543 0.0000 0.0000 0.0000
# 2 97.7098 130.2118 33.0901 0.0000 0.0000 0.0000
# 3 36.3543 33.0901 43.2914 0.0000 0.0000 0.0000
# 4 0.0000 0.0000 0.0000 26.8244 0.0000 0.0000
# 5 0.0000 0.0000 0.0000 0.0000 21.3404 0.0000
# 6 0.0000 0.0000 0.0000 0.0000 0.0000 36.5300
#
#
#
# Elastic Compliance Matrix: (Units=1/GPa)
#
#
# Indices 1 2 3 4 5 6 
#
# 1 0.011739 -0.007823 -0.003878 0.000000 0.000000 0.000000
# 2 -0.007823 0.014745 -0.004701 0.000000 0.000000 0.000000
# 3 -0.003878 -0.004701 0.029949 0.000000 0.000000 0.000000
# 4 0.000000 0.000000 0.000000 0.037279 0.000000 0.000000
# 5 0.000000 0.000000 0.000000 0.000000 0.046859 0.000000
# 6 0.000000 0.000000 0.000000 0.000000 0.000000 0.027375
#
#
# Mechanical properties :
#
#
# Convention : Reuss Voigt Hill
#
# Bulk Modulus (GPa) = 42.32152 74.45818 58.38985
# Shear Modulus (GPa) = 23.96614 28.18304 26.07459
#
# Velocity S-wave (km/s) = 3.56814 3.86934 3.72179
# Velocity P-wave (km/s) = 6.28157 7.71474 7.03475
#
# Compressibility (1/GPa) = 0.02362864
#
# Stress axis : x y z
#
# Youngs Moduli (GPa) = 85.18443 67.81958 33.39011
#
# Poissons Ratio (x) = 0.53058 0.12949
# Poissons Ratio (y) = 0.66644 0.15695
# Poissons Ratio (z) = 0.33036 0.31879
#
# Static dielectric constant tensor:
#      x y z
#    x 3.679890 0.000000 0.000000 
#    y 0.000000 3.634510 0.000000 
#    z 0.000000 0.000000 3.111270 
# 
# 
# High freq. dielectric constant tensor:
#      x y z
#    x 1.744870 0.000000 0.000000 
#    y 0.000000 1.740720 0.000000 
#    z 0.000000 0.000000 1.699190 
# 
# From -- ./inp_files/5772.got.cif
#   From: 2010.06.25/outbox.cif.g09.slc.cpg/sg58_3_cif.got.tgz:5772.got - 2010.06.26 21:38:00.
