data_PCOD8237657
_publ_section_title
;
Structure prediction by ZEFSAII (Michael W. Deem and Ramdas Pophale) SiO2 
 PCOD8237657
Probable space group: P N N M
;
_chemical_formula_sum "Si O2"
_cell_formula_units_Z 40
_cell_length_a 21.345436
_cell_length_b 4.961442
_cell_length_c 17.874021
_cell_angle_alpha 90.000000
_cell_angle_beta 90.000000
_cell_angle_gamma 90.000000
_cell_volume 1892.932870
_symmetry_space_group_name_H-M "P N N M"
_symmetry_group_IT_number 58
_symmetry_cell_setting 'orthorhombic'
loop_
_space_group_symop_operation_xyz
x,y,z
-x,-y,z
1/2+x,1/2-y,1/2-z
1/2-x,1/2+y,1/2-z
-x,-y,-z
x,y,-z
1/2-x,1/2+y,1/2+z
1/2+x,1/2-y,1/2+z
loop_
_atom_site_type_symbol
_atom_site_label
_atom_site_fract_x
_atom_site_fract_y
_atom_site_fract_z
Si Si1 0.848811 0.141032 0.085888
Si Si2 0.731687 0.157528 0.585272
Si Si3 0.541596 0.751488 0.305825
Si Si4 0.071474 0.567290 0.647392
Si Si5 0.361738 0.554868 0.086548
O O1 0.821968 0.437594 0.092649
O O2 0.913448 0.135171 0.130464
O O3 0.797813 0.930386 0.120314
O O4 0.863526 0.061135 0.000000
O O5 0.749709 0.221104 0.500000
O O6 0.796261 0.054246 0.622786
O O7 0.500000 0.500000 0.278511
O O8 0.580569 0.855140 0.234267
O O9 0.500000 0.000000 0.337414
O O10 0.117131 0.317232 0.631893
O O11 0.000000 0.500000 0.628801
O O12 0.087919 0.817756 0.594420
O O13 0.353911 0.638717 0.000000
#
# Coordination Sequence:
#
# PCOD8237657 Si02
#       5
#     8   8   8   8   8
#     4  10  20  37  62  89 118 153 195 238 286 349
#     4   9  19  36  58  87 119 149 184 238 299 341
#     4  11  23  40  60  83 119 161 196 240 298 348
#     4  11  23  39  57  82 118 156 192 238 296 345
#     4  11  22  38  62  88 115 150 195 241 288 350
#
# _framework density 21.131229999999999
#
# number of rings (size 3 to 8) (size 9 to 14) (size 15 to 20)
#    0.000    1.600    0.000    6.000    0.000    6.400 
#    0.000    4.000    0.000    0.000    0.000    0.000 
#    0.000    0.000    0.000    0.000    0.000    0.000 
#
# Total GULP energy -496052.612002 kJ/mol
# GULP energy per Si atom -12401.315300 kJ/mol
# Density = 2.108313 g / cm^3
# Si number density = 21.131230 Si / 1000 Ang^3
#
#
#
# Elastic Constant Matrix: (Units=GPa)
#
#
# Indices 1 2 3 4 5 6 
#
# 1 98.5755 39.3820 55.7337 0.0000 0.0000 0.0000
# 2 39.3820 134.3438 37.1757 0.0000 0.0000 0.0000
# 3 55.7337 37.1757 70.8318 0.0000 0.0000 0.0000
# 4 0.0000 0.0000 0.0000 28.3783 0.0000 0.0000
# 5 0.0000 0.0000 0.0000 0.0000 14.6590 0.0000
# 6 0.0000 0.0000 0.0000 0.0000 0.0000 46.0519
#
#
#
# Elastic Compliance Matrix: (Units=1/GPa)
#
#
# Indices 1 2 3 4 5 6 
#
# 1 0.018578 -0.001639 -0.013758 0.000000 0.000000 0.000000
# 2 -0.001639 0.008853 -0.003357 0.000000 0.000000 0.000000
# 3 -0.013758 -0.003357 0.026705 0.000000 0.000000 0.000000
# 4 0.000000 0.000000 0.000000 0.035238 0.000000 0.000000
# 5 0.000000 0.000000 0.000000 0.000000 0.068217 0.000000
# 6 0.000000 0.000000 0.000000 0.000000 0.000000 0.021715
#
#
# Mechanical properties :
#
#
# Convention : Reuss Voigt Hill
#
# Bulk Modulus (GPa) = 60.13665 63.14820 61.64242
# Shear Modulus (GPa) = 22.48653 29.24851 25.86752
#
# Velocity S-wave (km/s) = 3.26565 3.72443 3.50256
# Velocity P-wave (km/s) = 6.53756 6.96017 6.75217
#
# Compressibility (1/GPa) = 0.01662880
#
# Stress axis : x y z
#
# Youngs Moduli (GPa) = 53.82790 112.95700 37.44627
#
# Poissons Ratio (x) = 0.18513 0.51517
# Poissons Ratio (y) = 0.08822 0.12570
# Poissons Ratio (z) = 0.74055 0.37918
#
# Static dielectric constant tensor:
#      x y z
#    x 3.870920 0.000000 0.000000 
#    y 0.000000 4.037190 0.000000 
#    z 0.000000 0.000000 3.523090 
# 
# 
# High freq. dielectric constant tensor:
#      x y z
#    x 1.831800 0.000000 0.000000 
#    y 0.000000 1.853040 0.000000 
#    z 0.000000 0.000000 1.792750 
# 
# From -- ./inp_files/27157.got.cif
#   From: 2010.06.25/outbox.cif.g09.slc.cpg/sg58_14_cif.got.tgz:27157.got - 2010.06.26 21:38:00.
