data_PCOD8237303
_publ_section_title
;
Structure prediction by ZEFSAII (Michael W. Deem and Ramdas Pophale) SiO2 
 PCOD8237303
Probable space group: P N N M
;
_chemical_formula_sum "Si O2"
_cell_formula_units_Z 56
_cell_length_a 14.524280
_cell_length_b 21.289877
_cell_length_c 8.807688
_cell_angle_alpha 90.000000
_cell_angle_beta 90.000000
_cell_angle_gamma 90.000000
_cell_volume 2723.514470
_symmetry_space_group_name_H-M "P N N M"
_symmetry_group_IT_number 58
_symmetry_cell_setting 'orthorhombic'
loop_
_space_group_symop_operation_xyz
x,y,z
-x,-y,z
1/2+x,1/2-y,1/2-z
1/2-x,1/2+y,1/2-z
-x,-y,-z
x,y,-z
1/2-x,1/2+y,1/2+z
1/2+x,1/2-y,1/2+z
loop_
_atom_site_type_symbol
_atom_site_label
_atom_site_fract_x
_atom_site_fract_y
_atom_site_fract_z
Si Si1 0.475039 0.609529 0.671231
Si Si2 0.181411 0.618992 0.320533
Si Si3 0.997869 0.572777 0.820207
Si Si4 0.663243 0.612275 0.170650
Si Si5 0.328460 0.534457 0.171061
Si Si6 0.827234 0.781317 0.170391
Si Si7 0.658542 0.154358 0.823294
O O1 0.503848 0.591872 0.500000
O O2 0.562977 0.628790 0.767964
O O3 0.424359 0.549984 0.746173
O O4 0.405764 0.667028 0.674518
O O5 0.174787 0.611761 0.500000
O O6 0.240793 0.561377 0.258136
O O7 0.230987 0.685313 0.277950
O O8 0.080094 0.614283 0.250047
O O9 0.903200 0.605053 0.769358
O O10 0.000000 0.500000 0.764757
O O11 0.006233 0.575681 0.000000
O O12 0.683659 0.539169 0.171425
O O13 0.735311 0.645342 0.280785
O O14 0.671990 0.639186 0.000000
O O15 0.330865 0.561495 0.000000
O O16 0.861446 0.726643 0.281700
O O17 0.816218 0.754262 0.000000
O O18 0.640783 0.143256 0.000000
#
# Coordination Sequence:
#
# PCOD8237303 Si02
#       7
#     8   8   8   8   8   8   8
#     4  10  21  37  60  88 117 152 193 238 285 337
#     4  10  21  38  63  91 118 154 198 245 294 346
#     4  11  24  42  64  90 122 161 201 245 303 364
#     4  11  23  38  57  83 118 156 190 231 287 346
#     4  10  20  35  57  87 121 156 191 229 283 347
#     4   9  21  42  62  84 117 153 193 241 294 352
#     4  12  26  41  61  87 115 152 198 248 296 345
#
# _framework density 20.561667
#
# number of rings (size 3 to 8) (size 9 to 14) (size 15 to 20)
#    0.000    1.571    0.000    5.571    0.000   13.143 
#    0.000    0.000    0.000    0.000    0.000    0.000 
#    0.000    0.000    0.000    0.000    0.000    0.000 
#
# Total GULP energy -694575.372004 kJ/mol
# GULP energy per Si atom -12403.131643 kJ/mol
# Density = 2.051487 g / cm^3
# Si number density = 20.561667 Si / 1000 Ang^3
#
#
#
# Elastic Constant Matrix: (Units=GPa)
#
#
# Indices 1 2 3 4 5 6 
#
# 1 77.2593 0.0116 21.1385 0.0000 0.0000 0.0000
# 2 0.0116 52.6984 36.8981 0.0000 0.0000 0.0000
# 3 21.1385 36.8981 107.6579 0.0000 0.0000 0.0000
# 4 0.0000 0.0000 0.0000 28.2898 0.0000 0.0000
# 5 0.0000 0.0000 0.0000 0.0000 41.9784 0.0000
# 6 0.0000 0.0000 0.0000 0.0000 0.0000 22.0507
#
#
#
# Elastic Compliance Matrix: (Units=1/GPa)
#
#
# Indices 1 2 3 4 5 6 
#
# 1 0.013927 0.002515 -0.003597 0.000000 0.000000 0.000000
# 2 0.002515 0.025422 -0.009207 0.000000 0.000000 0.000000
# 3 -0.003597 -0.009207 0.013150 0.000000 0.000000 0.000000
# 4 0.000000 0.000000 0.000000 0.035348 0.000000 0.000000
# 5 0.000000 0.000000 0.000000 0.000000 0.023822 0.000000
# 6 0.000000 0.000000 0.000000 0.000000 0.000000 0.045350
#
#
# Mechanical properties :
#
#
# Convention : Reuss Voigt Hill
#
# Bulk Modulus (GPa) = 31.32556 39.30134 35.31345
# Shear Modulus (GPa) = 26.56230 30.43493 28.49862
#
# Velocity S-wave (km/s) = 3.59811 3.85148 3.72695
# Velocity P-wave (km/s) = 5.70350 6.23971 5.97762
#
# Compressibility (1/GPa) = 0.03192281
#
# Stress axis : x y z
#
# Youngs Moduli (GPa) = 71.80241 39.33644 76.04357
#
# Poissons Ratio (x) = -0.09894 0.27350
# Poissons Ratio (y) = -0.18060 0.70012
# Poissons Ratio (z) = 0.25825 0.36216
#
# Static dielectric constant tensor:
#      x y z
#    x 3.796150 0.000000 0.000000 
#    y 0.000000 3.673740 0.000000 
#    z 0.000000 0.000000 4.050310 
# 
# 
# High freq. dielectric constant tensor:
#      x y z
#    x 1.811590 0.000000 0.000000 
#    y 0.000000 1.799620 0.000000 
#    z 0.000000 0.000000 1.814220 
# 
# From -- ./inp_files/6439.got.cif
#   From: 2010.06.25/outbox.cif.g09.slc.cpg/sg58_4_cif.got.tgz:6439.got - 2010.06.26 21:38:00.
