data_PCOD8237915
_publ_section_title
;
Structure prediction by ZEFSAII (Michael W. Deem and Ramdas Pophale) SiO2 
 PCOD8237915
Probable space group: P N N M
;
_chemical_formula_sum "Si O2"
_cell_formula_units_Z 64
_cell_length_a 32.630613
_cell_length_b 10.954453
_cell_length_c 9.669864
_cell_angle_alpha 90.000000
_cell_angle_beta 90.000000
_cell_angle_gamma 90.000000
_cell_volume 3456.497881
_symmetry_space_group_name_H-M "P N N M"
_symmetry_group_IT_number 58
_symmetry_cell_setting 'orthorhombic'
loop_
_space_group_symop_operation_xyz
x,y,z
-x,-y,z
1/2+x,1/2-y,1/2-z
1/2-x,1/2+y,1/2-z
-x,-y,-z
x,y,-z
1/2-x,1/2+y,1/2+z
1/2+x,1/2-y,1/2+z
loop_
_atom_site_type_symbol
_atom_site_label
_atom_site_fract_x
_atom_site_fract_y
_atom_site_fract_z
Si Si1 0.668635 0.742772 0.843293
Si Si2 0.618553 0.356888 0.336252
Si Si3 0.393399 0.142617 0.655837
Si Si4 0.691535 0.529647 0.660464
Si Si5 0.026619 0.115826 0.834907
Si Si6 0.511041 0.868119 0.341147
Si Si7 0.846874 0.603473 0.160102
Si Si8 0.282837 0.008856 0.153129
O O1 0.625699 0.763351 0.764831
O O2 0.694499 0.646204 0.757662
O O3 0.695305 0.862862 0.838151
O O4 0.659997 0.699772 0.000000
O O5 0.617714 0.353365 0.500000
O O6 0.653954 0.447790 0.284332
O O7 0.573687 0.399003 0.282969
O O8 0.630031 0.222429 0.281097
O O9 0.380810 0.181544 0.500000
O O10 0.441242 0.152269 0.676153
O O11 0.378587 0.005726 0.685943
O O12 0.684997 0.565451 0.500000
O O13 0.735138 0.464219 0.684128
O O14 0.010615 0.247336 0.776077
O O15 0.023532 0.117278 0.000000
O O16 0.000000 0.000000 0.778561
O O17 0.496888 0.876186 0.500000
O O18 0.500000 0.000000 0.270583
O O19 0.804005 0.584003 0.239833
O O20 0.835063 0.618479 0.000000
O O21 0.287740 0.951681 0.000000
#
# Coordination Sequence:
#
# PCOD8237915 Si02
#       8
#     8   8   8   8   8   8   8   8
#     4  10  21  36  53  74 103 134 170 212 252 302
#     4   9  18  31  49  73 105 137 168 207 256 309
#     4   9  17  30  52  79 106 136 169 209 259 307
#     4  10  21  35  53  74 100 133 169 209 253 305
#     4   9  17  27  42  70 104 136 167 205 257 312
#     4   9  16  26  45  74 107 134 166 217 265 304
#     4   9  17  31  53  78 104 135 169 207 251 304
#     4   9  20  36  52  74 102 134 167 209 259 300
#
# _framework density 18.515851000000001
#
# number of rings (size 3 to 8) (size 9 to 14) (size 15 to 20)
#    0.000    2.750    0.000    1.125    3.500    4.000 
#    0.000    0.625    0.000    0.375    0.000    2.625 
#    0.000    0.000    0.000    0.000    0.000    0.000 
#
# Total GULP energy -793257.257470 kJ/mol
# GULP energy per Si atom -12394.644648 kJ/mol
# Density = 1.847371 g / cm^3
# Si number density = 18.515851 Si / 1000 Ang^3
#
#
#
# Elastic Constant Matrix: (Units=GPa)
#
#
# Indices 1 2 3 4 5 6 
#
# 1 121.2860 44.2807 25.2549 0.0000 0.0000 0.0000
# 2 44.2807 71.5611 18.8148 0.0000 0.0000 0.0000
# 3 25.2549 18.8148 50.0776 0.0000 0.0000 0.0000
# 4 0.0000 0.0000 0.0000 10.6673 0.0000 0.0000
# 5 0.0000 0.0000 0.0000 0.0000 17.0957 0.0000
# 6 0.0000 0.0000 0.0000 0.0000 0.0000 25.4633
#
#
#
# Elastic Compliance Matrix: (Units=1/GPa)
#
#
# Indices 1 2 3 4 5 6 
#
# 1 0.011138 -0.006009 -0.003360 0.000000 0.000000 0.000000
# 2 -0.006009 0.018747 -0.004013 0.000000 0.000000 0.000000
# 3 -0.003360 -0.004013 0.023171 0.000000 0.000000 0.000000
# 4 0.000000 0.000000 0.000000 0.093744 0.000000 0.000000
# 5 0.000000 0.000000 0.000000 0.000000 0.058494 0.000000
# 6 0.000000 0.000000 0.000000 0.000000 0.000000 0.039272
#
#
# Mechanical properties :
#
#
# Convention : Reuss Voigt Hill
#
# Bulk Modulus (GPa) = 38.03239 46.62502 42.32871
# Shear Modulus (GPa) = 17.85106 20.95023 19.40064
#
# Velocity S-wave (km/s) = 3.10836 3.36739 3.24046
# Velocity P-wave (km/s) = 5.78512 6.35255 6.07546
#
# Compressibility (1/GPa) = 0.02629338
#
# Stress axis : x y z
#
# Youngs Moduli (GPa) = 89.77997 53.34065 43.15710
#
# Poissons Ratio (x) = 0.32052 0.14499
# Poissons Ratio (y) = 0.53948 0.17320
# Poissons Ratio (z) = 0.30163 0.21407
#
# Static dielectric constant tensor:
#      x y z
#    x 3.536680 0.000000 0.000000 
#    y 0.000000 3.537560 0.000000 
#    z 0.000000 0.000000 3.164750 
# 
# 
# High freq. dielectric constant tensor:
#      x y z
#    x 1.729480 0.000000 0.000000 
#    y 0.000000 1.721430 0.000000 
#    z 0.000000 0.000000 1.664790 
# 
# From -- ./inp_files/11087.got.cif
#   From: 2010.06.25/outbox.cif.g09.slc.cpg/sg58_6_cif.got.tgz:11087.got - 2010.06.26 21:38:00.
