data_PCOD8237312
_publ_section_title
;
Structure prediction by ZEFSAII (Michael W. Deem and Ramdas Pophale) SiO2 
 PCOD8237312
Probable space group: P N N M
;
_chemical_formula_sum "Si O2"
_cell_formula_units_Z 48
_cell_length_a 9.235170
_cell_length_b 30.403248
_cell_length_c 9.374341
_cell_angle_alpha 90.000000
_cell_angle_beta 90.000000
_cell_angle_gamma 90.000000
_cell_volume 2632.119627
_symmetry_space_group_name_H-M "P N N M"
_symmetry_group_IT_number 58
_symmetry_cell_setting 'orthorhombic'
loop_
_space_group_symop_operation_xyz
x,y,z
-x,-y,z
1/2+x,1/2-y,1/2-z
1/2-x,1/2+y,1/2-z
-x,-y,-z
x,y,-z
1/2-x,1/2+y,1/2+z
1/2+x,1/2-y,1/2+z
loop_
_atom_site_type_symbol
_atom_site_label
_atom_site_fract_x
_atom_site_fract_y
_atom_site_fract_z
Si Si1 0.569997 0.713389 0.840879
Si Si2 0.607384 0.959638 0.665001
Si Si3 0.079402 0.887400 0.667400
Si Si4 0.403607 0.881418 0.330611
Si Si5 0.907551 0.715282 0.161490
Si Si6 0.599903 0.458247 0.667194
O O1 0.538237 0.662975 0.800507
O O2 0.738126 0.723858 0.828287
O O3 0.485495 0.745538 0.739419
O O4 0.514422 0.722390 0.000000
O O5 0.655372 0.955034 0.500000
O O6 0.524932 0.915803 0.718808
O O7 0.745085 0.967730 0.763263
O O8 0.500000 0.000000 0.684851
O O9 0.061608 0.898651 0.500000
O O10 0.243865 0.896653 0.720730
O O11 0.970084 0.916009 0.759598
O O12 0.392746 0.877827 0.500000
O O13 0.443637 0.832861 0.270695
O O14 0.962937 0.716334 0.000000
O O15 0.500000 0.500000 0.697225
O O16 0.619682 0.449201 0.500000
#
# Coordination Sequence:
#
# PCOD8237312 Si02
#       6
#     8   8   8   8   8   8
#     4   9  19  34  52  77 105 134 173 217 257 300
#     4  10  20  35  58  83 103 132 177 219 255 302
#     4   9  18  36  59  77  99 134 175 218 257 298
#     4   8  16  33  55  78 102 131 173 221 261 298
#     4   9  18  33  52  74 105 141 172 209 259 311
#     4  11  24  38  52  76 110 141 168 205 257 313
#
# _framework density 18.236252
#
# number of rings (size 3 to 8) (size 9 to 14) (size 15 to 20)
#    0.000    2.667    0.000    3.500    0.000    5.667 
#    0.000    9.167    0.000    0.000    0.000    0.000 
#    0.000    0.000    0.000    0.000    0.000    0.000 
#
# Total GULP energy -595121.057399 kJ/mol
# GULP energy per Si atom -12398.355362 kJ/mol
# Density = 1.819475 g / cm^3
# Si number density = 18.236252 Si / 1000 Ang^3
#
#
#
# Elastic Constant Matrix: (Units=GPa)
#
#
# Indices 1 2 3 4 5 6 
#
# 1 94.7882 64.0222 57.9967 0.0000 0.0000 0.0000
# 2 64.0222 115.5884 62.4466 0.0000 0.0000 0.0000
# 3 57.9967 62.4466 80.7148 0.0000 0.0000 0.0000
# 4 0.0000 0.0000 0.0000 23.3758 0.0000 0.0000
# 5 0.0000 0.0000 0.0000 0.0000 24.6068 0.0000
# 6 0.0000 0.0000 0.0000 0.0000 0.0000 38.7460
#
#
#
# Elastic Compliance Matrix: (Units=1/GPa)
#
#
# Indices 1 2 3 4 5 6 
#
# 1 0.020981 -0.005973 -0.010454 0.000000 0.000000 0.000000
# 2 -0.005973 0.016565 -0.008524 0.000000 0.000000 0.000000
# 3 -0.010454 -0.008524 0.026496 0.000000 0.000000 0.000000
# 4 0.000000 0.000000 0.000000 0.042779 0.000000 0.000000
# 5 0.000000 0.000000 0.000000 0.000000 0.040639 0.000000
# 6 0.000000 0.000000 0.000000 0.000000 0.000000 0.025809
#
#
# Mechanical properties :
#
#
# Convention : Reuss Voigt Hill
#
# Bulk Modulus (GPa) = 70.72658 73.33582 72.03120
# Shear Modulus (GPa) = 21.94100 24.45409 23.19755
#
# Velocity S-wave (km/s) = 3.47241 3.66589 3.57046
# Velocity P-wave (km/s) = 7.41246 7.63020 7.52212
#
# Compressibility (1/GPa) = 0.01413896
#
# Stress axis : x y z
#
# Youngs Moduli (GPa) = 47.66322 60.36966 37.74169
#
# Poissons Ratio (x) = 0.36057 0.39457
# Poissons Ratio (y) = 0.28468 0.32171
# Poissons Ratio (z) = 0.49829 0.51459
#
# Static dielectric constant tensor:
#      x y z
#    x 3.056770 0.000000 0.000000 
#    y 0.000000 3.524320 0.000000 
#    z 0.000000 0.000000 3.181060 
# 
# 
# High freq. dielectric constant tensor:
#      x y z
#    x 1.707370 0.000000 0.000000 
#    y 0.000000 1.721730 0.000000 
#    z 0.000000 0.000000 1.682710 
# 
# From -- ./inp_files/2896.got.cif
#   From: 2010.06.25/outbox.cif.g09.slc.cpg/sg58_2_cif.got.tgz:2896.got - 2010.06.26 21:38:00.
