data_PCOD8237742
_publ_section_title
;
Structure prediction by ZEFSAII (Michael W. Deem and Ramdas Pophale) SiO2 
 PCOD8237742
Probable space group: P N N M
;
_chemical_formula_sum "Si O2"
_cell_formula_units_Z 64
_cell_length_a 9.596836
_cell_length_b 19.035191
_cell_length_c 17.418999
_cell_angle_alpha 90.000000
_cell_angle_beta 90.000000
_cell_angle_gamma 90.000000
_cell_volume 3182.061041
_symmetry_space_group_name_H-M "P N N M"
_symmetry_group_IT_number 58
_symmetry_cell_setting 'orthorhombic'
loop_
_space_group_symop_operation_xyz
x,y,z
-x,-y,z
1/2+x,1/2-y,1/2-z
1/2-x,1/2+y,1/2-z
-x,-y,-z
x,y,-z
1/2-x,1/2+y,1/2+z
1/2+x,1/2-y,1/2+z
loop_
_atom_site_type_symbol
_atom_site_label
_atom_site_fract_x
_atom_site_fract_y
_atom_site_fract_z
Si Si1 0.897384 0.212484 0.657738
Si Si2 0.553827 0.853021 0.917293
Si Si3 0.673060 0.263316 0.238017
Si Si4 0.783840 0.632645 0.655097
Si Si5 0.881282 0.058754 0.591100
Si Si6 0.258962 0.597525 0.700175
Si Si7 0.843109 0.529554 0.212449
Si Si8 0.502729 0.582235 0.585342
O O1 0.927195 0.269167 0.591429
O O2 0.736653 0.224721 0.685396
O O3 0.927200 0.134490 0.625370
O O4 0.004316 0.229431 0.729373
O O5 0.393140 0.876923 0.913610
O O6 0.620185 0.897674 0.849463
O O7 0.614024 0.875281 0.000000
O O8 0.730908 0.216559 0.167872
O O9 0.736588 0.341654 0.235430
O O10 0.840482 0.599745 0.735835
O O11 0.642354 0.599835 0.628984
O O12 0.856891 0.064303 0.500000
O O13 0.732811 0.039794 0.630381
O O14 0.000000 0.000000 0.609612
O O15 0.258046 0.523648 0.741939
O O16 0.382756 0.610496 0.640141
O O17 0.000000 0.500000 0.199759
O O18 0.500000 0.500000 0.575769
O O19 0.492416 0.616791 0.500000
#
# Coordination Sequence:
#
# PCOD8237742 Si02
#       8
#     8   8   8   8   8   8   8   8
#     4  10  20  38  61  91 125 158 208 257 313 371
#     4  10  21  37  58  84 124 164 200 250 305 368
#     4  10  21  35  61  90 117 160 209 259 305 364
#     4  11  21  39  59  89 119 163 206 252 303 364
#     4  11  25  43  67  95 124 164 210 265 327 376
#     4  11  22  37  59  88 122 161 206 255 301 364
#     4  12  24  41  63  92 123 160 209 258 312 372
#     4  11  23  37  58  90 130 166 203 249 313 373
#
# _framework density 20.112749999999998
#
# number of rings (size 3 to 8) (size 9 to 14) (size 15 to 20)
#    0.000    1.250    3.750    2.625    1.750    0.250 
#    0.000    0.625    0.000    0.750    0.000    0.000 
#    0.000    0.000    0.000    0.000    0.000    0.000 
#
# Total GULP energy -792869.090804 kJ/mol
# GULP energy per Si atom -12388.579544 kJ/mol
# Density = 2.006697 g / cm^3
# Si number density = 20.112750 Si / 1000 Ang^3
#
#
#
# Elastic Constant Matrix: (Units=GPa)
#
#
# Indices 1 2 3 4 5 6 
#
# 1 103.5521 18.5872 53.6893 0.0000 0.0000 0.0000
# 2 18.5872 81.8323 33.2606 0.0000 0.0000 0.0000
# 3 53.6893 33.2606 101.6437 0.0000 0.0000 0.0000
# 4 0.0000 0.0000 0.0000 22.0034 0.0000 0.0000
# 5 0.0000 0.0000 0.0000 0.0000 23.3010 0.0000
# 6 0.0000 0.0000 0.0000 0.0000 0.0000 21.8884
#
#
#
# Elastic Compliance Matrix: (Units=1/GPa)
#
#
# Indices 1 2 3 4 5 6 
#
# 1 0.013302 -0.000191 -0.006964 0.000000 0.000000 0.000000
# 2 -0.000191 0.014097 -0.004512 0.000000 0.000000 0.000000
# 3 -0.006964 -0.004512 0.014993 0.000000 0.000000 0.000000
# 4 0.000000 0.000000 0.000000 0.045448 0.000000 0.000000
# 5 0.000000 0.000000 0.000000 0.000000 0.042917 0.000000
# 6 0.000000 0.000000 0.000000 0.000000 0.000000 0.045686
#
#
# Mechanical properties :
#
#
# Convention : Reuss Voigt Hill
#
# Bulk Modulus (GPa) = 52.46959 55.34471 53.90715
# Shear Modulus (GPa) = 24.25663 25.53795 24.89729
#
# Velocity S-wave (km/s) = 3.47657 3.56721 3.52218
# Velocity P-wave (km/s) = 6.50075 6.67410 6.58799
#
# Compressibility (1/GPa) = 0.01905866
#
# Stress axis : x y z
#
# Youngs Moduli (GPa) = 75.17830 70.93466 66.69752
#
# Poissons Ratio (x) = 0.01355 0.46446
# Poissons Ratio (y) = 0.01436 0.30095
# Poissons Ratio (z) = 0.52351 0.32007
#
# Static dielectric constant tensor:
#      x y z
#    x 3.780100 0.000000 0.000000 
#    y 0.000000 3.452690 0.000000 
#    z 0.000000 0.000000 3.667450 
# 
# 
# High freq. dielectric constant tensor:
#      x y z
#    x 1.788990 0.000000 0.000000 
#    y 0.000000 1.794150 0.000000 
#    z 0.000000 0.000000 1.767740 
# 
# From -- ./inp_files/25680.got.cif
#   From: 2010.06.25/outbox.cif.g09.slc.cpg/sg58_13_cif.got.tgz:25680.got - 2010.06.26 21:38:00.
