data_PCOD8237624
_publ_section_title
;
Structure prediction by ZEFSAII (Michael W. Deem and Ramdas Pophale) SiO2 
 PCOD8237624
Probable space group: P N N M
;
_chemical_formula_sum "Si O2"
_cell_formula_units_Z 40
_cell_length_a 20.441401
_cell_length_b 11.584628
_cell_length_c 8.766013
_cell_angle_alpha 90.000000
_cell_angle_beta 90.000000
_cell_angle_gamma 90.000000
_cell_volume 2075.844706
_symmetry_space_group_name_H-M "P N N M"
_symmetry_group_IT_number 58
_symmetry_cell_setting 'orthorhombic'
loop_
_space_group_symop_operation_xyz
x,y,z
-x,-y,z
1/2+x,1/2-y,1/2-z
1/2-x,1/2+y,1/2-z
-x,-y,-z
x,y,-z
1/2-x,1/2+y,1/2+z
1/2+x,1/2-y,1/2+z
loop_
_atom_site_type_symbol
_atom_site_label
_atom_site_fract_x
_atom_site_fract_y
_atom_site_fract_z
Si Si1 0.518020 0.131961 0.676905
Si Si2 0.360543 0.755740 0.821418
Si Si3 0.145765 0.019863 0.172675
Si Si4 0.396468 0.277976 0.326975
Si Si5 0.772603 0.159294 0.679204
O O1 0.532174 0.160293 0.500000
O O2 0.581794 0.157932 0.775535
O O3 0.458778 0.211058 0.740166
O O4 0.500000 0.000000 0.702069
O O5 0.379890 0.625999 0.772919
O O6 0.295542 0.791026 0.733880
O O7 0.348085 0.762743 0.000000
O O8 0.091078 0.917306 0.176612
O O9 0.213042 0.965520 0.242106
O O10 0.159210 0.061715 0.000000
O O11 0.383341 0.235658 0.500000
O O12 0.331035 0.251609 0.227625
O O13 0.771382 0.142242 0.500000
#
# Coordination Sequence:
#
# PCOD8237624 Si02
#       5
#     8   8   8   8   8
#     4  10  22  41  63  88 120 161 204 249 308 368
#     4  12  24  38  59  90 126 161 205 252 298 359
#     4   9  19  38  61  87 116 151 199 249 305 359
#     4   8  18  38  61  86 118 155 196 248 305 361
#     4  10  20  37  60  87 119 158 200 247 304 361
#
# _framework density 19.269262999999999
#
# number of rings (size 3 to 8) (size 9 to 14) (size 15 to 20)
#    1.200    1.000    0.000    3.600    0.000    3.600 
#    0.000   10.000    0.000    0.000    0.000    0.000 
#    0.000    0.000    0.000    0.000    0.000    0.000 
#
# Total GULP energy -495761.574412 kJ/mol
# GULP energy per Si atom -12394.039360 kJ/mol
# Density = 1.922541 g / cm^3
# Si number density = 19.269263 Si / 1000 Ang^3
#
#
#
# Elastic Constant Matrix: (Units=GPa)
#
#
# Indices 1 2 3 4 5 6 
#
# 1 88.7756 22.4526 27.5413 0.0000 0.0000 0.0000
# 2 22.4526 74.5042 16.2079 0.0000 0.0000 0.0000
# 3 27.5413 16.2079 95.4080 0.0000 0.0000 0.0000
# 4 0.0000 0.0000 0.0000 26.0548 0.0000 0.0000
# 5 0.0000 0.0000 0.0000 0.0000 31.1967 0.0000
# 6 0.0000 0.0000 0.0000 0.0000 0.0000 30.9563
#
#
#
# Elastic Compliance Matrix: (Units=1/GPa)
#
#
# Indices 1 2 3 4 5 6 
#
# 1 0.013085 -0.003241 -0.003227 0.000000 0.000000 0.000000
# 2 -0.003241 0.014740 -0.001568 0.000000 0.000000 0.000000
# 3 -0.003227 -0.001568 0.011679 0.000000 0.000000 0.000000
# 4 0.000000 0.000000 0.000000 0.038381 0.000000 0.000000
# 5 0.000000 0.000000 0.000000 0.000000 0.032055 0.000000
# 6 0.000000 0.000000 0.000000 0.000000 0.000000 0.032304
#
#
# Mechanical properties :
#
#
# Convention : Reuss Voigt Hill
#
# Bulk Modulus (GPa) = 42.67735 43.45458 43.06597
# Shear Modulus (GPa) = 30.09751 30.47395 30.28573
#
# Velocity S-wave (km/s) = 3.95643 3.98110 3.96878
# Velocity P-wave (km/s) = 6.56255 6.61305 6.58785
#
# Compressibility (1/GPa) = 0.02343163
#
# Stress axis : x y z
#
# Youngs Moduli (GPa) = 76.42238 67.84220 85.62265
#
# Poissons Ratio (x) = 0.21991 0.27627
# Poissons Ratio (y) = 0.24772 0.13429
# Poissons Ratio (z) = 0.24659 0.10640
#
# Static dielectric constant tensor:
#      x y z
#    x 3.364830 0.000000 0.000000 
#    y 0.000000 3.419070 0.000000 
#    z 0.000000 0.000000 3.513030 
# 
# 
# High freq. dielectric constant tensor:
#      x y z
#    x 1.736440 0.000000 0.000000 
#    y 0.000000 1.741680 0.000000 
#    z 0.000000 0.000000 1.751350 
# 
# From -- ./inp_files/8790.got.cif
#   From: 2010.06.25/outbox.cif.g09.slc.cpg/sg58_5_cif.got.tgz:8790.got - 2010.06.26 21:38:00.
