data_PCOD8237598
_publ_section_title
;
Structure prediction by ZEFSAII (Michael W. Deem and Ramdas Pophale) SiO2 
 PCOD8237598
Probable space group: P N N M
;
_chemical_formula_sum "Si O2"
_cell_formula_units_Z 64
_cell_length_a 12.233523
_cell_length_b 16.191907
_cell_length_c 16.811733
_cell_angle_alpha 90.000000
_cell_angle_beta 90.000000
_cell_angle_gamma 90.000000
_cell_volume 3330.136441
_symmetry_space_group_name_H-M "P N N M"
_symmetry_group_IT_number 58
_symmetry_cell_setting 'orthorhombic'
loop_
_space_group_symop_operation_xyz
x,y,z
-x,-y,z
1/2+x,1/2-y,1/2-z
1/2-x,1/2+y,1/2-z
-x,-y,-z
x,y,-z
1/2-x,1/2+y,1/2+z
1/2+x,1/2-y,1/2+z
loop_
_atom_site_type_symbol
_atom_site_label
_atom_site_fract_x
_atom_site_fract_y
_atom_site_fract_z
Si Si1 0.678210 0.381610 0.160209
Si Si2 0.377325 0.209676 0.406909
Si Si3 0.421414 0.397873 0.407474
Si Si4 0.203155 0.946254 0.408860
Si Si5 0.383647 0.830385 0.405746
Si Si6 0.466765 0.315578 0.906119
Si Si7 0.716040 0.805344 0.093316
Si Si8 0.152337 0.060998 0.837465
O O1 0.789329 0.330175 0.152376
O O2 0.684607 0.456956 0.098410
O O3 0.581792 0.318128 0.138964
O O4 0.656933 0.425395 0.243692
O O5 0.356535 0.186758 0.500000
O O6 0.370437 0.307972 0.395574
O O7 0.492717 0.174531 0.373976
O O8 0.422543 0.423265 0.500000
O O9 0.347917 0.463545 0.358204
O O10 0.545151 0.397495 0.375659
O O11 0.202734 0.919608 0.500000
O O12 0.322471 0.914997 0.377026
O O13 0.103338 0.893294 0.372403
O O14 0.392478 0.822674 0.500000
O O15 0.310937 0.754636 0.372516
O O16 0.403157 0.230835 0.883177
O O17 0.488900 0.320527 0.000000
O O18 0.737772 0.896391 0.128103
O O19 0.725077 0.810086 0.000000
#
# Coordination Sequence:
#
# PCOD8237598 Si02
#       8
#     8   8   8   8   8   8   8   8
#     4  12  24  33  48  84 122 156 178 216 285 355
#     4  10  20  37  60  82 114 149 191 240 281 338
#     4  10  21  39  63  85 106 143 198 253 289 322
#     4   9  18  33  54  77 107 148 192 232 265 319
#     4   8  15  31  56  83 101 134 188 236 278 313
#     4   9  19  34  56  78 106 149 189 221 259 329
#     4   9  16  34  59  79 100 134 185 237 275 319
#     4  11  22  34  55  87 112 142 179 240 299 343
#
# _framework density 19.218430999999999
#
# number of rings (size 3 to 8) (size 9 to 14) (size 15 to 20)
#    0.000    2.250    1.250    4.500    3.500    2.500 
#    2.250    1.875    0.000    2.250    0.000    3.500 
#    0.000    0.000    0.000    0.000    0.000    0.000 
#
# Total GULP energy -793182.083312 kJ/mol
# GULP energy per Si atom -12393.470052 kJ/mol
# Density = 1.917469 g / cm^3
# Si number density = 19.218431 Si / 1000 Ang^3
#
#
#
# Elastic Constant Matrix: (Units=GPa)
#
#
# Indices 1 2 3 4 5 6 
#
# 1 118.0820 29.5282 30.4783 0.0000 0.0000 0.0000
# 2 29.5282 54.1448 13.4631 0.0000 0.0000 0.0000
# 3 30.4783 13.4631 56.0666 0.0000 0.0000 0.0000
# 4 0.0000 0.0000 0.0000 18.6556 0.0000 0.0000
# 5 0.0000 0.0000 0.0000 0.0000 16.3421 0.0000
# 6 0.0000 0.0000 0.0000 0.0000 0.0000 31.8312
#
#
#
# Elastic Compliance Matrix: (Units=1/GPa)
#
#
# Indices 1 2 3 4 5 6 
#
# 1 0.010890 -0.004751 -0.004779 0.000000 0.000000 0.000000
# 2 -0.004751 0.021714 -0.002632 0.000000 0.000000 0.000000
# 3 -0.004779 -0.002632 0.021066 0.000000 0.000000 0.000000
# 4 0.000000 0.000000 0.000000 0.053603 0.000000 0.000000
# 5 0.000000 0.000000 0.000000 0.000000 0.061192 0.000000
# 6 0.000000 0.000000 0.000000 0.000000 0.000000 0.031416
#
#
# Mechanical properties :
#
#
# Convention : Reuss Voigt Hill
#
# Bulk Modulus (GPa) = 34.07488 41.69251 37.88370
# Shear Modulus (GPa) = 21.36875 23.68736 22.52805
#
# Velocity S-wave (km/s) = 3.33812 3.51455 3.42747
# Velocity P-wave (km/s) = 5.71193 6.18147 5.95133
#
# Compressibility (1/GPa) = 0.02934713
#
# Stress axis : x y z
#
# Youngs Moduli (GPa) = 91.82514 46.05288 47.47007
#
# Poissons Ratio (x) = 0.21878 0.22687
# Poissons Ratio (y) = 0.43623 0.12492
# Poissons Ratio (z) = 0.43886 0.12119
#
# Static dielectric constant tensor:
#      x y z
#    x 3.556200 0.000000 0.000000 
#    y 0.000000 3.584690 0.000000 
#    z 0.000000 0.000000 3.199800 
# 
# 
# High freq. dielectric constant tensor:
#      x y z
#    x 1.738020 0.000000 0.000000 
#    y 0.000000 1.742210 0.000000 
#    z 0.000000 0.000000 1.720130 
# 
# From -- ./inp_files/21519.got.cif
#   From: 2010.06.25/outbox.cif.g09.slc.cpg/sg58_11_cif.got.tgz:21519.got - 2010.06.26 21:38:00.
