data_PCOD8237254
_publ_section_title
;
Structure prediction by ZEFSAII (Michael W. Deem and Ramdas Pophale) SiO2 
 PCOD8237254
Probable space group: P N N M
;
_chemical_formula_sum "Si O2"
_cell_formula_units_Z 64
_cell_length_a 22.200059
_cell_length_b 16.672335
_cell_length_c 9.141052
_cell_angle_alpha 90.000000
_cell_angle_beta 90.000000
_cell_angle_gamma 90.000000
_cell_volume 3383.348514
_symmetry_space_group_name_H-M "P N N M"
_symmetry_group_IT_number 58
_symmetry_cell_setting 'orthorhombic'
loop_
_space_group_symop_operation_xyz
x,y,z
-x,-y,z
1/2+x,1/2-y,1/2-z
1/2-x,1/2+y,1/2-z
-x,-y,-z
x,y,-z
1/2-x,1/2+y,1/2+z
1/2+x,1/2-y,1/2+z
loop_
_atom_site_type_symbol
_atom_site_label
_atom_site_fract_x
_atom_site_fract_y
_atom_site_fract_z
Si Si1 0.331063 0.573880 0.670160
Si Si2 0.625039 0.572319 0.173498
Si Si3 0.803806 0.474453 0.332385
Si Si4 0.970909 0.202396 0.668301
Si Si5 0.093236 0.224736 0.834543
Si Si6 0.323257 0.864140 0.330267
Si Si7 0.787966 0.188948 0.827183
Si Si8 0.136149 0.687880 0.333560
O O1 0.339069 0.553390 0.500000
O O2 0.376456 0.517536 0.763655
O O3 0.261072 0.561446 0.716505
O O4 0.351762 0.664525 0.706446
O O5 0.565750 0.622862 0.218347
O O6 0.682532 0.612098 0.250180
O O7 0.633999 0.571805 0.000000
O O8 0.800078 0.504858 0.500000
O O9 0.826572 0.545527 0.228906
O O10 0.855756 0.407088 0.316241
O O11 0.986066 0.195741 0.500000
O O12 0.931626 0.282633 0.702368
O O13 0.034199 0.206151 0.744856
O O14 0.113431 0.317227 0.812111
O O15 0.074274 0.209261 0.000000
O O16 0.303178 0.865165 0.500000
O O17 0.279546 0.810503 0.231154
O O18 0.818819 0.271201 0.779910
O O19 0.790780 0.178767 0.000000
O O20 0.152525 0.715075 0.500000
#
# Coordination Sequence:
#
# PCOD8237254 Si02
#       8
#     8   8   8   8   8   8   8   8
#     4  10  20  35  56  84 115 145 185 230 279 341
#     4  10  20  35  56  83 115 150 182 228 284 331
#     4  10  20  36  59  86 114 144 183 232 284 341
#     4   9  20  38  58  80 109 149 196 234 273 331
#     4  10  23  40  57  79 111 153 190 233 285 331
#     4  11  22  37  56  80 113 149 185 230 289 342
#     4  11  20  32  54  84 113 145 185 226 276 338
#     4   9  19  37  59  82 112 149 186 232 285 331
#
# _framework density 18.916170000000001
#
# number of rings (size 3 to 8) (size 9 to 14) (size 15 to 20)
#    0.000    2.000    1.250    3.375    0.000    7.000 
#    0.000    4.375    0.000    3.750    0.000    0.000 
#    0.000    0.000    0.000    0.000    0.000    0.000 
#
# Total GULP energy -793419.489747 kJ/mol
# GULP energy per Si atom -12397.179527 kJ/mol
# Density = 1.887312 g / cm^3
# Si number density = 18.916170 Si / 1000 Ang^3
#
#
#
# Elastic Constant Matrix: (Units=GPa)
#
#
# Indices 1 2 3 4 5 6 
#
# 1 66.8265 39.8704 26.9346 0.0000 0.0000 0.0000
# 2 39.8704 103.2074 42.6500 0.0000 0.0000 0.0000
# 3 26.9346 42.6500 76.3889 0.0000 0.0000 0.0000
# 4 0.0000 0.0000 0.0000 27.1015 0.0000 0.0000
# 5 0.0000 0.0000 0.0000 0.0000 29.1544 0.0000
# 6 0.0000 0.0000 0.0000 0.0000 0.0000 20.2806
#
#
#
# Elastic Compliance Matrix: (Units=1/GPa)
#
#
# Indices 1 2 3 4 5 6 
#
# 1 0.020176 -0.006311 -0.003591 0.000000 0.000000 0.000000
# 2 -0.006311 0.014569 -0.005909 0.000000 0.000000 0.000000
# 3 -0.003591 -0.005909 0.017656 0.000000 0.000000 0.000000
# 4 0.000000 0.000000 0.000000 0.036898 0.000000 0.000000
# 5 0.000000 0.000000 0.000000 0.000000 0.034300 0.000000
# 6 0.000000 0.000000 0.000000 0.000000 0.000000 0.049308
#
#
# Mechanical properties :
#
#
# Convention : Reuss Voigt Hill
#
# Bulk Modulus (GPa) = 48.12176 51.70365 49.91271
# Shear Modulus (GPa) = 23.64555 24.43850 24.04203
#
# Velocity S-wave (km/s) = 3.53939 3.59825 3.56894
# Velocity P-wave (km/s) = 6.49598 6.68248 6.58989
#
# Compressibility (1/GPa) = 0.02078062
#
# Stress axis : x y z
#
# Youngs Moduli (GPa) = 49.56277 68.63886 56.63708
#
# Poissons Ratio (x) = 0.43315 0.20337
# Poissons Ratio (y) = 0.31277 0.33468
# Poissons Ratio (z) = 0.17797 0.40560
#
# Static dielectric constant tensor:
#      x y z
#    x 3.279100 0.000000 0.000000 
#    y 0.000000 3.539780 0.000000 
#    z 0.000000 0.000000 3.457040 
# 
# 
# High freq. dielectric constant tensor:
#      x y z
#    x 1.715990 0.000000 0.000000 
#    y 0.000000 1.737310 0.000000 
#    z 0.000000 0.000000 1.734950 
# 
# From -- ./inp_files/10008.got.cif
#   From: 2010.06.25/outbox.cif.g09.slc.cpg/sg58_6_cif.got.tgz:10008.got - 2010.06.26 21:38:00.
