data_PCOD8237206
_publ_section_title
;
Structure prediction by ZEFSAII (Michael W. Deem and Ramdas Pophale) SiO2 
 PCOD8237206
Probable space group: P N N M
;
_chemical_formula_sum "Si O2"
_cell_formula_units_Z 48
_cell_length_a 7.886854
_cell_length_b 34.824851
_cell_length_c 9.425379
_cell_angle_alpha 90.000000
_cell_angle_beta 90.000000
_cell_angle_gamma 90.000000
_cell_volume 2588.760603
_symmetry_space_group_name_H-M "P N N M"
_symmetry_group_IT_number 58
_symmetry_cell_setting 'orthorhombic'
loop_
_space_group_symop_operation_xyz
x,y,z
-x,-y,z
1/2+x,1/2-y,1/2-z
1/2-x,1/2+y,1/2-z
-x,-y,-z
x,y,-z
1/2-x,1/2+y,1/2+z
1/2+x,1/2-y,1/2+z
loop_
_atom_site_type_symbol
_atom_site_label
_atom_site_fract_x
_atom_site_fract_y
_atom_site_fract_z
Si Si1 0.745642 0.343345 0.164838
Si Si2 0.096306 0.959411 0.339011
Si Si3 0.559678 0.712920 0.164697
Si Si4 0.191464 0.503515 0.651104
Si Si5 0.659563 0.416499 0.332826
Si Si6 0.948407 0.712996 0.835628
O O1 0.573599 0.320407 0.204045
O O2 0.752897 0.380162 0.265494
O O3 0.918398 0.320550 0.200643
O O4 0.742718 0.355539 0.000000
O O5 0.120382 0.945777 0.500000
O O6 0.273144 0.970062 0.265518
O O7 0.016105 0.924339 0.250750
O O8 0.000000 0.000000 0.325301
O O9 0.754115 0.700733 0.202939
O O10 0.504878 0.750203 0.249162
O O11 0.544408 0.723280 0.000000
O O12 0.290940 0.496810 0.500000
O O13 0.227016 0.546584 0.704099
O O14 0.000000 0.500000 0.614853
O O15 0.629009 0.409867 0.500000
O O16 0.961283 0.724064 0.000000
#
# Coordination Sequence:
#
# PCOD8237206 Si02
#       6
#     8   8   8   8   8   8
#     4  10  21  37  54  77 114 148 178 226 277 320
#     4   9  17  31  53  77 101 133 173 212 256 314
#     4  10  20  35  57  82 108 141 183 224 270 326
#     4   9  18  34  55  78 108 140 176 221 266 318
#     4  10  20  35  55  78 105 140 177 217 270 322
#     4  10  20  35  57  82 108 142 183 224 271 324
#
# _framework density 18.541689999999999
#
# number of rings (size 3 to 8) (size 9 to 14) (size 15 to 20)
#    0.000    2.333    1.667    1.000    0.000    4.333 
#    3.000    0.000    0.000    0.000    0.000    0.000 
#    0.000    0.000    0.000    0.000    0.000    0.000 
#
# Total GULP energy -594789.021542 kJ/mol
# GULP energy per Si atom -12391.437949 kJ/mol
# Density = 1.849949 g / cm^3
# Si number density = 18.541690 Si / 1000 Ang^3
#
#
#
# Elastic Constant Matrix: (Units=GPa)
#
#
# Indices 1 2 3 4 5 6 
#
# 1 114.8156 33.9679 30.4705 0.0000 0.0000 0.0000
# 2 33.9679 73.7667 42.0542 0.0000 0.0000 0.0000
# 3 30.4705 42.0542 85.4413 0.0000 0.0000 0.0000
# 4 0.0000 0.0000 0.0000 36.6355 0.0000 0.0000
# 5 0.0000 0.0000 0.0000 0.0000 20.1937 0.0000
# 6 0.0000 0.0000 0.0000 0.0000 0.0000 19.8145
#
#
#
# Elastic Compliance Matrix: (Units=1/GPa)
#
#
# Indices 1 2 3 4 5 6 
#
# 1 0.010291 -0.003679 -0.001859 0.000000 0.000000 0.000000
# 2 -0.003679 0.020159 -0.008610 0.000000 0.000000 0.000000
# 3 -0.001859 -0.008610 0.016605 0.000000 0.000000 0.000000
# 4 0.000000 0.000000 0.000000 0.027296 0.000000 0.000000
# 5 0.000000 0.000000 0.000000 0.000000 0.049520 0.000000
# 6 0.000000 0.000000 0.000000 0.000000 0.000000 0.050468
#
#
# Mechanical properties :
#
#
# Convention : Reuss Voigt Hill
#
# Bulk Modulus (GPa) = 53.30981 54.11207 53.71094
# Shear Modulus (GPa) = 23.93607 26.49749 25.21678
#
# Velocity S-wave (km/s) = 3.59685 3.78441 3.69182
# Velocity P-wave (km/s) = 6.78701 6.95292 6.87047
#
# Compressibility (1/GPa) = 0.01875827
#
# Stress axis : x y z
#
# Youngs Moduli (GPa) = 97.16766 49.60564 60.22270
#
# Poissons Ratio (x) = 0.18250 0.11198
# Poissons Ratio (y) = 0.35747 0.51853
# Poissons Ratio (z) = 0.18068 0.42712
#
# Static dielectric constant tensor:
#      x y z
#    x 3.619140 0.000000 0.000000 
#    y 0.000000 3.192700 0.000000 
#    z 0.000000 0.000000 3.508540 
# 
# 
# High freq. dielectric constant tensor:
#      x y z
#    x 1.718300 0.000000 0.000000 
#    y 0.000000 1.701380 0.000000 
#    z 0.000000 0.000000 1.728260 
# 
# From -- ./inp_files/2943.got.cif
#   From: 2010.06.25/outbox.cif.g09.slc.cpg/sg58_2_cif.got.tgz:2943.got - 2010.06.26 21:38:00.
