data_PCOD8237767
_publ_section_title
;
Structure prediction by ZEFSAII (Michael W. Deem and Ramdas Pophale) SiO2 
 PCOD8237767
Probable space group: P N N M
;
_chemical_formula_sum "Si O2"
_cell_formula_units_Z 48
_cell_length_a 9.209416
_cell_length_b 7.437481
_cell_length_c 33.817497
_cell_angle_alpha 90.000000
_cell_angle_beta 90.000000
_cell_angle_gamma 90.000000
_cell_volume 2316.324605
_symmetry_space_group_name_H-M "P N N M"
_symmetry_group_IT_number 58
_symmetry_cell_setting 'orthorhombic'
loop_
_space_group_symop_operation_xyz
x,y,z
-x,-y,z
1/2+x,1/2-y,1/2-z
1/2-x,1/2+y,1/2-z
-x,-y,-z
x,y,-z
1/2-x,1/2+y,1/2+z
1/2+x,1/2-y,1/2+z
loop_
_atom_site_type_symbol
_atom_site_label
_atom_site_fract_x
_atom_site_fract_y
_atom_site_fract_z
Si Si1 0.146650 0.782088 0.217469
Si Si2 0.885435 0.236929 0.545090
Si Si3 0.840269 0.032937 0.046751
Si Si4 0.314814 0.681179 0.706301
Si Si5 0.314118 0.628214 0.925328
Si Si6 0.667658 0.006005 0.348104
O O1 0.204066 0.753361 0.261329
O O2 0.196285 0.622024 0.189185
O O3 0.974722 0.780686 0.222583
O O4 0.205538 0.968732 0.198591
O O5 0.931485 0.283920 0.500000
O O6 0.776620 0.387443 0.562749
O O7 0.028420 0.225779 0.572687
O O8 0.807802 0.042706 0.545370
O O9 0.805517 0.232791 0.060440
O O10 0.843018 0.016694 0.000000
O O11 0.000000 0.000000 0.064663
O O12 0.291436 0.790829 0.665345
O O13 0.278451 0.557502 0.881692
O O14 0.500000 0.000000 0.362756
#
# Coordination Sequence:
#
# PCOD8237767 Si02
#       6
#     8   8   8   8   8   8
#     4  10  20  38  63  87 115 156 200 255 306 369
#     4  10  22  42  67  91 126 171 214 263 320 385
#     4  10  22  39  65  96 124 161 213 262 314 384
#     4  10  20  38  63  87 115 154 205 250 308 372
#     4  11  22  39  63  89 128 168 211 257 326 378
#     4  10  23  39  58  88 126 164 204 260 321 374
#
# _framework density 20.722484999999999
#
# number of rings (size 3 to 8) (size 9 to 14) (size 15 to 20)
#    0.000    1.833    1.667    2.500    2.333    2.667 
#    9.000    2.500    0.000    0.000    0.000    0.000 
#    0.000    0.000    0.000    0.000    0.000    0.000 
#
# Total GULP energy -595208.425391 kJ/mol
# GULP energy per Si atom -12400.175529 kJ/mol
# Density = 2.067532 g / cm^3
# Si number density = 20.722485 Si / 1000 Ang^3
#
#
#
# Elastic Constant Matrix: (Units=GPa)
#
#
# Indices 1 2 3 4 5 6 
#
# 1 100.9294 41.7806 44.7324 0.0000 0.0000 0.0000
# 2 41.7806 100.1776 -0.2097 0.0000 0.0000 0.0000
# 3 44.7324 -0.2097 46.8624 0.0000 0.0000 0.0000
# 4 0.0000 0.0000 0.0000 25.6990 0.0000 0.0000
# 5 0.0000 0.0000 0.0000 0.0000 25.7020 0.0000
# 6 0.0000 0.0000 0.0000 0.0000 0.0000 32.2583
#
#
#
# Elastic Compliance Matrix: (Units=1/GPa)
#
#
# Indices 1 2 3 4 5 6 
#
# 1 0.024608 -0.010312 -0.023536 0.000000 0.000000 0.000000
# 2 -0.010312 0.014304 0.009908 0.000000 0.000000 0.000000
# 3 -0.023536 0.009908 0.043849 0.000000 0.000000 0.000000
# 4 0.000000 0.000000 0.000000 0.038912 0.000000 0.000000
# 5 0.000000 0.000000 0.000000 0.000000 0.038907 0.000000
# 6 0.000000 0.000000 0.000000 0.000000 0.000000 0.031000
#
#
# Mechanical properties :
#
#
# Convention : Reuss Voigt Hill
#
# Bulk Modulus (GPa) = 28.66925 46.73068 37.69996
# Shear Modulus (GPa) = 19.91334 27.50960 23.71147
#
# Velocity S-wave (km/s) = 3.10329 3.64747 3.38633
# Velocity P-wave (km/s) = 5.16773 6.35125 5.78981
#
# Compressibility (1/GPa) = 0.03488058
#
# Stress axis : x y z
#
# Youngs Moduli (GPa) = 40.63731 69.91072 22.80537
#
# Poissons Ratio (x) = 0.72095 0.53674
# Poissons Ratio (y) = 0.41907 -0.22595
# Poissons Ratio (z) = 0.95642 -0.69265
#
# Static dielectric constant tensor:
#      x y z
#    x 3.812820 0.000000 0.000000 
#    y 0.000000 4.210990 0.000000 
#    z 0.000000 0.000000 3.441930 
# 
# 
# High freq. dielectric constant tensor:
#      x y z
#    x 1.807610 0.000000 0.000000 
#    y 0.000000 1.832340 0.000000 
#    z 0.000000 0.000000 1.783600 
# 
# From -- ./inp_files/34540.got.cif
#   From: 2010.06.25/outbox.cif.g09.slc.cpg/sg58_18_cif.got.tgz:34540.got - 2010.06.26 21:38:00.
