data_PCOD8237383
_publ_section_title
;
Structure prediction by ZEFSAII (Michael W. Deem and Ramdas Pophale) SiO2 
 PCOD8237383
Probable space group: P N N M
;
_chemical_formula_sum "Si O2"
_cell_formula_units_Z 48
_cell_length_a 12.192108
_cell_length_b 11.276935
_cell_length_c 20.142110
_cell_angle_alpha 90.000000
_cell_angle_beta 90.000000
_cell_angle_gamma 90.000000
_cell_volume 2769.330837
_symmetry_space_group_name_H-M "P N N M"
_symmetry_group_IT_number 58
_symmetry_cell_setting 'orthorhombic'
loop_
_space_group_symop_operation_xyz
x,y,z
-x,-y,z
1/2+x,1/2-y,1/2-z
1/2-x,1/2+y,1/2-z
-x,-y,-z
x,y,-z
1/2-x,1/2+y,1/2+z
1/2+x,1/2-y,1/2+z
loop_
_atom_site_type_symbol
_atom_site_label
_atom_site_fract_x
_atom_site_fract_y
_atom_site_fract_z
Si Si1 0.311091 0.226355 0.851944
Si Si2 0.882926 0.644021 0.206894
Si Si3 0.490352 0.361053 0.074576
Si Si4 0.868576 0.370680 0.790968
Si Si5 0.372073 0.997576 0.922488
Si Si6 0.176815 0.269958 0.348904
O O1 0.189495 0.280550 0.844937
O O2 0.387151 0.330042 0.880041
O O3 0.358574 0.182084 0.782318
O O4 0.311690 0.119430 0.904340
O O5 0.837197 0.509700 0.211457
O O6 0.877545 0.707928 0.277765
O O7 0.008008 0.645839 0.182314
O O8 0.500000 0.500000 0.072057
O O9 0.599840 0.308698 0.105417
O O10 0.476069 0.308860 0.000000
O O11 0.791390 0.299437 0.841664
O O12 0.500000 0.000000 0.899216
O O13 0.305166 0.895416 0.884778
O O14 0.363976 0.974023 0.000000
#
# Coordination Sequence:
#
# PCOD8237383 Si02
#       6
#     8   8   8   8   8   8
#     4  11  20  34  55  83 112 144 187 228 282 330
#     4  10  20  36  56  79 113 149 183 229 275 337
#     4  11  22  35  53  81 115 146 185 234 279 328
#     4  10  20  36  56  79 113 149 183 229 275 337
#     4  11  20  34  59  85 113 147 184 228 280 334
#     4  11  20  34  55  83 112 144 187 228 282 330
#
# _framework density 17.332706000000002
#
# number of rings (size 3 to 8) (size 9 to 14) (size 15 to 20)
#    0.000    1.333    5.000    2.000    0.000    0.000 
#    0.000    0.833    0.000    5.000    0.000   11.667 
#    0.000    0.000    0.000    0.000    0.000    0.000 
#
# Total GULP energy -595306.058076 kJ/mol
# GULP energy per Si atom -12402.209543 kJ/mol
# Density = 1.729326 g / cm^3
# Si number density = 17.332706 Si / 1000 Ang^3
#
#
#
# Elastic Constant Matrix: (Units=GPa)
#
#
# Indices 1 2 3 4 5 6 
#
# 1 83.2015 37.5613 23.7322 0.0000 0.0000 0.0000
# 2 37.5613 86.3509 21.6823 0.0000 0.0000 0.0000
# 3 23.7322 21.6823 52.8208 0.0000 0.0000 0.0000
# 4 0.0000 0.0000 0.0000 59.9734 0.0000 0.0000
# 5 0.0000 0.0000 0.0000 0.0000 25.2937 0.0000
# 6 0.0000 0.0000 0.0000 0.0000 0.0000 32.5787
#
#
#
# Elastic Compliance Matrix: (Units=1/GPa)
#
#
# Indices 1 2 3 4 5 6 
#
# 1 0.015988 -0.005743 -0.004826 0.000000 0.000000 0.000000
# 2 -0.005743 0.014974 -0.003567 0.000000 0.000000 0.000000
# 3 -0.004826 -0.003567 0.022564 0.000000 0.000000 0.000000
# 4 0.000000 0.000000 0.000000 0.016674 0.000000 0.000000
# 5 0.000000 0.000000 0.000000 0.000000 0.039536 0.000000
# 6 0.000000 0.000000 0.000000 0.000000 0.000000 0.030695
#
#
# Mechanical properties :
#
#
# Convention : Reuss Voigt Hill
#
# Bulk Modulus (GPa) = 39.59474 43.14720 41.37097
# Shear Modulus (GPa) = 28.22935 32.86231 30.54583
#
# Velocity S-wave (km/s) = 4.04006 4.35900 4.20256
# Velocity P-wave (km/s) = 6.68254 7.09098 6.88979
#
# Compressibility (1/GPa) = 0.02525588
#
# Stress axis : x y z
#
# Youngs Moduli (GPa) = 62.54622 66.78147 44.31785
#
# Poissons Ratio (x) = 0.38351 0.21388
# Poissons Ratio (y) = 0.35919 0.15806
# Poissons Ratio (z) = 0.30185 0.23818
#
# Static dielectric constant tensor:
#      x y z
#    x 3.195240 0.000000 0.000000 
#    y 0.000000 3.477270 0.000000 
#    z 0.000000 0.000000 3.205360 
# 
# 
# High freq. dielectric constant tensor:
#      x y z
#    x 1.653170 0.000000 0.000000 
#    y 0.000000 1.688450 0.000000 
#    z 0.000000 0.000000 1.661330 
# 
# From -- ./inp_files/14543.got.cif
#   From: 2010.06.25/outbox.cif.g09.slc.cpg/sg58_8_cif.got.tgz:14543.got - 2010.06.26 21:38:00.
