data_PCOD8237121
_publ_section_title
;
Structure prediction by ZEFSAII (Michael W. Deem and Ramdas Pophale) SiO2 
 PCOD8237121
Probable space group: P N N M
;
_chemical_formula_sum "Si O2"
_cell_formula_units_Z 48
_cell_length_a 12.412528
_cell_length_b 18.672908
_cell_length_c 10.370318
_cell_angle_alpha 90.000000
_cell_angle_beta 90.000000
_cell_angle_gamma 90.000000
_cell_volume 2403.611497
_symmetry_space_group_name_H-M "P N N M"
_symmetry_group_IT_number 58
_symmetry_cell_setting 'orthorhombic'
loop_
_space_group_symop_operation_xyz
x,y,z
-x,-y,z
1/2+x,1/2-y,1/2-z
1/2-x,1/2+y,1/2-z
-x,-y,-z
x,y,-z
1/2-x,1/2+y,1/2+z
1/2+x,1/2-y,1/2+z
loop_
_atom_site_type_symbol
_atom_site_label
_atom_site_fract_x
_atom_site_fract_y
_atom_site_fract_z
Si Si1 0.355309 0.319774 0.240935
Si Si2 0.383830 0.466178 0.645155
Si Si3 0.630541 0.206103 0.647677
Si Si4 0.921428 0.817219 0.638358
Si Si5 0.270827 0.553245 0.146522
Si Si6 0.398076 0.165951 0.351470
O O1 0.384460 0.379501 0.348142
O O2 0.239847 0.337171 0.175642
O O3 0.449356 0.322964 0.135293
O O4 0.351841 0.239798 0.296537
O O5 0.500000 0.500000 0.676768
O O6 0.349161 0.488343 0.500000
O O7 0.295631 0.490986 0.750853
O O8 0.628105 0.233521 0.500000
O O9 0.623624 0.274104 0.740515
O O10 0.525959 0.156036 0.674743
O O11 0.887620 0.782057 0.500000
O O12 0.875037 0.896465 0.646537
O O13 0.166853 0.597103 0.201502
O O14 0.251281 0.523132 0.000000
O O15 0.369146 0.169209 0.500000
#
# Coordination Sequence:
#
# PCOD8237121 Si02
#       6
#     8   8   8   8   8   8
#     4  11  20  36  58  87 120 151 191 243 289 348
#     4  11  24  39  58  89 122 156 192 240 300 355
#     4  10  21  35  57  87 116 148 195 243 287 340
#     4  10  20  34  55  84 117 151 189 234 290 339
#     4  10  20  38  59  81 114 154 192 237 288 348
#     4   9  19  37  59  84 113 154 196 236 287 343
#
# _framework density 19.969949
#
# number of rings (size 3 to 8) (size 9 to 14) (size 15 to 20)
#    0.000    1.833    3.333    1.000    0.000    3.667 
#    0.000    1.667    0.000    4.000    0.000    0.000 
#    0.000    0.000    0.000    0.000    0.000    0.000 
#
# Total GULP energy -594808.639727 kJ/mol
# GULP energy per Si atom -12391.846661 kJ/mol
# Density = 1.992450 g / cm^3
# Si number density = 19.969949 Si / 1000 Ang^3
#
#
#
# Elastic Constant Matrix: (Units=GPa)
#
#
# Indices 1 2 3 4 5 6 
#
# 1 130.5919 19.5227 25.0079 0.0000 0.0000 0.0000
# 2 19.5227 40.4597 31.7838 0.0000 0.0000 0.0000
# 3 25.0079 31.7838 102.4183 0.0000 0.0000 0.0000
# 4 0.0000 0.0000 0.0000 25.9942 0.0000 0.0000
# 5 0.0000 0.0000 0.0000 0.0000 19.3967 0.0000
# 6 0.0000 0.0000 0.0000 0.0000 0.0000 26.2821
#
#
#
# Elastic Compliance Matrix: (Units=1/GPa)
#
#
# Indices 1 2 3 4 5 6 
#
# 1 0.008336 -0.003204 -0.001041 0.000000 0.000000 0.000000
# 2 -0.003204 0.033916 -0.009743 0.000000 0.000000 0.000000
# 3 -0.001041 -0.009743 0.013042 0.000000 0.000000 0.000000
# 4 0.000000 0.000000 0.000000 0.038470 0.000000 0.000000
# 5 0.000000 0.000000 0.000000 0.000000 0.051555 0.000000
# 6 0.000000 0.000000 0.000000 0.000000 0.000000 0.038049
#
#
# Mechanical properties :
#
#
# Convention : Reuss Voigt Hill
#
# Bulk Modulus (GPa) = 36.60749 47.34431 41.97590
# Shear Modulus (GPa) = 22.68097 27.47830 25.07963
#
# Velocity S-wave (km/s) = 3.37375 3.71345 3.54767
# Velocity P-wave (km/s) = 5.79201 6.49196 6.15195
#
# Compressibility (1/GPa) = 0.02731681
#
# Stress axis : x y z
#
# Youngs Moduli (GPa) = 119.96408 29.48480 76.67800
#
# Poissons Ratio (x) = 0.09448 0.07982
# Poissons Ratio (y) = 0.38442 0.74705
# Poissons Ratio (z) = 0.12487 0.28726
#
# Static dielectric constant tensor:
#      x y z
#    x 3.930250 0.000000 0.000000 
#    y 0.000000 3.360300 0.000000 
#    z 0.000000 0.000000 3.640930 
# 
# 
# High freq. dielectric constant tensor:
#      x y z
#    x 1.790240 0.000000 0.000000 
#    y 0.000000 1.748800 0.000000 
#    z 0.000000 0.000000 1.776020 
# 
# From -- ./inp_files/14405.got.cif
#   From: 2010.06.25/outbox.cif.g09.slc.cpg/sg58_8_cif.got.tgz:14405.got - 2010.06.26 21:38:00.
