data_PCOD8237302
_publ_section_title
;
Structure prediction by ZEFSAII (Michael W. Deem and Ramdas Pophale) SiO2 
 PCOD8237302
Probable space group: P N N M
;
_chemical_formula_sum "Si O2"
_cell_formula_units_Z 56
_cell_length_a 22.214914
_cell_length_b 14.206612
_cell_length_c 8.671784
_cell_angle_alpha 90.000000
_cell_angle_beta 90.000000
_cell_angle_gamma 90.000000
_cell_volume 2736.803443
_symmetry_space_group_name_H-M "P N N M"
_symmetry_group_IT_number 58
_symmetry_cell_setting 'orthorhombic'
loop_
_space_group_symop_operation_xyz
x,y,z
-x,-y,z
1/2+x,1/2-y,1/2-z
1/2-x,1/2+y,1/2-z
-x,-y,-z
x,y,-z
1/2-x,1/2+y,1/2+z
1/2+x,1/2-y,1/2+z
loop_
_atom_site_type_symbol
_atom_site_label
_atom_site_fract_x
_atom_site_fract_y
_atom_site_fract_z
Si Si1 0.215549 0.607368 0.324254
Si Si2 0.345243 0.598363 0.179685
Si Si3 0.503451 0.108189 0.820643
Si Si4 0.107463 0.706675 0.177195
Si Si5 0.713474 0.108316 0.175420
Si Si6 0.110532 0.276925 0.178669
Si Si7 0.849312 0.092805 0.178329
O O1 0.210288 0.642766 0.500000
O O2 0.284012 0.618053 0.271507
O O3 0.173975 0.669659 0.214323
O O4 0.193540 0.499947 0.311203
O O5 0.392722 0.678987 0.227180
O O6 0.372749 0.496524 0.224512
O O7 0.331830 0.601627 0.000000
O O8 0.440001 0.158093 0.789491
O O9 0.554916 0.158116 0.723739
O O10 0.500000 0.000000 0.767811
O O11 0.519568 0.115728 0.000000
O O12 0.106323 0.819300 0.205241
O O13 0.091912 0.683610 0.000000
O O14 0.672702 0.169858 0.287383
O O15 0.782023 0.120809 0.231733
O O16 0.705143 0.144432 0.000000
O O17 0.106311 0.252768 0.000000
O O18 0.846515 0.062283 0.000000
#
# Coordination Sequence:
#
# PCOD8237302 Si02
#       7
#     8   8   8   8   8   8   8
#     4  10  20  35  57  86 121 157 192 234 285 341
#     4  11  22  37  59  86 117 152 192 238 286 340
#     4  11  25  44  63  84 115 153 192 237 285 335
#     4  11  22  37  60  88 118 152 191 238 289 342
#     4   9  18  34  56  84 119 155 189 230 284 342
#     4  12  24  38  59  85 115 152 195 241 288 342
#     4   9  20  38  58  84 119 153 186 231 287 342
#
# _framework density 20.461827
#
# number of rings (size 3 to 8) (size 9 to 14) (size 15 to 20)
#    0.000    1.571    0.000    6.429    0.000    9.714 
#    0.000    0.714    0.000    4.286    0.000    0.000 
#    0.000    0.000    0.000    0.000    0.000    0.000 
#
# Total GULP energy -694705.135033 kJ/mol
# GULP energy per Si atom -12405.448840 kJ/mol
# Density = 2.041526 g / cm^3
# Si number density = 20.461827 Si / 1000 Ang^3
#
#
#
# Elastic Constant Matrix: (Units=GPa)
#
#
# Indices 1 2 3 4 5 6 
#
# 1 50.6244 43.3601 17.9251 0.0000 0.0000 0.0000
# 2 43.3601 121.4953 42.0053 0.0000 0.0000 0.0000
# 3 17.9251 42.0053 81.4130 0.0000 0.0000 0.0000
# 4 0.0000 0.0000 0.0000 34.8871 0.0000 0.0000
# 5 0.0000 0.0000 0.0000 0.0000 29.3286 0.0000
# 6 0.0000 0.0000 0.0000 0.0000 0.0000 31.3994
#
#
#
# Elastic Compliance Matrix: (Units=1/GPa)
#
#
# Indices 1 2 3 4 5 6 
#
# 1 0.028554 -0.009758 -0.001252 0.000000 0.000000 0.000000
# 2 -0.009758 0.013352 -0.004741 0.000000 0.000000 0.000000
# 3 -0.001252 -0.004741 0.015005 0.000000 0.000000 0.000000
# 4 0.000000 0.000000 0.000000 0.028664 0.000000 0.000000
# 5 0.000000 0.000000 0.000000 0.000000 0.034096 0.000000
# 6 0.000000 0.000000 0.000000 0.000000 0.000000 0.031848
#
#
# Mechanical properties :
#
#
# Convention : Reuss Voigt Hill
#
# Bulk Modulus (GPa) = 39.35514 51.12373 45.23944
# Shear Modulus (GPa) = 26.11092 29.13915 27.62504
#
# Velocity S-wave (km/s) = 3.57610 3.77778 3.67833
# Velocity P-wave (km/s) = 6.02715 6.63838 6.34013
#
# Compressibility (1/GPa) = 0.02540964
#
# Stress axis : x y z
#
# Youngs Moduli (GPa) = 35.02109 74.89418 66.64534
#
# Poissons Ratio (x) = 0.73079 0.08347
# Poissons Ratio (y) = 0.34172 0.31595
# Poissons Ratio (z) = 0.04386 0.35505
#
# Static dielectric constant tensor:
#      x y z
#    x 3.453110 0.000000 0.000000 
#    y 0.000000 3.978400 0.000000 
#    z 0.000000 0.000000 3.623980 
# 
# 
# High freq. dielectric constant tensor:
#      x y z
#    x 1.774850 0.000000 0.000000 
#    y 0.000000 1.814750 0.000000 
#    z 0.000000 0.000000 1.802760 
# 
# From -- ./inp_files/9042.got.cif
#   From: 2010.06.25/outbox.cif.g09.slc.cpg/sg58_5_cif.got.tgz:9042.got - 2010.06.26 21:38:00.
