data_PCOD8237054
_publ_section_title
;
Structure prediction by ZEFSAII (Michael W. Deem and Ramdas Pophale) SiO2 
 PCOD8237054
Probable space group: P N N M
;
_chemical_formula_sum "Si O2"
_cell_formula_units_Z 64
_cell_length_a 11.663609
_cell_length_b 33.171562
_cell_length_c 8.825661
_cell_angle_alpha 90.000000
_cell_angle_beta 90.000000
_cell_angle_gamma 90.000000
_cell_volume 3414.649380
_symmetry_space_group_name_H-M "P N N M"
_symmetry_group_IT_number 58
_symmetry_cell_setting 'orthorhombic'
loop_
_space_group_symop_operation_xyz
x,y,z
-x,-y,z
1/2+x,1/2-y,1/2-z
1/2-x,1/2+y,1/2-z
-x,-y,-z
x,y,-z
1/2-x,1/2+y,1/2+z
1/2+x,1/2-y,1/2+z
loop_
_atom_site_type_symbol
_atom_site_label
_atom_site_fract_x
_atom_site_fract_y
_atom_site_fract_z
Si Si1 0.980483 0.362205 0.177737
Si Si2 0.320944 0.324233 0.322888
Si Si3 0.182947 0.404316 0.676237
Si Si4 0.551303 0.299530 0.178404
Si Si5 0.342875 0.466308 0.178973
Si Si6 0.116645 0.282821 0.177600
Si Si7 0.593396 0.445815 0.179620
Si Si8 0.776497 0.868298 0.320270
O O1 0.058610 0.396716 0.251648
O O2 0.027054 0.317955 0.218923
O O3 0.852253 0.365870 0.244671
O O4 0.981340 0.369689 0.000000
O O5 0.347194 0.318456 0.500000
O O6 0.266731 0.367383 0.284441
O O7 0.435537 0.322087 0.225026
O O8 0.234280 0.289186 0.269523
O O9 0.165009 0.409670 0.500000
O O10 0.235530 0.445111 0.742530
O O11 0.558969 0.258451 0.271256
O O12 0.656839 0.327913 0.227039
O O13 0.551006 0.290642 0.000000
O O14 0.462113 0.446672 0.238271
O O15 0.340821 0.513300 0.226781
O O16 0.331114 0.461153 0.000000
O O17 0.144480 0.281993 0.000000
O O18 0.659592 0.407446 0.249841
O O19 0.589160 0.443053 0.000000
O O20 0.774070 0.872189 0.500000
#
# Coordination Sequence:
#
# PCOD8237054 Si02
#       8
#     8   8   8   8   8   8   8   8
#     4   9  19  36  56  74  99 139 180 218 261 312
#     4  10  21  37  54  74 104 137 177 224 263 311
#     4  10  20  34  53  77 104 138 176 220 267 311
#     4  11  22  34  55  83 108 138 173 217 274 328
#     4   9  16  29  54  82 107 137 172 217 266 317
#     4  10  21  36  54  77 104 137 178 222 268 319
#     4   8  15  29  51  81 110 135 172 219 264 310
#     4   9  18  33  53  78 106 137 174 218 264 317
#
# _framework density 18.742773
#
# number of rings (size 3 to 8) (size 9 to 14) (size 15 to 20)
#    0.000    2.500    0.000    3.000    1.750    3.000 
#    0.000    3.125    0.000    6.750    0.000    0.000 
#    0.000    0.000    0.000    0.000    0.000    0.000 
#
# Total GULP energy -793689.659197 kJ/mol
# GULP energy per Si atom -12401.400925 kJ/mol
# Density = 1.870011 g / cm^3
# Si number density = 18.742773 Si / 1000 Ang^3
#
#
#
# Elastic Constant Matrix: (Units=GPa)
#
#
# Indices 1 2 3 4 5 6 
#
# 1 120.5494 43.7520 23.7400 0.0000 0.0000 0.0000
# 2 43.7520 90.5091 23.0346 0.0000 0.0000 0.0000
# 3 23.7400 23.0346 31.7652 0.0000 0.0000 0.0000
# 4 0.0000 0.0000 0.0000 22.4524 0.0000 0.0000
# 5 0.0000 0.0000 0.0000 0.0000 18.1892 0.0000
# 6 0.0000 0.0000 0.0000 0.0000 0.0000 25.1000
#
#
#
# Elastic Compliance Matrix: (Units=1/GPa)
#
#
# Indices 1 2 3 4 5 6 
#
# 1 0.010722 -0.003855 -0.005218 0.000000 0.000000 0.000000
# 2 -0.003855 0.014935 -0.007949 0.000000 0.000000 0.000000
# 3 -0.005218 -0.007949 0.041145 0.000000 0.000000 0.000000
# 4 0.000000 0.000000 0.000000 0.044539 0.000000 0.000000
# 5 0.000000 0.000000 0.000000 0.000000 0.054978 0.000000
# 6 0.000000 0.000000 0.000000 0.000000 0.000000 0.039841
#
#
# Mechanical properties :
#
#
# Convention : Reuss Voigt Hill
#
# Bulk Modulus (GPa) = 30.52668 47.09742 38.81205
# Shear Modulus (GPa) = 19.91062 23.30147 21.60605
#
# Velocity S-wave (km/s) = 3.26284 3.52976 3.39893
# Velocity P-wave (km/s) = 5.52426 6.46492 6.01301
#
# Compressibility (1/GPa) = 0.03275823
#
# Stress axis : x y z
#
# Youngs Moduli (GPa) = 93.26572 66.95580 24.30440
#
# Poissons Ratio (x) = 0.25812 0.12681
# Poissons Ratio (y) = 0.35955 0.19320
# Poissons Ratio (z) = 0.48663 0.53224
#
# Static dielectric constant tensor:
#      x y z
#    x 3.610600 0.000000 0.000000 
#    y 0.000000 3.519060 0.000000 
#    z 0.000000 0.000000 3.145500 
# 
# 
# High freq. dielectric constant tensor:
#      x y z
#    x 1.729250 0.000000 0.000000 
#    y 0.000000 1.727650 0.000000 
#    z 0.000000 0.000000 1.704940 
# 
# From -- ./inp_files/4756.got.cif
#   From: 2010.06.25/outbox.cif.g09.slc.cpg/sg58_3_cif.got.tgz:4756.got - 2010.06.26 21:38:00.
