data_PCOD8237920
_publ_section_title
;
Structure prediction by ZEFSAII (Michael W. Deem and Ramdas Pophale) SiO2 
 PCOD8237920
Probable space group: P N N M
;
_chemical_formula_sum "Si O2"
_cell_formula_units_Z 64
_cell_length_a 18.215758
_cell_length_b 9.028588
_cell_length_c 21.408673
_cell_angle_alpha 90.000000
_cell_angle_beta 90.000000
_cell_angle_gamma 90.000000
_cell_volume 3520.925469
_symmetry_space_group_name_H-M "P N N M"
_symmetry_group_IT_number 58
_symmetry_cell_setting 'orthorhombic'
loop_
_space_group_symop_operation_xyz
x,y,z
-x,-y,z
1/2+x,1/2-y,1/2-z
1/2-x,1/2+y,1/2-z
-x,-y,-z
x,y,-z
1/2-x,1/2+y,1/2+z
1/2+x,1/2-y,1/2+z
loop_
_atom_site_type_symbol
_atom_site_label
_atom_site_fract_x
_atom_site_fract_y
_atom_site_fract_z
Si Si1 0.071954 0.413163 0.769974
Si Si2 0.283313 0.084458 0.709429
Si Si3 0.091930 0.752886 0.427253
Si Si4 0.286205 0.423534 0.678058
Si Si5 0.815881 0.512622 0.568519
Si Si6 0.559509 0.167271 0.872069
Si Si7 0.076184 0.067656 0.209357
Si Si8 0.368006 0.529011 0.154483
O O1 0.140422 0.498619 0.801638
O O2 0.073619 0.411923 0.694758
O O3 0.073325 0.244810 0.794258
O O4 0.000000 0.500000 0.793625
O O5 0.295170 0.261609 0.709018
O O6 0.220811 0.041293 0.658730
O O7 0.256177 0.037958 0.777592
O O8 0.070444 0.777662 0.500000
O O9 0.168268 0.661888 0.421328
O O10 0.026149 0.670752 0.389671
O O11 0.108049 0.905495 0.393646
O O12 0.241006 0.410866 0.614711
O O13 0.364118 0.499180 0.661845
O O14 0.784222 0.543936 0.500000
O O15 0.897334 0.580031 0.574560
O O16 0.595050 0.327257 0.873176
O O17 0.098136 0.001733 0.277032
O O18 0.000000 0.000000 0.187892
#
# Coordination Sequence:
#
# PCOD8237920 Si02
#       8
#     8   8   8   8   8   8   8   8
#     4  11  21  34  57  88 116 151 187 234 301 348
#     4  11  21  36  55  84 112 152 193 244 298 351
#     4  11  24  36  55  81 115 164 204 242 276 332
#     4  11  22  37  58  83 113 149 194 243 298 345
#     4  11  23  38  55  79 113 155 199 235 286 344
#     4  11  20  37  53  81 111 156 198 238 279 329
#     4  10  21  35  56  87 116 147 181 238 296 354
#     4  10  21  35  54  79 118 151 195 237 289 331
#
# _framework density 18.177040000000002
#
# number of rings (size 3 to 8) (size 9 to 14) (size 15 to 20)
#    0.000    1.250    2.500    5.625    5.250    2.500 
#    0.000    0.000    0.000    0.375    0.000    0.000 
#    0.000    2.500    0.000    0.000    0.000    0.000 
#
# Total GULP energy -793397.151319 kJ/mol
# GULP energy per Si atom -12396.830489 kJ/mol
# Density = 1.813567 g / cm^3
# Si number density = 18.177040 Si / 1000 Ang^3
#
#
#
# Elastic Constant Matrix: (Units=GPa)
#
#
# Indices 1 2 3 4 5 6 
#
# 1 120.7108 43.9980 23.3124 0.0000 0.0000 0.0000
# 2 43.9980 98.1334 34.8199 0.0000 0.0000 0.0000
# 3 23.3124 34.8199 52.8950 0.0000 0.0000 0.0000
# 4 0.0000 0.0000 0.0000 21.0807 0.0000 0.0000
# 5 0.0000 0.0000 0.0000 0.0000 21.4460 0.0000
# 6 0.0000 0.0000 0.0000 0.0000 0.0000 26.5831
#
#
#
# Elastic Compliance Matrix: (Units=1/GPa)
#
#
# Indices 1 2 3 4 5 6 
#
# 1 0.010048 -0.003828 -0.001909 0.000000 0.000000 0.000000
# 2 -0.003828 0.014754 -0.008025 0.000000 0.000000 0.000000
# 3 -0.001909 -0.008025 0.025030 0.000000 0.000000 0.000000
# 4 0.000000 0.000000 0.000000 0.047437 0.000000 0.000000
# 5 0.000000 0.000000 0.000000 0.000000 0.046629 0.000000
# 6 0.000000 0.000000 0.000000 0.000000 0.000000 0.037618
#
#
# Mechanical properties :
#
#
# Convention : Reuss Voigt Hill
#
# Bulk Modulus (GPa) = 44.82696 52.88886 48.85791
# Shear Modulus (GPa) = 23.09742 25.12922 24.11332
#
# Velocity S-wave (km/s) = 3.56854 3.72219 3.64618
# Velocity P-wave (km/s) = 6.45710 6.90164 6.68307
#
# Compressibility (1/GPa) = 0.02230801
#
# Stress axis : x y z
#
# Youngs Moduli (GPa) = 99.52150 67.77864 39.95283
#
# Poissons Ratio (x) = 0.25944 0.07626
# Poissons Ratio (y) = 0.38095 0.32063
# Poissons Ratio (z) = 0.18996 0.54394
#
# Static dielectric constant tensor:
#      x y z
#    x 3.654570 0.000000 0.000000 
#    y 0.000000 3.535800 0.000000 
#    z 0.000000 0.000000 3.020280 
# 
# 
# High freq. dielectric constant tensor:
#      x y z
#    x 1.709090 0.000000 0.000000 
#    y 0.000000 1.725740 0.000000 
#    z 0.000000 0.000000 1.656880 
# 
# From -- ./inp_files/30262.got.cif
#   From: 2010.06.25/outbox.cif.g09.slc.cpg/sg58_16_cif.got.tgz:30262.got - 2010.06.26 21:38:00.
