data_PCOD8237239
_publ_section_title
;
Structure prediction by ZEFSAII (Michael W. Deem and Ramdas Pophale) SiO2 
 PCOD8237239
Probable space group: P N N M
;
_chemical_formula_sum "Si O2"
_cell_formula_units_Z 64
_cell_length_a 40.335492
_cell_length_b 9.705536
_cell_length_c 9.083991
_cell_angle_alpha 90.000000
_cell_angle_beta 90.000000
_cell_angle_gamma 90.000000
_cell_volume 3556.178720
_symmetry_space_group_name_H-M "P N N M"
_symmetry_group_IT_number 58
_symmetry_cell_setting 'orthorhombic'
loop_
_space_group_symop_operation_xyz
x,y,z
-x,-y,z
1/2+x,1/2-y,1/2-z
1/2-x,1/2+y,1/2-z
-x,-y,-z
x,y,-z
1/2-x,1/2+y,1/2+z
1/2+x,1/2-y,1/2+z
loop_
_atom_site_type_symbol
_atom_site_label
_atom_site_fract_x
_atom_site_fract_y
_atom_site_fract_z
Si Si1 0.969019 0.591568 0.829027
Si Si2 0.724481 0.608357 0.669215
Si Si3 0.030274 0.091061 0.171298
Si Si4 0.902915 0.905973 0.671420
Si Si5 0.402081 0.911991 0.172607
Si Si6 0.152538 0.594400 0.828252
Si Si7 0.149296 0.913045 0.832802
Si Si8 0.779586 0.385565 0.327931
O O1 0.977944 0.749909 0.795889
O O2 0.937795 0.542465 0.733741
O O3 0.000000 0.500000 0.779222
O O4 0.960395 0.568641 0.000000
O O5 0.727261 0.657696 0.500000
O O6 0.687599 0.551583 0.699138
O O7 0.750022 0.489330 0.708281
O O8 0.732430 0.737064 0.772937
O O9 0.063644 0.042571 0.250998
O O10 0.035703 0.062615 0.000000
O O11 0.000000 0.000000 0.232979
O O12 0.908044 0.927473 0.500000
O O13 0.895541 0.747488 0.710591
O O14 0.872178 0.996468 0.723072
O O15 0.374275 0.998903 0.252700
O O16 0.400855 0.941860 0.000000
O O17 0.142503 0.752534 0.801571
O O18 0.188047 0.562203 0.757245
O O19 0.154614 0.559326 0.000000
O O20 0.139726 0.950718 0.000000
O O21 0.787758 0.378826 0.500000
#
# Coordination Sequence:
#
# PCOD8237239 Si02
#       8
#     8   8   8   8   8   8   8   8
#     4   9  18  33  52  74 101 134 173 214 256 305
#     4   9  20  37  54  77 108 139 174 215 259 310
#     4   9  18  33  52  73  99 133 171 210 252 301
#     4  10  21  35  52  77 107 137 171 213 259 306
#     4  10  21  36  53  77 108 139 174 215 260 311
#     4  10  21  37  56  78 105 138 176 217 263 313
#     4   9  19  36  55  75 102 136 174 214 255 306
#     4  10  20  35  56  81 108 138 175 218 262 309
#
# _framework density 17.996843999999999
#
# number of rings (size 3 to 8) (size 9 to 14) (size 15 to 20)
#    0.000    2.500    0.000    2.250    0.000    7.500 
#    0.000    5.000    0.000    0.000    0.000    0.000 
#    0.000    0.000    0.000    0.000    0.000    0.000 
#
# Total GULP energy -793822.267424 kJ/mol
# GULP energy per Si atom -12403.472928 kJ/mol
# Density = 1.795588 g / cm^3
# Si number density = 17.996844 Si / 1000 Ang^3
#
#
#
# Elastic Constant Matrix: (Units=GPa)
#
#
# Indices 1 2 3 4 5 6 
#
# 1 147.0905 84.2579 72.0508 0.0000 0.0000 0.0000
# 2 84.2579 81.3719 52.7527 0.0000 0.0000 0.0000
# 3 72.0508 52.7527 87.9065 0.0000 0.0000 0.0000
# 4 0.0000 0.0000 0.0000 28.2747 0.0000 0.0000
# 5 0.0000 0.0000 0.0000 0.0000 33.3006 0.0000
# 6 0.0000 0.0000 0.0000 0.0000 0.0000 38.1596
#
#
#
# Elastic Compliance Matrix: (Units=1/GPa)
#
#
# Indices 1 2 3 4 5 6 
#
# 1 0.018454 -0.015226 -0.005988 0.000000 0.000000 0.000000
# 2 -0.015226 0.032678 -0.007130 0.000000 0.000000 0.000000
# 3 -0.005988 -0.007130 0.020562 0.000000 0.000000 0.000000
# 4 0.000000 0.000000 0.000000 0.035367 0.000000 0.000000
# 5 0.000000 0.000000 0.000000 0.000000 0.030030 0.000000
# 6 0.000000 0.000000 0.000000 0.000000 0.000000 0.026206
#
#
# Mechanical properties :
#
#
# Convention : Reuss Voigt Hill
#
# Bulk Modulus (GPa) = 66.64268 81.61018 74.12643
# Shear Modulus (GPa) = 22.22349 27.10082 24.66216
#
# Velocity S-wave (km/s) = 3.51786 3.88476 3.70585
# Velocity P-wave (km/s) = 7.32196 8.09736 7.71940
#
# Compressibility (1/GPa) = 0.01500540
#
# Stress axis : x y z
#
# Youngs Moduli (GPa) = 54.18946 30.60162 48.63251
#
# Poissons Ratio (x) = 0.46595 0.29121
# Poissons Ratio (y) = 0.82511 0.34675
# Poissons Ratio (z) = 0.32448 0.21819
#
# Static dielectric constant tensor:
#      x y z
#    x 3.402490 0.000000 0.000000 
#    y 0.000000 3.277560 0.000000 
#    z 0.000000 0.000000 3.376840 
# 
# 
# High freq. dielectric constant tensor:
#      x y z
#    x 1.703870 0.000000 0.000000 
#    y 0.000000 1.692600 0.000000 
#    z 0.000000 0.000000 1.702610 
# 
# From -- ./inp_files/10950.got.cif
#   From: 2010.06.25/outbox.cif.g09.slc.cpg/sg58_6_cif.got.tgz:10950.got - 2010.06.26 21:38:00.
