data_PCOD8237556
_publ_section_title
;
Structure prediction by ZEFSAII (Michael W. Deem and Ramdas Pophale) SiO2 
 PCOD8237556
Probable space group: P N N M
;
_chemical_formula_sum "Si O2"
_cell_formula_units_Z 32
_cell_length_a 5.152593
_cell_length_b 11.715187
_cell_length_c 28.048042
_cell_angle_alpha 90.000000
_cell_angle_beta 90.000000
_cell_angle_gamma 90.000000
_cell_volume 1693.080522
_symmetry_space_group_name_H-M "P N N M"
_symmetry_group_IT_number 58
_symmetry_cell_setting 'orthorhombic'
loop_
_space_group_symop_operation_xyz
x,y,z
-x,-y,z
1/2+x,1/2-y,1/2-z
1/2-x,1/2+y,1/2-z
-x,-y,-z
x,y,-z
1/2-x,1/2+y,1/2+z
1/2+x,1/2-y,1/2+z
loop_
_atom_site_type_symbol
_atom_site_label
_atom_site_fract_x
_atom_site_fract_y
_atom_site_fract_z
Si Si1 0.252988 0.576321 0.447086
Si Si2 0.666224 0.657390 0.299031
Si Si3 0.177600 0.687861 0.648187
Si Si4 0.605145 0.118941 0.297752
O O1 0.500000 0.500000 0.434421
O O2 0.283216 0.630857 0.500000
O O3 0.223811 0.676773 0.408326
O O4 0.000000 0.500000 0.444682
O O5 0.396374 0.613213 0.322792
O O6 0.631247 0.793060 0.285745
O O7 0.895706 0.641430 0.337542
O O8 0.732932 0.591813 0.250357
O O9 0.211628 0.821688 0.662148
O O10 0.500000 0.000000 0.318527
#
# Coordination Sequence:
#
# PCOD8237556 Si02
#       4
#     8   8   8   8
#     4  10  21  37  59  84 111 144 180 230 289 332
#     4  10  20  37  51  81 108 144 186 218 265 323
#     4  10  20  37  51  80 110 139 186 218 272 329
#     4  10  21  37  54  75 112 148 180 224 270 315
#
# _framework density 18.900459999999999
#
# number of rings (size 3 to 8) (size 9 to 14) (size 15 to 20)
#    1.500    0.500    2.500    1.500    0.000    4.000 
#    0.000    0.000    0.000    0.750    0.000    1.750 
#    0.000    0.000    0.000    0.000    0.000    0.000 
#
# Total GULP energy -396557.753595 kJ/mol
# GULP energy per Si atom -12392.429800 kJ/mol
# Density = 1.885744 g / cm^3
# Si number density = 18.900460 Si / 1000 Ang^3
#
#
#
# Elastic Constant Matrix: (Units=GPa)
#
#
# Indices 1 2 3 4 5 6 
#
# 1 114.5764 2.5856 16.7702 0.0000 0.0000 0.0000
# 2 2.5856 20.8946 20.7538 0.0000 0.0000 0.0000
# 3 16.7702 20.7538 126.1348 0.0000 0.0000 0.0000
# 4 0.0000 0.0000 0.0000 26.0624 0.0000 0.0000
# 5 0.0000 0.0000 0.0000 0.0000 26.2864 0.0000
# 6 0.0000 0.0000 0.0000 0.0000 0.0000 19.4440
#
#
#
# Elastic Compliance Matrix: (Units=1/GPa)
#
#
# Indices 1 2 3 4 5 6 
#
# 1 0.008901 0.000088 -0.001198 0.000000 0.000000 0.000000
# 2 0.000088 0.057210 -0.009425 0.000000 0.000000 0.000000
# 3 -0.001198 -0.009425 0.009638 0.000000 0.000000 0.000000
# 4 0.000000 0.000000 0.000000 0.038369 0.000000 0.000000
# 5 0.000000 0.000000 0.000000 0.000000 0.038042 0.000000
# 6 0.000000 0.000000 0.000000 0.000000 0.000000 0.051430
#
#
# Mechanical properties :
#
#
# Convention : Reuss Voigt Hill
#
# Bulk Modulus (GPa) = 18.28820 37.98056 28.13438
# Shear Modulus (GPa) = 20.58580 29.12498 24.85539
#
# Velocity S-wave (km/s) = 3.30384 3.92977 3.63032
# Velocity P-wave (km/s) = 4.92451 6.38197 5.70001
#
# Compressibility (1/GPa) = 0.05468007
#
# Stress axis : x y z
#
# Youngs Moduli (GPa) = 112.34503 17.47958 103.75566
#
# Poissons Ratio (x) = -0.00155 0.12430
# Poissons Ratio (y) = -0.00994 0.97788
# Poissons Ratio (z) = 0.13459 0.16474
#
# Static dielectric constant tensor:
#      x y z
#    x 3.602880 0.000000 0.000000 
#    y 0.000000 3.044710 0.000000 
#    z 0.000000 0.000000 3.471580 
# 
# 
# High freq. dielectric constant tensor:
#      x y z
#    x 1.754730 0.000000 0.000000 
#    y 0.000000 1.692750 0.000000 
#    z 0.000000 0.000000 1.716020 
# 
# From -- ./inp_files/29297.got.cif
#   From: 2010.06.25/outbox.cif.g09.slc.cpg/sg58_15_cif.got.tgz:29297.got - 2010.06.26 21:38:00.
