data_PCOD8237141
_publ_section_title
;
Structure prediction by ZEFSAII (Michael W. Deem and Ramdas Pophale) SiO2 
 PCOD8237141
Probable space group: P N N M
;
_chemical_formula_sum "Si O2"
_cell_formula_units_Z 64
_cell_length_a 18.976836
_cell_length_b 19.612473
_cell_length_c 9.326080
_cell_angle_alpha 90.000000
_cell_angle_beta 90.000000
_cell_angle_gamma 90.000000
_cell_volume 3471.005483
_symmetry_space_group_name_H-M "P N N M"
_symmetry_group_IT_number 58
_symmetry_cell_setting 'orthorhombic'
loop_
_space_group_symop_operation_xyz
x,y,z
-x,-y,z
1/2+x,1/2-y,1/2-z
1/2-x,1/2+y,1/2-z
-x,-y,-z
x,y,-z
1/2-x,1/2+y,1/2+z
1/2+x,1/2-y,1/2+z
loop_
_atom_site_type_symbol
_atom_site_label
_atom_site_fract_x
_atom_site_fract_y
_atom_site_fract_z
Si Si1 0.206341 0.003404 0.834455
Si Si2 0.542821 0.065992 0.335267
Si Si3 0.072754 0.677896 0.833833
Si Si4 0.593186 0.690839 0.834775
Si Si5 0.823316 0.607248 0.334215
Si Si6 0.245569 0.281739 0.837814
Si Si7 0.707938 0.865380 0.832991
Si Si8 0.070649 0.961866 0.668128
O O1 0.253877 0.937356 0.808444
O O2 0.135092 0.998021 0.746137
O O3 0.248415 0.069682 0.780006
O O4 0.186059 0.011718 0.000000
O O5 0.565974 0.057060 0.500000
O O6 0.497248 0.133867 0.313789
O O7 0.611780 0.069577 0.238939
O O8 0.500000 0.000000 0.283246
O O9 0.057477 0.751446 0.763259
O O10 0.136708 0.638769 0.757770
O O11 0.092120 0.687914 0.000000
O O12 0.676569 0.689819 0.808536
O O13 0.562948 0.617476 0.788380
O O14 0.576051 0.707977 0.000000
O O15 0.841108 0.616750 0.500000
O O16 0.809887 0.681503 0.266055
O O17 0.243756 0.201096 0.806752
O O18 0.222228 0.297731 0.000000
O O19 0.686353 0.870927 0.000000
O O20 0.084924 0.968516 0.500000
O O21 0.000000 0.000000 0.716211
#
# Coordination Sequence:
#
# PCOD8237141 Si02
#       8
#     8   8   8   8   8   8   8   8
#     4  10  21  37  57  84 114 143 181 227 277 328
#     4  10  22  39  56  78 111 150 188 225 273 332
#     4  10  20  34  56  85 111 143 189 234 271 321
#     4   9  18  35  58  80 108 147 182 220 275 331
#     4  11  22  34  55  84 111 142 182 231 277 321
#     4   9  17  33  56  77 103 144 183 216 264 327
#     4   9  19  36  57  81 112 149 182 220 275 330
#     4  10  21  38  59  82 109 143 185 228 274 332
#
# _framework density 18.438462000000001
#
# number of rings (size 3 to 8) (size 9 to 14) (size 15 to 20)
#    0.000    2.250    1.250    2.250    0.000    5.000 
#    2.250    0.000    0.000    0.000    0.000    0.000 
#    0.000    0.000    0.000    0.000    0.000    0.000 
#
# Total GULP energy -793814.841050 kJ/mol
# GULP energy per Si atom -12403.356891 kJ/mol
# Density = 1.839649 g / cm^3
# Si number density = 18.438462 Si / 1000 Ang^3
#
#
#
# Elastic Constant Matrix: (Units=GPa)
#
#
# Indices 1 2 3 4 5 6 
#
# 1 59.5587 14.6201 36.8902 0.0000 0.0000 0.0000
# 2 14.6201 82.2239 29.9597 0.0000 0.0000 0.0000
# 3 36.8902 29.9597 75.7607 0.0000 0.0000 0.0000
# 4 0.0000 0.0000 0.0000 28.8572 0.0000 0.0000
# 5 0.0000 0.0000 0.0000 0.0000 30.6497 0.0000
# 6 0.0000 0.0000 0.0000 0.0000 0.0000 24.5013
#
#
#
# Elastic Compliance Matrix: (Units=1/GPa)
#
#
# Indices 1 2 3 4 5 6 
#
# 1 0.024041 -0.000011 -0.011702 0.000000 0.000000 0.000000
# 2 -0.000011 0.014209 -0.005614 0.000000 0.000000 0.000000
# 3 -0.011702 -0.005614 0.021117 0.000000 0.000000 0.000000
# 4 0.000000 0.000000 0.000000 0.034653 0.000000 0.000000
# 5 0.000000 0.000000 0.000000 0.000000 0.032627 0.000000
# 6 0.000000 0.000000 0.000000 0.000000 0.000000 0.040814
#
#
# Mechanical properties :
#
#
# Convention : Reuss Voigt Hill
#
# Bulk Modulus (GPa) = 40.46216 42.27593 41.36904
# Shear Modulus (GPa) = 23.76952 25.87321 24.82137
#
# Velocity S-wave (km/s) = 3.59434 3.75002 3.67300
# Velocity P-wave (km/s) = 6.26241 6.45973 6.36183
#
# Compressibility (1/GPa) = 0.02471445
#
# Stress axis : x y z
#
# Youngs Moduli (GPa) = 41.59575 70.37634 47.35412
#
# Poissons Ratio (x) = 0.00077 0.55414
# Poissons Ratio (y) = 0.00045 0.26584
# Poissons Ratio (z) = 0.48675 0.39508
#
# Static dielectric constant tensor:
#      x y z
#    x 3.140370 0.000000 0.000000 
#    y 0.000000 3.565330 0.000000 
#    z 0.000000 0.000000 3.374490 
# 
# 
# High freq. dielectric constant tensor:
#      x y z
#    x 1.697190 0.000000 0.000000 
#    y 0.000000 1.728030 0.000000 
#    z 0.000000 0.000000 1.714770 
# 
# From -- ./inp_files/8323.got.cif
#   From: 2010.06.25/outbox.cif.g09.slc.cpg/sg58_5_cif.got.tgz:8323.got - 2010.06.26 21:38:00.
