data_PCOD8237042
_publ_section_title
;
Structure prediction by ZEFSAII (Michael W. Deem and Ramdas Pophale) SiO2 
 PCOD8237042
Probable space group: P N N M
;
_chemical_formula_sum "Si O2"
_cell_formula_units_Z 64
_cell_length_a 34.756952
_cell_length_b 10.984294
_cell_length_c 9.170432
_cell_angle_alpha 90.000000
_cell_angle_beta 90.000000
_cell_angle_gamma 90.000000
_cell_volume 3501.092842
_symmetry_space_group_name_H-M "P N N M"
_symmetry_group_IT_number 58
_symmetry_cell_setting 'orthorhombic'
loop_
_space_group_symop_operation_xyz
x,y,z
-x,-y,z
1/2+x,1/2-y,1/2-z
1/2-x,1/2+y,1/2-z
-x,-y,-z
x,y,-z
1/2-x,1/2+y,1/2+z
1/2+x,1/2-y,1/2+z
loop_
_atom_site_type_symbol
_atom_site_label
_atom_site_fract_x
_atom_site_fract_y
_atom_site_fract_z
Si Si1 0.571314 0.259068 0.328996
Si Si2 0.273569 0.883001 0.826741
Si Si3 0.043720 0.017710 0.336364
Si Si4 0.358473 0.144260 0.663709
Si Si5 0.147848 0.370202 0.834252
Si Si6 0.073479 0.754072 0.336213
Si Si7 0.503344 0.141587 0.837472
Si Si8 0.228854 0.635014 0.827202
O O1 0.565418 0.250003 0.500000
O O2 0.565299 0.394972 0.274681
O O3 0.614549 0.221872 0.284771
O O4 0.540434 0.170724 0.256644
O O5 0.316997 0.857715 0.776533
O O6 0.251107 0.758630 0.780867
O O7 0.257056 0.008382 0.751977
O O8 0.271679 0.901764 0.000000
O O9 0.042904 0.072412 0.500000
O O10 0.068836 0.897553 0.332378
O O11 0.000000 0.000000 0.281952
O O12 0.360993 0.193962 0.500000
O O13 0.387179 0.224787 0.756463
O O14 0.315000 0.158513 0.721674
O O15 0.370885 0.003848 0.673703
O O16 0.162175 0.344602 0.000000
O O17 0.077121 0.703138 0.500000
O O18 0.035465 0.694561 0.262815
O O19 0.500000 0.000000 0.848949
O O20 0.507666 0.199415 0.000000
O O21 0.232114 0.610548 0.000000
#
# Coordination Sequence:
#
# PCOD8237042 Si02
#       8
#     8   8   8   8   8   8   8   8
#     4  11  22  35  54  79 106 138 181 224 269 324
#     4  10  20  36  62  90 114 150 194 229 273 336
#     4  10  20  38  56  69 102 147 181 223 276 321
#     4   9  18  35  57  77 107 144 172 214 273 324
#     4   9  20  38  56  79 114 147 174 221 281 323
#     4  10  20  34  52  76 103 136 179 223 267 315
#     4  10  20  34  53  76 104 138 175 219 268 317
#     4   9  20  39  59  85 121 152 183 229 284 335
#
# _framework density 18.280007000000001
#
# number of rings (size 3 to 8) (size 9 to 14) (size 15 to 20)
#    0.000    2.250    1.250    2.250    0.000    5.500 
#    2.250    0.000    0.000    0.000    0.000    0.000 
#    0.000    0.000    0.000    0.000    0.000    0.000 
#
# Total GULP energy -793374.280486 kJ/mol
# GULP energy per Si atom -12396.473133 kJ/mol
# Density = 1.823840 g / cm^3
# Si number density = 18.280007 Si / 1000 Ang^3
#
#
#
# Elastic Constant Matrix: (Units=GPa)
#
#
# Indices 1 2 3 4 5 6 
#
# 1 91.5920 57.8414 45.5740 0.0000 0.0000 0.0000
# 2 57.8414 113.5937 42.6986 0.0000 0.0000 0.0000
# 3 45.5740 42.6986 66.3676 0.0000 0.0000 0.0000
# 4 0.0000 0.0000 0.0000 5.4909 0.0000 0.0000
# 5 0.0000 0.0000 0.0000 0.0000 19.2927 0.0000
# 6 0.0000 0.0000 0.0000 0.0000 0.0000 36.2481
#
#
#
# Elastic Compliance Matrix: (Units=1/GPa)
#
#
# Indices 1 2 3 4 5 6 
#
# 1 0.019665 -0.006512 -0.009314 0.000000 0.000000 0.000000
# 2 -0.006512 0.013768 -0.004386 0.000000 0.000000 0.000000
# 3 -0.009314 -0.004386 0.024285 0.000000 0.000000 0.000000
# 4 0.000000 0.000000 0.000000 0.182120 0.000000 0.000000
# 5 0.000000 0.000000 0.000000 0.000000 0.051833 0.000000
# 6 0.000000 0.000000 0.000000 0.000000 0.000000 0.027588
#
#
# Mechanical properties :
#
#
# Convention : Reuss Voigt Hill
#
# Bulk Modulus (GPa) = 57.82436 62.64239 60.23338
# Shear Modulus (GPa) = 13.68184 20.56894 17.12539
#
# Velocity S-wave (km/s) = 2.73877 3.35806 3.06410
# Velocity P-wave (km/s) = 6.45774 7.02695 6.74835
#
# Compressibility (1/GPa) = 0.01729375
#
# Stress axis : x y z
#
# Youngs Moduli (GPa) = 50.85175 72.63249 41.17744
#
# Poissons Ratio (x) = 0.47301 0.38353
# Poissons Ratio (y) = 0.33116 0.18060
# Poissons Ratio (z) = 0.47363 0.31856
#
# Static dielectric constant tensor:
#      x y z
#    x 3.295280 0.000000 0.000000 
#    y 0.000000 3.429580 0.000000 
#    z 0.000000 0.000000 3.348420 
# 
# 
# High freq. dielectric constant tensor:
#      x y z
#    x 1.703370 0.000000 0.000000 
#    y 0.000000 1.714720 0.000000 
#    z 0.000000 0.000000 1.701700 
# 
# From -- ./inp_files/11081.got.cif
#   From: 2010.06.25/outbox.cif.g09.slc.cpg/sg58_6_cif.got.tgz:11081.got - 2010.06.26 21:38:00.
