data_PCOD8237930
_publ_section_title
;
Structure prediction by ZEFSAII (Michael W. Deem and Ramdas Pophale) SiO2 
 PCOD8237930
Probable space group: P N N M
;
_chemical_formula_sum "Si O2"
_cell_formula_units_Z 48
_cell_length_a 8.226106
_cell_length_b 23.194464
_cell_length_c 12.028489
_cell_angle_alpha 90.000000
_cell_angle_beta 90.000000
_cell_angle_gamma 90.000000
_cell_volume 2295.037138
_symmetry_space_group_name_H-M "P N N M"
_symmetry_group_IT_number 58
_symmetry_cell_setting 'orthorhombic'
loop_
_space_group_symop_operation_xyz
x,y,z
-x,-y,z
1/2+x,1/2-y,1/2-z
1/2-x,1/2+y,1/2-z
-x,-y,-z
x,y,-z
1/2-x,1/2+y,1/2+z
1/2+x,1/2-y,1/2+z
loop_
_atom_site_type_symbol
_atom_site_label
_atom_site_fract_x
_atom_site_fract_y
_atom_site_fract_z
Si Si1 0.621185 0.373011 0.626323
Si Si2 0.855699 0.291928 0.257325
Si Si3 0.657176 0.972690 0.188288
Si Si4 0.502019 0.103839 0.370248
Si Si5 0.324224 0.799014 0.876125
Si Si6 0.207983 0.908036 0.223944
O O1 0.554891 0.362949 0.500000
O O2 0.700302 0.315257 0.674667
O O3 0.758730 0.422404 0.618315
O O4 0.481053 0.390753 0.714402
O O5 0.808885 0.231499 0.201717
O O6 0.918828 0.335866 0.163210
O O7 0.995274 0.278779 0.346135
O O8 0.590867 0.947609 0.305788
O O9 0.500000 0.000000 0.125144
O O10 0.787259 0.023905 0.200807
O O11 0.480224 0.093158 0.500000
O O12 0.696239 0.104203 0.340280
O O13 0.307035 0.868369 0.864535
O O14 0.288680 0.779072 0.000000
#
# Coordination Sequence:
#
# PCOD8237930 Si02
#       6
#     8   8   8   8   8   8
#     4  11  22  38  59  82 116 153 185 233 288 334
#     4  10  22  39  59  88 113 144 197 237 277 344
#     4   9  20  36  57  85 115 145 189 233 273 338
#     4   9  19  39  63  83 113 153 189 234 287 333
#     4  11  22  39  61  83 116 152 185 235 288 334
#     4  10  21  35  55  87 116 145 189 229 272 340
#
# _framework density 20.914694999999998
#
# number of rings (size 3 to 8) (size 9 to 14) (size 15 to 20)
#    0.000    2.000    0.000    4.000    0.000    5.333 
#    0.000   17.500    0.000    8.000    0.000    0.000 
#    0.000    0.000    0.000    0.000    0.000    0.000 
#
# Total GULP energy -594886.725793 kJ/mol
# GULP energy per Si atom -12393.473454 kJ/mol
# Density = 2.086709 g / cm^3
# Si number density = 20.914695 Si / 1000 Ang^3
#
#
#
# Elastic Constant Matrix: (Units=GPa)
#
#
# Indices 1 2 3 4 5 6 
#
# 1 95.9002 6.4085 28.7438 0.0000 0.0000 0.0000
# 2 6.4085 77.4631 30.7736 0.0000 0.0000 0.0000
# 3 28.7438 30.7736 103.1946 0.0000 0.0000 0.0000
# 4 0.0000 0.0000 0.0000 14.7153 0.0000 0.0000
# 5 0.0000 0.0000 0.0000 0.0000 23.9999 0.0000
# 6 0.0000 0.0000 0.0000 0.0000 0.0000 40.5050
#
#
#
# Elastic Compliance Matrix: (Units=1/GPa)
#
#
# Indices 1 2 3 4 5 6 
#
# 1 0.011386 0.000361 -0.003279 0.000000 0.000000 0.000000
# 2 0.000361 0.014656 -0.004471 0.000000 0.000000 0.000000
# 3 -0.003279 -0.004471 0.011937 0.000000 0.000000 0.000000
# 4 0.000000 0.000000 0.000000 0.067956 0.000000 0.000000
# 5 0.000000 0.000000 0.000000 0.000000 0.041667 0.000000
# 6 0.000000 0.000000 0.000000 0.000000 0.000000 0.024688
#
#
# Mechanical properties :
#
#
# Convention : Reuss Voigt Hill
#
# Bulk Modulus (GPa) = 43.10282 45.37886 44.24084
# Shear Modulus (GPa) = 25.66699 29.88615 27.77657
#
# Velocity S-wave (km/s) = 3.50697 3.78425 3.64825
# Velocity P-wave (km/s) = 6.08704 6.39049 6.24061
#
# Compressibility (1/GPa) = 0.02320034
#
# Stress axis : x y z
#
# Youngs Moduli (GPa) = 87.82535 68.23281 83.77266
#
# Poissons Ratio (x) = -0.02461 0.27470
# Poissons Ratio (y) = -0.03168 0.37454
# Poissons Ratio (z) = 0.28799 0.30507
#
# Static dielectric constant tensor:
#      x y z
#    x 3.880300 0.000000 0.000000 
#    y 0.000000 3.879950 0.000000 
#    z 0.000000 0.000000 3.405790 
# 
# 
# High freq. dielectric constant tensor:
#      x y z
#    x 1.826630 0.000000 0.000000 
#    y 0.000000 1.831350 0.000000 
#    z 0.000000 0.000000 1.785900 
# 
# From -- ./inp_files/13058.got.cif
#   From: 2010.06.25/outbox.cif.g09.slc.cpg/sg58_7_cif.got.tgz:13058.got - 2010.06.26 21:38:00.
