data_PCOD8237730
_publ_section_title
;
Structure prediction by ZEFSAII (Michael W. Deem and Ramdas Pophale) SiO2 
 PCOD8237730
Probable space group: P N N M
;
_chemical_formula_sum "Si O2"
_cell_formula_units_Z 64
_cell_length_a 14.450752
_cell_length_b 25.103713
_cell_length_c 8.731618
_cell_angle_alpha 90.000000
_cell_angle_beta 90.000000
_cell_angle_gamma 90.000000
_cell_volume 3167.547502
_symmetry_space_group_name_H-M "P N N M"
_symmetry_group_IT_number 58
_symmetry_cell_setting 'orthorhombic'
loop_
_space_group_symop_operation_xyz
x,y,z
-x,-y,z
1/2+x,1/2-y,1/2-z
1/2-x,1/2+y,1/2-z
-x,-y,-z
x,y,-z
1/2-x,1/2+y,1/2+z
1/2+x,1/2-y,1/2+z
loop_
_atom_site_type_symbol
_atom_site_label
_atom_site_fract_x
_atom_site_fract_y
_atom_site_fract_z
Si Si1 0.103517 0.492356 0.317487
Si Si2 0.051805 0.052639 0.320139
Si Si3 0.090087 0.871274 0.176546
Si Si4 0.286253 0.196380 0.820552
Si Si5 0.746827 0.423733 0.319353
Si Si6 0.140360 0.273202 0.680369
Si Si7 0.050810 0.749616 0.175837
Si Si8 0.294667 0.887740 0.181959
O O1 0.100742 0.490666 0.500000
O O2 0.167496 0.540769 0.259040
O O3 0.145541 0.436944 0.253709
O O4 0.000000 0.500000 0.251465
O O5 0.064060 0.051614 0.500000
O O6 0.152666 0.053585 0.247820
O O7 0.993109 0.104327 0.274113
O O8 0.000000 0.000000 0.259227
O O9 0.092212 0.808145 0.198858
O O10 0.188455 0.893277 0.238575
O O11 0.073267 0.886559 0.000000
O O12 0.263283 0.136686 0.767511
O O13 0.227257 0.236283 0.717600
O O14 0.393337 0.208201 0.782291
O O15 0.266534 0.204656 0.000000
O O16 0.739929 0.428218 0.500000
O O17 0.120861 0.271901 0.500000
O O18 0.159963 0.332927 0.740335
O O19 0.054785 0.249750 0.772606
O O20 0.058127 0.731664 0.000000
O O21 0.292802 0.886883 0.000000
#
# Coordination Sequence:
#
# PCOD8237730 Si02
#       8
#     8   8   8   8   8   8   8   8
#     4   9  18  33  58  88 115 145 193 250 292 335
#     4  11  24  39  58  88 122 157 194 241 305 366
#     4  10  20  38  61  85 115 153 200 247 290 353
#     4  11  23  39  60  90 124 159 200 248 303 366
#     4  10  22  39  61  89 117 155 204 250 298 353
#     4  11  22  38  60  88 122 160 198 246 304 361
#     4  11  23  39  59  87 119 157 204 250 299 361
#     4   9  18  34  57  84 115 151 191 240 295 346
#
# _framework density 20.204906000000001
#
# number of rings (size 3 to 8) (size 9 to 14) (size 15 to 20)
#    0.000    1.750    1.250    3.000    1.750    7.000 
#    0.000    0.000    0.000    1.125    0.000    0.000 
#    0.000    0.000    0.000    0.000    0.000    0.000 
#
# Total GULP energy -793854.568771 kJ/mol
# GULP energy per Si atom -12403.977637 kJ/mol
# Density = 2.015892 g / cm^3
# Si number density = 20.204906 Si / 1000 Ang^3
#
#
#
# Elastic Constant Matrix: (Units=GPa)
#
#
# Indices 1 2 3 4 5 6 
#
# 1 142.6209 56.5364 18.3532 0.0000 0.0000 0.0000
# 2 56.5364 129.7978 37.6675 0.0000 0.0000 0.0000
# 3 18.3532 37.6675 18.4805 0.0000 0.0000 0.0000
# 4 0.0000 0.0000 0.0000 22.7975 0.0000 0.0000
# 5 0.0000 0.0000 0.0000 0.0000 24.8639 0.0000
# 6 0.0000 0.0000 0.0000 0.0000 0.0000 42.7473
#
#
#
# Elastic Compliance Matrix: (Units=1/GPa)
#
#
# Indices 1 2 3 4 5 6 
#
# 1 0.008511 -0.003070 -0.002194 0.000000 0.000000 0.000000
# 2 -0.003070 0.019967 -0.037649 0.000000 0.000000 0.000000
# 3 -0.002194 -0.037649 0.133027 0.000000 0.000000 0.000000
# 4 0.000000 0.000000 0.000000 0.043864 0.000000 0.000000
# 5 0.000000 0.000000 0.000000 0.000000 0.040219 0.000000
# 6 0.000000 0.000000 0.000000 0.000000 0.000000 0.023393
#
#
# Mechanical properties :
#
#
# Convention : Reuss Voigt Hill
#
# Bulk Modulus (GPa) = 13.21376 57.33480 35.27428
# Shear Modulus (GPa) = 13.15665 29.97122 21.56393
#
# Velocity S-wave (km/s) = 2.55455 3.85562 3.27044
# Velocity P-wave (km/s) = 3.90577 6.94690 5.63536
#
# Compressibility (1/GPa) = 0.07567871
#
# Stress axis : x y z
#
# Youngs Moduli (GPa) = 117.49348 50.08146 7.51725
#
# Poissons Ratio (x) = 0.15377 0.01649
# Poissons Ratio (y) = 0.36076 0.28302
# Poissons Ratio (z) = 0.25780 1.88551
#
# Static dielectric constant tensor:
#      x y z
#    x 3.780490 0.000000 0.000000 
#    y 0.000000 3.858910 0.000000 
#    z 0.000000 0.000000 3.322800 
# 
# 
# High freq. dielectric constant tensor:
#      x y z
#    x 1.804880 0.000000 0.000000 
#    y 0.000000 1.799040 0.000000 
#    z 0.000000 0.000000 1.759160 
# 
# From -- ./inp_files/6802.got.cif
#   From: 2010.06.25/outbox.cif.g09.slc.cpg/sg58_4_cif.got.tgz:6802.got - 2010.06.26 21:38:00.
