data_PCOD8237245
_publ_section_title
;
Structure prediction by ZEFSAII (Michael W. Deem and Ramdas Pophale) SiO2 
 PCOD8237245
Probable space group: P N N M
;
_chemical_formula_sum "Si O2"
_cell_formula_units_Z 48
_cell_length_a 18.702366
_cell_length_b 14.812882
_cell_length_c 9.382269
_cell_angle_alpha 90.000000
_cell_angle_beta 90.000000
_cell_angle_gamma 90.000000
_cell_volume 2599.225718
_symmetry_space_group_name_H-M "P N N M"
_symmetry_group_IT_number 58
_symmetry_cell_setting 'orthorhombic'
loop_
_space_group_symop_operation_xyz
x,y,z
-x,-y,z
1/2+x,1/2-y,1/2-z
1/2-x,1/2+y,1/2-z
-x,-y,-z
x,y,-z
1/2-x,1/2+y,1/2+z
1/2+x,1/2-y,1/2+z
loop_
_atom_site_type_symbol
_atom_site_label
_atom_site_fract_x
_atom_site_fract_y
_atom_site_fract_z
Si Si1 0.581882 0.243185 0.830526
Si Si2 0.432654 0.555603 0.830224
Si Si3 0.740720 0.208752 0.165324
Si Si4 0.710754 0.540747 0.832828
Si Si5 0.824694 0.391634 0.163509
Si Si6 0.469262 0.095976 0.831146
O O1 0.563265 0.342403 0.769989
O O2 0.659640 0.211951 0.776307
O O3 0.523023 0.172869 0.774423
O O4 0.583139 0.246179 0.000000
O O5 0.500000 0.500000 0.769549
O O6 0.360018 0.509337 0.776174
O O7 0.433783 0.557716 0.000000
O O8 0.784724 0.135501 0.253169
O O9 0.775150 0.305801 0.191662
O O10 0.742787 0.181520 0.000000
O O11 0.779538 0.480225 0.796428
O O12 0.704673 0.559761 0.000000
O O13 0.892764 0.386422 0.263722
O O14 0.849948 0.395135 0.000000
O O15 0.500000 0.000000 0.781230
O O16 0.460285 0.099913 0.000000
#
# Coordination Sequence:
#
# PCOD8237245 Si02
#       6
#     8   8   8   8   8   8
#     4   9  17  33  54  76 106 142 177 216 265 318
#     4   9  17  30  51  78 104 135 176 221 264 309
#     4  10  20  36  57  79 108 144 178 219 275 327
#     4  10  20  35  56  82 107 137 183 226 264 320
#     4  10  21  37  55  79 113 147 178 216 272 338
#     4  10  21  35  55  84 110 137 182 232 270 312
#
# _framework density 18.467037000000001
#
# number of rings (size 3 to 8) (size 9 to 14) (size 15 to 20)
#    0.000    2.333    1.667    1.000    2.333    3.000 
#    0.000    0.833    0.000    1.500    0.000    0.000 
#    0.000    0.000    0.000    0.000    0.000    0.000 
#
# Total GULP energy -595292.852028 kJ/mol
# GULP energy per Si atom -12401.934417 kJ/mol
# Density = 1.842501 g / cm^3
# Si number density = 18.467037 Si / 1000 Ang^3
#
#
#
# Elastic Constant Matrix: (Units=GPa)
#
#
# Indices 1 2 3 4 5 6 
#
# 1 115.9790 26.8823 24.7502 0.0000 0.0000 0.0000
# 2 26.8823 100.0125 22.7565 0.0000 0.0000 0.0000
# 3 24.7502 22.7565 25.9563 0.0000 0.0000 0.0000
# 4 0.0000 0.0000 0.0000 18.9187 0.0000 0.0000
# 5 0.0000 0.0000 0.0000 0.0000 25.0456 0.0000
# 6 0.0000 0.0000 0.0000 0.0000 0.0000 34.0551
#
#
#
# Elastic Compliance Matrix: (Units=1/GPa)
#
#
# Indices 1 2 3 4 5 6 
#
# 1 0.010864 -0.000703 -0.009743 0.000000 0.000000 0.000000
# 2 -0.000703 0.012536 -0.010320 0.000000 0.000000 0.000000
# 3 -0.009743 -0.010320 0.056864 0.000000 0.000000 0.000000
# 4 0.000000 0.000000 0.000000 0.052858 0.000000 0.000000
# 5 0.000000 0.000000 0.000000 0.000000 0.039927 0.000000
# 6 0.000000 0.000000 0.000000 0.000000 0.000000 0.029364
#
#
# Mechanical properties :
#
#
# Convention : Reuss Voigt Hill
#
# Bulk Modulus (GPa) = 25.81832 43.41398 34.61615
# Shear Modulus (GPa) = 19.46609 26.77447 23.12028
#
# Velocity S-wave (km/s) = 3.25021 3.81182 3.54217
# Velocity P-wave (km/s) = 5.30059 6.55235 5.95943
#
# Compressibility (1/GPa) = 0.03873219
#
# Stress axis : x y z
#
# Youngs Moduli (GPa) = 92.04320 79.77054 17.58575
#
# Poissons Ratio (x) = 0.05611 0.17134
# Poissons Ratio (y) = 0.06474 0.18148
# Poissons Ratio (z) = 0.89678 0.82322
#
# Static dielectric constant tensor:
#      x y z
#    x 3.516140 0.000000 0.000000 
#    y 0.000000 3.635490 0.000000 
#    z 0.000000 0.000000 2.957630 
# 
# 
# High freq. dielectric constant tensor:
#      x y z
#    x 1.729290 0.000000 0.000000 
#    y 0.000000 1.733640 0.000000 
#    z 0.000000 0.000000 1.669100 
# 
# From -- ./inp_files/5849.got.cif
#   From: 2010.06.25/outbox.cif.g09.slc.cpg/sg58_3_cif.got.tgz:5849.got - 2010.06.26 21:38:00.
