data_PCOD8237228
_publ_section_title
;
Structure prediction by ZEFSAII (Michael W. Deem and Ramdas Pophale) SiO2 
 PCOD8237228
Probable space group: P N N M
;
_chemical_formula_sum "Si O2"
_cell_formula_units_Z 48
_cell_length_a 29.089228
_cell_length_b 10.131071
_cell_length_c 9.286425
_cell_angle_alpha 90.000000
_cell_angle_beta 90.000000
_cell_angle_gamma 90.000000
_cell_volume 2736.756197
_symmetry_space_group_name_H-M "P N N M"
_symmetry_group_IT_number 58
_symmetry_cell_setting 'orthorhombic'
loop_
_space_group_symop_operation_xyz
x,y,z
-x,-y,z
1/2+x,1/2-y,1/2-z
1/2-x,1/2+y,1/2-z
-x,-y,-z
x,y,-z
1/2-x,1/2+y,1/2+z
1/2+x,1/2-y,1/2+z
loop_
_atom_site_type_symbol
_atom_site_label
_atom_site_fract_x
_atom_site_fract_y
_atom_site_fract_z
Si Si1 0.388598 0.528239 0.166645
Si Si2 0.479669 0.140849 0.166611
Si Si3 0.616821 0.763404 0.832401
Si Si4 0.028876 0.128881 0.830460
Si Si5 0.282710 0.527860 0.165138
Si Si6 0.717220 0.775840 0.830265
O O1 0.396274 0.380515 0.229653
O O2 0.420649 0.624387 0.259800
O O3 0.335681 0.568300 0.188063
O O4 0.403351 0.540270 0.000000
O O5 0.424714 0.135592 0.198537
O O6 0.503027 0.244757 0.270091
O O7 0.500000 0.000000 0.205686
O O8 0.488534 0.178966 0.000000
O O9 0.665825 0.815484 0.772905
O O10 0.625528 0.737657 0.000000
O O11 0.034386 0.144118 0.000000
O O12 0.000000 0.000000 0.786961
O O13 0.273573 0.376627 0.213099
O O14 0.253087 0.627613 0.257903
O O15 0.268515 0.545494 0.000000
O O16 0.721892 0.795137 0.000000
#
# Coordination Sequence:
#
# PCOD8237228 Si02
#       6
#     8   8   8   8   8   8
#     4   9  17  33  57  77  98 135 180 221 253 296
#     4  10  20  35  56  79 104 138 180 219 256 307
#     4   8  15  31  54  76  99 134 176 214 254 303
#     4  11  22  34  52  80 110 137 170 213 261 314
#     4   9  19  35  54  79 105 132 176 219 254 309
#     4   9  18  34  55  76 104 139 172 213 265 314
#
# _framework density 17.539012
#
# number of rings (size 3 to 8) (size 9 to 14) (size 15 to 20)
#    0.000    2.667    1.667    2.500    0.000    2.333 
#    3.000    3.333    0.000    0.000    0.000    0.000 
#    0.000    0.000    0.000    0.000    0.000    0.000 
#
# Total GULP energy -595028.558982 kJ/mol
# GULP energy per Si atom -12396.428312 kJ/mol
# Density = 1.749909 g / cm^3
# Si number density = 17.539012 Si / 1000 Ang^3
#
#
#
# Elastic Constant Matrix: (Units=GPa)
#
#
# Indices 1 2 3 4 5 6 
#
# 1 121.7150 68.2466 56.2428 0.0000 0.0000 0.0000
# 2 68.2466 93.8956 53.2481 0.0000 0.0000 0.0000
# 3 56.2428 53.2481 65.8034 0.0000 0.0000 0.0000
# 4 0.0000 0.0000 0.0000 24.6132 0.0000 0.0000
# 5 0.0000 0.0000 0.0000 0.0000 27.1154 0.0000
# 6 0.0000 0.0000 0.0000 0.0000 0.0000 33.9146
#
#
#
# Elastic Compliance Matrix: (Units=1/GPa)
#
#
# Indices 1 2 3 4 5 6 
#
# 1 0.015755 -0.007050 -0.007761 0.000000 0.000000 0.000000
# 2 -0.007050 0.022837 -0.012454 0.000000 0.000000 0.000000
# 3 -0.007761 -0.012454 0.031908 0.000000 0.000000 0.000000
# 4 0.000000 0.000000 0.000000 0.040629 0.000000 0.000000
# 5 0.000000 0.000000 0.000000 0.000000 0.036879 0.000000
# 6 0.000000 0.000000 0.000000 0.000000 0.000000 0.029486
#
#
# Mechanical properties :
#
#
# Convention : Reuss Voigt Hill
#
# Bulk Modulus (GPa) = 62.61792 70.76542 66.69167
# Shear Modulus (GPa) = 21.06611 24.04043 22.55327
#
# Velocity S-wave (km/s) = 3.46945 3.70629 3.58982
# Velocity P-wave (km/s) = 7.19924 7.66489 7.43571
#
# Compressibility (1/GPa) = 0.01596987
#
# Stress axis : x y z
#
# Youngs Moduli (GPa) = 63.47040 43.78866 31.33999
#
# Poissons Ratio (x) = 0.30872 0.24324
# Poissons Ratio (y) = 0.44747 0.39030
# Poissons Ratio (z) = 0.49261 0.54534
#
# Static dielectric constant tensor:
#      x y z
#    x 3.483200 0.000000 0.000000 
#    y 0.000000 3.107270 0.000000 
#    z 0.000000 0.000000 3.013390 
# 
# 
# High freq. dielectric constant tensor:
#      x y z
#    x 1.691270 0.000000 0.000000 
#    y 0.000000 1.661310 0.000000 
#    z 0.000000 0.000000 1.657230 
# 
# From -- ./inp_files/4314.got.cif
#   From: 2010.06.25/outbox.cif.g09.slc.cpg/sg58_3_cif.got.tgz:4314.got - 2010.06.26 21:38:00.
