data_PCOD8237072
_publ_section_title
;
Structure prediction by ZEFSAII (Michael W. Deem and Ramdas Pophale) SiO2 
 PCOD8237072
Probable space group: P N N M
;
_chemical_formula_sum "Si O2"
_cell_formula_units_Z 56
_cell_length_a 20.804562
_cell_length_b 14.561478
_cell_length_c 8.976808
_cell_angle_alpha 90.000000
_cell_angle_beta 90.000000
_cell_angle_gamma 90.000000
_cell_volume 2719.480642
_symmetry_space_group_name_H-M "P N N M"
_symmetry_group_IT_number 58
_symmetry_cell_setting 'orthorhombic'
loop_
_space_group_symop_operation_xyz
x,y,z
-x,-y,z
1/2+x,1/2-y,1/2-z
1/2-x,1/2+y,1/2-z
-x,-y,-z
x,y,-z
1/2-x,1/2+y,1/2+z
1/2+x,1/2-y,1/2+z
loop_
_atom_site_type_symbol
_atom_site_label
_atom_site_fract_x
_atom_site_fract_y
_atom_site_fract_z
Si Si1 0.655976 0.174720 0.171326
Si Si2 0.357264 0.436968 0.167849
Si Si3 0.267431 0.184712 0.323756
Si Si4 0.600202 0.760189 0.170480
Si Si5 0.058823 0.067420 0.163831
Si Si6 0.258392 0.992982 0.830118
Si Si7 0.971835 0.727644 0.825819
O O1 0.709181 0.248520 0.230577
O O2 0.678326 0.069054 0.188997
O O3 0.590602 0.176101 0.264865
O O4 0.640911 0.197936 0.000000
O O5 0.404760 0.350329 0.182689
O O6 0.392799 0.531085 0.211408
O O7 0.298672 0.423617 0.282542
O O8 0.331243 0.446578 0.000000
O O9 0.275819 0.192906 0.500000
O O10 0.334119 0.209929 0.246890
O O11 0.253645 0.079943 0.278336
O O12 0.538016 0.805962 0.248470
O O13 0.601754 0.793698 0.000000
O O14 0.035634 0.166228 0.215301
O O15 0.092310 0.072949 0.000000
O O16 0.000000 0.000000 0.151836
O O17 0.250480 0.025719 0.000000
O O18 0.978355 0.708317 0.000000
#
# Coordination Sequence:
#
# PCOD8237072 Si02
#       7
#     8   8   8   8   8   8   8
#     4  10  23  42  63  89 126 165 201 251 314 371
#     4  11  22  35  57  88 120 158 202 251 302 362
#     4  11  23  42  67  95 125 162 209 260 310 368
#     4  11  23  39  61  89 124 164 205 251 306 368
#     4  10  20  34  53  81 119 159 197 241 303 370
#     4  11  23  41  64  90 122 162 205 254 311 369
#     4  11  23  38  60  88 122 164 208 257 308 366
#
# _framework density 20.592167
#
# number of rings (size 3 to 8) (size 9 to 14) (size 15 to 20)
#    0.000    1.286    2.857    3.000    0.000    7.143 
#    0.000    0.714    0.000    4.286    0.000    0.000 
#    0.000    0.000    0.000    0.000    0.000    0.000 
#
# Total GULP energy -694353.728980 kJ/mol
# GULP energy per Si atom -12399.173732 kJ/mol
# Density = 2.054530 g / cm^3
# Si number density = 20.592167 Si / 1000 Ang^3
#
#
#
# Elastic Constant Matrix: (Units=GPa)
#
#
# Indices 1 2 3 4 5 6 
#
# 1 128.6327 6.8104 57.0121 0.0000 0.0000 0.0000
# 2 6.8104 43.9165 17.6821 0.0000 0.0000 0.0000
# 3 57.0121 17.6821 102.6867 0.0000 0.0000 0.0000
# 4 0.0000 0.0000 0.0000 19.6301 0.0000 0.0000
# 5 0.0000 0.0000 0.0000 0.0000 42.3421 0.0000
# 6 0.0000 0.0000 0.0000 0.0000 0.0000 27.7229
#
#
#
# Elastic Compliance Matrix: (Units=1/GPa)
#
#
# Indices 1 2 3 4 5 6 
#
# 1 0.010335 0.000760 -0.005869 0.000000 0.000000 0.000000
# 2 0.000760 0.024523 -0.004645 0.000000 0.000000 0.000000
# 3 -0.005869 -0.004645 0.013797 0.000000 0.000000 0.000000
# 4 0.000000 0.000000 0.000000 0.050942 0.000000 0.000000
# 5 0.000000 0.000000 0.000000 0.000000 0.023617 0.000000
# 6 0.000000 0.000000 0.000000 0.000000 0.000000 0.036071
#
#
# Mechanical properties :
#
#
# Convention : Reuss Voigt Hill
#
# Bulk Modulus (GPa) = 34.30832 48.69389 41.50111
# Shear Modulus (GPa) = 26.52412 30.85445 28.68928
#
# Velocity S-wave (km/s) = 3.59286 3.87506 3.73663
# Velocity P-wave (km/s) = 5.82311 6.61208 6.23010
#
# Compressibility (1/GPa) = 0.02914745
#
# Stress axis : x y z
#
# Youngs Moduli (GPa) = 96.75813 40.77856 72.48128
#
# Poissons Ratio (x) = -0.03100 0.42539
# Poissons Ratio (y) = -0.07357 0.33666
# Poissons Ratio (z) = 0.56787 0.18941
#
# Static dielectric constant tensor:
#      x y z
#    x 3.726040 0.000000 0.000000 
#    y 0.000000 2.148750 0.000000 
#    z 0.000000 0.000000 3.778760 
# 
# 
# High freq. dielectric constant tensor:
#      x y z
#    x 1.807340 0.000000 0.000000 
#    y 0.000000 1.788980 0.000000 
#    z 0.000000 0.000000 1.811970 
# 
# From -- ./inp_files/6319.got.cif
#   From: 2010.06.25/outbox.cif.g09.slc.cpg/sg58_4_cif.got.tgz:6319.got - 2010.06.26 21:38:00.
