data_PCOD8237883
_publ_section_title
;
Structure prediction by ZEFSAII (Michael W. Deem and Ramdas Pophale) SiO2 
 PCOD8237883
Probable space group: P N N M
;
_chemical_formula_sum "Si O2"
_cell_formula_units_Z 56
_cell_length_a 8.942455
_cell_length_b 16.942570
_cell_length_c 18.834161
_cell_angle_alpha 90.000000
_cell_angle_beta 90.000000
_cell_angle_gamma 90.000000
_cell_volume 2853.529263
_symmetry_space_group_name_H-M "P N N M"
_symmetry_group_IT_number 58
_symmetry_cell_setting 'orthorhombic'
loop_
_space_group_symop_operation_xyz
x,y,z
-x,-y,z
1/2+x,1/2-y,1/2-z
1/2-x,1/2+y,1/2-z
-x,-y,-z
x,y,-z
1/2-x,1/2+y,1/2+z
1/2+x,1/2-y,1/2+z
loop_
_atom_site_type_symbol
_atom_site_label
_atom_site_fract_x
_atom_site_fract_y
_atom_site_fract_z
Si Si1 0.513655 0.592492 0.418138
Si Si2 0.341042 0.656056 0.711950
Si Si3 0.084164 0.420986 0.808632
Si Si4 0.002618 0.709895 0.294221
Si Si5 0.838571 0.971902 0.328694
Si Si6 0.141547 0.637407 0.081537
Si Si7 0.213571 0.302367 0.419194
O O1 0.500000 0.500000 0.402206
O O2 0.470465 0.611702 0.500000
O O3 0.399866 0.639396 0.367218
O O4 0.684652 0.620436 0.403203
O O5 0.459580 0.708638 0.755650
O O6 0.325857 0.573482 0.753582
O O7 0.181657 0.700371 0.706543
O O8 0.080757 0.360909 0.744606
O O9 0.253371 0.444539 0.824691
O O10 0.000000 0.500000 0.784979
O O11 0.011327 0.382060 0.878148
O O12 0.937371 0.704557 0.373595
O O13 0.776530 0.916632 0.390902
O O14 0.000000 0.000000 0.350567
O O15 0.179559 0.728041 0.096521
O O16 0.114021 0.618541 0.000000
O O17 0.157225 0.302323 0.500000
#
# Coordination Sequence:
#
# PCOD8237883 Si02
#       7
#     8   8   8   8   8   8   8
#     4  10  23  42  64  93 129 169 210 255 315 372
#     4  12  24  39  62  93 123 165 206 259 308 375
#     4  10  21  38  58  90 120 158 204 248 302 364
#     4  12  23  39  64  91 123 163 211 254 316 372
#     4  11  24  39  58  93 127 157 201 260 311 357
#     4  10  20  42  65  87 123 167 206 247 310 375
#     4  10  22  41  64  91 127 165 206 261 315 369
#
# _framework density 19.624822000000002
#
# number of rings (size 3 to 8) (size 9 to 14) (size 15 to 20)
#    0.000    1.286    4.286    2.143    6.000    3.429 
#    0.000    0.000    0.000    3.000    0.000    0.000 
#    0.000    0.000    0.000    0.000    0.000    0.000 
#
# Total GULP energy -694454.879195 kJ/mol
# GULP energy per Si atom -12400.979986 kJ/mol
# Density = 1.958015 g / cm^3
# Si number density = 19.624822 Si / 1000 Ang^3
#
#
#
# Elastic Constant Matrix: (Units=GPa)
#
#
# Indices 1 2 3 4 5 6 
#
# 1 113.6962 28.2658 46.0049 0.0000 0.0000 0.0000
# 2 28.2658 63.9432 42.6022 0.0000 0.0000 0.0000
# 3 46.0049 42.6022 118.5143 0.0000 0.0000 0.0000
# 4 0.0000 0.0000 0.0000 29.2031 0.0000 0.0000
# 5 0.0000 0.0000 0.0000 0.0000 7.6605 0.0000
# 6 0.0000 0.0000 0.0000 0.0000 0.0000 18.2033
#
#
#
# Elastic Compliance Matrix: (Units=1/GPa)
#
#
# Indices 1 2 3 4 5 6 
#
# 1 0.010752 -0.002593 -0.003241 0.000000 0.000000 0.000000
# 2 -0.002593 0.021189 -0.006610 0.000000 0.000000 0.000000
# 3 -0.003241 -0.006610 0.012072 0.000000 0.000000 0.000000
# 4 0.000000 0.000000 0.000000 0.034243 0.000000 0.000000
# 5 0.000000 0.000000 0.000000 0.000000 0.130539 0.000000
# 6 0.000000 0.000000 0.000000 0.000000 0.000000 0.054935
#
#
# Mechanical properties :
#
#
# Convention : Reuss Voigt Hill
#
# Bulk Modulus (GPa) = 52.29172 58.87773 55.58472
# Shear Modulus (GPa) = 16.94948 22.96545 19.95746
#
# Velocity S-wave (km/s) = 2.94202 3.42457 3.19243
# Velocity P-wave (km/s) = 6.18419 6.76045 6.47873
#
# Compressibility (1/GPa) = 0.01912349
#
# Stress axis : x y z
#
# Youngs Moduli (GPa) = 93.00933 47.19375 82.83467
#
# Poissons Ratio (x) = 0.12238 0.26850
# Poissons Ratio (y) = 0.24118 0.54756
# Poissons Ratio (z) = 0.30148 0.31196
#
# Static dielectric constant tensor:
#      x y z
#    x 3.656090 0.000000 0.000000 
#    y 0.000000 3.958590 0.000000 
#    z 0.000000 0.000000 3.662800 
# 
# 
# High freq. dielectric constant tensor:
#      x y z
#    x 1.757680 0.000000 0.000000 
#    y 0.000000 1.777230 0.000000 
#    z 0.000000 0.000000 1.766780 
# 
# From -- ./inp_files/29051.got.cif
#   From: 2010.06.25/outbox.cif.g09.slc.cpg/sg58_15_cif.got.tgz:29051.got - 2010.06.26 21:38:00.
