data_PCOD8237299
_publ_section_title
;
Structure prediction by ZEFSAII (Michael W. Deem and Ramdas Pophale) SiO2 
 PCOD8237299
Probable space group: P N N M
;
_chemical_formula_sum "Si O2"
_cell_formula_units_Z 64
_cell_length_a 14.297262
_cell_length_b 25.248635
_cell_length_c 8.812597
_cell_angle_alpha 90.000000
_cell_angle_beta 90.000000
_cell_angle_gamma 90.000000
_cell_volume 3181.227223
_symmetry_space_group_name_H-M "P N N M"
_symmetry_group_IT_number 58
_symmetry_cell_setting 'orthorhombic'
loop_
_space_group_symop_operation_xyz
x,y,z
-x,-y,z
1/2+x,1/2-y,1/2-z
1/2-x,1/2+y,1/2-z
-x,-y,-z
x,y,-z
1/2-x,1/2+y,1/2+z
1/2+x,1/2-y,1/2+z
loop_
_atom_site_type_symbol
_atom_site_label
_atom_site_fract_x
_atom_site_fract_y
_atom_site_fract_z
Si Si1 0.651150 0.098698 0.678469
Si Si2 0.299324 0.324643 0.173044
Si Si3 0.228828 0.991726 0.826397
Si Si4 0.915051 0.092146 0.170459
Si Si5 0.757427 0.397279 0.177966
Si Si6 0.039708 0.756416 0.319613
Si Si7 0.042881 0.644566 0.823767
Si Si8 0.588500 0.344269 0.673703
O O1 0.673449 0.090311 0.500000
O O2 0.699065 0.154748 0.736931
O O3 0.692259 0.049648 0.771637
O O4 0.540605 0.102931 0.707810
O O5 0.367445 0.374573 0.196362
O O6 0.356231 0.274609 0.244026
O O7 0.284425 0.310619 0.000000
O O8 0.123055 0.967819 0.810450
O O9 0.232845 0.043710 0.726500
O O10 0.250339 0.006620 0.000000
O O11 0.026500 0.101426 0.188622
O O12 0.885770 0.112010 0.000000
O O13 0.862295 0.383361 0.230881
O O14 0.688248 0.354527 0.250943
O O15 0.746649 0.393031 0.000000
O O16 0.034904 0.762440 0.500000
O O17 0.022563 0.696667 0.272508
O O18 0.959943 0.793779 0.250218
O O19 0.046785 0.660474 0.000000
O O20 0.606167 0.329343 0.500000
#
# Coordination Sequence:
#
# PCOD8237299 Si02
#       8
#     8   8   8   8   8   8   8   8
#     4   9  18  36  59  80 104 140 186 230 275 330
#     4   8  15  29  52  80 106 132 168 216 266 319
#     4  10  20  36  58  84 112 143 181 228 285 340
#     4   8  16  31  53  81 110 139 174 217 267 328
#     4  11  24  40  55  78 114 152 191 233 278 330
#     4  10  20  35  57  86 116 143 176 223 278 335
#     4  10  23  40  56  77 109 150 193 233 276 329
#     4  10  20  37  60  84 113 149 186 227 280 338
#
# _framework density 20.118023000000001
#
# number of rings (size 3 to 8) (size 9 to 14) (size 15 to 20)
#    0.000    2.500    0.000    1.500    0.000    5.000 
#    0.000    6.250    0.000    0.000    0.000    0.000 
#    0.000    0.000    0.000    0.000    0.000    0.000 
#
# Total GULP energy -792906.863528 kJ/mol
# GULP energy per Si atom -12389.169743 kJ/mol
# Density = 2.007223 g / cm^3
# Si number density = 20.118023 Si / 1000 Ang^3
#
#
#
# Elastic Constant Matrix: (Units=GPa)
#
#
# Indices 1 2 3 4 5 6 
#
# 1 83.5799 2.7264 27.2919 0.0000 0.0000 0.0000
# 2 2.7264 58.9749 20.0697 0.0000 0.0000 0.0000
# 3 27.2919 20.0697 59.0315 0.0000 0.0000 0.0000
# 4 0.0000 0.0000 0.0000 32.5238 0.0000 0.0000
# 5 0.0000 0.0000 0.0000 0.0000 21.7825 0.0000
# 6 0.0000 0.0000 0.0000 0.0000 0.0000 24.1443
#
#
#
# Elastic Compliance Matrix: (Units=1/GPa)
#
#
# Indices 1 2 3 4 5 6 
#
# 1 0.014257 0.001791 -0.007201 0.000000 0.000000 0.000000
# 2 0.001791 0.019400 -0.007424 0.000000 0.000000 0.000000
# 3 -0.007201 -0.007424 0.022793 0.000000 0.000000 0.000000
# 4 0.000000 0.000000 0.000000 0.030747 0.000000 0.000000
# 5 0.000000 0.000000 0.000000 0.000000 0.045908 0.000000
# 6 0.000000 0.000000 0.000000 0.000000 0.000000 0.041418
#
#
# Mechanical properties :
#
#
# Convention : Reuss Voigt Hill
#
# Bulk Modulus (GPa) = 32.48414 33.52915 33.00664
# Shear Modulus (GPa) = 23.75850 25.79000 24.77425
#
# Velocity S-wave (km/s) = 3.44023 3.58430 3.51300
# Velocity P-wave (km/s) = 5.65350 5.81653 5.73559
#
# Compressibility (1/GPa) = 0.03078425
#
# Stress axis : x y z
#
# Youngs Moduli (GPa) = 70.13891 51.54646 43.87290
#
# Poissons Ratio (x) = -0.09234 0.31591
# Poissons Ratio (y) = -0.12564 0.32571
# Poissons Ratio (z) = 0.50504 0.38267
#
# Static dielectric constant tensor:
#      x y z
#    x 3.890710 0.000000 0.000000 
#    y 0.000000 3.451640 0.000000 
#    z 0.000000 0.000000 3.617920 
# 
# 
# High freq. dielectric constant tensor:
#      x y z
#    x 1.788250 0.000000 0.000000 
#    y 0.000000 1.768170 0.000000 
#    z 0.000000 0.000000 1.780920 
# 
# From -- ./inp_files/6743.got.cif
#   From: 2010.06.25/outbox.cif.g09.slc.cpg/sg58_4_cif.got.tgz:6743.got - 2010.06.26 21:38:00.
