data_PCOD8237989
_publ_section_title
;
Structure prediction by ZEFSAII (Michael W. Deem and Ramdas Pophale) SiO2 
 PCOD8237989
Probable space group: P N N M
;
_chemical_formula_sum "Si O2"
_cell_formula_units_Z 64
_cell_length_a 17.930795
_cell_length_b 13.602987
_cell_length_c 13.344957
_cell_angle_alpha 90.000000
_cell_angle_beta 90.000000
_cell_angle_gamma 90.000000
_cell_volume 3255.000107
_symmetry_space_group_name_H-M "P N N M"
_symmetry_group_IT_number 58
_symmetry_cell_setting 'orthorhombic'
loop_
_space_group_symop_operation_xyz
x,y,z
-x,-y,z
1/2+x,1/2-y,1/2-z
1/2-x,1/2+y,1/2-z
-x,-y,-z
x,y,-z
1/2-x,1/2+y,1/2+z
1/2+x,1/2-y,1/2+z
loop_
_atom_site_type_symbol
_atom_site_label
_atom_site_fract_x
_atom_site_fract_y
_atom_site_fract_z
Si Si1 0.574064 0.063259 0.884693
Si Si2 0.808910 0.451947 0.254810
Si Si3 0.079515 0.519410 0.889628
Si Si4 0.072503 0.867614 0.616159
Si Si5 0.793932 0.267469 0.615442
Si Si6 0.866399 0.698972 0.110578
Si Si7 0.572720 0.279303 0.808731
Si Si8 0.329432 0.551878 0.883375
O O1 0.646106 0.037386 0.815265
O O2 0.558556 0.178736 0.869362
O O3 0.500000 0.000000 0.856831
O O4 0.595211 0.043086 0.000000
O O5 0.870068 0.407225 0.176246
O O6 0.783886 0.370545 0.331311
O O7 0.736970 0.485027 0.189978
O O8 0.121529 0.416488 0.890789
O O9 0.000000 0.500000 0.837849
O O10 0.068071 0.565300 0.000000
O O11 0.052738 0.849001 0.500000
O O12 0.136098 0.793634 0.655433
O O13 0.999709 0.848164 0.682285
O O14 0.100776 0.978775 0.631253
O O15 0.805381 0.291340 0.500000
O O16 0.720358 0.205561 0.637140
O O17 0.915953 0.756996 0.191093
O O18 0.884251 0.743530 0.000000
O O19 0.643592 0.338367 0.854018
O O20 0.302397 0.549698 0.000000
#
# Coordination Sequence:
#
# PCOD8237989 Si02
#       8
#     8   8   8   8   8   8   8   8
#     4  11  24  40  61  92 127 160 197 248 309 370
#     4  12  21  35  59  88 121 160 195 244 296 359
#     4  10  21  36  57  86 119 155 195 242 297 355
#     4  10  22  39  63  88 117 155 203 252 296 354
#     4  10  21  38  59  86 117 160 208 245 287 356
#     4  10  21  39  60  84 119 159 201 240 290 361
#     4  12  22  40  64  91 120 158 197 253 311 354
#     4  11  24  40  60  89 121 159 206 256 303 353
#
# _framework density 19.662057000000001
#
# number of rings (size 3 to 8) (size 9 to 14) (size 15 to 20)
#    0.000    1.250    2.500    4.125    1.750    5.000 
#    0.000    0.000    0.000    3.000    0.000    0.000 
#    0.000    0.000    0.000    0.000    0.000    0.000 
#
# Total GULP energy -793319.525097 kJ/mol
# GULP energy per Si atom -12395.617580 kJ/mol
# Density = 1.961731 g / cm^3
# Si number density = 19.662057 Si / 1000 Ang^3
#
#
#
# Elastic Constant Matrix: (Units=GPa)
#
#
# Indices 1 2 3 4 5 6 
#
# 1 114.9112 26.1944 41.6602 0.0000 0.0000 0.0000
# 2 26.1944 71.8298 18.2560 0.0000 0.0000 0.0000
# 3 41.6602 18.2560 76.0334 0.0000 0.0000 0.0000
# 4 0.0000 0.0000 0.0000 67.3068 0.0000 0.0000
# 5 0.0000 0.0000 0.0000 0.0000 40.0615 0.0000
# 6 0.0000 0.0000 0.0000 0.0000 0.0000 34.3418
#
#
#
# Elastic Compliance Matrix: (Units=1/GPa)
#
#
# Indices 1 2 3 4 5 6 
#
# 1 0.011338 -0.002722 -0.005559 0.000000 0.000000 0.000000
# 2 -0.002722 0.015480 -0.002225 0.000000 0.000000 0.000000
# 3 -0.005559 -0.002225 0.016732 0.000000 0.000000 0.000000
# 4 0.000000 0.000000 0.000000 0.014857 0.000000 0.000000
# 5 0.000000 0.000000 0.000000 0.000000 0.024962 0.000000
# 6 0.000000 0.000000 0.000000 0.000000 0.000000 0.029119
#
#
# Mechanical properties :
#
#
# Convention : Reuss Voigt Hill
#
# Bulk Modulus (GPa) = 44.36948 48.33286 46.35117
# Shear Modulus (GPa) = 35.45761 40.11962 37.78861
#
# Velocity S-wave (km/s) = 4.25120 4.52204 4.38871
# Velocity P-wave (km/s) = 6.83461 7.20419 7.02183
#
# Compressibility (1/GPa) = 0.02253801
#
# Stress axis : x y z
#
# Youngs Moduli (GPa) = 88.19781 64.59943 59.76484
#
# Poissons Ratio (x) = 0.17583 0.33222
# Poissons Ratio (y) = 0.24007 0.13300
# Poissons Ratio (z) = 0.49028 0.14376
#
# Static dielectric constant tensor:
#      x y z
#    x 3.711390 0.000000 0.000000 
#    y 0.000000 3.464000 0.000000 
#    z 0.000000 0.000000 3.923360 
# 
# 
# High freq. dielectric constant tensor:
#      x y z
#    x 1.775210 0.000000 0.000000 
#    y 0.000000 1.747930 0.000000 
#    z 0.000000 0.000000 1.773140 
# 
# From -- ./inp_files/22969.got.cif
#   From: 2010.06.25/outbox.cif.g09.slc.cpg/sg58_12_cif.got.tgz:22969.got - 2010.06.26 21:38:00.
