data_PCOD8237435
_publ_section_title
;
Structure prediction by ZEFSAII (Michael W. Deem and Ramdas Pophale) SiO2 
 PCOD8237435
Probable space group: P N N M
;
_chemical_formula_sum "Si O2"
_cell_formula_units_Z 40
_cell_length_a 10.112582
_cell_length_b 26.831943
_cell_length_c 7.743869
_cell_angle_alpha 90.000000
_cell_angle_beta 90.000000
_cell_angle_gamma 90.000000
_cell_volume 2101.223148
_symmetry_space_group_name_H-M "P N N M"
_symmetry_group_IT_number 58
_symmetry_cell_setting 'orthorhombic'
loop_
_space_group_symop_operation_xyz
x,y,z
-x,-y,z
1/2+x,1/2-y,1/2-z
1/2-x,1/2+y,1/2-z
-x,-y,-z
x,y,-z
1/2-x,1/2+y,1/2+z
1/2+x,1/2-y,1/2+z
loop_
_atom_site_type_symbol
_atom_site_label
_atom_site_fract_x
_atom_site_fract_y
_atom_site_fract_z
Si Si1 0.523938 0.896671 0.695849
Si Si2 0.117193 0.538949 0.500000
Si Si3 0.006183 0.713441 0.296880
Si Si4 0.217968 0.904010 0.693265
Si Si5 0.209928 0.796875 0.802596
Si Si6 0.133033 0.970033 0.000000
O O1 0.556228 0.913492 0.500000
O O2 0.613977 0.927471 0.827702
O O3 0.554105 0.838208 0.713739
O O4 0.371995 0.907508 0.744218
O O5 0.253320 0.510516 0.500000
O O6 0.000000 0.500000 0.500000
O O7 0.026202 0.710647 0.500000
O O8 0.853525 0.724468 0.244789
O O9 0.096435 0.756565 0.220302
O O10 0.192817 0.924578 0.500000
O O11 0.173086 0.846266 0.695731
O O12 0.135762 0.936245 0.828683
O O13 0.219877 0.813803 0.000000
O O14 0.000000 0.000000 0.000000
#
# Coordination Sequence:
#
# PCOD8237435 Si02
#       6
#     8   4   8   8   8   4
#     4  10  20  37  64  93 119 152 202 257 304 352
#     4  12  22  40  68  90 118 156 208 256 296 352
#     4  10  20  36  58  87 124 158 197 246 298 358
#     4  10  20  39  65  88 119 161 203 244 303 369
#     4  10  20  36  60  88 121 159 199 245 297 360
#     4  12  26  44  62  90 124 162 206 252 310 362
#
# _framework density 19.036529999999999
#
# number of rings (size 3 to 8) (size 9 to 14) (size 15 to 20)
#    0.000    1.600    4.000    1.200    0.000    4.000 
#    3.600    0.000    0.000    0.000    0.000    0.000 
#    0.000    0.000    0.000    0.000    0.000    0.000 
#
# Total GULP energy -496105.439612 kJ/mol
# GULP energy per Si atom -12402.635990 kJ/mol
# Density = 1.899320 g / cm^3
# Si number density = 19.036530 Si / 1000 Ang^3
#
#
#
# Elastic Constant Matrix: (Units=GPa)
#
#
# Indices 1 2 3 4 5 6 
#
# 1 98.4758 66.7257 29.5099 0.0000 0.0000 0.0000
# 2 66.7257 106.3172 51.0161 0.0000 0.0000 0.0000
# 3 29.5099 51.0161 105.6875 0.0000 0.0000 0.0000
# 4 0.0000 0.0000 0.0000 31.1655 0.0000 0.0000
# 5 0.0000 0.0000 0.0000 0.0000 19.8064 0.0000
# 6 0.0000 0.0000 0.0000 0.0000 0.0000 39.5244
#
#
#
# Elastic Compliance Matrix: (Units=1/GPa)
#
#
# Indices 1 2 3 4 5 6 
#
# 1 0.017693 -0.011366 0.000546 0.000000 0.000000 0.000000
# 2 -0.011366 0.019543 -0.006260 0.000000 0.000000 0.000000
# 3 0.000546 -0.006260 0.012331 0.000000 0.000000 0.000000
# 4 0.000000 0.000000 0.000000 0.032087 0.000000 0.000000
# 5 0.000000 0.000000 0.000000 0.000000 0.050489 0.000000
# 6 0.000000 0.000000 0.000000 0.000000 0.000000 0.025301
#
#
# Mechanical properties :
#
#
# Convention : Reuss Voigt Hill
#
# Bulk Modulus (GPa) = 64.90429 67.22042 66.06236
# Shear Modulus (GPa) = 25.41443 28.98119 27.19781
#
# Velocity S-wave (km/s) = 3.65778 3.90603 3.78394
# Velocity P-wave (km/s) = 7.21164 7.46530 7.33956
#
# Compressibility (1/GPa) = 0.01540730
#
# Stress axis : x y z
#
# Youngs Moduli (GPa) = 56.52060 51.16849 81.09633
#
# Poissons Ratio (x) = 0.58160 -0.04432
# Poissons Ratio (y) = 0.64243 0.50766
# Poissons Ratio (z) = -0.03089 0.32031
#
# Static dielectric constant tensor:
#      x y z
#    x 3.417630 0.000000 0.000000 
#    y 0.000000 3.463610 0.000000 
#    z 0.000000 0.000000 3.846190 
# 
# 
# High freq. dielectric constant tensor:
#      x y z
#    x 1.710000 0.000000 0.000000 
#    y 0.000000 1.741580 0.000000 
#    z 0.000000 0.000000 1.759320 
# 
# From -- ./inp_files/2644.got.cif
#   From: 2010.06.25/outbox.cif.g09.slc.cpg/sg58_2_cif.got.tgz:2644.got - 2010.06.26 21:38:00.
