data_PCOD8237027
_publ_section_title
;
Structure prediction by ZEFSAII (Michael W. Deem and Ramdas Pophale) SiO2 
 PCOD8237027
Probable space group: P N N M
;
_chemical_formula_sum "Si O2"
_cell_formula_units_Z 40
_cell_length_a 13.133622
_cell_length_b 18.155351
_cell_length_c 9.341114
_cell_angle_alpha 90.000000
_cell_angle_beta 90.000000
_cell_angle_gamma 90.000000
_cell_volume 2227.346760
_symmetry_space_group_name_H-M "P N N M"
_symmetry_group_IT_number 58
_symmetry_cell_setting 'orthorhombic'
loop_
_space_group_symop_operation_xyz
x,y,z
-x,-y,z
1/2+x,1/2-y,1/2-z
1/2-x,1/2+y,1/2-z
-x,-y,-z
x,y,-z
1/2-x,1/2+y,1/2+z
1/2+x,1/2-y,1/2+z
loop_
_atom_site_type_symbol
_atom_site_label
_atom_site_fract_x
_atom_site_fract_y
_atom_site_fract_z
Si Si1 0.815790 0.486187 0.164830
Si Si2 0.172258 0.822191 0.165085
Si Si3 0.892168 0.619410 0.332276
Si Si4 0.083449 0.666192 0.834297
Si Si5 0.096877 0.955074 0.333081
O O1 0.885894 0.538700 0.261532
O O2 0.843382 0.402380 0.200644
O O3 0.697118 0.497014 0.201402
O O4 0.838619 0.506014 0.000000
O O5 0.290306 0.834980 0.202157
O O6 0.146510 0.738737 0.206415
O O7 0.100764 0.876716 0.254757
O O8 0.150442 0.838962 0.000000
O O9 0.911379 0.609687 0.500000
O O10 0.983610 0.664940 0.263031
O O11 0.050154 0.666198 0.000000
O O12 0.085175 0.938410 0.500000
O O13 0.000000 0.000000 0.274736
#
# Coordination Sequence:
#
# PCOD8237027 Si02
#       5
#     8   8   8   8   8
#     4   9  18  33  52  73  99 132 168 204 245 298
#     4   9  20  36  51  72 103 134 163 202 252 299
#     4  10  20  34  52  74 101 130 163 207 252 291
#     4  10  20  34  52  73  99 133 168 200 245 302
#     4   9  18  33  54  77 100 131 171 209 244 289
#
# _framework density 17.958586
#
# number of rings (size 3 to 8) (size 9 to 14) (size 15 to 20)
#    0.000    2.600    0.000    1.200    0.000    6.800 
#    0.000    4.000    0.000    0.000    0.000    0.000 
#    0.000    0.000    0.000    0.000    0.000    0.000 
#
# Total GULP energy -496151.737210 kJ/mol
# GULP energy per Si atom -12403.793430 kJ/mol
# Density = 1.791771 g / cm^3
# Si number density = 17.958586 Si / 1000 Ang^3
#
#
#
# Elastic Constant Matrix: (Units=GPa)
#
#
# Indices 1 2 3 4 5 6 
#
# 1 91.7896 68.3093 48.2126 0.0000 0.0000 0.0000
# 2 68.3093 157.2839 62.7561 0.0000 0.0000 0.0000
# 3 48.2126 62.7561 69.2302 0.0000 0.0000 0.0000
# 4 0.0000 0.0000 0.0000 28.6638 0.0000 0.0000
# 5 0.0000 0.0000 0.0000 0.0000 24.2968 0.0000
# 6 0.0000 0.0000 0.0000 0.0000 0.0000 28.8083
#
#
#
# Elastic Compliance Matrix: (Units=1/GPa)
#
#
# Indices 1 2 3 4 5 6 
#
# 1 0.019163 -0.004697 -0.009088 0.000000 0.000000 0.000000
# 2 -0.004697 0.011112 -0.006802 0.000000 0.000000 0.000000
# 3 -0.009088 -0.006802 0.026939 0.000000 0.000000 0.000000
# 4 0.000000 0.000000 0.000000 0.034887 0.000000 0.000000
# 5 0.000000 0.000000 0.000000 0.000000 0.041158 0.000000
# 6 0.000000 0.000000 0.000000 0.000000 0.000000 0.034712
#
#
# Mechanical properties :
#
#
# Convention : Reuss Voigt Hill
#
# Bulk Modulus (GPa) = 62.33922 75.20663 68.77293
# Shear Modulus (GPa) = 23.31103 25.62216 24.46660
#
# Velocity S-wave (km/s) = 3.60675 3.78131 3.69506
# Velocity P-wave (km/s) = 7.22032 7.81237 7.52217
#
# Compressibility (1/GPa) = 0.01604126
#
# Stress axis : x y z
#
# Youngs Moduli (GPa) = 52.18356 89.99660 37.12061
#
# Poissons Ratio (x) = 0.42267 0.33735
# Poissons Ratio (y) = 0.24508 0.25248
# Poissons Ratio (z) = 0.47425 0.61213
#
# Static dielectric constant tensor:
#      x y z
#    x 3.383840 0.000000 0.000000 
#    y 0.000000 3.337870 0.000000 
#    z 0.000000 0.000000 3.312420 
# 
# 
# High freq. dielectric constant tensor:
#      x y z
#    x 1.697510 0.000000 0.000000 
#    y 0.000000 1.694160 0.000000 
#    z 0.000000 0.000000 1.692830 
# 
# From -- ./inp_files/3779.got.cif
#   From: 2010.06.25/outbox.cif.g09.slc.cpg/sg58_2_cif.got.tgz:3779.got - 2010.06.26 21:38:00.
