data_PCOD8237304
_publ_section_title
;
Structure prediction by ZEFSAII (Michael W. Deem and Ramdas Pophale) SiO2 
 PCOD8237304
Probable space group: P N N M
;
_chemical_formula_sum "Si O2"
_cell_formula_units_Z 64
_cell_length_a 23.873360
_cell_length_b 14.584276
_cell_length_c 8.978982
_cell_angle_alpha 90.000000
_cell_angle_beta 90.000000
_cell_angle_gamma 90.000000
_cell_volume 3126.263085
_symmetry_space_group_name_H-M "P N N M"
_symmetry_group_IT_number 58
_symmetry_cell_setting 'orthorhombic'
loop_
_space_group_symop_operation_xyz
x,y,z
-x,-y,z
1/2+x,1/2-y,1/2-z
1/2-x,1/2+y,1/2-z
-x,-y,-z
x,y,-z
1/2-x,1/2+y,1/2+z
1/2+x,1/2-y,1/2+z
loop_
_atom_site_type_symbol
_atom_site_label
_atom_site_fract_x
_atom_site_fract_y
_atom_site_fract_z
Si Si1 0.590800 0.255146 0.826425
Si Si2 0.704900 0.283429 0.674726
Si Si3 0.443435 0.945972 0.170971
Si Si4 0.150316 0.919927 0.828420
Si Si5 0.856253 0.434879 0.167640
Si Si6 0.270740 0.535388 0.832721
Si Si7 0.667918 0.753055 0.825624
Si Si8 0.051649 0.060431 0.826764
O O1 0.652786 0.235939 0.758506
O O2 0.552994 0.163820 0.799331
O O3 0.558917 0.342192 0.754894
O O4 0.598120 0.275502 0.000000
O O5 0.693687 0.275323 0.500000
O O6 0.705234 0.389585 0.719509
O O7 0.766101 0.244316 0.719306
O O8 0.500000 0.000000 0.210896
O O9 0.396638 0.985563 0.278701
O O10 0.426633 0.963952 0.000000
O O11 0.131423 0.821153 0.765890
O O12 0.204559 0.940484 0.727243
O O13 0.105191 0.997835 0.798919
O O14 0.166540 0.911367 0.000000
O O15 0.795097 0.478539 0.171100
O O16 0.858616 0.349461 0.278914
O O17 0.871906 0.403831 0.000000
O O18 0.291396 0.557989 0.000000
O O19 0.659061 0.740096 0.000000
O O20 0.042131 0.082675 0.000000
O O21 0.000000 0.000000 0.763915
#
# Coordination Sequence:
#
# PCOD8237304 Si02
#       8
#     8   8   8   8   8   8   8   8
#     4  11  23  39  63  92 119 157 204 256 309 366
#     4  10  20  36  58  86 121 161 202 248 306 366
#     4  10  24  45  65  89 123 163 210 261 314 370
#     4  11  22  36  58  89 125 165 206 251 305 367
#     4  10  22  40  62  90 122 160 208 257 309 371
#     4  10  20  35  57  87 124 159 197 250 305 366
#     4  10  22  38  59  88 127 170 206 252 312 372
#     4  10  23  43  64  89 124 165 206 254 308 366
#
# _framework density 20.471724999999999
#
# number of rings (size 3 to 8) (size 9 to 14) (size 15 to 20)
#    0.000    1.750    1.250    2.250    1.750    6.000 
#    0.000    2.500    0.000    0.000    0.000    0.000 
#    0.000    0.000    0.000    0.000    0.000    0.000 
#
# Total GULP energy -793492.570593 kJ/mol
# GULP energy per Si atom -12398.321416 kJ/mol
# Density = 2.042513 g / cm^3
# Si number density = 20.471725 Si / 1000 Ang^3
#
#
#
# Elastic Constant Matrix: (Units=GPa)
#
#
# Indices 1 2 3 4 5 6 
#
# 1 63.2341 50.8531 50.3646 0.0000 0.0000 0.0000
# 2 50.8531 123.6528 56.3181 0.0000 0.0000 0.0000
# 3 50.3646 56.3181 103.6295 0.0000 0.0000 0.0000
# 4 0.0000 0.0000 0.0000 35.7237 0.0000 0.0000
# 5 0.0000 0.0000 0.0000 0.0000 26.2000 0.0000
# 6 0.0000 0.0000 0.0000 0.0000 0.0000 27.7280
#
#
#
# Elastic Compliance Matrix: (Units=1/GPa)
#
#
# Indices 1 2 3 4 5 6 
#
# 1 0.030460 -0.007687 -0.010626 0.000000 0.000000 0.000000
# 2 -0.007687 0.012687 -0.003159 0.000000 0.000000 0.000000
# 3 -0.010626 -0.003159 0.016531 0.000000 0.000000 0.000000
# 4 0.000000 0.000000 0.000000 0.027993 0.000000 0.000000
# 5 0.000000 0.000000 0.000000 0.000000 0.038168 0.000000
# 6 0.000000 0.000000 0.000000 0.000000 0.000000 0.036065
#
#
# Mechanical properties :
#
#
# Convention : Reuss Voigt Hill
#
# Bulk Modulus (GPa) = 59.76004 67.28756 63.52380
# Shear Modulus (GPa) = 23.76144 26.79571 25.27857
#
# Velocity S-wave (km/s) = 3.41059 3.62182 3.51779
# Velocity P-wave (km/s) = 6.69062 7.10140 6.89907
#
# Compressibility (1/GPa) = 0.01673359
#
# Stress axis : x y z
#
# Youngs Moduli (GPa) = 32.83043 78.81883 60.49297
#
# Poissons Ratio (x) = 0.60589 0.64280
# Poissons Ratio (y) = 0.25237 0.19110
# Poissons Ratio (z) = 0.34885 0.24899
#
# Static dielectric constant tensor:
#      x y z
#    x 3.683610 0.000000 0.000000 
#    y 0.000000 3.699770 0.000000 
#    z 0.000000 0.000000 3.718330 
# 
# 
# High freq. dielectric constant tensor:
#      x y z
#    x 1.786050 0.000000 0.000000 
#    y 0.000000 1.807750 0.000000 
#    z 0.000000 0.000000 1.807590 
# 
# From -- ./inp_files/10049.got.cif
#   From: 2010.06.25/outbox.cif.g09.slc.cpg/sg58_6_cif.got.tgz:10049.got - 2010.06.26 21:38:00.
