data_PCOD8237356
_publ_section_title
;
Structure prediction by ZEFSAII (Michael W. Deem and Ramdas Pophale) SiO2 
 PCOD8237356
Probable space group: P N N M
;
_chemical_formula_sum "Si O2"
_cell_formula_units_Z 64
_cell_length_a 15.495591
_cell_length_b 23.413036
_cell_length_c 8.862282
_cell_angle_alpha 90.000000
_cell_angle_beta 90.000000
_cell_angle_gamma 90.000000
_cell_volume 3215.225540
_symmetry_space_group_name_H-M "P N N M"
_symmetry_group_IT_number 58
_symmetry_cell_setting 'orthorhombic'
loop_
_space_group_symop_operation_xyz
x,y,z
-x,-y,z
1/2+x,1/2-y,1/2-z
1/2-x,1/2+y,1/2-z
-x,-y,-z
x,y,-z
1/2-x,1/2+y,1/2+z
1/2+x,1/2-y,1/2+z
loop_
_atom_site_type_symbol
_atom_site_label
_atom_site_fract_x
_atom_site_fract_y
_atom_site_fract_z
Si Si1 0.190650 0.313462 0.674671
Si Si2 0.295871 0.696585 0.675173
Si Si3 0.353602 0.136660 0.326116
Si Si4 0.595065 0.990753 0.676877
Si Si5 0.753171 0.571236 0.820344
Si Si6 0.061419 0.949637 0.678642
Si Si7 0.491704 0.207901 0.829913
Si Si8 0.531784 0.334812 0.826556
O O1 0.213866 0.319168 0.500000
O O2 0.228368 0.254007 0.735091
O O3 0.235676 0.364608 0.762989
O O4 0.088532 0.312429 0.702818
O O5 0.296933 0.711299 0.500000
O O6 0.223767 0.650608 0.714463
O O7 0.385218 0.667874 0.721504
O O8 0.325659 0.143046 0.500000
O O9 0.378560 0.072866 0.284981
O O10 0.434302 0.177445 0.294746
O O11 0.589593 0.002839 0.500000
O O12 0.500000 0.000000 0.749765
O O13 0.668128 0.032948 0.745471
O O14 0.660758 0.545644 0.763887
O O15 0.754202 0.572136 0.000000
O O16 0.060353 0.954682 0.500000
O O17 0.025848 0.887753 0.728957
O O18 0.000000 0.000000 0.746658
O O19 0.479199 0.275886 0.809520
O O20 0.464304 0.190532 0.000000
O O21 0.561990 0.342614 0.000000
#
# Coordination Sequence:
#
# PCOD8237356 Si02
#       8
#     8   8   8   8   8   8   8   8
#     4  10  21  39  60  86 118 153 191 237 295 353
#     4  11  23  38  58  84 115 152 194 240 293 353
#     4  11  22  35  58  88 118 153 195 241 289 345
#     4   9  19  35  56  86 121 154 195 243 287 342
#     4  10  20  35  60  90 117 155 200 245 295 349
#     4   9  19  34  58  87 113 151 202 250 294 349
#     4   9  19  35  55  82 117 152 187 238 296 354
#     4   9  19  37  59  83 115 149 192 244 297 349
#
# _framework density 19.905290000000001
#
# number of rings (size 3 to 8) (size 9 to 14) (size 15 to 20)
#    0.000    2.250    0.000    3.375    3.500    3.500 
#    0.000    1.875    0.000    4.125    0.000    0.000 
#    0.000    0.000    0.000    0.000    0.000    0.000 
#
# Total GULP energy -793594.565116 kJ/mol
# GULP energy per Si atom -12399.915080 kJ/mol
# Density = 1.985998 g / cm^3
# Si number density = 19.905290 Si / 1000 Ang^3
#
#
#
# Elastic Constant Matrix: (Units=GPa)
#
#
# Indices 1 2 3 4 5 6 
#
# 1 126.7113 69.2618 25.4994 0.0000 0.0000 0.0000
# 2 69.2618 115.0106 18.6282 0.0000 0.0000 0.0000
# 3 25.4994 18.6282 37.1594 0.0000 0.0000 0.0000
# 4 0.0000 0.0000 0.0000 26.2408 0.0000 0.0000
# 5 0.0000 0.0000 0.0000 0.0000 25.6511 0.0000
# 6 0.0000 0.0000 0.0000 0.0000 0.0000 26.8223
#
#
#
# Elastic Compliance Matrix: (Units=1/GPa)
#
#
# Indices 1 2 3 4 5 6 
#
# 1 0.012654 -0.006763 -0.005293 0.000000 0.000000 0.000000
# 2 -0.006763 0.013078 -0.001915 0.000000 0.000000 0.000000
# 3 -0.005293 -0.001915 0.031503 0.000000 0.000000 0.000000
# 4 0.000000 0.000000 0.000000 0.038109 0.000000 0.000000
# 5 0.000000 0.000000 0.000000 0.000000 0.038985 0.000000
# 6 0.000000 0.000000 0.000000 0.000000 0.000000 0.037282
#
#
# Mechanical properties :
#
#
# Convention : Reuss Voigt Hill
#
# Bulk Modulus (GPa) = 34.13811 56.18448 45.16129
# Shear Modulus (GPa) = 23.88718 26.77563 25.33140
#
# Velocity S-wave (km/s) = 3.46792 3.67161 3.57122
# Velocity P-wave (km/s) = 5.76392 6.80158 6.30414
#
# Compressibility (1/GPa) = 0.02929278
#
# Stress axis : x y z
#
# Youngs Moduli (GPa) = 79.02687 76.46460 31.74282
#
# Poissons Ratio (x) = 0.51714 0.16801
# Poissons Ratio (y) = 0.53447 0.06079
# Poissons Ratio (z) = 0.41828 0.14643
#
# Static dielectric constant tensor:
#      x y z
#    x 3.821190 0.000000 0.000000 
#    y 0.000000 3.894900 0.000000 
#    z 0.000000 0.000000 3.275820 
# 
# 
# High freq. dielectric constant tensor:
#      x y z
#    x 1.784040 0.000000 0.000000 
#    y 0.000000 1.783930 0.000000 
#    z 0.000000 0.000000 1.743920 
# 
# From -- ./inp_files/6762.got.cif
#   From: 2010.06.25/outbox.cif.g09.slc.cpg/sg58_4_cif.got.tgz:6762.got - 2010.06.26 21:38:00.
