data_PCOD8237877
_publ_section_title
;
Structure prediction by ZEFSAII (Michael W. Deem and Ramdas Pophale) SiO2 
 PCOD8237877
Probable space group: P N N M
;
_chemical_formula_sum "Si O2"
_cell_formula_units_Z 64
_cell_length_a 11.615773
_cell_length_b 14.698462
_cell_length_c 18.047964
_cell_angle_alpha 90.000000
_cell_angle_beta 90.000000
_cell_angle_gamma 90.000000
_cell_volume 3081.401050
_symmetry_space_group_name_H-M "P N N M"
_symmetry_group_IT_number 58
_symmetry_cell_setting 'orthorhombic'
loop_
_space_group_symop_operation_xyz
x,y,z
-x,-y,z
1/2+x,1/2-y,1/2-z
1/2-x,1/2+y,1/2-z
-x,-y,-z
x,y,-z
1/2-x,1/2+y,1/2+z
1/2+x,1/2-y,1/2+z
loop_
_atom_site_type_symbol
_atom_site_label
_atom_site_fract_x
_atom_site_fract_y
_atom_site_fract_z
Si Si1 0.564136 0.132128 0.797260
Si Si2 0.678307 0.890620 0.620047
Si Si3 0.045412 0.285528 0.861337
Si Si4 0.822631 0.441867 0.284869
Si Si5 0.960825 0.094906 0.341112
Si Si6 0.613030 0.267750 0.917308
Si Si7 0.232648 0.412092 0.082680
Si Si8 0.064473 0.086944 0.823670
O O1 0.558155 0.196626 0.726119
O O2 0.433312 0.106908 0.823284
O O3 0.631640 0.181325 0.863980
O O4 0.641646 0.046450 0.774098
O O5 0.565337 0.832717 0.602905
O O6 0.700860 0.893868 0.707154
O O7 0.782785 0.838464 0.582224
O O8 0.663931 0.992381 0.588402
O O9 0.150862 0.325834 0.907143
O O10 0.039174 0.176617 0.872139
O O11 0.702116 0.431244 0.327671
O O12 0.823153 0.093338 0.349311
O O13 0.000419 0.180184 0.389155
O O14 0.009113 0.100908 0.257895
O O15 0.000000 0.000000 0.377910
O O16 0.593078 0.230938 0.000000
O O17 0.287550 0.405694 0.000000
O O18 0.000000 0.000000 0.860091
#
# Coordination Sequence:
#
# PCOD8237877 Si02
#       8
#     8   8   8   8   8   8   8   8
#     4  10  22  39  65  96 123 168 211 272 312 379
#     4  11  21  39  61  94 130 172 208 255 316 388
#     4  11  24  39  66  92 126 168 219 264 314 373
#     4  10  20  41  64  90 127 161 216 269 321 359
#     4  11  22  39  58  92 129 165 199 247 318 389
#     4  12  24  39  62  95 133 170 207 256 323 393
#     4  12  25  40  63  94 134 169 204 262 327 394
#     4  11  23  39  64  96 124 165 211 270 315 371
#
# _framework density 20.769774000000002
#
# number of rings (size 3 to 8) (size 9 to 14) (size 15 to 20)
#    0.000    1.000    5.000    1.875    3.500    2.000 
#    0.000    1.250    0.000    1.125    0.000    0.000 
#    0.000    0.000    0.000    0.000    0.000    0.000 
#
# Total GULP energy -793441.563906 kJ/mol
# GULP energy per Si atom -12397.524436 kJ/mol
# Density = 2.072250 g / cm^3
# Si number density = 20.769774 Si / 1000 Ang^3
#
#
#
# Elastic Constant Matrix: (Units=GPa)
#
#
# Indices 1 2 3 4 5 6 
#
# 1 112.3423 45.8700 7.7141 0.0000 0.0000 0.0000
# 2 45.8700 117.8034 18.5637 0.0000 0.0000 0.0000
# 3 7.7141 18.5637 50.4851 0.0000 0.0000 0.0000
# 4 0.0000 0.0000 0.0000 19.5426 0.0000 0.0000
# 5 0.0000 0.0000 0.0000 0.0000 16.5158 0.0000
# 6 0.0000 0.0000 0.0000 0.0000 0.0000 28.2589
#
#
#
# Elastic Compliance Matrix: (Units=1/GPa)
#
#
# Indices 1 2 3 4 5 6 
#
# 1 0.010585 -0.004104 -0.000108 0.000000 0.000000 0.000000
# 2 -0.004104 0.010602 -0.003271 0.000000 0.000000 0.000000
# 3 -0.000108 -0.003271 0.021027 0.000000 0.000000 0.000000
# 4 0.000000 0.000000 0.000000 0.051170 0.000000 0.000000
# 5 0.000000 0.000000 0.000000 0.000000 0.060548 0.000000
# 6 0.000000 0.000000 0.000000 0.000000 0.000000 0.035387
#
#
# Mechanical properties :
#
#
# Convention : Reuss Voigt Hill
#
# Bulk Modulus (GPa) = 36.70204 47.21406 41.95805
# Shear Modulus (GPa) = 23.43352 26.76234 25.09793
#
# Velocity S-wave (km/s) = 3.36259 3.59350 3.47996
# Velocity P-wave (km/s) = 5.72584 6.32448 6.03259
#
# Compressibility (1/GPa) = 0.02724644
#
# Stress axis : x y z
#
# Youngs Moduli (GPa) = 94.47661 94.31831 47.55729
#
# Poissons Ratio (x) = 0.38712 0.00514
# Poissons Ratio (y) = 0.38777 0.15558
# Poissons Ratio (z) = 0.01021 0.30856
#
# Static dielectric constant tensor:
#      x y z
#    x 3.908160 0.000000 0.000000 
#    y 0.000000 3.915620 0.000000 
#    z 0.000000 0.000000 3.368850 
# 
# 
# High freq. dielectric constant tensor:
#      x y z
#    x 1.820240 0.000000 0.000000 
#    y 0.000000 1.818920 0.000000 
#    z 0.000000 0.000000 1.769610 
# 
# From -- ./inp_files/26350.got.cif
#   From: 2010.06.25/outbox.cif.g09.slc.cpg/sg58_14_cif.got.tgz:26350.got - 2010.06.26 21:38:00.
