data_PCOD8237279
_publ_section_title
;
Structure prediction by ZEFSAII (Michael W. Deem and Ramdas Pophale) SiO2 
 PCOD8237279
Probable space group: P N N M
;
_chemical_formula_sum "Si O2"
_cell_formula_units_Z 64
_cell_length_a 16.086840
_cell_length_b 22.381410
_cell_length_c 8.961090
_cell_angle_alpha 90.000000
_cell_angle_beta 90.000000
_cell_angle_gamma 90.000000
_cell_volume 3226.406059
_symmetry_space_group_name_H-M "P N N M"
_symmetry_group_IT_number 58
_symmetry_cell_setting 'orthorhombic'
loop_
_space_group_symop_operation_xyz
x,y,z
-x,-y,z
1/2+x,1/2-y,1/2-z
1/2-x,1/2+y,1/2-z
-x,-y,-z
x,y,-z
1/2-x,1/2+y,1/2+z
1/2+x,1/2-y,1/2+z
loop_
_atom_site_type_symbol
_atom_site_label
_atom_site_fract_x
_atom_site_fract_y
_atom_site_fract_z
Si Si1 0.600824 0.359972 0.331582
Si Si2 0.192270 0.828250 0.828877
Si Si3 0.744290 0.058718 0.674695
Si Si4 0.800056 0.749966 0.833843
Si Si5 0.462963 0.294039 0.832168
Si Si6 0.905244 0.980477 0.326608
Si Si7 0.427075 0.955572 0.174896
Si Si8 0.558129 0.181564 0.829157
O O1 0.562311 0.360055 0.500000
O O2 0.684976 0.321026 0.333230
O O3 0.547490 0.327817 0.204423
O O4 0.620259 0.426318 0.279394
O O5 0.248843 0.874774 0.738666
O O6 0.226214 0.762952 0.782623
O O7 0.096905 0.826486 0.784499
O O8 0.202480 0.843636 0.000000
O O9 0.728522 0.059726 0.500000
O O10 0.661903 0.028875 0.747889
O O11 0.833763 0.028645 0.712455
O O12 0.879329 0.710534 0.787735
O O13 0.773633 0.729752 0.000000
O O14 0.473890 0.222005 0.815012
O O15 0.434742 0.310039 0.000000
O O16 0.900912 0.962546 0.500000
O O17 0.000000 0.000000 0.286553
O O18 0.457500 0.887775 0.211103
O O19 0.500000 0.000000 0.233498
O O20 0.413415 0.965164 0.000000
O O21 0.592140 0.186926 0.000000
#
# Coordination Sequence:
#
# PCOD8237279 Si02
#       8
#     8   8   8   8   8   8   8   8
#     4  10  21  37  58  85 115 150 193 237 290 350
#     4  12  23  36  57  86 117 150 196 245 295 356
#     4  11  23  39  62  91 121 159 208 258 307 361
#     4  10  20  35  57  83 113 148 186 235 293 351
#     4  10  20  35  57  84 117 153 192 238 294 360
#     4  10  22  40  61  86 122 166 205 244 301 368
#     4  10  21  39  62  87 118 159 206 255 308 366
#     4   9  18  35  58  83 111 150 193 236 295 358
#
# _framework density 19.836312
#
# number of rings (size 3 to 8) (size 9 to 14) (size 15 to 20)
#    0.000    1.750    1.250    3.375    0.000    4.500 
#    2.250    0.000    0.000    0.000    0.000    0.000 
#    0.000    0.000    0.000    0.000    0.000    0.000 
#
# Total GULP energy -793094.462173 kJ/mol
# GULP energy per Si atom -12392.100971 kJ/mol
# Density = 1.979116 g / cm^3
# Si number density = 19.836312 Si / 1000 Ang^3
#
#
#
# Elastic Constant Matrix: (Units=GPa)
#
#
# Indices 1 2 3 4 5 6 
#
# 1 94.7411 27.1831 38.7274 0.0000 0.0000 0.0000
# 2 27.1831 88.2543 44.5599 0.0000 0.0000 0.0000
# 3 38.7274 44.5599 81.4438 0.0000 0.0000 0.0000
# 4 0.0000 0.0000 0.0000 25.0390 0.0000 0.0000
# 5 0.0000 0.0000 0.0000 0.0000 33.4350 0.0000
# 6 0.0000 0.0000 0.0000 0.0000 0.0000 25.9880
#
#
#
# Elastic Compliance Matrix: (Units=1/GPa)
#
#
# Indices 1 2 3 4 5 6 
#
# 1 0.013199 -0.001239 -0.005599 0.000000 0.000000 0.000000
# 2 -0.001239 0.015772 -0.008040 0.000000 0.000000 0.000000
# 3 -0.005599 -0.008040 0.019340 0.000000 0.000000 0.000000
# 4 0.000000 0.000000 0.000000 0.039938 0.000000 0.000000
# 5 0.000000 0.000000 0.000000 0.000000 0.029909 0.000000
# 6 0.000000 0.000000 0.000000 0.000000 0.000000 0.038479
#
#
# Mechanical properties :
#
#
# Convention : Reuss Voigt Hill
#
# Bulk Modulus (GPa) = 53.89197 53.93109 53.91153
# Shear Modulus (GPa) = 25.96370 27.15697 26.56033
#
# Velocity S-wave (km/s) = 3.62179 3.70409 3.66317
# Velocity P-wave (km/s) = 6.68709 6.74839 6.71781
#
# Compressibility (1/GPa) = 0.01855564
#
# Stress axis : x y z
#
# Youngs Moduli (GPa) = 75.76321 63.40368 51.70737
#
# Poissons Ratio (x) = 0.07854 0.28949
# Poissons Ratio (y) = 0.09385 0.41574
# Poissons Ratio (z) = 0.42417 0.50978
#
# Static dielectric constant tensor:
#      x y z
#    x 3.592390 0.000000 0.000000 
#    y 0.000000 3.742560 0.000000 
#    z 0.000000 0.000000 3.588060 
# 
# 
# High freq. dielectric constant tensor:
#      x y z
#    x 1.761670 0.000000 0.000000 
#    y 0.000000 1.768620 0.000000 
#    z 0.000000 0.000000 1.778780 
# 
# From -- ./inp_files/6860.got.cif
#   From: 2010.06.25/outbox.cif.g09.slc.cpg/sg58_4_cif.got.tgz:6860.got - 2010.06.26 21:38:00.
