data_PCOD8237557
_publ_section_title
;
Structure prediction by ZEFSAII (Michael W. Deem and Ramdas Pophale) SiO2 
 PCOD8237557
Probable space group: P N N M
;
_chemical_formula_sum "Si O2"
_cell_formula_units_Z 32
_cell_length_a 26.622832
_cell_length_b 5.195795
_cell_length_c 12.568685
_cell_angle_alpha 90.000000
_cell_angle_beta 90.000000
_cell_angle_gamma 90.000000
_cell_volume 1738.585692
_symmetry_space_group_name_H-M "P N N M"
_symmetry_group_IT_number 58
_symmetry_cell_setting 'orthorhombic'
loop_
_space_group_symop_operation_xyz
x,y,z
-x,-y,z
1/2+x,1/2-y,1/2-z
1/2-x,1/2+y,1/2-z
-x,-y,-z
x,y,-z
1/2-x,1/2+y,1/2+z
1/2+x,1/2-y,1/2+z
loop_
_atom_site_type_symbol
_atom_site_label
_atom_site_fract_x
_atom_site_fract_y
_atom_site_fract_z
Si Si1 0.701572 0.936809 0.380852
Si Si2 0.031804 0.751478 0.376525
Si Si3 0.803575 0.724526 0.321194
Si Si4 0.859068 0.235183 0.296083
O O1 0.686534 0.020520 0.500000
O O2 0.710345 0.188221 0.305251
O O3 0.752350 0.767872 0.384995
O O4 0.656541 0.767444 0.328510
O O5 0.047400 0.761146 0.500000
O O6 0.081391 0.745200 0.305167
O O7 0.000000 0.500000 0.349403
O O8 0.000000 0.000000 0.343869
O O9 0.831878 0.466477 0.362634
O O10 0.840865 0.962305 0.340704
#
# Coordination Sequence:
#
# PCOD8237557 Si02
#       4
#     8   8   8   8
#     4  10  21  37  57  80 119 153 185 228 278 330
#     4  10  21  37  59  84 110 144 185 237 295 338
#     4  10  20  37  51  86 113 148 189 220 271 334
#     4  10  20  37  55  81 113 146 188 227 282 335
#
# _framework density 18.405764999999999
#
# number of rings (size 3 to 8) (size 9 to 14) (size 15 to 20)
#    1.500    0.500    2.500    1.500    0.000    3.000 
#    0.000    0.000    0.000    1.500    0.000    0.000 
#    0.000    0.000    0.000    0.000    0.000    0.000 
#
# Total GULP energy -396554.727770 kJ/mol
# GULP energy per Si atom -12392.335243 kJ/mol
# Density = 1.836387 g / cm^3
# Si number density = 18.405765 Si / 1000 Ang^3
#
#
#
# Elastic Constant Matrix: (Units=GPa)
#
#
# Indices 1 2 3 4 5 6 
#
# 1 144.5295 48.3416 36.5638 0.0000 0.0000 0.0000
# 2 48.3416 134.7321 11.9399 0.0000 0.0000 0.0000
# 3 36.5638 11.9399 63.1527 0.0000 0.0000 0.0000
# 4 0.0000 0.0000 0.0000 -696.4714 0.0000 0.0000
# 5 0.0000 0.0000 0.0000 0.0000 18.1340 0.0000
# 6 0.0000 0.0000 0.0000 0.0000 0.0000 28.7256
#
#
#
# Elastic Compliance Matrix: (Units=1/GPa)
#
#
# Indices 1 2 3 4 5 6 
#
# 1 0.009058 -0.002833 -0.004709 0.000000 0.000000 0.000000
# 2 -0.002833 0.008434 0.000045 0.000000 0.000000 0.000000
# 3 -0.004709 0.000045 0.018552 0.000000 0.000000 0.000000
# 4 0.000000 0.000000 0.000000 -0.001436 0.000000 0.000000
# 5 0.000000 0.000000 0.000000 0.000000 0.055145 0.000000
# 6 0.000000 0.000000 0.000000 0.000000 0.000000 0.034812
#
#
# Mechanical properties :
#
#
# Convention : Reuss Voigt Hill
#
# Bulk Modulus (GPa) = 47.50000 59.56720 53.53360
# Shear Modulus (GPa) = 34.11223 -113.55110 -39.71944
#
# Velocity S-wave (km/s) = 4.30972 -7.86302 -4.65046
# Velocity P-wave (km/s) = 7.11534 7.07125 0.55922
#
# Compressibility (1/GPa) = 0.02105263
#
# Stress axis : x y z
#
# Youngs Moduli (GPa) = 110.40398 118.56151 53.90185
#
# Poissons Ratio (x) = 0.33584 0.25380
# Poissons Ratio (y) = 0.31273 -0.00244
# Poissons Ratio (z) = 0.51985 -0.00538
#
# Static dielectric constant tensor:
#      x y z
#    x 3.172070 0.000000 0.000000 
#    y 0.000000 3.433170 0.000000 
#    z 0.000000 0.000000 2.987310 
# 
# 
# High freq. dielectric constant tensor:
#      x y z
#    x 1.704540 0.000000 0.000000 
#    y 0.000000 1.726550 0.000000 
#    z 0.000000 0.000000 1.672690 
# 
# From -- ./inp_files/17273.got.cif
#   From: 2010.06.25/outbox.cif.g09.slc.cpg/sg58_9_cif.got.tgz:17273.got - 2010.06.26 21:38:00.
