data_PCOD8237274
_publ_section_title
;
Structure prediction by ZEFSAII (Michael W. Deem and Ramdas Pophale) SiO2 
 PCOD8237274
Probable space group: P N N M
;
_chemical_formula_sum "Si O2"
_cell_formula_units_Z 64
_cell_length_a 16.582437
_cell_length_b 21.491964
_cell_length_c 8.902909
_cell_angle_alpha 90.000000
_cell_angle_beta 90.000000
_cell_angle_gamma 90.000000
_cell_volume 3172.900073
_symmetry_space_group_name_H-M "P N N M"
_symmetry_group_IT_number 58
_symmetry_cell_setting 'orthorhombic'
loop_
_space_group_symop_operation_xyz
x,y,z
-x,-y,z
1/2+x,1/2-y,1/2-z
1/2-x,1/2+y,1/2-z
-x,-y,-z
x,y,-z
1/2-x,1/2+y,1/2+z
1/2+x,1/2-y,1/2+z
loop_
_atom_site_type_symbol
_atom_site_label
_atom_site_fract_x
_atom_site_fract_y
_atom_site_fract_z
Si Si1 0.311694 0.290643 0.832314
Si Si2 0.886130 0.337981 0.673537
Si Si3 0.447745 0.393453 0.833184
Si Si4 0.591297 0.308893 0.821060
Si Si5 0.049794 0.323676 0.177173
Si Si6 0.197452 0.375758 0.323899
Si Si7 0.719131 0.389122 0.674857
Si Si8 0.172697 0.975527 0.822662
O O1 0.348193 0.226862 0.773448
O O2 0.382448 0.339784 0.835790
O O3 0.242393 0.311171 0.716541
O O4 0.274306 0.282707 0.000000
O O5 0.913793 0.335285 0.500000
O O6 0.816004 0.389111 0.699068
O O7 0.963093 0.351507 0.776469
O O8 0.529020 0.362891 0.766426
O O9 0.413807 0.450860 0.735441
O O10 0.463762 0.419264 0.000000
O O11 0.566197 0.243060 0.752127
O O12 0.678528 0.331624 0.763504
O O13 0.589732 0.301621 0.000000
O O14 0.113319 0.375355 0.234925
O O15 0.055020 0.316480 0.000000
O O16 0.180217 0.378782 0.500000
O O17 0.252427 0.433106 0.266343
O O18 0.698602 0.380410 0.500000
O O19 0.686315 0.454796 0.737386
O O20 0.170475 0.973202 0.000000
#
# Coordination Sequence:
#
# PCOD8237274 Si02
#       8
#     8   8   8   8   8   8   8   8
#     4   9  16  31  54  80 110 142 182 229 282 336
#     4  10  20  37  58  79 111 149 184 230 287 344
#     4   9  18  33  55  82 113 150 188 229 278 333
#     4  11  22  38  59  87 120 150 188 232 284 347
#     4  12  24  37  57  86 116 145 184 235 292 346
#     4  10  20  35  57  82 111 149 192 235 280 333
#     4  10  22  39  59  85 116 153 193 236 284 332
#     4   9  20  38  58  83 115 152 198 239 275 329
#
# _framework density 20.170821
#
# number of rings (size 3 to 8) (size 9 to 14) (size 15 to 20)
#    0.000    2.000    1.250    2.625    0.000    4.500 
#    0.000    3.125    0.000    3.750    0.000    0.000 
#    0.000    0.000    0.000    0.000    0.000    0.000 
#
# Total GULP energy -793571.273902 kJ/mol
# GULP energy per Si atom -12399.551155 kJ/mol
# Density = 2.012491 g / cm^3
# Si number density = 20.170821 Si / 1000 Ang^3
#
#
#
# Elastic Constant Matrix: (Units=GPa)
#
#
# Indices 1 2 3 4 5 6 
#
# 1 91.1712 2.0376 33.3450 0.0000 0.0000 0.0000
# 2 2.0376 38.1560 13.7091 0.0000 0.0000 0.0000
# 3 33.3450 13.7091 73.5842 0.0000 0.0000 0.0000
# 4 0.0000 0.0000 0.0000 21.3251 0.0000 0.0000
# 5 0.0000 0.0000 0.0000 0.0000 34.5025 0.0000
# 6 0.0000 0.0000 0.0000 0.0000 0.0000 16.0192
#
#
#
# Elastic Compliance Matrix: (Units=1/GPa)
#
#
# Indices 1 2 3 4 5 6 
#
# 1 0.013233 0.001552 -0.006285 0.000000 0.000000 0.000000
# 2 0.001552 0.028270 -0.005970 0.000000 0.000000 0.000000
# 3 -0.006285 -0.005970 0.017550 0.000000 0.000000 0.000000
# 4 0.000000 0.000000 0.000000 0.046893 0.000000 0.000000
# 5 0.000000 0.000000 0.000000 0.000000 0.028983 0.000000
# 6 0.000000 0.000000 0.000000 0.000000 0.000000 0.062425
#
#
# Mechanical properties :
#
#
# Convention : Reuss Voigt Hill
#
# Bulk Modulus (GPa) = 26.56355 33.45500 30.00927
# Shear Modulus (GPa) = 21.61591 24.62400 23.11996
#
# Velocity S-wave (km/s) = 3.27715 3.49775 3.38924
# Velocity P-wave (km/s) = 5.24571 5.73883 5.49780
#
# Compressibility (1/GPa) = 0.03764557
#
# Stress axis : x y z
#
# Youngs Moduli (GPa) = 75.57121 35.37277 56.97870
#
# Poissons Ratio (x) = -0.05489 0.35814
# Poissons Ratio (y) = -0.11726 0.34017
# Poissons Ratio (z) = 0.47500 0.21118
#
# Static dielectric constant tensor:
#      x y z
#    x 3.869380 0.000000 0.000000 
#    y 0.000000 3.643940 0.000000 
#    z 0.000000 0.000000 3.575680 
# 
# 
# High freq. dielectric constant tensor:
#      x y z
#    x 1.795600 0.000000 0.000000 
#    y 0.000000 1.771590 0.000000 
#    z 0.000000 0.000000 1.775990 
# 
# From -- ./inp_files/6849.got.cif
#   From: 2010.06.25/outbox.cif.g09.slc.cpg/sg58_4_cif.got.tgz:6849.got - 2010.06.26 21:38:00.
