data_PCOD8237885
_publ_section_title
;
Structure prediction by ZEFSAII (Michael W. Deem and Ramdas Pophale) SiO2 
 PCOD8237885
Probable space group: P N N M
;
_chemical_formula_sum "Si O2"
_cell_formula_units_Z 32
_cell_length_a 12.384549
_cell_length_b 6.782013
_cell_length_c 17.894404
_cell_angle_alpha 90.000000
_cell_angle_beta 90.000000
_cell_angle_gamma 90.000000
_cell_volume 1502.989864
_symmetry_space_group_name_H-M "P N N M"
_symmetry_group_IT_number 58
_symmetry_cell_setting 'orthorhombic'
loop_
_space_group_symop_operation_xyz
x,y,z
-x,-y,z
1/2+x,1/2-y,1/2-z
1/2-x,1/2+y,1/2-z
-x,-y,-z
x,y,-z
1/2-x,1/2+y,1/2+z
1/2+x,1/2-y,1/2+z
loop_
_atom_site_type_symbol
_atom_site_label
_atom_site_fract_x
_atom_site_fract_y
_atom_site_fract_z
Si Si1 0.412424 0.835946 0.842377
Si Si2 0.329717 0.070364 0.500000
Si Si3 0.000000 0.000000 0.758662
Si Si4 0.592064 0.345857 0.000000
Si Si5 0.391471 0.632749 0.500000
Si Si6 0.325872 0.382992 0.627961
O O1 0.432751 0.644142 0.793515
O O2 0.420092 0.796191 0.929955
O O3 0.287767 0.893407 0.828095
O O4 0.500000 0.000000 0.819257
O O5 0.201920 0.025812 0.500000
O O6 0.596618 0.128697 0.500000
O O7 0.351574 0.194468 0.575383
O O8 0.081713 0.878211 0.810125
O O9 0.500000 0.500000 0.000000
O O10 0.500000 0.500000 0.500000
O O11 0.327302 0.577488 0.575398
#
# Coordination Sequence:
#
# PCOD8237885 Si02
#       6
#     8   4   4   4   4   8
#     4  11  26  43  71  97 134 183 226 283 343 402
#     4   9  23  42  74  94 131 181 219 291 337 385
#     4  12  26  46  62 100 146 174 228 276 338 424
#     4  10  20  43  67  97 127 168 232 277 333 399
#     4  11  22  45  72 102 134 176 233 292 333 403
#     4  10  25  45  64 105 133 178 234 272 344 416
#
# _framework density 21.290894000000002
#
# number of rings (size 3 to 8) (size 9 to 14) (size 15 to 20)
#    0.000    1.500    2.500    1.125    7.000    4.000 
#    0.000    0.000    0.000    0.000    0.000    0.000 
#    0.000    0.000    0.000    0.000    0.000    0.000 
#
# Total GULP energy -396716.483479 kJ/mol
# GULP energy per Si atom -12397.390109 kJ/mol
# Density = 2.124244 g / cm^3
# Si number density = 21.290894 Si / 1000 Ang^3
#
#
#
# Elastic Constant Matrix: (Units=GPa)
#
#
# Indices 1 2 3 4 5 6 
#
# 1 152.8496 57.3587 53.2080 0.0000 0.0000 0.0000
# 2 57.3587 127.0356 35.2354 0.0000 0.0000 0.0000
# 3 53.2080 35.2354 109.6488 0.0000 0.0000 0.0000
# 4 0.0000 0.0000 0.0000 2.0439 0.0000 0.0000
# 5 0.0000 0.0000 0.0000 0.0000 -139.1194 0.0000
# 6 0.0000 0.0000 0.0000 0.0000 0.0000 39.1128
#
#
#
# Elastic Compliance Matrix: (Units=1/GPa)
#
#
# Indices 1 2 3 4 5 6 
#
# 1 0.008848 -0.003078 -0.003304 0.000000 0.000000 0.000000
# 2 -0.003078 0.009713 -0.001627 0.000000 0.000000 0.000000
# 3 -0.003304 -0.001627 0.011246 0.000000 0.000000 0.000000
# 4 0.000000 0.000000 0.000000 0.489252 0.000000 0.000000
# 5 0.000000 0.000000 0.000000 0.000000 -0.007188 0.000000
# 6 0.000000 0.000000 0.000000 0.000000 0.000000 0.025567
#
#
# Mechanical properties :
#
#
# Convention : Reuss Voigt Hill
#
# Bulk Modulus (GPa) = 72.53141 75.68201 74.10671
# Shear Modulus (GPa) = 8.95970 -3.34374 2.80798
#
# Velocity S-wave (km/s) = 2.05362 -1.25456 1.14966
# Velocity P-wave (km/s) = 6.30587 5.79010 6.05348
#
# Compressibility (1/GPa) = 0.01378713
#
# Stress axis : x y z
#
# Youngs Moduli (GPa) = 113.02202 102.95280 88.91730
#
# Poissons Ratio (x) = 0.31694 0.29380
# Poissons Ratio (y) = 0.34793 0.14471
# Poissons Ratio (z) = 0.37345 0.16755
#
# Static dielectric constant tensor:
#      x y z
#    x 4.022510 0.000000 0.000000 
#    y 0.000000 3.459050 0.000000 
#    z 0.000000 0.000000 3.891590 
# 
# 
# High freq. dielectric constant tensor:
#      x y z
#    x 1.852940 0.000000 0.000000 
#    y 0.000000 1.820800 0.000000 
#    z 0.000000 0.000000 1.839680 
# 
# From -- ./inp_files/25908.got.cif
#   From: 2010.06.25/outbox.cif.g09.slc.cpg/sg58_13_cif.got.tgz:25908.got - 2010.06.26 21:38:00.
