data_PCOD8237460
_publ_section_title
;
Structure prediction by ZEFSAII (Michael W. Deem and Ramdas Pophale) SiO2 
 PCOD8237460
Probable space group: P N N M
;
_chemical_formula_sum "Si O2"
_cell_formula_units_Z 64
_cell_length_a 23.904354
_cell_length_b 14.935508
_cell_length_c 9.095898
_cell_angle_alpha 90.000000
_cell_angle_beta 90.000000
_cell_angle_gamma 90.000000
_cell_volume 3247.450890
_symmetry_space_group_name_H-M "P N N M"
_symmetry_group_IT_number 58
_symmetry_cell_setting 'orthorhombic'
loop_
_space_group_symop_operation_xyz
x,y,z
-x,-y,z
1/2+x,1/2-y,1/2-z
1/2-x,1/2+y,1/2-z
-x,-y,-z
x,y,-z
1/2-x,1/2+y,1/2+z
1/2+x,1/2-y,1/2+z
loop_
_atom_site_type_symbol
_atom_site_label
_atom_site_fract_x
_atom_site_fract_y
_atom_site_fract_z
Si Si1 0.256180 0.271113 0.673243
Si Si2 0.135045 0.510891 0.333927
Si Si3 0.020112 0.251542 0.324949
Si Si4 0.958812 0.076200 0.325046
Si Si5 0.740427 0.938862 0.669075
Si Si6 0.536564 0.911702 0.333917
Si Si7 0.864464 0.692129 0.666061
Si Si8 0.331628 0.417402 0.171518
O O1 0.259965 0.291205 0.500000
O O2 0.261347 0.165950 0.708211
O O3 0.195611 0.296894 0.744178
O O4 0.303488 0.331540 0.749955
O O5 0.131715 0.548088 0.500000
O O6 0.198293 0.511588 0.277661
O O7 0.098578 0.571598 0.226332
O O8 0.113691 0.409366 0.327857
O O9 0.021251 0.255315 0.500000
O O10 0.084754 0.248666 0.265974
O O11 0.985495 0.167824 0.265384
O O12 0.990615 0.339434 0.269168
O O13 0.958773 0.072099 0.500000
O O14 0.894908 0.068514 0.267560
O O15 0.000000 0.000000 0.261329
O O16 0.722878 0.953687 0.500000
O O17 0.799766 0.988159 0.699305
O O18 0.541502 0.876102 0.500000
O O19 0.500000 0.000000 0.325410
O O20 0.854191 0.724893 0.500000
O O21 0.332909 0.393333 0.000000
#
# Coordination Sequence:
#
# PCOD8237460 Si02
#       8
#     8   8   8   8   8   8   8   8
#     4  10  21  38  58  83 113 153 194 235 293 352
#     4  11  21  36  58  82 113 148 192 238 278 340
#     4  10  20  36  59  85 113 150 197 243 285 337
#     4   9  20  37  60  88 115 148 194 248 294 333
#     4  10  22  37  57  83 116 154 189 234 295 352
#     4  11  23  37  54  81 119 155 186 227 286 348
#     4   9  18  33  56  83 109 143 191 240 283 336
#     4  10  21  38  58  87 120 149 190 243 293 343
#
# _framework density 19.707764999999998
#
# number of rings (size 3 to 8) (size 9 to 14) (size 15 to 20)
#    0.000    2.000    2.500    0.750    3.500    1.000 
#    0.000    0.625    0.000    1.500    0.000    0.000 
#    0.000    0.000    0.000    0.000    0.000    0.000 
#
# Total GULP energy -793317.600458 kJ/mol
# GULP energy per Si atom -12395.587507 kJ/mol
# Density = 1.966291 g / cm^3
# Si number density = 19.707765 Si / 1000 Ang^3
#
#
#
# Elastic Constant Matrix: (Units=GPa)
#
#
# Indices 1 2 3 4 5 6 
#
# 1 170.0192 55.8518 30.1767 0.0000 0.0000 0.0000
# 2 55.8518 96.2504 26.7772 0.0000 0.0000 0.0000
# 3 30.1767 26.7772 30.9684 0.0000 0.0000 0.0000
# 4 0.0000 0.0000 0.0000 84.3616 0.0000 0.0000
# 5 0.0000 0.0000 0.0000 0.0000 22.8807 0.0000
# 6 0.0000 0.0000 0.0000 0.0000 0.0000 33.9631
#
#
#
# Elastic Compliance Matrix: (Units=1/GPa)
#
#
# Indices 1 2 3 4 5 6 
#
# 1 0.007782 -0.003168 -0.004844 0.000000 0.000000 0.000000
# 2 -0.003168 0.014970 -0.009857 0.000000 0.000000 0.000000
# 3 -0.004844 -0.009857 0.045534 0.000000 0.000000 0.000000
# 4 0.000000 0.000000 0.000000 0.011854 0.000000 0.000000
# 5 0.000000 0.000000 0.000000 0.000000 0.043705 0.000000
# 6 0.000000 0.000000 0.000000 0.000000 0.000000 0.029444
#
#
# Mechanical properties :
#
#
# Convention : Reuss Voigt Hill
#
# Bulk Modulus (GPa) = 30.72354 58.09437 44.40895
# Shear Modulus (GPa) = 25.01551 40.53658 32.77605
#
# Velocity S-wave (km/s) = 3.56662 4.54021 4.08254
# Velocity P-wave (km/s) = 5.70828 7.55159 6.69369
#
# Compressibility (1/GPa) = 0.03254833
#
# Stress axis : x y z
#
# Youngs Moduli (GPa) = 128.49848 66.79906 21.96170
#
# Poissons Ratio (x) = 0.21164 0.10638
# Poissons Ratio (y) = 0.40712 0.21648
# Poissons Ratio (z) = 0.62242 0.65843
#
# Static dielectric constant tensor:
#      x y z
#    x 3.604890 0.000000 0.000000 
#    y 0.000000 3.559700 0.000000 
#    z 0.000000 0.000000 3.292230 
# 
# 
# High freq. dielectric constant tensor:
#      x y z
#    x 1.785570 0.000000 0.000000 
#    y 0.000000 1.767520 0.000000 
#    z 0.000000 0.000000 1.731560 
# 
# From -- ./inp_files/9977.got.cif
#   From: 2010.06.25/outbox.cif.g09.slc.cpg/sg58_5_cif.got.tgz:9977.got - 2010.06.26 21:38:00.
