data_PCOD8237181
_publ_section_title
;
Structure prediction by ZEFSAII (Michael W. Deem and Ramdas Pophale) SiO2 
 PCOD8237181
Probable space group: P N N M
;
_chemical_formula_sum "Si O2"
_cell_formula_units_Z 64
_cell_length_a 9.737948
_cell_length_b 30.763797
_cell_length_c 13.097958
_cell_angle_alpha 90.000000
_cell_angle_beta 90.000000
_cell_angle_gamma 90.000000
_cell_volume 3923.837212
_symmetry_space_group_name_H-M "P N N M"
_symmetry_group_IT_number 58
_symmetry_cell_setting 'orthorhombic'
loop_
_space_group_symop_operation_xyz
x,y,z
-x,-y,z
1/2+x,1/2-y,1/2-z
1/2-x,1/2+y,1/2-z
-x,-y,-z
x,y,-z
1/2-x,1/2+y,1/2+z
1/2+x,1/2-y,1/2+z
loop_
_atom_site_type_symbol
_atom_site_label
_atom_site_fract_x
_atom_site_fract_y
_atom_site_fract_z
Si Si1 0.099813 0.963878 0.118871
Si Si2 0.230759 0.177039 0.194669
Si Si3 0.776811 0.688119 0.310854
Si Si4 0.842237 0.731863 0.884941
Si Si5 0.838373 0.276061 0.115656
Si Si6 0.028904 0.866632 0.881207
Si Si7 0.486943 0.131864 0.118780
Si Si8 0.592351 0.039733 0.121974
O O1 0.253068 0.965510 0.166358
O O2 0.027235 0.917883 0.136797
O O3 0.116323 0.974056 0.000000
O O4 0.000000 0.000000 0.169696
O O5 0.227525 0.221264 0.129550
O O6 0.277981 0.186672 0.310605
O O7 0.080987 0.155513 0.193122
O O8 0.328528 0.141613 0.141797
O O9 0.766740 0.697765 0.189659
O O10 0.749810 0.732213 0.373042
O O11 0.676906 0.650261 0.347362
O O12 0.929673 0.671421 0.331472
O O13 0.003734 0.735083 0.857861
O O14 0.818137 0.715722 0.000000
O O15 0.824479 0.293267 0.000000
O O16 0.000916 0.854766 0.000000
O O17 0.528372 0.084814 0.164346
O O18 0.517793 0.131484 0.000000
O O19 0.500000 0.000000 0.163232
O O20 0.593212 0.040333 0.000000
#
# Coordination Sequence:
#
# PCOD8237181 Si02
#       8
#     8   8   8   8   8   8   8   8
#     4   9  18  30  45  67  95 132 166 192 238 296
#     4  11  22  33  49  75  95 131 172 205 241 292
#     4  11  20  33  51  71  93 133 170 199 240 295
#     4  10  20  35  51  70  99 129 163 211 254 284
#     4  10  20  35  52  69  98 132 163 208 257 288
#     4  11  20  33  51  70 102 136 164 201 242 290
#     4  11  20  31  47  72 101 129 168 204 237 287
#     4   9  18  30  44  66  99 132 160 198 242 285
#
# _framework density 16.310563999999999
#
# number of rings (size 3 to 8) (size 9 to 14) (size 15 to 20)
#    0.000    1.750    3.750    2.250    1.750    0.000 
#    0.000    1.875    0.000    0.000    0.000    0.000 
#    0.000    6.000    0.000    0.000    0.000    0.000 
#
# Total GULP energy -793628.053190 kJ/mol
# GULP energy per Si atom -12400.438331 kJ/mol
# Density = 1.627344 g / cm^3
# Si number density = 16.310564 Si / 1000 Ang^3
#
#
#
# Elastic Constant Matrix: (Units=GPa)
#
#
# Indices 1 2 3 4 5 6 
#
# 1 61.6922 27.9213 24.0182 0.0000 0.0000 0.0000
# 2 27.9213 83.3413 32.0964 0.0000 0.0000 0.0000
# 3 24.0182 32.0964 70.9301 0.0000 0.0000 0.0000
# 4 0.0000 0.0000 0.0000 13.0409 0.0000 0.0000
# 5 0.0000 0.0000 0.0000 0.0000 23.1298 0.0000
# 6 0.0000 0.0000 0.0000 0.0000 0.0000 28.4804
#
#
#
# Elastic Compliance Matrix: (Units=1/GPa)
#
#
# Indices 1 2 3 4 5 6 
#
# 1 0.020270 -0.005023 -0.004591 0.000000 0.000000 0.000000
# 2 -0.005023 0.015776 -0.005438 0.000000 0.000000 0.000000
# 3 -0.004591 -0.005438 0.018114 0.000000 0.000000 0.000000
# 4 0.000000 0.000000 0.000000 0.076682 0.000000 0.000000
# 5 0.000000 0.000000 0.000000 0.000000 0.043234 0.000000
# 6 0.000000 0.000000 0.000000 0.000000 0.000000 0.035112
#
#
# Mechanical properties :
#
#
# Convention : Reuss Voigt Hill
#
# Bulk Modulus (GPa) = 41.56920 42.67059 42.11990
# Shear Modulus (GPa) = 20.21755 21.72541 20.97148
#
# Velocity S-wave (km/s) = 3.52453 3.65359 3.58964
# Velocity P-wave (km/s) = 6.48879 6.63449 6.56205
#
# Compressibility (1/GPa) = 0.02405627
#
# Stress axis : x y z
#
# Youngs Moduli (GPa) = 49.33355 63.38795 55.20709
#
# Poissons Ratio (x) = 0.31839 0.25345
# Poissons Ratio (y) = 0.24780 0.30021
# Poissons Ratio (z) = 0.22649 0.34469
#
# Static dielectric constant tensor:
#      x y z
#    x 3.211930 0.000000 0.000000 
#    y 0.000000 3.092100 0.000000 
#    z 0.000000 0.000000 2.791030 
# 
# 
# High freq. dielectric constant tensor:
#      x y z
#    x 1.642220 0.000000 0.000000 
#    y 0.000000 1.622700 0.000000 
#    z 0.000000 0.000000 1.581420 
# 
# From -- ./inp_files/20394.got.cif
#   From: 2010.06.25/outbox.cif.g09.slc.cpg/sg58_11_cif.got.tgz:20394.got - 2010.06.26 21:38:00.
