data_PCOD8237088
_publ_section_title
;
Structure prediction by ZEFSAII (Michael W. Deem and Ramdas Pophale) SiO2 
 PCOD8237088
Probable space group: P N N M
;
_chemical_formula_sum "Si O2"
_cell_formula_units_Z 64
_cell_length_a 12.952189
_cell_length_b 27.917904
_cell_length_c 8.856919
_cell_angle_alpha 90.000000
_cell_angle_beta 90.000000
_cell_angle_gamma 90.000000
_cell_volume 3202.643923
_symmetry_space_group_name_H-M "P N N M"
_symmetry_group_IT_number 58
_symmetry_cell_setting 'orthorhombic'
loop_
_space_group_symop_operation_xyz
x,y,z
-x,-y,z
1/2+x,1/2-y,1/2-z
1/2-x,1/2+y,1/2-z
-x,-y,-z
x,y,-z
1/2-x,1/2+y,1/2+z
1/2+x,1/2-y,1/2+z
loop_
_atom_site_type_symbol
_atom_site_label
_atom_site_fract_x
_atom_site_fract_y
_atom_site_fract_z
Si Si1 0.146951 0.182897 0.321722
Si Si2 0.798361 0.080321 0.830010
Si Si3 0.258080 0.089527 0.328406
Si Si4 0.714040 0.212851 0.821313
Si Si5 0.887015 0.626365 0.823622
Si Si6 0.959153 0.447580 0.678619
Si Si7 0.429561 0.331572 0.670981
Si Si8 0.616240 0.495696 0.169544
O O1 0.144407 0.178697 0.500000
O O2 0.223305 0.141055 0.260149
O O3 0.194460 0.233086 0.267390
O O4 0.029350 0.178995 0.269192
O O5 0.717855 0.098379 0.707332
O O6 0.902146 0.112045 0.818369
O O7 0.818641 0.025684 0.789925
O O8 0.751975 0.083581 0.000000
O O9 0.300293 0.094382 0.500000
O O10 0.341658 0.061608 0.228161
O O11 0.153219 0.058802 0.325068
O O12 0.625885 0.179623 0.745545
O O13 0.829785 0.198283 0.769817
O O14 0.703285 0.206159 0.000000
O O15 0.978881 0.596730 0.748305
O O16 0.909534 0.630769 0.000000
O O17 0.968439 0.445455 0.500000
O O18 0.000000 0.500000 0.735902
O O19 0.455038 0.316562 0.500000
O O20 0.500000 0.500000 0.224289
O O21 0.628596 0.516827 0.000000
#
# Coordination Sequence:
#
# PCOD8237088 Si02
#       8
#     8   8   8   8   8   8   8   8
#     4  10  21  38  60  84 115 152 189 236 290 342
#     4  10  20  35  55  80 111 145 184 230 277 329
#     4  10  22  38  56  84 119 153 191 234 284 342
#     4   9  20  39  59  83 116 152 193 242 293 345
#     4  11  22  37  60  86 111 144 189 238 287 341
#     4  11  24  41  61  86 119 158 197 240 292 350
#     4   9  19  35  55  80 112 147 185 234 286 337
#     4  10  20  34  54  81 114 149 185 228 276 330
#
# _framework density 19.983488999999999
#
# number of rings (size 3 to 8) (size 9 to 14) (size 15 to 20)
#    0.000    2.000    0.000    4.125    0.000    9.250 
#    0.000    1.250    0.000    0.000    0.000    0.000 
#    0.000    0.000    0.000    0.000    0.000    0.000 
#
# Total GULP energy -793460.368230 kJ/mol
# GULP energy per Si atom -12397.818254 kJ/mol
# Density = 1.993801 g / cm^3
# Si number density = 19.983489 Si / 1000 Ang^3
#
#
#
# Elastic Constant Matrix: (Units=GPa)
#
#
# Indices 1 2 3 4 5 6 
#
# 1 95.2435 51.3434 26.9894 0.0000 0.0000 0.0000
# 2 51.3434 140.9908 34.1136 0.0000 0.0000 0.0000
# 3 26.9894 34.1136 55.9772 0.0000 0.0000 0.0000
# 4 0.0000 0.0000 0.0000 26.4172 0.0000 0.0000
# 5 0.0000 0.0000 0.0000 0.0000 32.7818 0.0000
# 6 0.0000 0.0000 0.0000 0.0000 0.0000 29.7561
#
#
#
# Elastic Compliance Matrix: (Units=1/GPa)
#
#
# Indices 1 2 3 4 5 6 
#
# 1 0.013870 -0.004026 -0.004233 0.000000 0.000000 0.000000
# 2 -0.004026 0.009488 -0.003841 0.000000 0.000000 0.000000
# 3 -0.004233 -0.003841 0.022246 0.000000 0.000000 0.000000
# 4 0.000000 0.000000 0.000000 0.037854 0.000000 0.000000
# 5 0.000000 0.000000 0.000000 0.000000 0.030505 0.000000
# 6 0.000000 0.000000 0.000000 0.000000 0.000000 0.033607
#
#
# Mechanical properties :
#
#
# Convention : Reuss Voigt Hill
#
# Bulk Modulus (GPa) = 46.72359 57.45603 52.08981
# Shear Modulus (GPa) = 27.94770 29.77536 28.86153
#
# Velocity S-wave (km/s) = 3.74376 3.86424 3.80448
# Velocity P-wave (km/s) = 6.48996 6.98025 6.73956
#
# Compressibility (1/GPa) = 0.02140247
#
# Stress axis : x y z
#
# Youngs Moduli (GPa) = 72.10014 105.39299 44.95125
#
# Poissons Ratio (x) = 0.42436 0.19030
# Poissons Ratio (y) = 0.29031 0.17266
# Poissons Ratio (z) = 0.30523 0.40481
#
# Static dielectric constant tensor:
#      x y z
#    x 3.547720 0.000000 0.000000 
#    y 0.000000 3.929070 0.000000 
#    z 0.000000 0.000000 3.546780 
# 
# 
# High freq. dielectric constant tensor:
#      x y z
#    x 1.775150 0.000000 0.000000 
#    y 0.000000 1.787210 0.000000 
#    z 0.000000 0.000000 1.770090 
# 
# From -- ./inp_files/4783.got.cif
#   From: 2010.06.25/outbox.cif.g09.slc.cpg/sg58_3_cif.got.tgz:4783.got - 2010.06.26 21:38:00.
