data_PCOD8237405
_publ_section_title
;
Structure prediction by ZEFSAII (Michael W. Deem and Ramdas Pophale) SiO2 
 PCOD8237405
Probable space group: P N N M
;
_chemical_formula_sum "Si O2"
_cell_formula_units_Z 64
_cell_length_a 22.863870
_cell_length_b 16.183232
_cell_length_c 9.083491
_cell_angle_alpha 90.000000
_cell_angle_beta 90.000000
_cell_angle_gamma 90.000000
_cell_volume 3360.994428
_symmetry_space_group_name_H-M "P N N M"
_symmetry_group_IT_number 58
_symmetry_cell_setting 'orthorhombic'
loop_
_space_group_symop_operation_xyz
x,y,z
-x,-y,z
1/2+x,1/2-y,1/2-z
1/2-x,1/2+y,1/2-z
-x,-y,-z
x,y,-z
1/2-x,1/2+y,1/2+z
1/2+x,1/2-y,1/2+z
loop_
_atom_site_type_symbol
_atom_site_label
_atom_site_fract_x
_atom_site_fract_y
_atom_site_fract_z
Si Si1 0.018237 0.090434 0.673033
Si Si2 0.348442 0.593137 0.835234
Si Si3 0.671741 0.971554 0.331552
Si Si4 0.450383 0.251065 0.170324
Si Si5 0.777130 0.036410 0.828278
Si Si6 0.449190 0.065078 0.825645
Si Si7 0.744101 0.804285 0.340397
Si Si8 0.823501 0.185368 0.667248
O O1 0.004954 0.087847 0.500000
O O2 0.085311 0.107520 0.711716
O O3 0.983905 0.169715 0.743431
O O4 0.000000 0.000000 0.739229
O O5 0.315139 0.543133 0.710140
O O6 0.313779 0.679704 0.839890
O O7 0.345455 0.551691 0.000000
O O8 0.661284 0.998402 0.500000
O O9 0.713977 0.038961 0.253045
O O10 0.609738 0.966316 0.250908
O O11 0.706398 0.886503 0.320475
O O12 0.466111 0.158611 0.231021
O O13 0.382014 0.263719 0.199051
O O14 0.466963 0.251993 0.000000
O O15 0.819955 0.108515 0.775034
O O16 0.764802 0.041170 0.000000
O O17 0.500000 0.000000 0.784145
O O18 0.437826 0.067492 0.000000
O O19 0.727772 0.764459 0.500000
O O20 0.730672 0.744463 0.205252
O O21 0.819649 0.154854 0.500000
#
# Coordination Sequence:
#
# PCOD8237405 Si02
#       8
#     8   8   8   8   8   8   8   8
#     4   9  16  29  53  82 112 147 189 234 279 333
#     4   9  18  34  54  78 110 145 183 225 277 338
#     4  10  20  37  59  81 110 145 188 234 289 348
#     4   9  18  32  54  84 113 147 193 241 284 334
#     4  11  22  35  55  82 112 143 182 232 291 348
#     4  10  20  36  57  84 116 152 198 245 290 341
#     4   9  18  32  51  77 107 140 178 227 281 335
#     4  11  20  33  55  80 109 143 186 234 282 341
#
# _framework density 19.041982000000001
#
# number of rings (size 3 to 8) (size 9 to 14) (size 15 to 20)
#    0.000    2.250    1.250    3.375    0.000    4.250 
#    2.250    0.000    0.000    4.875    0.000    0.000 
#    0.000    0.000    0.000    0.000    0.000    0.000 
#
# Total GULP energy -793005.935869 kJ/mol
# GULP energy per Si atom -12390.717748 kJ/mol
# Density = 1.899864 g / cm^3
# Si number density = 19.041982 Si / 1000 Ang^3
#
#
#
# Elastic Constant Matrix: (Units=GPa)
#
#
# Indices 1 2 3 4 5 6 
#
# 1 109.9009 45.1354 36.9925 0.0000 0.0000 0.0000
# 2 45.1354 103.5081 30.0682 0.0000 0.0000 0.0000
# 3 36.9925 30.0682 72.1438 0.0000 0.0000 0.0000
# 4 0.0000 0.0000 0.0000 22.7565 0.0000 0.0000
# 5 0.0000 0.0000 0.0000 0.0000 19.7143 0.0000
# 6 0.0000 0.0000 0.0000 0.0000 0.0000 24.6716
#
#
#
# Elastic Compliance Matrix: (Units=1/GPa)
#
#
# Indices 1 2 3 4 5 6 
#
# 1 0.012311 -0.004022 -0.004637 0.000000 0.000000 0.000000
# 2 -0.004022 0.012306 -0.003067 0.000000 0.000000 0.000000
# 3 -0.004637 -0.003067 0.017517 0.000000 0.000000 0.000000
# 4 0.000000 0.000000 0.000000 0.043944 0.000000 0.000000
# 5 0.000000 0.000000 0.000000 0.000000 0.050724 0.000000
# 6 0.000000 0.000000 0.000000 0.000000 0.000000 0.040532
#
#
# Mechanical properties :
#
#
# Convention : Reuss Voigt Hill
#
# Bulk Modulus (GPa) = 53.52163 56.66054 55.09108
# Shear Modulus (GPa) = 24.15318 24.98559 24.56938
#
# Velocity S-wave (km/s) = 3.56535 3.62627 3.59594
# Velocity P-wave (km/s) = 6.71693 6.88137 6.79965
#
# Compressibility (1/GPa) = 0.01868404
#
# Stress axis : x y z
#
# Youngs Moduli (GPa) = 81.22528 81.26426 57.08789
#
# Poissons Ratio (x) = 0.32681 0.26470
# Poissons Ratio (y) = 0.32665 0.17507
# Poissons Ratio (z) = 0.37662 0.24921
#
# Static dielectric constant tensor:
#      x y z
#    x 3.549910 0.000000 0.000000 
#    y 0.000000 3.687580 0.000000 
#    z 0.000000 0.000000 3.294500 
# 
# 
# High freq. dielectric constant tensor:
#      x y z
#    x 1.740010 0.000000 0.000000 
#    y 0.000000 1.734710 0.000000 
#    z 0.000000 0.000000 1.710910 
# 
# From -- ./inp_files/10156.got.cif
#   From: 2010.06.25/outbox.cif.g09.slc.cpg/sg58_6_cif.got.tgz:10156.got - 2010.06.26 21:38:00.
