data_PCOD8237832
_publ_section_title
;
Structure prediction by ZEFSAII (Michael W. Deem and Ramdas Pophale) SiO2 
 PCOD8237832
Probable space group: P N N M
;
_chemical_formula_sum "Si O2"
_cell_formula_units_Z 48
_cell_length_a 12.198066
_cell_length_b 21.481973
_cell_length_c 8.801446
_cell_angle_alpha 90.000000
_cell_angle_beta 90.000000
_cell_angle_gamma 90.000000
_cell_volume 2306.317923
_symmetry_space_group_name_H-M "P N N M"
_symmetry_group_IT_number 58
_symmetry_cell_setting 'orthorhombic'
loop_
_space_group_symop_operation_xyz
x,y,z
-x,-y,z
1/2+x,1/2-y,1/2-z
1/2-x,1/2+y,1/2-z
-x,-y,-z
x,y,-z
1/2-x,1/2+y,1/2+z
1/2+x,1/2-y,1/2+z
loop_
_atom_site_type_symbol
_atom_site_label
_atom_site_fract_x
_atom_site_fract_y
_atom_site_fract_z
Si Si1 0.136751 0.168907 0.824253
Si Si2 0.089949 0.306339 0.176570
Si Si3 0.124140 0.645638 0.672399
Si Si4 0.486723 0.428893 0.821062
Si Si5 0.237535 0.894223 0.819922
Si Si6 0.880765 0.494573 0.325085
O O1 0.076417 0.233411 0.783977
O O2 0.265303 0.183145 0.790173
O O3 0.092267 0.112135 0.723312
O O4 0.120939 0.150151 0.000000
O O5 0.191342 0.334867 0.269466
O O6 0.974515 0.337898 0.216605
O O7 0.114850 0.316508 0.000000
O O8 0.082945 0.656871 0.500000
O O9 0.163364 0.574630 0.695612
O O10 0.500000 0.500000 0.760018
O O11 0.383510 0.393387 0.748660
O O12 0.472216 0.429594 0.000000
O O13 0.296331 0.956303 0.752921
O O14 0.225883 0.893691 0.000000
O O15 0.893667 0.514528 0.500000
O O16 0.000000 0.500000 0.245749
#
# Coordination Sequence:
#
# PCOD8237832 Si02
#       6
#     8   8   8   8   8   8
#     4  10  24  43  64  90 122 167 217 257 305 380
#     4  11  24  40  58  92 131 163 208 261 315 371
#     4  10  20  39  64  87 117 160 209 257 307 366
#     4  11  25  44  66  95 131 165 206 264 326 381
#     4  11  22  39  66  93 125 168 211 257 312 376
#     4   9  16  31  57  89 117 147 200 253 296 358
#
# _framework density 20.812396
#
# number of rings (size 3 to 8) (size 9 to 14) (size 15 to 20)
#    0.000    1.667    1.667    2.500    2.333    4.667 
#    0.000    2.500    0.000    0.000    0.000    0.000 
#    0.000    0.000    0.000    0.000    0.000    0.000 
#
# Total GULP energy -595245.014650 kJ/mol
# GULP energy per Si atom -12400.937805 kJ/mol
# Density = 2.076503 g / cm^3
# Si number density = 20.812396 Si / 1000 Ang^3
#
#
#
# Elastic Constant Matrix: (Units=GPa)
#
#
# Indices 1 2 3 4 5 6 
#
# 1 98.9237 32.1516 31.3624 0.0000 0.0000 0.0000
# 2 32.1516 92.1364 36.7959 0.0000 0.0000 0.0000
# 3 31.3624 36.7959 68.2977 0.0000 0.0000 0.0000
# 4 0.0000 0.0000 0.0000 27.5058 0.0000 0.0000
# 5 0.0000 0.0000 0.0000 0.0000 32.7802 0.0000
# 6 0.0000 0.0000 0.0000 0.0000 0.0000 30.5211
#
#
#
# Elastic Compliance Matrix: (Units=1/GPa)
#
#
# Indices 1 2 3 4 5 6 
#
# 1 0.012300 -0.002595 -0.004250 0.000000 0.000000 0.000000
# 2 -0.002595 0.014376 -0.006554 0.000000 0.000000 0.000000
# 3 -0.004250 -0.006554 0.020124 0.000000 0.000000 0.000000
# 4 0.000000 0.000000 0.000000 0.036356 0.000000 0.000000
# 5 0.000000 0.000000 0.000000 0.000000 0.030506 0.000000
# 6 0.000000 0.000000 0.000000 0.000000 0.000000 0.032764
#
#
# Mechanical properties :
#
#
# Convention : Reuss Voigt Hill
#
# Bulk Modulus (GPa) = 49.99254 51.10861 50.55058
# Shear Modulus (GPa) = 27.79456 28.76462 28.27959
#
# Velocity S-wave (km/s) = 3.65839 3.72168 3.69017
# Velocity P-wave (km/s) = 6.47439 6.56338 6.51904
#
# Compressibility (1/GPa) = 0.02000298
#
# Stress axis : x y z
#
# Youngs Moduli (GPa) = 81.30395 69.55908 49.69112
#
# Poissons Ratio (x) = 0.18048 0.21119
# Poissons Ratio (y) = 0.21096 0.32567
# Poissons Ratio (z) = 0.34555 0.45588
#
# Static dielectric constant tensor:
#      x y z
#    x 3.794590 0.000000 0.000000 
#    y 0.000000 3.867110 0.000000 
#    z 0.000000 0.000000 3.498330 
# 
# 
# High freq. dielectric constant tensor:
#      x y z
#    x 1.824220 0.000000 0.000000 
#    y 0.000000 1.821170 0.000000 
#    z 0.000000 0.000000 1.789810 
# 
# From -- ./inp_files/4237.got.cif
#   From: 2010.06.25/outbox.cif.g09.slc.cpg/sg58_3_cif.got.tgz:4237.got - 2010.06.26 21:38:00.
