data_PCOD8237059
_publ_section_title
;
Structure prediction by ZEFSAII (Michael W. Deem and Ramdas Pophale) SiO2 
 PCOD8237059
Probable space group: P N N M
;
_chemical_formula_sum "Si O2"
_cell_formula_units_Z 64
_cell_length_a 15.409851
_cell_length_b 24.650337
_cell_length_c 9.128457
_cell_angle_alpha 90.000000
_cell_angle_beta 90.000000
_cell_angle_gamma 90.000000
_cell_volume 3467.517604
_symmetry_space_group_name_H-M "P N N M"
_symmetry_group_IT_number 58
_symmetry_cell_setting 'orthorhombic'
loop_
_space_group_symop_operation_xyz
x,y,z
-x,-y,z
1/2+x,1/2-y,1/2-z
1/2-x,1/2+y,1/2-z
-x,-y,-z
x,y,-z
1/2-x,1/2+y,1/2+z
1/2+x,1/2-y,1/2+z
loop_
_atom_site_type_symbol
_atom_site_label
_atom_site_fract_x
_atom_site_fract_y
_atom_site_fract_z
Si Si1 0.328367 0.062722 0.325444
Si Si2 0.449692 0.223281 0.834796
Si Si3 0.176157 0.449419 0.327237
Si Si4 0.782108 0.256714 0.172809
Si Si5 0.490576 0.343835 0.170009
Si Si6 0.820293 0.856427 0.674059
Si Si7 0.683097 0.638185 0.326884
Si Si8 0.997205 0.393899 0.668050
O O1 0.332210 0.060872 0.500000
O O2 0.248681 0.099720 0.267079
O O3 0.419205 0.085302 0.267630
O O4 0.310144 0.003563 0.263231
O O5 0.370750 0.215495 0.724358
O O6 0.499736 0.279172 0.801559
O O7 0.511931 0.171016 0.814311
O O8 0.412593 0.224758 0.000000
O O9 0.179049 0.461235 0.500000
O O10 0.253484 0.409645 0.278196
O O11 0.085119 0.422744 0.281242
O O12 0.704998 0.295672 0.229693
O O13 0.775793 0.195003 0.232428
O O14 0.783463 0.255512 0.000000
O O15 0.581612 0.369572 0.226884
O O16 0.411824 0.370954 0.258005
O O17 0.474956 0.356559 0.000000
O O18 0.818424 0.856579 0.500000
O O19 0.671615 0.640005 0.500000
O O20 0.975570 0.408906 0.500000
#
# Coordination Sequence:
#
# PCOD8237059 Si02
#       8
#     8   8   8   8   8   8   8   8
#     4  11  22  37  55  78 106 139 180 221 261 310
#     4   9  17  29  49  78 107 134 167 207 254 308
#     4  10  22  38  55  76 104 142 182 220 263 315
#     4   9  16  30  52  75 104 138 169 209 258 311
#     4   9  18  33  54  78 108 139 171 214 262 314
#     4   9  18  32  53  79 105 137 176 213 259 314
#     4   9  19  35  55  78 105 137 177 220 266 312
#     4  10  20  34  53  78 108 140 173 211 259 316
#
# _framework density 18.457008999999999
#
# number of rings (size 3 to 8) (size 9 to 14) (size 15 to 20)
#    0.000    2.500    1.250    0.750    1.750    2.500 
#    0.000    2.500    0.000    3.750    0.000    0.000 
#    0.000    0.000    0.000    0.000    0.000    0.000 
#
# Total GULP energy -793308.188077 kJ/mol
# GULP energy per Si atom -12395.440439 kJ/mol
# Density = 1.841500 g / cm^3
# Si number density = 18.457009 Si / 1000 Ang^3
#
#
#
# Elastic Constant Matrix: (Units=GPa)
#
#
# Indices 1 2 3 4 5 6 
#
# 1 154.0465 74.8712 34.8902 0.0000 0.0000 0.0000
# 2 74.8712 99.8470 34.0118 0.0000 0.0000 0.0000
# 3 34.8902 34.0118 27.4276 0.0000 0.0000 0.0000
# 4 0.0000 0.0000 0.0000 12.0754 0.0000 0.0000
# 5 0.0000 0.0000 0.0000 0.0000 27.4296 0.0000
# 6 0.0000 0.0000 0.0000 0.0000 0.0000 26.1195
#
#
#
# Elastic Compliance Matrix: (Units=1/GPa)
#
#
# Indices 1 2 3 4 5 6 
#
# 1 0.010829 -0.005935 -0.006416 0.000000 0.000000 0.000000
# 2 -0.005935 0.020592 -0.017986 0.000000 0.000000 0.000000
# 3 -0.006416 -0.017986 0.066926 0.000000 0.000000 0.000000
# 4 0.000000 0.000000 0.000000 0.082813 0.000000 0.000000
# 5 0.000000 0.000000 0.000000 0.000000 0.036457 0.000000
# 6 0.000000 0.000000 0.000000 0.000000 0.000000 0.038286
#
#
# Mechanical properties :
#
#
# Convention : Reuss Voigt Hill
#
# Bulk Modulus (GPa) = 26.54433 63.20751 44.87592
# Shear Modulus (GPa) = 15.19132 22.29477 18.74304
#
# Velocity S-wave (km/s) = 2.87202 3.47930 3.19014
# Velocity P-wave (km/s) = 5.04093 7.10358 6.15921
#
# Compressibility (1/GPa) = 0.03767283
#
# Stress axis : x y z
#
# Youngs Moduli (GPa) = 92.34248 48.56160 14.94191
#
# Poissons Ratio (x) = 0.28820 0.09587
# Poissons Ratio (y) = 0.54803 0.26875
# Poissons Ratio (z) = 0.59249 0.87344
#
# Static dielectric constant tensor:
#      x y z
#    x 3.482560 0.000000 0.000000 
#    y 0.000000 3.560020 0.000000 
#    z 0.000000 0.000000 3.203240 
# 
# 
# High freq. dielectric constant tensor:
#      x y z
#    x 1.713420 0.000000 0.000000 
#    y 0.000000 1.716490 0.000000 
#    z 0.000000 0.000000 1.694280 
# 
# From -- ./inp_files/6980.got.cif
#   From: 2010.06.25/outbox.cif.g09.slc.cpg/sg58_4_cif.got.tgz:6980.got - 2010.06.26 21:38:00.
