data_PCOD8237534
_publ_section_title
;
Structure prediction by ZEFSAII (Michael W. Deem and Ramdas Pophale) SiO2 
 PCOD8237534
Probable space group: P N N M
;
_chemical_formula_sum "Si O2"
_cell_formula_units_Z 64
_cell_length_a 8.826433
_cell_length_b 12.350440
_cell_length_c 29.962651
_cell_angle_alpha 90.000000
_cell_angle_beta 90.000000
_cell_angle_gamma 90.000000
_cell_volume 3266.238509
_symmetry_space_group_name_H-M "P N N M"
_symmetry_group_IT_number 58
_symmetry_cell_setting 'orthorhombic'
loop_
_space_group_symop_operation_xyz
x,y,z
-x,-y,z
1/2+x,1/2-y,1/2-z
1/2-x,1/2+y,1/2-z
-x,-y,-z
x,y,-z
1/2-x,1/2+y,1/2+z
1/2+x,1/2-y,1/2+z
loop_
_atom_site_type_symbol
_atom_site_label
_atom_site_fract_x
_atom_site_fract_y
_atom_site_fract_z
Si Si1 0.662206 0.042397 0.620203
Si Si2 0.874052 0.222501 0.404693
Si Si3 0.595984 0.398606 0.840199
Si Si4 0.848166 0.875618 0.140553
Si Si5 0.891088 0.693403 0.205383
Si Si6 0.277908 0.245538 0.286600
Si Si7 0.924207 0.615885 0.449449
Si Si8 0.319410 0.383528 0.373273
O O1 0.753190 0.123602 0.585792
O O2 0.637658 0.105601 0.666912
O O3 0.500000 0.000000 0.600966
O O4 0.763380 0.936324 0.628506
O O5 0.785784 0.325873 0.387460
O O6 0.992704 0.183655 0.367828
O O7 0.964852 0.277848 0.445736
O O8 0.500000 0.500000 0.824439
O O9 0.652702 0.347924 0.793653
O O10 0.864417 0.815277 0.187794
O O11 0.005624 0.863557 0.112904
O O12 0.803829 0.998941 0.149153
O O13 0.773628 0.675931 0.246204
O O14 0.062265 0.687863 0.223648
O O15 0.272655 0.302011 0.334654
O O16 0.863660 0.613863 0.500000
O O17 0.782198 0.632905 0.416834
O O18 0.000000 0.500000 0.437941
#
# Coordination Sequence:
#
# PCOD8237534 Si02
#       8
#     8   8   8   8   8   8   8   8
#     4  10  20  39  58  83 113 157 211 253 295 354
#     4  10  20  36  62  86 115 155 192 243 304 361
#     4  10  21  35  57  79 109 152 200 243 295 355
#     4   9  20  38  57  81 118 157 205 244 295 358
#     4  10  23  35  52  83 121 155 204 261 294 348
#     4  11  22  36  54  81 118 158 204 248 300 359
#     4  11  22  38  63  98 127 150 194 249 309 385
#     4  10  20  39  60  83 115 166 198 244 304 369
#
# _framework density 19.594403
#
# number of rings (size 3 to 8) (size 9 to 14) (size 15 to 20)
#    0.000    1.875    3.750    0.000    5.250    1.000 
#    2.250    1.875    0.000    3.750    0.000    0.000 
#    0.000    0.000    0.000    0.000    0.000    0.000 
#
# Total GULP energy -793053.956897 kJ/mol
# GULP energy per Si atom -12391.468077 kJ/mol
# Density = 1.954981 g / cm^3
# Si number density = 19.594403 Si / 1000 Ang^3
#
#
#
# Elastic Constant Matrix: (Units=GPa)
#
#
# Indices 1 2 3 4 5 6 
#
# 1 106.3660 29.1591 28.9913 0.0000 0.0000 0.0000
# 2 29.1591 69.1965 16.9979 0.0000 0.0000 0.0000
# 3 28.9913 16.9979 66.0211 0.0000 0.0000 0.0000
# 4 0.0000 0.0000 0.0000 18.7904 0.0000 0.0000
# 5 0.0000 0.0000 0.0000 0.0000 19.5279 0.0000
# 6 0.0000 0.0000 0.0000 0.0000 0.0000 41.1536
#
#
#
# Elastic Compliance Matrix: (Units=1/GPa)
#
#
# Indices 1 2 3 4 5 6 
#
# 1 0.011578 -0.003875 -0.004086 0.000000 0.000000 0.000000
# 2 -0.003875 0.016724 -0.002604 0.000000 0.000000 0.000000
# 3 -0.004086 -0.002604 0.017612 0.000000 0.000000 0.000000
# 4 0.000000 0.000000 0.000000 0.053219 0.000000 0.000000
# 5 0.000000 0.000000 0.000000 0.000000 0.051209 0.000000
# 6 0.000000 0.000000 0.000000 0.000000 0.000000 0.024299
#
#
# Mechanical properties :
#
#
# Convention : Reuss Voigt Hill
#
# Bulk Modulus (GPa) = 40.35143 43.54225 41.94684
# Shear Modulus (GPa) = 24.50600 26.99008 25.74804
#
# Velocity S-wave (km/s) = 3.54031 3.71541 3.62892
# Velocity P-wave (km/s) = 6.11144 6.37775 6.24602
#
# Compressibility (1/GPa) = 0.02478227
#
# Stress axis : x y z
#
# Youngs Moduli (GPa) = 86.37409 59.79355 56.78090
#
# Poissons Ratio (x) = 0.23170 0.23202
# Poissons Ratio (y) = 0.33469 0.14787
# Poissons Ratio (z) = 0.35295 0.15572
#
# Static dielectric constant tensor:
#      x y z
#    x 3.951500 0.000000 0.000000 
#    y 0.000000 3.827450 0.000000 
#    z 0.000000 0.000000 3.052350 
# 
# 
# High freq. dielectric constant tensor:
#      x y z
#    x 1.786350 0.000000 0.000000 
#    y 0.000000 1.775060 0.000000 
#    z 0.000000 0.000000 1.704860 
# 
# From -- ./inp_files/34822.got.cif
#   From: 2010.06.25/outbox.cif.g09.slc.cpg/sg58_18_cif.got.tgz:34822.got - 2010.06.26 21:38:00.
