data_PCOD8237310
_publ_section_title
;
Structure prediction by ZEFSAII (Michael W. Deem and Ramdas Pophale) SiO2 
 PCOD8237310
Probable space group: P N N M
;
_chemical_formula_sum "Si O2"
_cell_formula_units_Z 64
_cell_length_a 19.103215
_cell_length_b 18.843280
_cell_length_c 9.239791
_cell_angle_alpha 90.000000
_cell_angle_beta 90.000000
_cell_angle_gamma 90.000000
_cell_volume 3326.021964
_symmetry_space_group_name_H-M "P N N M"
_symmetry_group_IT_number 58
_symmetry_cell_setting 'orthorhombic'
loop_
_space_group_symop_operation_xyz
x,y,z
-x,-y,z
1/2+x,1/2-y,1/2-z
1/2-x,1/2+y,1/2-z
-x,-y,-z
x,y,-z
1/2-x,1/2+y,1/2+z
1/2+x,1/2-y,1/2+z
loop_
_atom_site_type_symbol
_atom_site_label
_atom_site_fract_x
_atom_site_fract_y
_atom_site_fract_z
Si Si1 0.034969 0.792995 0.671828
Si Si2 0.673402 0.632429 0.827760
Si Si3 0.833310 0.466085 0.666843
Si Si4 0.801189 0.973092 0.333025
Si Si5 0.408207 0.911672 0.666011
Si Si6 0.616137 0.336410 0.833197
Si Si7 0.691392 0.217487 0.665948
Si Si8 0.961983 0.367710 0.333824
O O1 0.037769 0.797574 0.500000
O O2 0.101020 0.836103 0.736080
O O3 0.041347 0.712171 0.724698
O O4 0.962005 0.825333 0.730695
O O5 0.678361 0.551068 0.774767
O O6 0.739133 0.678912 0.770540
O O7 0.673819 0.634312 0.000000
O O8 0.823967 0.487099 0.500000
O O9 0.760538 0.441073 0.735349
O O10 0.857573 0.534639 0.753627
O O11 0.885741 0.400647 0.685110
O O12 0.776720 0.976975 0.500000
O O13 0.866331 0.919575 0.314948
O O14 0.415607 0.935125 0.500000
O O15 0.375146 0.833963 0.680693
O O16 0.484130 0.913337 0.739409
O O17 0.674045 0.288713 0.753040
O O18 0.617986 0.312822 0.000000
O O19 0.704503 0.238920 0.500000
O O20 0.987400 0.370814 0.500000
#
# Coordination Sequence:
#
# PCOD8237310 Si02
#       8
#     8   8   8   8   8   8   8   8
#     4   9  18  34  57  83 109 142 186 235 279 325
#     4   9  18  35  58  81 110 145 186 233 277 329
#     4  11  23  36  55  83 115 152 190 232 280 334
#     4  10  21  38  57  83 116 147 186 234 285 337
#     4  11  21  36  58  83 113 152 187 229 283 339
#     4  10  21  36  58  85 113 145 182 235 287 328
#     4  10  20  35  58  82 109 148 186 223 277 337
#     4  10  21  36  54  81 115 147 186 232 277 334
#
# _framework density 19.242207000000001
#
# number of rings (size 3 to 8) (size 9 to 14) (size 15 to 20)
#    0.000    2.000    2.500    1.125    1.750    4.000 
#    0.000    2.500    0.000    2.250    0.000    1.750 
#    0.000    0.000    0.000    0.000    0.000    0.000 
#
# Total GULP energy -793734.119873 kJ/mol
# GULP energy per Si atom -12402.095623 kJ/mol
# Density = 1.919841 g / cm^3
# Si number density = 19.242207 Si / 1000 Ang^3
#
#
#
# Elastic Constant Matrix: (Units=GPa)
#
#
# Indices 1 2 3 4 5 6 
#
# 1 119.1956 51.3034 36.9152 0.0000 0.0000 0.0000
# 2 51.3034 86.8968 29.4433 0.0000 0.0000 0.0000
# 3 36.9152 29.4433 64.4671 0.0000 0.0000 0.0000
# 4 0.0000 0.0000 0.0000 24.2103 0.0000 0.0000
# 5 0.0000 0.0000 0.0000 0.0000 24.1166 0.0000
# 6 0.0000 0.0000 0.0000 0.0000 0.0000 33.1536
#
#
#
# Elastic Compliance Matrix: (Units=1/GPa)
#
#
# Indices 1 2 3 4 5 6 
#
# 1 0.012209 -0.005725 -0.004376 0.000000 0.000000 0.000000
# 2 -0.005725 0.016300 -0.004166 0.000000 0.000000 0.000000
# 3 -0.004376 -0.004166 0.019920 0.000000 0.000000 0.000000
# 4 0.000000 0.000000 0.000000 0.041305 0.000000 0.000000
# 5 0.000000 0.000000 0.000000 0.000000 0.041465 0.000000
# 6 0.000000 0.000000 0.000000 0.000000 0.000000 0.030163
#
#
# Mechanical properties :
#
#
# Convention : Reuss Voigt Hill
#
# Bulk Modulus (GPa) = 50.26631 56.20925 53.23778
# Shear Modulus (GPa) = 25.44159 26.48927 25.96543
#
# Velocity S-wave (km/s) = 3.64012 3.71431 3.67740
# Velocity P-wave (km/s) = 6.62170 6.90432 6.76449
#
# Compressibility (1/GPa) = 0.01989404
#
# Stress axis : x y z
#
# Youngs Moduli (GPa) = 81.90520 61.35097 50.19976
#
# Poissons Ratio (x) = 0.35126 0.21969
# Poissons Ratio (y) = 0.46894 0.20912
# Poissons Ratio (z) = 0.35845 0.25558
#
# Static dielectric constant tensor:
#      x y z
#    x 3.659800 0.000000 0.000000 
#    y 0.000000 3.504770 0.000000 
#    z 0.000000 0.000000 3.291940 
# 
# 
# High freq. dielectric constant tensor:
#      x y z
#    x 1.754750 0.000000 0.000000 
#    y 0.000000 1.752510 0.000000 
#    z 0.000000 0.000000 1.716410 
# 
# From -- ./inp_files/8376.got.cif
#   From: 2010.06.25/outbox.cif.g09.slc.cpg/sg58_5_cif.got.tgz:8376.got - 2010.06.26 21:38:00.
