data_PCOD8237179
_publ_section_title
;
Structure prediction by ZEFSAII (Michael W. Deem and Ramdas Pophale) SiO2 
 PCOD8237179
Probable space group: P N N M
;
_chemical_formula_sum "Si O2"
_cell_formula_units_Z 64
_cell_length_a 9.786191
_cell_length_b 26.788733
_cell_length_c 14.349257
_cell_angle_alpha 90.000000
_cell_angle_beta 90.000000
_cell_angle_gamma 90.000000
_cell_volume 3761.796305
_symmetry_space_group_name_H-M "P N N M"
_symmetry_group_IT_number 58
_symmetry_cell_setting 'orthorhombic'
loop_
_space_group_symop_operation_xyz
x,y,z
-x,-y,z
1/2+x,1/2-y,1/2-z
1/2-x,1/2+y,1/2-z
-x,-y,-z
x,y,-z
1/2-x,1/2+y,1/2+z
1/2+x,1/2-y,1/2+z
loop_
_atom_site_type_symbol
_atom_site_label
_atom_site_fract_x
_atom_site_fract_y
_atom_site_fract_z
Si Si1 0.982654 0.819521 0.100965
Si Si2 0.014944 0.136325 0.708630
Si Si3 0.695247 0.283887 0.890289
Si Si4 0.804066 0.673377 0.601871
Si Si5 0.497700 0.792535 0.608722
Si Si6 0.357126 0.973791 0.607162
Si Si7 0.387350 0.541905 0.896164
Si Si8 0.807036 0.628214 0.209207
O O1 0.939999 0.857121 0.183268
O O2 0.937632 0.763005 0.126124
O O3 0.143870 0.819771 0.090245
O O4 0.918939 0.835641 0.000000
O O5 0.081367 0.179809 0.649167
O O6 0.073465 0.083444 0.677983
O O7 0.852653 0.139278 0.692099
O O8 0.643642 0.227957 0.865256
O O9 0.847270 0.296470 0.850461
O O10 0.701640 0.290298 0.000000
O O11 0.865235 0.657761 0.500000
O O12 0.840913 0.632243 0.680066
O O13 0.499136 0.805348 0.500000
O O14 0.398060 0.831599 0.656687
O O15 0.331683 0.956754 0.500000
O O16 0.345122 0.926658 0.674682
O O17 0.500000 0.000000 0.620589
O O18 0.251083 0.016161 0.637786
O O19 0.500000 0.500000 0.898637
O O20 0.370829 0.565445 0.000000
#
# Coordination Sequence:
#
# PCOD8237179 Si02
#       8
#     8   8   8   8   8   8   8   8
#     4   8  16  32  50  71 101 134 165 201 241 284
#     4  11  20  30  52  77  98 129 167 202 246 294
#     4   9  18  31  48  74 105 135 163 193 238 297
#     4   8  16  32  51  72 101 133 165 199 240 291
#     4   9  18  31  48  72 104 136 164 196 238 289
#     4  10  22  37  52  72  97 126 162 201 245 297
#     4  10  20  35  50  70 102 127 150 198 254 293
#     4  11  20  31  52  77  98 127 169 208 240 284
#
# _framework density 17.013148999999999
#
# number of rings (size 3 to 8) (size 9 to 14) (size 15 to 20)
#    0.000    2.500    1.250    3.000    1.750    1.500 
#    0.000    0.000    0.000    3.750    0.000    0.000 
#    0.000    0.000    0.000    0.000    0.000    0.000 
#
# Total GULP energy -793216.094671 kJ/mol
# GULP energy per Si atom -12394.001479 kJ/mol
# Density = 1.697443 g / cm^3
# Si number density = 17.013149 Si / 1000 Ang^3
#
#
#
# Elastic Constant Matrix: (Units=GPa)
#
#
# Indices 1 2 3 4 5 6 
#
# 1 68.5416 38.1581 35.7920 0.0000 0.0000 0.0000
# 2 38.1581 93.8555 65.7364 0.0000 0.0000 0.0000
# 3 35.7920 65.7364 76.8403 0.0000 0.0000 0.0000
# 4 0.0000 0.0000 0.0000 -208.8805 0.0000 0.0000
# 5 0.0000 0.0000 0.0000 0.0000 18.1052 0.0000
# 6 0.0000 0.0000 0.0000 0.0000 0.0000 22.7123
#
#
#
# Elastic Compliance Matrix: (Units=1/GPa)
#
#
# Indices 1 2 3 4 5 6 
#
# 1 0.019857 -0.003979 -0.005845 0.000000 0.000000 0.000000
# 2 -0.003979 0.027380 -0.021570 0.000000 0.000000 0.000000
# 3 -0.005845 -0.021570 0.034190 0.000000 0.000000 0.000000
# 4 0.000000 0.000000 0.000000 -0.004787 0.000000 0.000000
# 5 0.000000 0.000000 0.000000 0.000000 0.055233 0.000000
# 6 0.000000 0.000000 0.000000 0.000000 0.000000 0.044029
#
#
# Mechanical properties :
#
#
# Convention : Reuss Voigt Hill
#
# Bulk Modulus (GPa) = 53.65341 57.62339 55.63840
# Shear Modulus (GPa) = 20.41621 -26.97587 -3.27983
#
# Velocity S-wave (km/s) = 3.46790 -3.98627 -1.38997
# Velocity P-wave (km/s) = 6.90217 3.57160 5.49529
#
# Compressibility (1/GPa) = 0.01863814
#
# Stress axis : x y z
#
# Youngs Moduli (GPa) = 50.35922 36.52288 29.24849
#
# Poissons Ratio (x) = 0.14533 0.17097
# Poissons Ratio (y) = 0.20039 0.63089
# Poissons Ratio (z) = 0.29437 0.78780
#
# Static dielectric constant tensor:
#      x y z
#    x 3.167150 0.000000 0.000000 
#    y 0.000000 3.113040 0.000000 
#    z 0.000000 0.000000 3.599290 
# 
# 
# High freq. dielectric constant tensor:
#      x y z
#    x 1.644620 0.000000 0.000000 
#    y 0.000000 1.643780 0.000000 
#    z 0.000000 0.000000 1.654180 
# 
# From -- ./inp_files/20299.got.cif
#   From: 2010.06.25/outbox.cif.g09.slc.cpg/sg58_11_cif.got.tgz:20299.got - 2010.06.26 21:38:00.
