data_PCOD8237744
_publ_section_title
;
Structure prediction by ZEFSAII (Michael W. Deem and Ramdas Pophale) SiO2 
 PCOD8237744
Probable space group: P N N M
;
_chemical_formula_sum "Si O2"
_cell_formula_units_Z 64
_cell_length_a 12.526534
_cell_length_b 28.224841
_cell_length_c 9.187312
_cell_angle_alpha 90.000000
_cell_angle_beta 90.000000
_cell_angle_gamma 90.000000
_cell_volume 3248.260798
_symmetry_space_group_name_H-M "P N N M"
_symmetry_group_IT_number 58
_symmetry_cell_setting 'orthorhombic'
loop_
_space_group_symop_operation_xyz
x,y,z
-x,-y,z
1/2+x,1/2-y,1/2-z
1/2-x,1/2+y,1/2-z
-x,-y,-z
x,y,-z
1/2-x,1/2+y,1/2+z
1/2+x,1/2-y,1/2+z
loop_
_atom_site_type_symbol
_atom_site_label
_atom_site_fract_x
_atom_site_fract_y
_atom_site_fract_z
Si Si1 0.937453 0.411970 0.833029
Si Si2 0.115500 0.092870 0.164585
Si Si3 0.011014 0.831604 0.672169
Si Si4 0.817661 0.338998 0.662744
Si Si5 0.745190 0.478463 0.169000
Si Si6 0.187353 0.231042 0.666001
Si Si7 0.272682 0.330525 0.331623
Si Si8 0.680547 0.081124 0.667392
O O1 0.916817 0.364198 0.741602
O O2 0.857257 0.453952 0.787230
O O3 0.056604 0.430024 0.803158
O O4 0.919890 0.398093 0.000000
O O5 0.218428 0.125808 0.166414
O O6 0.147322 0.042871 0.237894
O O7 0.023516 0.118026 0.258776
O O8 0.074956 0.084131 0.000000
O O9 0.023073 0.838303 0.500000
O O10 0.122453 0.816599 0.741808
O O11 0.927130 0.790105 0.713646
O O12 0.853610 0.326209 0.500000
O O13 0.784455 0.290632 0.741384
O O14 0.753058 0.533982 0.204479
O O15 0.720429 0.469477 0.000000
O O16 0.209630 0.216578 0.500000
O O17 0.187985 0.287650 0.687824
O O18 0.303227 0.337667 0.500000
O O19 0.219513 0.377866 0.272540
O O20 0.698793 0.096401 0.500000
#
# Coordination Sequence:
#
# PCOD8237744 Si02
#       8
#     8   8   8   8   8   8   8   8
#     4   9  17  31  53  80 111 146 181 220 268 320
#     4   9  17  31  53  82 111 138 173 219 270 319
#     4  10  20  38  62  83 106 140 180 220 265 318
#     4   9  17  29  50  81 111 138 174 220 266 316
#     4   9  17  32  55  81 109 143 184 226 265 313
#     4   9  20  38  58  79 105 140 180 220 264 317
#     4  11  24  40  56  79 112 144 176 220 272 320
#     4  10  21  36  53  76 108 147 188 225 265 317
#
# _framework density 19.702850999999999
#
# number of rings (size 3 to 8) (size 9 to 14) (size 15 to 20)
#    0.000    2.500    0.000    1.875    0.000    8.000 
#    0.000    3.125    0.000    7.500    0.000    0.000 
#    0.000    0.000    0.000    0.000    0.000    0.000 
#
# Total GULP energy -793661.571639 kJ/mol
# GULP energy per Si atom -12400.962057 kJ/mol
# Density = 1.965801 g / cm^3
# Si number density = 19.702851 Si / 1000 Ang^3
#
#
#
# Elastic Constant Matrix: (Units=GPa)
#
#
# Indices 1 2 3 4 5 6 
#
# 1 46.8465 24.2515 28.4632 0.0000 0.0000 0.0000
# 2 24.2515 105.8806 48.9522 0.0000 0.0000 0.0000
# 3 28.4632 48.9522 104.3598 0.0000 0.0000 0.0000
# 4 0.0000 0.0000 0.0000 32.8582 0.0000 0.0000
# 5 0.0000 0.0000 0.0000 0.0000 28.5868 0.0000
# 6 0.0000 0.0000 0.0000 0.0000 0.0000 26.2960
#
#
#
# Elastic Compliance Matrix: (Units=1/GPa)
#
#
# Indices 1 2 3 4 5 6 
#
# 1 0.026560 -0.003492 -0.005606 0.000000 0.000000 0.000000
# 2 -0.003492 0.012519 -0.004920 0.000000 0.000000 0.000000
# 3 -0.005606 -0.004920 0.013419 0.000000 0.000000 0.000000
# 4 0.000000 0.000000 0.000000 0.030434 0.000000 0.000000
# 5 0.000000 0.000000 0.000000 0.000000 0.034981 0.000000
# 6 0.000000 0.000000 0.000000 0.000000 0.000000 0.038029
#
#
# Mechanical properties :
#
#
# Convention : Reuss Voigt Hill
#
# Bulk Modulus (GPa) = 40.87868 51.15786 46.01827
# Shear Modulus (GPa) = 26.02382 27.90952 26.96667
#
# Velocity S-wave (km/s) = 3.63824 3.76775 3.70357
# Velocity P-wave (km/s) = 6.20014 6.70440 6.45720
#
# Compressibility (1/GPa) = 0.02446263
#
# Stress axis : x y z
#
# Youngs Moduli (GPa) = 37.65049 79.87850 74.52049
#
# Poissons Ratio (x) = 0.27890 0.41778
# Poissons Ratio (y) = 0.13146 0.36664
# Poissons Ratio (z) = 0.21108 0.39300
#
# Static dielectric constant tensor:
#      x y z
#    x 3.415020 0.000000 0.000000 
#    y 0.000000 3.505900 0.000000 
#    z 0.000000 0.000000 3.678340 
# 
# 
# High freq. dielectric constant tensor:
#      x y z
#    x 1.750630 0.000000 0.000000 
#    y 0.000000 1.761770 0.000000 
#    z 0.000000 0.000000 1.769780 
# 
# From -- ./inp_files/4812.got.cif
#   From: 2010.06.25/outbox.cif.g09.slc.cpg/sg58_3_cif.got.tgz:4812.got - 2010.06.26 21:38:00.
