data_PCOD8237632
_publ_section_title
;
Structure prediction by ZEFSAII (Michael W. Deem and Ramdas Pophale) SiO2 
 PCOD8237632
Probable space group: P N N M
;
_chemical_formula_sum "Si O2"
_cell_formula_units_Z 48
_cell_length_a 30.674102
_cell_length_b 9.145555
_cell_length_c 8.954192
_cell_angle_alpha 90.000000
_cell_angle_beta 90.000000
_cell_angle_gamma 90.000000
_cell_volume 2511.934587
_symmetry_space_group_name_H-M "P N N M"
_symmetry_group_IT_number 58
_symmetry_cell_setting 'orthorhombic'
loop_
_space_group_symop_operation_xyz
x,y,z
-x,-y,z
1/2+x,1/2-y,1/2-z
1/2-x,1/2+y,1/2-z
-x,-y,-z
x,y,-z
1/2-x,1/2+y,1/2+z
1/2+x,1/2-y,1/2+z
loop_
_atom_site_type_symbol
_atom_site_label
_atom_site_fract_x
_atom_site_fract_y
_atom_site_fract_z
Si Si1 0.712197 0.420896 0.829081
Si Si2 0.709504 0.078378 0.828852
Si Si3 0.459787 0.397046 0.673226
Si Si4 0.542253 0.910908 0.176042
Si Si5 0.375814 0.586064 0.673336
Si Si6 0.879406 0.578880 0.174912
O O1 0.718200 0.249050 0.809889
O O2 0.748469 0.496142 0.729934
O O3 0.664872 0.469561 0.770018
O O4 0.716786 0.471389 0.000000
O O5 0.667578 0.028735 0.734888
O O6 0.701292 0.035626 0.000000
O O7 0.500000 0.500000 0.713937
O O8 0.460919 0.350922 0.500000
O O9 0.463285 0.255402 0.774740
O O10 0.415894 0.482762 0.713663
O O11 0.500000 0.000000 0.230161
O O12 0.584586 0.979115 0.250178
O O13 0.547970 0.918910 0.000000
O O14 0.362887 0.577064 0.500000
O O15 0.388606 0.752127 0.715644
O O16 0.880663 0.549951 0.000000
#
# Coordination Sequence:
#
# PCOD8237632 Si02
#       6
#     8   8   8   8   8   8
#     4  10  21  36  56  82 111 147 188 227 273 329
#     4  10  21  37  57  82 113 146 183 229 277 326
#     4  10  21  38  60  85 112 144 185 231 278 329
#     4  11  24  39  56  82 115 149 185 226 273 326
#     4   9  19  36  58  83 110 142 182 230 281 329
#     4  10  20  37  61  84 109 144 185 228 276 329
#
# _framework density 19.108778999999998
#
# number of rings (size 3 to 8) (size 9 to 14) (size 15 to 20)
#    0.000    2.000    0.000    3.000    0.000    7.667 
#    0.000    1.667    0.000    0.000    0.000    0.000 
#    0.000    0.000    0.000    0.000    0.000    0.000 
#
# Total GULP energy -595457.332393 kJ/mol
# GULP energy per Si atom -12405.361092 kJ/mol
# Density = 1.906529 g / cm^3
# Si number density = 19.108779 Si / 1000 Ang^3
#
#
#
# Elastic Constant Matrix: (Units=GPa)
#
#
# Indices 1 2 3 4 5 6 
#
# 1 131.3776 69.7450 47.9647 0.0000 0.0000 0.0000
# 2 69.7450 80.8998 47.5618 0.0000 0.0000 0.0000
# 3 47.9647 47.5618 74.0098 0.0000 0.0000 0.0000
# 4 0.0000 0.0000 0.0000 31.6505 0.0000 0.0000
# 5 0.0000 0.0000 0.0000 0.0000 -42.2169 0.0000
# 6 0.0000 0.0000 0.0000 0.0000 0.0000 34.2249
#
#
#
# Elastic Compliance Matrix: (Units=1/GPa)
#
#
# Indices 1 2 3 4 5 6 
#
# 1 0.014246 -0.011015 -0.002153 0.000000 0.000000 0.000000
# 2 -0.011015 0.028385 -0.011102 0.000000 0.000000 0.000000
# 3 -0.002153 -0.011102 0.022042 0.000000 0.000000 0.000000
# 4 0.000000 0.000000 0.000000 0.031595 0.000000 0.000000
# 5 0.000000 0.000000 0.000000 0.000000 -0.023687 0.000000
# 6 0.000000 0.000000 0.000000 0.000000 0.000000 0.029219
#
#
# Mechanical properties :
#
#
# Convention : Reuss Voigt Hill
#
# Bulk Modulus (GPa) = 61.99537 68.53670 65.26604
# Shear Modulus (GPa) = 32.10939 12.79941 22.45440
#
# Velocity S-wave (km/s) = 4.10365 2.59089 3.43167
# Velocity P-wave (km/s) = 7.41398 6.70036 7.06618
#
# Compressibility (1/GPa) = 0.01613024
#
# Stress axis : x y z
#
# Youngs Moduli (GPa) = 70.19707 35.23033 45.36762
#
# Poissons Ratio (x) = 0.38807 0.09770
# Poissons Ratio (y) = 0.77324 0.50368
# Poissons Ratio (z) = 0.15117 0.39114
#
# Static dielectric constant tensor:
#      x y z
#    x 3.610580 0.000000 0.000000 
#    y 0.000000 3.438620 0.000000 
#    z 0.000000 0.000000 3.583360 
# 
# 
# High freq. dielectric constant tensor:
#      x y z
#    x 1.758180 0.000000 0.000000 
#    y 0.000000 1.740100 0.000000 
#    z 0.000000 0.000000 1.750880 
# 
# From -- ./inp_files/2871.got.cif
#   From: 2010.06.25/outbox.cif.g09.slc.cpg/sg58_2_cif.got.tgz:2871.got - 2010.06.26 21:38:00.
