data_PCOD8237759
_publ_section_title
;
Structure prediction by ZEFSAII (Michael W. Deem and Ramdas Pophale) SiO2 
 PCOD8237759
Probable space group: P N N M
;
_chemical_formula_sum "Si O2"
_cell_formula_units_Z 64
_cell_length_a 8.925235
_cell_length_b 20.162246
_cell_length_c 18.165204
_cell_angle_alpha 90.000000
_cell_angle_beta 90.000000
_cell_angle_gamma 90.000000
_cell_volume 3268.879026
_symmetry_space_group_name_H-M "P N N M"
_symmetry_group_IT_number 58
_symmetry_cell_setting 'orthorhombic'
loop_
_space_group_symop_operation_xyz
x,y,z
-x,-y,z
1/2+x,1/2-y,1/2-z
1/2-x,1/2+y,1/2-z
-x,-y,-z
x,y,-z
1/2-x,1/2+y,1/2+z
1/2+x,1/2-y,1/2+z
loop_
_atom_site_type_symbol
_atom_site_label
_atom_site_fract_x
_atom_site_fract_y
_atom_site_fract_z
Si Si1 0.156137 0.758625 0.320525
Si Si2 0.355569 0.885857 0.668786
Si Si3 0.133358 0.392511 0.338869
Si Si4 0.195043 0.246514 0.668630
Si Si5 0.328980 0.130956 0.086925
Si Si6 0.836006 0.368672 0.913805
Si Si7 0.331790 0.517379 0.664275
Si Si8 0.671863 0.485122 0.165016
O O1 0.238778 0.826233 0.341548
O O2 0.210879 0.731224 0.242049
O O3 0.196577 0.704427 0.381796
O O4 0.978502 0.771138 0.316841
O O5 0.410568 0.892460 0.752789
O O6 0.498878 0.874648 0.618906
O O7 0.272143 0.952057 0.643011
O O8 0.215807 0.322939 0.356307
O O9 0.236219 0.453885 0.360643
O O10 0.985456 0.399896 0.386964
O O11 0.263744 0.202538 0.603765
O O12 0.201899 0.081844 0.116127
O O13 0.322752 0.135620 0.000000
O O14 0.724372 0.423710 0.882918
O O15 0.849610 0.377490 0.000000
O O16 0.500000 0.500000 0.646801
O O17 0.306159 0.533708 0.749757
O O18 0.500000 0.500000 0.146530
#
# Coordination Sequence:
#
# PCOD8237759 Si02
#       8
#     8   8   8   8   8   8   8   8
#     4  10  21  39  65  89 113 148 196 247 292 344
#     4  10  21  39  62  87 113 149 196 243 292 343
#     4   9  20  38  61  84 108 146 192 236 280 334
#     4  10  20  38  62  88 115 149 197 246 292 342
#     4  11  23  37  55  82 118 156 187 222 278 347
#     4  12  25  38  56  86 124 160 192 234 291 355
#     4  10  21  37  61  88 111 141 189 244 289 332
#     4  10  21  40  64  87 112 148 197 250 296 343
#
# _framework density 19.578576999999999
#
# number of rings (size 3 to 8) (size 9 to 14) (size 15 to 20)
#    0.000    1.750    0.000    5.250    0.000   12.000 
#    0.000    1.250    0.000    0.000    0.000    0.000 
#    0.000    0.000    0.000    0.000    0.000    0.000 
#
# Total GULP energy -793875.743863 kJ/mol
# GULP energy per Si atom -12404.308498 kJ/mol
# Density = 1.953402 g / cm^3
# Si number density = 19.578577 Si / 1000 Ang^3
#
#
#
# Elastic Constant Matrix: (Units=GPa)
#
#
# Indices 1 2 3 4 5 6 
#
# 1 76.4638 18.0304 26.6684 0.0000 0.0000 0.0000
# 2 18.0304 70.0549 31.6592 0.0000 0.0000 0.0000
# 3 26.6684 31.6592 76.4038 0.0000 0.0000 0.0000
# 4 0.0000 0.0000 0.0000 8.5982 0.0000 0.0000
# 5 0.0000 0.0000 0.0000 0.0000 7.4967 0.0000
# 6 0.0000 0.0000 0.0000 0.0000 0.0000 30.6922
#
#
#
# Elastic Compliance Matrix: (Units=1/GPa)
#
#
# Indices 1 2 3 4 5 6 
#
# 1 0.015083 -0.001849 -0.004498 0.000000 0.000000 0.000000
# 2 -0.001849 0.017790 -0.006726 0.000000 0.000000 0.000000
# 3 -0.004498 -0.006726 0.017446 0.000000 0.000000 0.000000
# 4 0.000000 0.000000 0.000000 0.116303 0.000000 0.000000
# 5 0.000000 0.000000 0.000000 0.000000 0.133392 0.000000
# 6 0.000000 0.000000 0.000000 0.000000 0.000000 0.032582
#
#
# Mechanical properties :
#
#
# Convention : Reuss Voigt Hill
#
# Bulk Modulus (GPa) = 41.37139 41.73761 41.55450
# Shear Modulus (GPa) = 13.63141 19.12838 16.37990
#
# Velocity S-wave (km/s) = 2.64150 3.12910 2.89558
# Velocity P-wave (km/s) = 5.52089 5.86680 5.69647
#
# Compressibility (1/GPa) = 0.02417130
#
# Stress axis : x y z
#
# Youngs Moduli (GPa) = 66.29966 56.21083 57.32080
#
# Poissons Ratio (x) = 0.10394 0.25786
# Poissons Ratio (y) = 0.12259 0.38555
# Poissons Ratio (z) = 0.29825 0.37809
#
# Static dielectric constant tensor:
#      x y z
#    x 3.722650 0.000000 0.000000 
#    y 0.000000 3.795040 0.000000 
#    z 0.000000 0.000000 3.383950 
# 
# 
# High freq. dielectric constant tensor:
#      x y z
#    x 1.773770 0.000000 0.000000 
#    y 0.000000 1.781250 0.000000 
#    z 0.000000 0.000000 1.741790 
# 
# From -- ./inp_files/25650.got.cif
#   From: 2010.06.25/outbox.cif.g09.slc.cpg/sg58_13_cif.got.tgz:25650.got - 2010.06.26 21:38:00.
