data_PCOD8237991
_publ_section_title
;
Structure prediction by ZEFSAII (Michael W. Deem and Ramdas Pophale) SiO2 
 PCOD8237991
Probable space group: P N N M
;
_chemical_formula_sum "Si O2"
_cell_formula_units_Z 64
_cell_length_a 9.339178
_cell_length_b 25.821521
_cell_length_c 13.331280
_cell_angle_alpha 90.000000
_cell_angle_beta 90.000000
_cell_angle_gamma 90.000000
_cell_volume 3214.861913
_symmetry_space_group_name_H-M "P N N M"
_symmetry_group_IT_number 58
_symmetry_cell_setting 'orthorhombic'
loop_
_space_group_symop_operation_xyz
x,y,z
-x,-y,z
1/2+x,1/2-y,1/2-z
1/2-x,1/2+y,1/2-z
-x,-y,-z
x,y,-z
1/2-x,1/2+y,1/2+z
1/2+x,1/2-y,1/2+z
loop_
_atom_site_type_symbol
_atom_site_label
_atom_site_fract_x
_atom_site_fract_y
_atom_site_fract_z
Si Si1 0.595603 0.737017 0.617371
Si Si2 0.033575 0.165701 0.743680
Si Si3 0.330049 0.502452 0.882579
Si Si4 0.965149 0.659507 0.115640
Si Si5 0.532219 0.118147 0.117505
Si Si6 0.237073 0.899009 0.275296
Si Si7 0.917491 0.736316 0.617066
Si Si8 0.692783 0.900514 0.723564
O O1 0.601575 0.742612 0.500000
O O2 0.502731 0.686584 0.645238
O O3 0.519417 0.787190 0.665690
O O4 0.756004 0.732028 0.659565
O O5 0.928558 0.117173 0.726918
O O6 0.003999 0.215017 0.670256
O O7 0.194398 0.145852 0.736925
O O8 0.500000 0.500000 0.870629
O O9 0.253375 0.452171 0.836988
O O10 0.272361 0.548643 0.813844
O O11 0.288307 0.508879 0.000000
O O12 0.080959 0.614872 0.137133
O O13 0.814025 0.646119 0.163089
O O14 0.941135 0.666731 0.000000
O O15 0.681420 0.097296 0.167201
O O16 0.511387 0.179917 0.134866
O O17 0.395912 0.091113 0.172472
O O18 0.534813 0.103458 0.000000
O O19 0.918791 0.750039 0.500000
#
# Coordination Sequence:
#
# PCOD8237991 Si02
#       8
#     8   8   8   8   8   8   8   8
#     4  10  21  36  57  86 122 163 202 245 298 361
#     4  12  22  35  61  89 122 161 205 250 303 357
#     4  11  24  43  66  94 125 156 199 254 314 376
#     4  10  21  37  57  89 127 160 200 247 302 371
#     4  10  23  43  64  89 124 163 206 255 305 362
#     4  11  23  40  63  90 122 162 207 256 310 363
#     4  10  21  36  58  88 124 166 205 242 298 366
#     4  11  23  40  63  89 121 161 206 257 309 362
#
# _framework density 19.907540999999998
#
# number of rings (size 3 to 8) (size 9 to 14) (size 15 to 20)
#    0.000    1.375    3.750    2.250    0.000    4.000 
#    0.000    6.875    0.000    0.750    0.000    0.000 
#    0.000    0.000    0.000    0.000    0.000    0.000 
#
# Total GULP energy -793333.977885 kJ/mol
# GULP energy per Si atom -12395.843404 kJ/mol
# Density = 1.986223 g / cm^3
# Si number density = 19.907541 Si / 1000 Ang^3
#
#
#
# Elastic Constant Matrix: (Units=GPa)
#
#
# Indices 1 2 3 4 5 6 
#
# 1 79.6348 21.0393 35.8658 0.0000 0.0000 0.0000
# 2 21.0393 83.1925 35.8626 0.0000 0.0000 0.0000
# 3 35.8658 35.8626 96.3635 0.0000 0.0000 0.0000
# 4 0.0000 0.0000 0.0000 26.7076 0.0000 0.0000
# 5 0.0000 0.0000 0.0000 0.0000 24.8607 0.0000
# 6 0.0000 0.0000 0.0000 0.0000 0.0000 34.8594
#
#
#
# Elastic Compliance Matrix: (Units=1/GPa)
#
#
# Indices 1 2 3 4 5 6 
#
# 1 0.015281 -0.001683 -0.005061 0.000000 0.000000 0.000000
# 2 -0.001683 0.014503 -0.004771 0.000000 0.000000 0.000000
# 3 -0.005061 -0.004771 0.014037 0.000000 0.000000 0.000000
# 4 0.000000 0.000000 0.000000 0.037443 0.000000 0.000000
# 5 0.000000 0.000000 0.000000 0.000000 0.040224 0.000000
# 6 0.000000 0.000000 0.000000 0.000000 0.000000 0.028687
#
#
# Mechanical properties :
#
#
# Convention : Reuss Voigt Hill
#
# Bulk Modulus (GPa) = 48.09889 49.41402 48.75645
# Shear Modulus (GPa) = 27.75706 28.38043 28.06874
#
# Velocity S-wave (km/s) = 3.73808 3.77982 3.75901
# Velocity P-wave (km/s) = 6.54558 6.62760 6.58672
#
# Compressibility (1/GPa) = 0.02079050
#
# Stress axis : x y z
#
# Youngs Moduli (GPa) = 65.43881 68.95342 71.24169
#
# Poissons Ratio (x) = 0.11604 0.36058
# Poissons Ratio (y) = 0.11012 0.33989
# Poissons Ratio (z) = 0.33121 0.32897
#
# Static dielectric constant tensor:
#      x y z
#    x 3.662360 0.000000 0.000000 
#    y 0.000000 3.558990 0.000000 
#    z 0.000000 0.000000 3.630120 
# 
# 
# High freq. dielectric constant tensor:
#      x y z
#    x 1.778670 0.000000 0.000000 
#    y 0.000000 1.769330 0.000000 
#    z 0.000000 0.000000 1.776570 
# 
# From -- ./inp_files/20294.got.cif
#   From: 2010.06.25/outbox.cif.g09.slc.cpg/sg58_11_cif.got.tgz:20294.got - 2010.06.26 21:38:00.
