data_PCOD8237244
_publ_section_title
;
Structure prediction by ZEFSAII (Michael W. Deem and Ramdas Pophale) SiO2 
 PCOD8237244
Probable space group: P N N M
;
_chemical_formula_sum "Si O2"
_cell_formula_units_Z 40
_cell_length_a 15.622558
_cell_length_b 15.440593
_cell_length_c 9.024392
_cell_angle_alpha 90.000000
_cell_angle_beta 90.000000
_cell_angle_gamma 90.000000
_cell_volume 2176.877914
_symmetry_space_group_name_H-M "P N N M"
_symmetry_group_IT_number 58
_symmetry_cell_setting 'orthorhombic'
loop_
_space_group_symop_operation_xyz
x,y,z
-x,-y,z
1/2+x,1/2-y,1/2-z
1/2-x,1/2+y,1/2-z
-x,-y,-z
x,y,-z
1/2-x,1/2+y,1/2+z
1/2+x,1/2-y,1/2+z
loop_
_atom_site_type_symbol
_atom_site_label
_atom_site_fract_x
_atom_site_fract_y
_atom_site_fract_z
Si Si1 0.459214 0.364865 0.670253
Si Si2 0.307821 0.062589 0.325206
Si Si3 0.633337 0.458818 0.330054
Si Si4 0.060361 0.688549 0.674322
Si Si5 0.066598 0.422419 0.836841
O O1 0.448508 0.335645 0.500000
O O2 0.396603 0.444231 0.706897
O O3 0.556698 0.392334 0.700781
O O4 0.433034 0.288001 0.778835
O O5 0.315921 0.077678 0.500000
O O6 0.210078 0.068335 0.276435
O O7 0.360920 0.137852 0.246118
O O8 0.344757 0.966822 0.282195
O O9 0.663475 0.452726 0.500000
O O10 0.067337 0.679925 0.500000
O O11 0.967998 0.650523 0.725320
O O12 0.000000 0.500000 0.847162
O O13 0.077818 0.379935 0.000000
#
# Coordination Sequence:
#
# PCOD8237244 Si02
#       5
#     8   8   8   8   8
#     4   9  19  38  59  78 107 145 179 219 274 324
#     4  10  20  35  56  81 111 144 178 222 275 321
#     4   9  19  37  60  81 104 141 183 222 269 324
#     4  11  21  33  54  83 111 142 183 225 265 316
#     4   8  16  32  52  74 104 143 175 210 270 323
#
# _framework density 18.374938
#
# number of rings (size 3 to 8) (size 9 to 14) (size 15 to 20)
#    0.000    2.600    0.000    4.800    0.000    6.000 
#    3.600    2.000    0.000    0.000    0.000    0.000 
#    0.000    0.000    0.000    0.000    0.000    0.000 
#
# Total GULP energy -495931.396713 kJ/mol
# GULP energy per Si atom -12398.284918 kJ/mol
# Density = 1.833312 g / cm^3
# Si number density = 18.374938 Si / 1000 Ang^3
#
#
#
# Elastic Constant Matrix: (Units=GPa)
#
#
# Indices 1 2 3 4 5 6 
#
# 1 97.1892 38.6537 52.1349 0.0000 0.0000 0.0000
# 2 38.6537 95.6608 58.1380 0.0000 0.0000 0.0000
# 3 52.1349 58.1380 115.4945 0.0000 0.0000 0.0000
# 4 0.0000 0.0000 0.0000 25.4574 0.0000 0.0000
# 5 0.0000 0.0000 0.0000 0.0000 27.3146 0.0000
# 6 0.0000 0.0000 0.0000 0.0000 0.0000 15.0771
#
#
#
# Elastic Compliance Matrix: (Units=1/GPa)
#
#
# Indices 1 2 3 4 5 6 
#
# 1 0.014018 -0.002620 -0.005009 0.000000 0.000000 0.000000
# 2 -0.002620 0.015551 -0.006645 0.000000 0.000000 0.000000
# 3 -0.005009 -0.006645 0.014265 0.000000 0.000000 0.000000
# 4 0.000000 0.000000 0.000000 0.039281 0.000000 0.000000
# 5 0.000000 0.000000 0.000000 0.000000 0.036610 0.000000
# 6 0.000000 0.000000 0.000000 0.000000 0.000000 0.066326
#
#
# Mechanical properties :
#
#
# Convention : Reuss Voigt Hill
#
# Bulk Modulus (GPa) = 65.42384 67.35531 66.38957
# Shear Modulus (GPa) = 22.75879 24.19770 23.47824
#
# Velocity S-wave (km/s) = 3.52316 3.63283 3.57842
# Velocity P-wave (km/s) = 7.22720 7.37104 7.29948
#
# Compressibility (1/GPa) = 0.01528495
#
# Stress axis : x y z
#
# Youngs Moduli (GPa) = 71.33568 64.30428 70.10312
#
# Poissons Ratio (x) = 0.16849 0.35115
# Poissons Ratio (y) = 0.18691 0.46586
# Poissons Ratio (z) = 0.35732 0.42733
#
# Static dielectric constant tensor:
#      x y z
#    x 3.456870 0.000000 0.000000 
#    y 0.000000 3.302830 0.000000 
#    z 0.000000 0.000000 3.291170 
# 
# 
# High freq. dielectric constant tensor:
#      x y z
#    x 1.705160 0.000000 0.000000 
#    y 0.000000 1.703960 0.000000 
#    z 0.000000 0.000000 1.709810 
# 
# From -- ./inp_files/5368.got.cif
#   From: 2010.06.25/outbox.cif.g09.slc.cpg/sg58_3_cif.got.tgz:5368.got - 2010.06.26 21:38:00.
