data_PCOD8237339
_publ_section_title
;
Structure prediction by ZEFSAII (Michael W. Deem and Ramdas Pophale) SiO2 
 PCOD8237339
Probable space group: P N N M
;
_chemical_formula_sum "Si O2"
_cell_formula_units_Z 64
_cell_length_a 14.827066
_cell_length_b 24.676683
_cell_length_c 8.556817
_cell_angle_alpha 90.000000
_cell_angle_beta 90.000000
_cell_angle_gamma 90.000000
_cell_volume 3130.792227
_symmetry_space_group_name_H-M "P N N M"
_symmetry_group_IT_number 58
_symmetry_cell_setting 'orthorhombic'
loop_
_space_group_symop_operation_xyz
x,y,z
-x,-y,z
1/2+x,1/2-y,1/2-z
1/2-x,1/2+y,1/2-z
-x,-y,-z
x,y,-z
1/2-x,1/2+y,1/2+z
1/2+x,1/2-y,1/2+z
loop_
_atom_site_type_symbol
_atom_site_label
_atom_site_fract_x
_atom_site_fract_y
_atom_site_fract_z
Si Si1 0.969393 0.220706 0.180693
Si Si2 0.177972 0.060474 0.321348
Si Si3 0.790252 0.346011 0.318602
Si Si4 0.006484 0.665811 0.317371
Si Si5 0.829478 0.634502 0.819891
Si Si6 0.688376 0.554747 0.680916
Si Si7 0.013584 0.892054 0.681113
Si Si8 0.759205 0.234584 0.821775
O O1 0.009440 0.271527 0.273349
O O2 0.012654 0.167301 0.256502
O O3 0.862373 0.217678 0.202147
O O4 0.997299 0.225273 0.000000
O O5 0.203342 0.072881 0.500000
O O6 0.237665 0.098790 0.212360
O O7 0.072091 0.069529 0.291698
O O8 0.200668 0.998782 0.283239
O O9 0.787498 0.331007 0.500000
O O10 0.743454 0.296961 0.225415
O O11 0.893999 0.353048 0.264019
O O12 0.990866 0.657835 0.500000
O O13 0.934671 0.628583 0.225530
O O14 0.771719 0.594056 0.714348
O O15 0.800382 0.696325 0.787575
O O16 0.814711 0.619899 0.000000
O O17 0.688133 0.538800 0.500000
O O18 0.595529 0.584568 0.719771
O O19 0.041859 0.889426 0.500000
O O20 0.728366 0.226587 0.000000
#
# Coordination Sequence:
#
# PCOD8237339 Si02
#       8
#     8   8   8   8   8   8   8   8
#     4  10  20  35  58  89 125 164 205 249 303 365
#     4  11  25  43  64  90 123 165 209 258 311 370
#     4  10  22  41  64  91 124 163 207 258 311 366
#     4  10  22  40  62  89 127 165 205 257 314 370
#     4  12  24  39  63  92 124 163 208 256 311 374
#     4  12  25  43  65  91 124 162 208 261 312 370
#     4  11  23  39  61  90 126 166 207 252 309 370
#     4  10  20  36  59  88 124 162 201 250 307 365
#
# _framework density 20.44211
#
# number of rings (size 3 to 8) (size 9 to 14) (size 15 to 20)
#    0.000    1.250    1.250    4.875    1.750    6.000 
#    0.000    0.625    0.000    3.750    0.000    0.000 
#    0.000    0.000    0.000    0.000    0.000    0.000 
#
# Total GULP energy -794088.011795 kJ/mol
# GULP energy per Si atom -12407.625184 kJ/mol
# Density = 2.039558 g / cm^3
# Si number density = 20.442110 Si / 1000 Ang^3
#
#
#
# Elastic Constant Matrix: (Units=GPa)
#
#
# Indices 1 2 3 4 5 6 
#
# 1 48.7332 27.3404 15.1233 0.0000 0.0000 0.0000
# 2 27.3404 86.9234 3.6067 0.0000 0.0000 0.0000
# 3 15.1233 3.6067 73.8244 0.0000 0.0000 0.0000
# 4 0.0000 0.0000 0.0000 34.4576 0.0000 0.0000
# 5 0.0000 0.0000 0.0000 0.0000 30.9734 0.0000
# 6 0.0000 0.0000 0.0000 0.0000 0.0000 22.1335
#
#
#
# Elastic Compliance Matrix: (Units=1/GPa)
#
#
# Indices 1 2 3 4 5 6 
#
# 1 0.026683 -0.008182 -0.005066 0.000000 0.000000 0.000000
# 2 -0.008182 0.014037 0.000990 0.000000 0.000000 0.000000
# 3 -0.005066 0.000990 0.014535 0.000000 0.000000 0.000000
# 4 0.000000 0.000000 0.000000 0.029021 0.000000 0.000000
# 5 0.000000 0.000000 0.000000 0.000000 0.032286 0.000000
# 6 0.000000 0.000000 0.000000 0.000000 0.000000 0.045180
#
#
# Mechanical properties :
#
#
# Convention : Reuss Voigt Hill
#
# Bulk Modulus (GPa) = 32.53289 33.51354 33.02321
# Shear Modulus (GPa) = 25.44470 28.40695 26.92583
#
# Velocity S-wave (km/s) = 3.53189 3.73182 3.63323
# Velocity P-wave (km/s) = 5.70802 5.91596 5.81292
#
# Compressibility (1/GPa) = 0.03073812
#
# Stress axis : x y z
#
# Youngs Moduli (GPa) = 37.47755 71.24064 68.79881
#
# Poissons Ratio (x) = 0.58292 0.34856
# Poissons Ratio (y) = 0.30666 -0.06814
# Poissons Ratio (z) = 0.18987 -0.07056
#
# Static dielectric constant tensor:
#      x y z
#    x 3.743850 0.000000 0.000000 
#    y 0.000000 3.588240 0.000000 
#    z 0.000000 0.000000 3.727660 
# 
# 
# High freq. dielectric constant tensor:
#      x y z
#    x 1.801070 0.000000 0.000000 
#    y 0.000000 1.789100 0.000000 
#    z 0.000000 0.000000 1.810370 
# 
# From -- ./inp_files/6838.got.cif
#   From: 2010.06.25/outbox.cif.g09.slc.cpg/sg58_4_cif.got.tgz:6838.got - 2010.06.26 21:38:00.
