data_PCOD8237296
_publ_section_title
;
Structure prediction by ZEFSAII (Michael W. Deem and Ramdas Pophale) SiO2 
 PCOD8237296
Probable space group: P N N M
;
_chemical_formula_sum "Si O2"
_cell_formula_units_Z 64
_cell_length_a 15.206149
_cell_length_b 24.492040
_cell_length_c 8.878274
_cell_angle_alpha 90.000000
_cell_angle_beta 90.000000
_cell_angle_gamma 90.000000
_cell_volume 3306.532119
_symmetry_space_group_name_H-M "P N N M"
_symmetry_group_IT_number 58
_symmetry_cell_setting 'orthorhombic'
loop_
_space_group_symop_operation_xyz
x,y,z
-x,-y,z
1/2+x,1/2-y,1/2-z
1/2-x,1/2+y,1/2-z
-x,-y,-z
x,y,-z
1/2-x,1/2+y,1/2+z
1/2+x,1/2-y,1/2+z
loop_
_atom_site_type_symbol
_atom_site_label
_atom_site_fract_x
_atom_site_fract_y
_atom_site_fract_z
Si Si1 0.177743 0.060179 0.822860
Si Si2 0.823955 0.053563 0.324793
Si Si3 0.539579 0.281076 0.677181
Si Si4 0.487771 0.830231 0.172620
Si Si5 0.779158 0.765011 0.326510
Si Si6 0.703332 0.140007 0.173064
Si Si7 0.677933 0.853307 0.172796
Si Si8 0.494864 0.610046 0.176408
O O1 0.262640 0.095928 0.775473
O O2 0.091807 0.081830 0.740265
O O3 0.199538 0.999137 0.772649
O O4 0.160683 0.062420 0.000000
O O5 0.814133 0.039630 0.500000
O O6 0.755561 0.100793 0.283527
O O7 0.922796 0.071609 0.285877
O O8 0.531773 0.285696 0.500000
O O9 0.498796 0.224197 0.730398
O O10 0.640605 0.286565 0.726179
O O11 0.486218 0.331438 0.748366
O O12 0.399978 0.862986 0.219929
O O13 0.574290 0.867884 0.194177
O O14 0.475164 0.811219 0.000000
O O15 0.801348 0.776606 0.500000
O O16 0.760774 0.701190 0.300456
O O17 0.695514 0.799823 0.273978
O O18 0.717109 0.121916 0.000000
O O19 0.697449 0.838210 0.000000
O O20 0.482848 0.618452 0.000000
#
# Coordination Sequence:
#
# PCOD8237296 Si02
#       8
#     8   8   8   8   8   8   8   8
#     4  11  23  40  62  89 118 153 197 247 295 353
#     4  11  25  41  60  84 114 158 202 246 300 354
#     4  11  21  34  55  86 120 155 195 237 288 349
#     4   9  20  39  60  85 121 158 193 242 299 353
#     4  10  20  35  57  85 119 157 192 238 297 350
#     4   9  20  39  60  84 116 154 197 245 295 347
#     4  10  21  37  60  89 119 154 197 241 295 358
#     4  11  23  39  58  84 118 157 196 240 297 355
#
# _framework density 19.355626000000001
#
# number of rings (size 3 to 8) (size 9 to 14) (size 15 to 20)
#    0.000    1.750    1.250    3.750    1.750    7.000 
#    0.000    0.625    0.000    3.750    0.000    0.000 
#    0.000    0.000    0.000    0.000    0.000    0.000 
#
# Total GULP energy -793763.082647 kJ/mol
# GULP energy per Si atom -12402.548166 kJ/mol
# Density = 1.931157 g / cm^3
# Si number density = 19.355626 Si / 1000 Ang^3
#
#
#
# Elastic Constant Matrix: (Units=GPa)
#
#
# Indices 1 2 3 4 5 6 
#
# 1 102.6458 51.1641 46.4598 0.0000 0.0000 0.0000
# 2 51.1641 91.2172 45.0905 0.0000 0.0000 0.0000
# 3 46.4598 45.0905 88.7432 0.0000 0.0000 0.0000
# 4 0.0000 0.0000 0.0000 33.0263 0.0000 0.0000
# 5 0.0000 0.0000 0.0000 0.0000 26.2890 0.0000
# 6 0.0000 0.0000 0.0000 0.0000 0.0000 24.3479
#
#
#
# Elastic Compliance Matrix: (Units=1/GPa)
#
#
# Indices 1 2 3 4 5 6 
#
# 1 0.014880 -0.006003 -0.004740 0.000000 0.000000 0.000000
# 2 -0.006003 0.017062 -0.005526 0.000000 0.000000 0.000000
# 3 -0.004740 -0.005526 0.016558 0.000000 0.000000 0.000000
# 4 0.000000 0.000000 0.000000 0.030279 0.000000 0.000000
# 5 0.000000 0.000000 0.000000 0.000000 0.038039 0.000000
# 6 0.000000 0.000000 0.000000 0.000000 0.000000 0.041071
#
#
# Mechanical properties :
#
#
# Convention : Reuss Voigt Hill
#
# Bulk Modulus (GPa) = 62.65307 63.11501 62.88404
# Shear Modulus (GPa) = 25.54310 26.05875 25.80092
#
# Velocity S-wave (km/s) = 3.63667 3.67320 3.65498
# Velocity P-wave (km/s) = 7.07627 7.11820 7.09726
#
# Compressibility (1/GPa) = 0.01596091
#
# Stress axis : x y z
#
# Youngs Moduli (GPa) = 67.20467 58.61037 60.39431
#
# Poissons Ratio (x) = 0.35185 0.28626
# Poissons Ratio (y) = 0.40344 0.33376
# Poissons Ratio (z) = 0.31854 0.32390
#
# Static dielectric constant tensor:
#      x y z
#    x 3.580140 0.000000 0.000000 
#    y 0.000000 3.484330 0.000000 
#    z 0.000000 0.000000 3.537480 
# 
# 
# High freq. dielectric constant tensor:
#      x y z
#    x 1.756300 0.000000 0.000000 
#    y 0.000000 1.742190 0.000000 
#    z 0.000000 0.000000 1.758290 
# 
# From -- ./inp_files/6911.got.cif
#   From: 2010.06.25/outbox.cif.g09.slc.cpg/sg58_4_cif.got.tgz:6911.got - 2010.06.26 21:38:00.
