data_PCOD8237955
_publ_section_title
;
Structure prediction by ZEFSAII (Michael W. Deem and Ramdas Pophale) SiO2 
 PCOD8237955
Probable space group: P N N M
;
_chemical_formula_sum "Si O2"
_cell_formula_units_Z 48
_cell_length_a 11.613914
_cell_length_b 23.237524
_cell_length_c 9.545337
_cell_angle_alpha 90.000000
_cell_angle_beta 90.000000
_cell_angle_gamma 90.000000
_cell_volume 2576.082237
_symmetry_space_group_name_H-M "P N N M"
_symmetry_group_IT_number 58
_symmetry_cell_setting 'orthorhombic'
loop_
_space_group_symop_operation_xyz
x,y,z
-x,-y,z
1/2+x,1/2-y,1/2-z
1/2-x,1/2+y,1/2-z
-x,-y,-z
x,y,-z
1/2-x,1/2+y,1/2+z
1/2+x,1/2-y,1/2+z
loop_
_atom_site_type_symbol
_atom_site_label
_atom_site_fract_x
_atom_site_fract_y
_atom_site_fract_z
Si Si1 0.982133 0.566356 0.847569
Si Si2 0.880938 0.713306 0.658886
Si Si3 0.829992 0.842039 0.660289
Si Si4 0.608035 0.853363 0.163434
Si Si5 0.017319 0.934796 0.666107
Si Si6 0.749201 0.626054 0.836826
O O1 0.069748 0.585902 0.727651
O O2 0.000000 0.500000 0.860677
O O3 0.850445 0.580310 0.808791
O O4 0.010632 0.594824 0.000000
O O5 0.850683 0.695505 0.500000
O O6 0.895338 0.781582 0.674203
O O7 0.780986 0.685254 0.755575
O O8 0.007038 0.691119 0.701477
O O9 0.790785 0.853053 0.500000
O O10 0.723021 0.833899 0.761557
O O11 0.910550 0.894510 0.711999
O O12 0.631554 0.859787 0.000000
O O13 0.026385 0.938246 0.500000
O O14 0.133911 0.904501 0.723183
O O15 0.000000 0.000000 0.726267
O O16 0.733804 0.642056 0.000000
#
# Coordination Sequence:
#
# PCOD8237955 Si02
#       6
#     8   8   8   8   8   8
#     4   9  18  32  55  83 108 138 180 227 269 316
#     4   9  20  37  55  79 108 142 177 220 277 328
#     4  10  21  36  57  80 107 142 181 226 273 324
#     4  10  21  36  54  79 111 142 178 222 275 330
#     4   9  19  34  56  83 109 142 184 228 273 322
#     4   9  18  33  56  83 107 138 179 224 270 320
#
# _framework density 18.632946
#
# number of rings (size 3 to 8) (size 9 to 14) (size 15 to 20)
#    0.000    2.667    0.000    0.500    4.667    1.667 
#    0.000    0.833    0.000    1.000    0.000    0.000 
#    0.000    0.000    0.000    0.000    0.000    0.000 
#
# Total GULP energy -594986.677252 kJ/mol
# GULP energy per Si atom -12395.555776 kJ/mol
# Density = 1.859054 g / cm^3
# Si number density = 18.632946 Si / 1000 Ang^3
#
#
#
# Elastic Constant Matrix: (Units=GPa)
#
#
# Indices 1 2 3 4 5 6 
#
# 1 100.3312 46.6037 44.5596 0.0000 0.0000 0.0000
# 2 46.6037 111.6210 35.2205 0.0000 0.0000 0.0000
# 3 44.5596 35.2205 70.6209 0.0000 0.0000 0.0000
# 4 0.0000 0.0000 0.0000 24.7623 0.0000 0.0000
# 5 0.0000 0.0000 0.0000 0.0000 22.7989 0.0000
# 6 0.0000 0.0000 0.0000 0.0000 0.0000 24.9877
#
#
#
# Elastic Compliance Matrix: (Units=1/GPa)
#
#
# Indices 1 2 3 4 5 6 
#
# 1 0.015176 -0.003934 -0.007613 0.000000 0.000000 0.000000
# 2 -0.003934 0.011652 -0.003329 0.000000 0.000000 0.000000
# 3 -0.007613 -0.003329 0.020624 0.000000 0.000000 0.000000
# 4 0.000000 0.000000 0.000000 0.040384 0.000000 0.000000
# 5 0.000000 0.000000 0.000000 0.000000 0.043862 0.000000
# 6 0.000000 0.000000 0.000000 0.000000 0.000000 0.040020
#
#
# Mechanical properties :
#
#
# Convention : Reuss Voigt Hill
#
# Bulk Modulus (GPa) = 56.49977 59.48230 57.99103
# Shear Modulus (GPa) = 24.11166 24.92242 24.51704
#
# Velocity S-wave (km/s) = 3.60117 3.66122 3.63132
# Velocity P-wave (km/s) = 6.90504 7.06153 6.98372
#
# Compressibility (1/GPa) = 0.01769919
#
# Stress axis : x y z
#
# Youngs Moduli (GPa) = 65.89561 85.82451 48.48678
#
# Poissons Ratio (x) = 0.33761 0.36915
# Poissons Ratio (y) = 0.25921 0.16141
# Poissons Ratio (z) = 0.50169 0.28570
#
# Static dielectric constant tensor:
#      x y z
#    x 3.442890 0.000000 0.000000 
#    y 0.000000 3.464060 0.000000 
#    z 0.000000 0.000000 3.443180 
# 
# 
# High freq. dielectric constant tensor:
#      x y z
#    x 1.724910 0.000000 0.000000 
#    y 0.000000 1.724260 0.000000 
#    z 0.000000 0.000000 1.701010 
# 
# From -- ./inp_files/4190.got.cif
#   From: 2010.06.25/outbox.cif.g09.slc.cpg/sg58_3_cif.got.tgz:4190.got - 2010.06.26 21:38:00.
