data_PCOD8237886
_publ_section_title
;
Structure prediction by ZEFSAII (Michael W. Deem and Ramdas Pophale) SiO2 
 PCOD8237886
Probable space group: P N N M
;
_chemical_formula_sum "Si O2"
_cell_formula_units_Z 48
_cell_length_a 16.637772
_cell_length_b 8.685945
_cell_length_c 21.126147
_cell_angle_alpha 90.000000
_cell_angle_beta 90.000000
_cell_angle_gamma 90.000000
_cell_volume 3053.040328
_symmetry_space_group_name_H-M "P N N M"
_symmetry_group_IT_number 58
_symmetry_cell_setting 'orthorhombic'
loop_
_space_group_symop_operation_xyz
x,y,z
-x,-y,z
1/2+x,1/2-y,1/2-z
1/2-x,1/2+y,1/2-z
-x,-y,-z
x,y,-z
1/2-x,1/2+y,1/2+z
1/2+x,1/2-y,1/2+z
loop_
_atom_site_type_symbol
_atom_site_label
_atom_site_fract_x
_atom_site_fract_y
_atom_site_fract_z
Si Si1 0.865808 0.357074 0.347411
Si Si2 0.337240 0.844373 0.073449
Si Si3 0.271456 0.196302 0.668528
Si Si4 0.090533 0.525975 0.789600
Si Si5 0.757928 0.632401 0.790365
Si Si6 0.004668 0.820101 0.572461
O O1 0.840280 0.489664 0.395020
O O2 0.905293 0.423133 0.283714
O O3 0.785395 0.258672 0.333660
O O4 0.930577 0.249445 0.380574
O O5 0.263177 0.744129 0.100680
O O6 0.419302 0.755438 0.087505
O O7 0.320549 0.866380 0.000000
O O8 0.367751 0.159681 0.666904
O O9 0.257062 0.337043 0.716417
O O10 0.226257 0.040869 0.694020
O O11 0.144211 0.370189 0.799711
O O12 0.000000 0.500000 0.812125
O O13 0.030087 0.786392 0.500000
O O14 0.000000 0.000000 0.585865
#
# Coordination Sequence:
#
# PCOD8237886 Si02
#       6
#     8   8   8   8   8   8
#     4  11  19  32  51  76 104 142 170 209 257 316
#     4  11  20  32  51  74 106 143 175 208 253 314
#     4   9  17  32  49  73 102 130 172 209 260 301
#     4   9  18  31  53  74  97 130 169 215 261 309
#     4   9  18  31  53  70 104 131 168 216 259 303
#     4  10  21  33  47  75 113 144 176 207 244 310
#
# _framework density 15.722032
#
# number of rings (size 3 to 8) (size 9 to 14) (size 15 to 20)
#    1.000    1.167    1.667    3.000    0.000    1.333 
#    0.000    0.833    0.000    0.500    0.000    1.167 
#    0.000    0.000    0.000    0.000    0.000    0.000 
#
# Total GULP energy -594700.217182 kJ/mol
# GULP energy per Si atom -12389.587858 kJ/mol
# Density = 1.568625 g / cm^3
# Si number density = 15.722032 Si / 1000 Ang^3
#
#
#
# Elastic Constant Matrix: (Units=GPa)
#
#
# Indices 1 2 3 4 5 6 
#
# 1 130.5021 41.2504 55.1729 0.0000 0.0000 0.0000
# 2 41.2504 80.7888 44.3816 0.0000 0.0000 0.0000
# 3 55.1729 44.3816 83.2427 0.0000 0.0000 0.0000
# 4 0.0000 0.0000 0.0000 19.1336 0.0000 0.0000
# 5 0.0000 0.0000 0.0000 0.0000 21.0244 0.0000
# 6 0.0000 0.0000 0.0000 0.0000 0.0000 24.6148
#
#
#
# Elastic Compliance Matrix: (Units=1/GPa)
#
#
# Indices 1 2 3 4 5 6 
#
# 1 0.010931 -0.002265 -0.006038 0.000000 0.000000 0.000000
# 2 -0.002265 0.017974 -0.008082 0.000000 0.000000 0.000000
# 3 -0.006038 -0.008082 0.020324 0.000000 0.000000 0.000000
# 4 0.000000 0.000000 0.000000 0.052264 0.000000 0.000000
# 5 0.000000 0.000000 0.000000 0.000000 0.047564 0.000000
# 6 0.000000 0.000000 0.000000 0.000000 0.000000 0.040626
#
#
# Mechanical properties :
#
#
# Convention : Reuss Voigt Hill
#
# Bulk Modulus (GPa) = 60.75208 64.01593 62.38400
# Shear Modulus (GPa) = 21.93572 23.20314 22.56943
#
# Velocity S-wave (km/s) = 3.73932 3.84583 3.79295
# Velocity P-wave (km/s) = 7.57421 7.77986 7.67772
#
# Compressibility (1/GPa) = 0.01646034
#
# Stress axis : x y z
#
# Youngs Moduli (GPa) = 91.48207 55.63532 49.20303
#
# Poissons Ratio (x) = 0.12599 0.29708
# Poissons Ratio (y) = 0.20716 0.39767
# Poissons Ratio (z) = 0.55234 0.44966
#
# Static dielectric constant tensor:
#      x y z
#    x 2.959130 0.000000 0.000000 
#    y 0.000000 3.063510 0.000000 
#    z 0.000000 0.000000 2.907770 
# 
# 
# High freq. dielectric constant tensor:
#      x y z
#    x 1.589080 0.000000 0.000000 
#    y 0.000000 1.611470 0.000000 
#    z 0.000000 0.000000 1.588380 
# 
# From -- ./inp_files/29898.got.cif
#   From: 2010.06.25/outbox.cif.g09.slc.cpg/sg58_15_cif.got.tgz:29898.got - 2010.06.26 21:38:00.
