data_PCOD8237044
_publ_section_title
;
Structure prediction by ZEFSAII (Michael W. Deem and Ramdas Pophale) SiO2 
 PCOD8237044
Probable space group: P N N M
;
_chemical_formula_sum "Si O2"
_cell_formula_units_Z 56
_cell_length_a 14.645075
_cell_length_b 21.857658
_cell_length_c 8.931507
_cell_angle_alpha 90.000000
_cell_angle_beta 90.000000
_cell_angle_gamma 90.000000
_cell_volume 2859.038275
_symmetry_space_group_name_H-M "P N N M"
_symmetry_group_IT_number 58
_symmetry_cell_setting 'orthorhombic'
loop_
_space_group_symop_operation_xyz
x,y,z
-x,-y,z
1/2+x,1/2-y,1/2-z
1/2-x,1/2+y,1/2-z
-x,-y,-z
x,y,-z
1/2-x,1/2+y,1/2+z
1/2+x,1/2-y,1/2+z
loop_
_atom_site_type_symbol
_atom_site_label
_atom_site_fract_x
_atom_site_fract_y
_atom_site_fract_z
Si Si1 0.301636 0.119852 0.171971
Si Si2 0.831679 0.776752 0.177752
Si Si3 0.662334 0.148369 0.172901
Si Si4 0.009693 0.569372 0.678682
Si Si5 0.143393 0.902575 0.171026
Si Si6 0.478664 0.644153 0.825002
Si Si7 0.630410 0.458155 0.671664
O O1 0.252277 0.180722 0.239662
O O2 0.398818 0.101711 0.246370
O O3 0.235253 0.061909 0.193076
O O4 0.321460 0.133785 0.000000
O O5 0.818938 0.707821 0.228582
O O6 0.927272 0.800634 0.243042
O O7 0.836455 0.781659 0.000000
O O8 0.575513 0.110384 0.232368
O O9 0.749453 0.105574 0.196541
O O10 0.649169 0.167458 0.000000
O O11 0.014169 0.566347 0.500000
O O12 0.000000 0.500000 0.741268
O O13 0.084538 0.856695 0.274108
O O14 0.119721 0.971719 0.215899
O O15 0.116923 0.889225 0.000000
O O16 0.434857 0.579401 0.780723
O O17 0.472516 0.655706 0.000000
O O18 0.600183 0.445934 0.500000
#
# Coordination Sequence:
#
# PCOD8237044 Si02
#       7
#     8   8   8   8   8   8   8
#     4   8  15  29  51  76 101 135 177 214 255 316
#     4  10  21  38  56  75 105 145 184 221 271 333
#     4  10  21  35  54  82 112 141 179 227 269 314
#     4   9  16  29  53  84 112 137 172 221 272 320
#     4  10  20  34  52  77 111 146 176 211 265 329
#     4  11  22  35  54  79 106 138 181 231 274 316
#     4   9  17  32  54  79 109 144 177 212 264 331
#
# _framework density 19.587005000000001
#
# number of rings (size 3 to 8) (size 9 to 14) (size 15 to 20)
#    0.000    2.429    0.000    3.857    0.000    7.429 
#    0.000    1.429    0.000    3.857    0.000    0.000 
#    0.000    0.000    0.000    0.000    0.000    0.000 
#
# Total GULP energy -694286.775975 kJ/mol
# GULP energy per Si atom -12397.978142 kJ/mol
# Density = 1.954242 g / cm^3
# Si number density = 19.587005 Si / 1000 Ang^3
#
#
#
# Elastic Constant Matrix: (Units=GPa)
#
#
# Indices 1 2 3 4 5 6 
#
# 1 114.2853 22.7615 20.9721 0.0000 0.0000 0.0000
# 2 22.7615 85.0860 23.2261 0.0000 0.0000 0.0000
# 3 20.9721 23.2261 58.6016 0.0000 0.0000 0.0000
# 4 0.0000 0.0000 0.0000 27.1544 0.0000 0.0000
# 5 0.0000 0.0000 0.0000 0.0000 13.6304 0.0000
# 6 0.0000 0.0000 0.0000 0.0000 0.0000 21.9687
#
#
#
# Elastic Compliance Matrix: (Units=1/GPa)
#
#
# Indices 1 2 3 4 5 6 
#
# 1 0.009613 -0.001831 -0.002715 0.000000 0.000000 0.000000
# 2 -0.001831 0.013527 -0.004706 0.000000 0.000000 0.000000
# 3 -0.002715 -0.004706 0.019901 0.000000 0.000000 0.000000
# 4 0.000000 0.000000 0.000000 0.036826 0.000000 0.000000
# 5 0.000000 0.000000 0.000000 0.000000 0.073366 0.000000
# 6 0.000000 0.000000 0.000000 0.000000 0.000000 0.045519
#
#
# Mechanical properties :
#
#
# Convention : Reuss Voigt Hill
#
# Bulk Modulus (GPa) = 40.75271 43.54359 42.14815
# Shear Modulus (GPa) = 22.17939 25.28492 23.73215
#
# Velocity S-wave (km/s) = 3.36869 3.59681 3.48462
# Velocity P-wave (km/s) = 5.99850 6.28717 6.14453
#
# Compressibility (1/GPa) = 0.02453825
#
# Stress axis : x y z
#
# Youngs Moduli (GPa) = 104.02838 73.92526 50.24831
#
# Poissons Ratio (x) = 0.13532 0.13641
# Poissons Ratio (y) = 0.19042 0.23648
# Poissons Ratio (z) = 0.28240 0.34791
#
# Static dielectric constant tensor:
#      x y z
#    x 3.816320 0.000000 0.000000 
#    y 0.000000 3.542720 0.000000 
#    z 0.000000 0.000000 3.188210 
# 
# 
# High freq. dielectric constant tensor:
#      x y z
#    x 1.776460 0.000000 0.000000 
#    y 0.000000 1.761440 0.000000 
#    z 0.000000 0.000000 1.718060 
# 
# From -- ./inp_files/6471.got.cif
#   From: 2010.06.25/outbox.cif.g09.slc.cpg/sg58_4_cif.got.tgz:6471.got - 2010.06.26 21:38:00.
