data_PCOD8237628
_publ_section_title
;
Structure prediction by ZEFSAII (Michael W. Deem and Ramdas Pophale) SiO2 
 PCOD8237628
Probable space group: P N N M
;
_chemical_formula_sum "Si O2"
_cell_formula_units_Z 48
_cell_length_a 20.179558
_cell_length_b 14.183550
_cell_length_c 8.851452
_cell_angle_alpha 90.000000
_cell_angle_beta 90.000000
_cell_angle_gamma 90.000000
_cell_volume 2533.442852
_symmetry_space_group_name_H-M "P N N M"
_symmetry_group_IT_number 58
_symmetry_cell_setting 'orthorhombic'
loop_
_space_group_symop_operation_xyz
x,y,z
-x,-y,z
1/2+x,1/2-y,1/2-z
1/2-x,1/2+y,1/2-z
-x,-y,-z
x,y,-z
1/2-x,1/2+y,1/2+z
1/2+x,1/2-y,1/2+z
loop_
_atom_site_type_symbol
_atom_site_label
_atom_site_fract_x
_atom_site_fract_y
_atom_site_fract_z
Si Si1 0.924901 0.822315 0.321756
Si Si2 0.939174 0.208451 0.822839
Si Si3 0.804766 0.712030 0.177413
Si Si4 0.827029 0.319334 0.674148
Si Si5 0.620204 0.508070 0.323308
Si Si6 0.271942 0.977358 0.173891
O O1 0.924958 0.820696 0.500000
O O2 0.864103 0.761611 0.263003
O O3 0.921071 0.929677 0.265222
O O4 0.992013 0.775145 0.261936
O O5 0.889573 0.291391 0.774986
O O6 0.907418 0.109107 0.774048
O O7 0.951929 0.213568 0.000000
O O8 0.736713 0.760885 0.229857
O O9 0.803151 0.602474 0.220778
O O10 0.816140 0.724931 0.000000
O O11 0.841924 0.295817 0.500000
O O12 0.815424 0.429895 0.698362
O O13 0.610335 0.488876 0.500000
O O14 0.696887 0.500913 0.276564
O O15 0.273105 0.943500 0.000000
#
# Coordination Sequence:
#
# PCOD8237628 Si02
#       6
#     8   8   8   8   8   8
#     4  12  25  39  59  87 122 161 203 246 297 356
#     4  11  23  39  61  87 122 160 199 245 299 358
#     4  11  22  39  62  89 121 157 199 246 295 350
#     4  10  21  38  61  87 121 157 196 244 293 350
#     4  10  20  37  60  89 124 159 193 241 302 356
#     4  10  20  38  61  90 123 156 196 243 295 350
#
# _framework density 18.946549000000001
#
# number of rings (size 3 to 8) (size 9 to 14) (size 15 to 20)
#    0.000    1.333    3.333    3.000    0.000    5.333 
#    0.000    0.833    0.000    5.000    0.000    0.000 
#    0.000    0.000    0.000    0.000    0.000    0.000 
#
# Total GULP energy -595546.899718 kJ/mol
# GULP energy per Si atom -12407.227077 kJ/mol
# Density = 1.890343 g / cm^3
# Si number density = 18.946549 Si / 1000 Ang^3
#
#
#
# Elastic Constant Matrix: (Units=GPa)
#
#
# Indices 1 2 3 4 5 6 
#
# 1 66.1047 9.9524 32.4388 0.0000 0.0000 0.0000
# 2 9.9524 68.7104 25.7000 0.0000 0.0000 0.0000
# 3 32.4388 25.7000 79.7277 0.0000 0.0000 0.0000
# 4 0.0000 0.0000 0.0000 34.7607 0.0000 0.0000
# 5 0.0000 0.0000 0.0000 0.0000 32.0541 0.0000
# 6 0.0000 0.0000 0.0000 0.0000 0.0000 22.9654
#
#
#
# Elastic Compliance Matrix: (Units=1/GPa)
#
#
# Indices 1 2 3 4 5 6 
#
# 1 0.018903 0.000158 -0.007742 0.000000 0.000000 0.000000
# 2 0.000158 0.016550 -0.005399 0.000000 0.000000 0.000000
# 3 -0.007742 -0.005399 0.017433 0.000000 0.000000 0.000000
# 4 0.000000 0.000000 0.000000 0.028768 0.000000 0.000000
# 5 0.000000 0.000000 0.000000 0.000000 0.031197 0.000000
# 6 0.000000 0.000000 0.000000 0.000000 0.000000 0.043544
#
#
# Mechanical properties :
#
#
# Convention : Reuss Voigt Hill
#
# Bulk Modulus (GPa) = 37.14748 38.96949 38.05849
# Shear Modulus (GPa) = 26.13214 27.71948 26.92581
#
# Velocity S-wave (km/s) = 3.71786 3.82912 3.77390
# Velocity P-wave (km/s) = 6.17082 6.33737 6.25465
#
# Compressibility (1/GPa) = 0.02691973
#
# Stress axis : x y z
#
# Youngs Moduli (GPa) = 52.90212 60.42130 57.36239
#
# Poissons Ratio (x) = -0.00953 0.44409
# Poissons Ratio (y) = -0.00834 0.30971
# Poissons Ratio (z) = 0.40956 0.32622
#
# Static dielectric constant tensor:
#      x y z
#    x 3.492860 0.000000 0.000000 
#    y 0.000000 3.458170 0.000000 
#    z 0.000000 0.000000 3.430480 
# 
# 
# High freq. dielectric constant tensor:
#      x y z
#    x 1.739020 0.000000 0.000000 
#    y 0.000000 1.735600 0.000000 
#    z 0.000000 0.000000 1.736520 
# 
# From -- ./inp_files/5740.got.cif
#   From: 2010.06.25/outbox.cif.g09.slc.cpg/sg58_3_cif.got.tgz:5740.got - 2010.06.26 21:38:00.
