data_PCOD8237691
_publ_section_title
;
Structure prediction by ZEFSAII (Michael W. Deem and Ramdas Pophale) SiO2 
 PCOD8237691
Probable space group: P N N M
;
_chemical_formula_sum "Si O2"
_cell_formula_units_Z 56
_cell_length_a 15.323315
_cell_length_b 11.942510
_cell_length_c 12.709876
_cell_angle_alpha 90.000000
_cell_angle_beta 90.000000
_cell_angle_gamma 90.000000
_cell_volume 2325.892598
_symmetry_space_group_name_H-M "P N N M"
_symmetry_group_IT_number 58
_symmetry_cell_setting 'orthorhombic'
loop_
_space_group_symop_operation_xyz
x,y,z
-x,-y,z
1/2+x,1/2-y,1/2-z
1/2-x,1/2+y,1/2-z
-x,-y,-z
x,y,-z
1/2-x,1/2+y,1/2+z
1/2+x,1/2-y,1/2+z
loop_
_atom_site_type_symbol
_atom_site_label
_atom_site_fract_x
_atom_site_fract_y
_atom_site_fract_z
Si Si1 0.833040 0.763865 0.880435
Si Si2 0.998527 0.261071 0.619662
Si Si3 0.500888 0.872166 0.326649
Si Si4 0.326812 0.375761 0.876131
Si Si5 0.169140 0.764389 0.879845
Si Si6 0.828250 0.875741 0.622838
Si Si7 0.601044 0.499935 0.373090
O O1 0.752688 0.696826 0.826935
O O2 0.851839 0.886311 0.826934
O O3 0.918607 0.688324 0.877560
O O4 0.807416 0.789081 0.000000
O O5 0.996463 0.306016 0.500000
O O6 0.001712 0.365549 0.699188
O O7 0.914951 0.188884 0.650075
O O8 0.080347 0.183202 0.642989
O O9 0.586330 0.815804 0.373925
O O10 0.500000 0.000000 0.362202
O O11 0.330753 0.500213 0.825491
O O12 0.314024 0.388795 0.000000
O O13 0.252009 0.701686 0.826599
O O14 0.148681 0.886829 0.827263
O O15 0.192124 0.789912 0.000000
O O16 0.809059 0.889626 0.500000
O O17 0.500000 0.500000 0.337426
O O18 0.605072 0.499273 0.500000
#
# Coordination Sequence:
#
# PCOD8237691 Si02
#       7
#     8   8   8   8   8   8   8
#     4  10  20  37  63  96 129 157 190 242 308 371
#     4  10  23  44  63  83 116 163 214 257 296 344
#     4  12  25  39  59  90 125 159 201 250 305 368
#     4   9  18  37  65  93 120 154 200 253 307 359
#     4  10  20  37  63  96 129 157 190 242 308 371
#     4   9  18  37  65  93 120 154 200 253 307 359
#     4   9  16  32  56  87 131 167 193 224 275 370
#
# _framework density 24.076779999999999
#
# number of rings (size 3 to 8) (size 9 to 14) (size 15 to 20)
#    0.000    2.143    1.429    1.714    0.000    5.429 
#    7.714    0.000    0.000    0.000    0.000    0.000 
#    0.000    0.000    0.000    0.000    0.000    0.000 
#
# Total GULP energy -694482.605349 kJ/mol
# GULP energy per Si atom -12401.475096 kJ/mol
# Density = 2.402198 g / cm^3
# Si number density = 24.076780 Si / 1000 Ang^3
#
#
#
# Elastic Constant Matrix: (Units=GPa)
#
#
# Indices 1 2 3 4 5 6 
#
# 1 123.0185 31.2309 -25.8271 0.0000 0.0000 0.0000
# 2 31.2309 154.9446 -5.3202 0.0000 0.0000 0.0000
# 3 -25.8271 -5.3202 29.0013 0.0000 0.0000 0.0000
# 4 0.0000 0.0000 0.0000 29.4806 0.0000 0.0000
# 5 0.0000 0.0000 0.0000 0.0000 18.6969 0.0000
# 6 0.0000 0.0000 0.0000 0.0000 0.0000 36.4205
#
#
#
# Elastic Compliance Matrix: (Units=1/GPa)
#
#
# Indices 1 2 3 4 5 6 
#
# 1 0.010476 -0.001803 0.008998 0.000000 0.000000 0.000000
# 2 -0.001803 0.006805 -0.000357 0.000000 0.000000 0.000000
# 3 0.008998 -0.000357 0.042429 0.000000 0.000000 0.000000
# 4 0.000000 0.000000 0.000000 0.033921 0.000000 0.000000
# 5 0.000000 0.000000 0.000000 0.000000 0.053485 0.000000
# 6 0.000000 0.000000 0.000000 0.000000 0.000000 0.027457
#
#
# Mechanical properties :
#
#
# Convention : Reuss Voigt Hill
#
# Bulk Modulus (GPa) = 13.62619 34.12573 23.87596
# Shear Modulus (GPa) = 26.97497 37.37832 32.17664
#
# Velocity S-wave (km/s) = 3.35083 3.94441 3.65967
# Velocity P-wave (km/s) = 4.54340 5.91176 5.27216
#
# Compressibility (1/GPa) = 0.07338806
#
# Stress axis : x y z
#
# Youngs Moduli (GPa) = 95.45949 146.95108 23.56859
#
# Poissons Ratio (x) = 0.26488 -0.21208
# Poissons Ratio (y) = 0.17207 0.00841
# Poissons Ratio (z) = -0.85899 0.05245
#
# Static dielectric constant tensor:
#      x y z
#    x 4.389810 0.000000 0.000000 
#    y 0.000000 4.568010 0.000000 
#    z 0.000000 0.000000 4.463350 
# 
# 
# High freq. dielectric constant tensor:
#      x y z
#    x 1.953470 0.000000 0.000000 
#    y 0.000000 1.955330 0.000000 
#    z 0.000000 0.000000 1.994200 
# 
# From -- ./inp_files/22183.got.cif
#   From: 2010.06.25/outbox.cif.g09.slc.cpg/sg58_12_cif.got.tgz:22183.got - 2010.06.26 21:38:00.
