data_PCOD8237926
_publ_section_title
;
Structure prediction by ZEFSAII (Michael W. Deem and Ramdas Pophale) SiO2 
 PCOD8237926
Probable space group: P N N M
;
_chemical_formula_sum "Si O2"
_cell_formula_units_Z 64
_cell_length_a 17.797062
_cell_length_b 9.475066
_cell_length_c 21.285663
_cell_angle_alpha 90.000000
_cell_angle_beta 90.000000
_cell_angle_gamma 90.000000
_cell_volume 3589.365955
_symmetry_space_group_name_H-M "P N N M"
_symmetry_group_IT_number 58
_symmetry_cell_setting 'orthorhombic'
loop_
_space_group_symop_operation_xyz
x,y,z
-x,-y,z
1/2+x,1/2-y,1/2-z
1/2-x,1/2+y,1/2-z
-x,-y,-z
x,y,-z
1/2-x,1/2+y,1/2+z
1/2+x,1/2-y,1/2+z
loop_
_atom_site_type_symbol
_atom_site_label
_atom_site_fract_x
_atom_site_fract_y
_atom_site_fract_z
Si Si1 0.293897 0.816950 0.224123
Si Si2 0.935211 0.604157 0.886572
Si Si3 0.665626 0.635293 0.636947
Si Si4 0.460281 0.861597 0.239147
Si Si5 0.072378 0.081008 0.071683
Si Si6 0.937461 0.111144 0.252296
Si Si7 0.706619 0.491675 0.811885
Si Si8 0.298366 0.081448 0.426462
O O1 0.247804 0.883155 0.166297
O O2 0.380068 0.844860 0.206398
O O3 0.281035 0.648582 0.230540
O O4 0.266574 0.891099 0.288528
O O5 0.944910 0.633105 0.813256
O O6 0.939227 0.753578 0.920754
O O7 0.856652 0.536895 0.905470
O O8 0.000000 0.500000 0.911977
O O9 0.644672 0.484235 0.607020
O O10 0.607197 0.672561 0.692554
O O11 0.665922 0.764447 0.587595
O O12 0.516253 0.738494 0.217311
O O13 0.500000 0.000000 0.213422
O O14 0.084574 0.042538 0.000000
O O15 0.000000 0.000000 0.098715
O O16 0.878962 0.046556 0.303219
O O17 0.000000 0.000000 0.229818
O O18 0.723643 0.450416 0.884582
O O19 0.277888 0.070343 0.500000
#
# Coordination Sequence:
#
# PCOD8237926 Si02
#       8
#     8   8   8   8   8   8   8   8
#     4  10  21  35  55  81 111 143 174 234 282 341
#     4  11  22  35  52  78 111 144 184 228 270 327
#     4  10  21  35  55  81 110 142 187 222 282 328
#     4  11  21  34  54  81 112 140 177 217 287 341
#     4  11  22  35  51  73 105 147 190 220 254 318
#     4  11  20  35  58  81 111 145 176 235 287 337
#     4  10  22  37  54  84 113 145 191 228 284 334
#     4  11  22  38  56  77 114 157 190 228 271 325
#
# _framework density 17.830448000000001
#
# number of rings (size 3 to 8) (size 9 to 14) (size 15 to 20)
#    0.000    1.375    2.500    4.875    5.250    2.000 
#    0.000    0.000    0.000    0.375    0.000    0.000 
#    0.000   13.000    0.000    0.000    0.000    0.000 
#
# Total GULP energy -793471.578210 kJ/mol
# GULP energy per Si atom -12397.993410 kJ/mol
# Density = 1.778987 g / cm^3
# Si number density = 17.830448 Si / 1000 Ang^3
#
#
#
# Elastic Constant Matrix: (Units=GPa)
#
#
# Indices 1 2 3 4 5 6 
#
# 1 126.7305 55.8848 44.4814 0.0000 0.0000 0.0000
# 2 55.8848 120.7678 36.9409 0.0000 0.0000 0.0000
# 3 44.4814 36.9409 75.0105 0.0000 0.0000 0.0000
# 4 0.0000 0.0000 0.0000 309.8834 0.0000 0.0000
# 5 0.0000 0.0000 0.0000 0.0000 19.7029 0.0000
# 6 0.0000 0.0000 0.0000 0.0000 0.0000 34.3798
#
#
#
# Elastic Compliance Matrix: (Units=1/GPa)
#
#
# Indices 1 2 3 4 5 6 
#
# 1 0.011224 -0.003718 -0.004825 0.000000 0.000000 0.000000
# 2 -0.003718 0.010981 -0.003203 0.000000 0.000000 0.000000
# 3 -0.004825 -0.003203 0.017770 0.000000 0.000000 0.000000
# 4 0.000000 0.000000 0.000000 0.003227 0.000000 0.000000
# 5 0.000000 0.000000 0.000000 0.000000 0.050754 0.000000
# 6 0.000000 0.000000 0.000000 0.000000 0.000000 0.029087
#
#
# Mechanical properties :
#
#
# Convention : Reuss Voigt Hill
#
# Bulk Modulus (GPa) = 60.66838 66.34700 63.50769
# Shear Modulus (GPa) = 32.88882 85.13999 59.01440
#
# Velocity S-wave (km/s) = 4.29946 6.91762 5.75929
# Velocity P-wave (km/s) = 7.66460 10.05462 8.93984
#
# Compressibility (1/GPa) = 0.01648305
#
# Stress axis : x y z
#
# Youngs Moduli (GPa) = 89.09717 91.07029 56.27495
#
# Poissons Ratio (x) = 0.33859 0.27151
# Poissons Ratio (y) = 0.33126 0.18024
# Poissons Ratio (z) = 0.42987 0.29169
#
# Static dielectric constant tensor:
#      x y z
#    x 3.432080 0.000000 0.000000 
#    y 0.000000 3.242900 0.000000 
#    z 0.000000 0.000000 3.039240 
# 
# 
# High freq. dielectric constant tensor:
#      x y z
#    x 1.689400 0.000000 0.000000 
#    y 0.000000 1.708620 0.000000 
#    z 0.000000 0.000000 1.650220 
# 
# From -- ./inp_files/30295.got.cif
#   From: 2010.06.25/outbox.cif.g09.slc.cpg/sg58_16_cif.got.tgz:30295.got - 2010.06.26 21:38:00.
