data_PCOD8237692
_publ_section_title
;
Structure prediction by ZEFSAII (Michael W. Deem and Ramdas Pophale) SiO2 
 PCOD8237692
Probable space group: P N N M
;
_chemical_formula_sum "Si O2"
_cell_formula_units_Z 64
_cell_length_a 15.336510
_cell_length_b 24.264002
_cell_length_c 8.419934
_cell_angle_alpha 90.000000
_cell_angle_beta 90.000000
_cell_angle_gamma 90.000000
_cell_volume 3133.268860
_symmetry_space_group_name_H-M "P N N M"
_symmetry_group_IT_number 58
_symmetry_cell_setting 'orthorhombic'
loop_
_space_group_symop_operation_xyz
x,y,z
-x,-y,z
1/2+x,1/2-y,1/2-z
1/2-x,1/2+y,1/2-z
-x,-y,-z
x,y,-z
1/2-x,1/2+y,1/2+z
1/2+x,1/2-y,1/2+z
loop_
_atom_site_type_symbol
_atom_site_label
_atom_site_fract_x
_atom_site_fract_y
_atom_site_fract_z
Si Si1 0.923462 0.763561 0.310347
Si Si2 0.249574 0.427980 0.812546
Si Si3 0.736910 0.197824 0.688227
Si Si4 0.597987 0.996777 0.813233
Si Si5 0.665485 0.877795 0.816312
Si Si6 0.347218 0.624230 0.817527
Si Si7 0.605236 0.770645 0.313417
Si Si8 0.401696 0.507383 0.189794
O O1 0.919911 0.759209 0.500000
O O2 0.859654 0.717299 0.238010
O O3 0.896671 0.823663 0.244418
O O4 0.020364 0.760613 0.244955
O O5 0.250030 0.365036 0.750720
O O6 0.160120 0.457445 0.762635
O O7 0.334939 0.460501 0.744842
O O8 0.253576 0.428275 0.000000
O O9 0.747762 0.202015 0.500000
O O10 0.808868 0.236176 0.769654
O O11 0.628386 0.936252 0.764526
O O12 0.500000 0.000000 0.745511
O O13 0.598835 0.006814 0.000000
O O14 0.746012 0.864252 0.703878
O O15 0.598353 0.828992 0.778559
O O16 0.692862 0.877499 0.000000
O O17 0.372080 0.566087 0.736790
O O18 0.372585 0.619956 0.000000
O O19 0.603307 0.780835 0.500000
O O20 0.500000 0.500000 0.252423
O O21 0.398570 0.506848 0.000000
#
# Coordination Sequence:
#
# PCOD8237692 Si02
#       8
#     8   8   8   8   8   8   8   8
#     4  11  24  41  64  93 124 165 208 254 315 372
#     4  10  22  39  62  91 123 161 203 253 303 361
#     4  11  24  42  63  93 129 164 210 260 311 372
#     4  10  23  41  61  89 123 163 204 249 311 373
#     4  11  22  39  64  90 122 160 205 263 315 366
#     4  10  20  37  64  91 119 156 204 253 306 370
#     4  12  26  43  64  91 124 167 212 259 315 371
#     4   9  18  34  60  90 120 156 198 244 295 356
#
# _framework density 20.425951999999999
#
# number of rings (size 3 to 8) (size 9 to 14) (size 15 to 20)
#    0.000    1.500    2.500    2.250    3.500    2.250 
#    0.000    0.000    0.000    0.750    0.000    0.000 
#    0.000    0.000    0.000    0.000    0.000    0.000 
#
# Total GULP energy -793564.111030 kJ/mol
# GULP energy per Si atom -12399.439235 kJ/mol
# Density = 2.037946 g / cm^3
# Si number density = 20.425952 Si / 1000 Ang^3
#
#
#
# Elastic Constant Matrix: (Units=GPa)
#
#
# Indices 1 2 3 4 5 6 
#
# 1 78.4072 12.7854 5.3828 0.0000 0.0000 0.0000
# 2 12.7854 130.8698 30.8115 0.0000 0.0000 0.0000
# 3 5.3828 30.8115 24.0622 0.0000 0.0000 0.0000
# 4 0.0000 0.0000 0.0000 22.7156 0.0000 0.0000
# 5 0.0000 0.0000 0.0000 0.0000 25.8512 0.0000
# 6 0.0000 0.0000 0.0000 0.0000 0.0000 30.7309
#
#
#
# Elastic Compliance Matrix: (Units=1/GPa)
#
#
# Indices 1 2 3 4 5 6 
#
# 1 0.013017 -0.000839 -0.001837 0.000000 0.000000 0.000000
# 2 -0.000839 0.010993 -0.013889 0.000000 0.000000 0.000000
# 3 -0.001837 -0.013889 0.059755 0.000000 0.000000 0.000000
# 4 0.000000 0.000000 0.000000 0.044023 0.000000 0.000000
# 5 0.000000 0.000000 0.000000 0.000000 0.038683 0.000000
# 6 0.000000 0.000000 0.000000 0.000000 0.000000 0.032541
#
#
# Mechanical properties :
#
#
# Convention : Reuss Voigt Hill
#
# Bulk Modulus (GPa) = 19.74966 36.81094 28.28030
# Shear Modulus (GPa) = 20.07874 28.15017 24.11445
#
# Velocity S-wave (km/s) = 3.13869 3.71638 3.43968
# Velocity P-wave (km/s) = 4.77755 6.03954 5.44523
#
# Compressibility (1/GPa) = 0.05063379
#
# Stress axis : x y z
#
# Youngs Moduli (GPa) = 76.82315 90.96614 16.73508
#
# Poissons Ratio (x) = 0.07633 0.03075
# Poissons Ratio (y) = 0.06446 0.23243
# Poissons Ratio (z) = 0.14116 1.26342
#
# Static dielectric constant tensor:
#      x y z
#    x 3.849380 0.000000 0.000000 
#    y 0.000000 3.896590 0.000000 
#    z 0.000000 0.000000 3.451160 
# 
# 
# High freq. dielectric constant tensor:
#      x y z
#    x 1.805700 0.000000 0.000000 
#    y 0.000000 1.818080 0.000000 
#    z 0.000000 0.000000 1.778090 
# 
# From -- ./inp_files/6789.got.cif
#   From: 2010.06.25/outbox.cif.g09.slc.cpg/sg58_4_cif.got.tgz:6789.got - 2010.06.26 21:38:00.
