data_PCOD8237149
_publ_section_title
;
Structure prediction by ZEFSAII (Michael W. Deem and Ramdas Pophale) SiO2 
 PCOD8237149
Probable space group: P N N M
;
_chemical_formula_sum "Si O2"
_cell_formula_units_Z 60
_cell_length_a 12.037980
_cell_length_b 8.209746
_cell_length_c 30.835628
_cell_angle_alpha 90.000000
_cell_angle_beta 90.000000
_cell_angle_gamma 90.000000
_cell_volume 3047.446822
_symmetry_space_group_name_H-M "P N N M"
_symmetry_group_IT_number 58
_symmetry_cell_setting 'orthorhombic'
loop_
_space_group_symop_operation_xyz
x,y,z
-x,-y,z
1/2+x,1/2-y,1/2-z
1/2-x,1/2+y,1/2-z
-x,-y,-z
x,y,-z
1/2-x,1/2+y,1/2+z
1/2+x,1/2-y,1/2+z
loop_
_atom_site_type_symbol
_atom_site_label
_atom_site_fract_x
_atom_site_fract_y
_atom_site_fract_z
Si Si1 0.000416 0.817749 0.450267
Si Si2 0.608311 0.895767 0.384925
Si Si3 0.748945 0.196484 0.950427
Si Si4 0.500000 0.000000 0.833710
Si Si5 0.558973 0.673841 0.785171
Si Si6 0.217159 0.327996 0.163985
Si Si7 0.007974 0.813830 0.188219
Si Si8 0.673738 0.905596 0.100939
O O1 0.041256 0.817404 0.500000
O O2 0.876391 0.755715 0.445793
O O3 0.083698 0.704383 0.423911
O O4 0.000000 0.000000 0.430988
O O5 0.664386 0.815503 0.426892
O O6 0.578005 0.758093 0.350778
O O7 0.500000 0.000000 0.399341
O O8 0.698845 0.002109 0.359922
O O9 0.747831 0.014945 0.930990
O O10 0.787884 0.188884 0.000000
O O11 0.500936 0.168564 0.806376
O O12 0.390569 0.986081 0.863468
O O13 0.500000 0.500000 0.794808
O O14 0.682459 0.657251 0.802875
O O15 0.568620 0.709171 0.734171
O O16 0.236512 0.202582 0.125210
O O17 0.111445 0.272693 0.192036
O O18 0.000000 0.000000 0.176035
#
# Coordination Sequence:
#
# PCOD8237149 Si02
#       8
#     8   8   8   4   8   8   8   8
#     4  10  20  34  56  88 126 159 197 255 312 376
#     4  10  23  41  64  85 118 162 206 265 311 373
#     4  11  22  37  60  89 119 163 209 253 316 370
#     4  10  22  36  59  90 128 164 197 252 300 370
#     4  10  24  41  61  94 129 162 211 261 306 375
#     4  10  23  39  62  92 118 167 207 249 317 376
#     4  10  22  44  62  89 124 158 207 258 313 370
#     4  11  20  37  57  90 124 160 204 246 307 376
#
# _framework density 19.688614000000001
#
# number of rings (size 3 to 8) (size 9 to 14) (size 15 to 20)
#    0.000    1.733    1.333    2.000    4.667    5.600 
#    4.800    0.667    0.000    8.400    0.000    0.000 
#    0.000    0.000    0.000    0.000    0.000    0.000 
#
# Total GULP energy -743985.510614 kJ/mol
# GULP energy per Si atom -12399.758510 kJ/mol
# Density = 1.964380 g / cm^3
# Si number density = 19.688614 Si / 1000 Ang^3
#
#
#
# Elastic Constant Matrix: (Units=GPa)
#
#
# Indices 1 2 3 4 5 6 
#
# 1 71.2897 28.8757 52.3643 0.0000 0.0000 0.0000
# 2 28.8757 117.4447 64.1585 0.0000 0.0000 0.0000
# 3 52.3643 64.1585 134.9731 0.0000 0.0000 0.0000
# 4 0.0000 0.0000 0.0000 31.5468 0.0000 0.0000
# 5 0.0000 0.0000 0.0000 0.0000 5.5401 0.0000
# 6 0.0000 0.0000 0.0000 0.0000 0.0000 26.1926
#
#
#
# Elastic Compliance Matrix: (Units=1/GPa)
#
#
# Indices 1 2 3 4 5 6 
#
# 1 0.019688 -0.000902 -0.007209 0.000000 0.000000 0.000000
# 2 -0.000902 0.011543 -0.005137 0.000000 0.000000 0.000000
# 3 -0.007209 -0.005137 0.012647 0.000000 0.000000 0.000000
# 4 0.000000 0.000000 0.000000 0.031699 0.000000 0.000000
# 5 0.000000 0.000000 0.000000 0.000000 0.180501 0.000000
# 6 0.000000 0.000000 0.000000 0.000000 0.000000 0.038179
#
#
# Mechanical properties :
#
#
# Convention : Reuss Voigt Hill
#
# Bulk Modulus (GPa) = 57.53170 68.27828 62.90499
# Shear Modulus (GPa) = 15.31173 24.54319 19.92746
#
# Velocity S-wave (km/s) = 2.79174 3.53451 3.18485
# Velocity P-wave (km/s) = 6.29889 7.17017 6.74861
#
# Compressibility (1/GPa) = 0.01738172
#
# Stress axis : x y z
#
# Youngs Moduli (GPa) = 50.79178 86.63600 79.06707
#
# Poissons Ratio (x) = 0.07817 0.57002
# Poissons Ratio (y) = 0.04583 0.40614
# Poissons Ratio (z) = 0.36618 0.44502
#
# Static dielectric constant tensor:
#      x y z
#    x 3.487060 0.000000 0.000000 
#    y 0.000000 3.785020 0.000000 
#    z 0.000000 0.000000 3.677690 
# 
# 
# High freq. dielectric constant tensor:
#      x y z
#    x 1.759040 0.000000 0.000000 
#    y 0.000000 1.785570 0.000000 
#    z 0.000000 0.000000 1.772590 
# 
# From -- ./inp_files/33590.got.cif
#   From: 2010.06.25/outbox.cif.g09.slc.cpg/sg58_17_cif.got.tgz:33590.got - 2010.06.26 21:38:00.
