data_PCOD8237486
_publ_section_title
;
Structure prediction by ZEFSAII (Michael W. Deem and Ramdas Pophale) SiO2 
 PCOD8237486
Probable space group: P N N M
;
_chemical_formula_sum "Si O2"
_cell_formula_units_Z 64
_cell_length_a 18.053071
_cell_length_b 9.371710
_cell_length_c 19.824841
_cell_angle_alpha 90.000000
_cell_angle_beta 90.000000
_cell_angle_gamma 90.000000
_cell_volume 3354.128094
_symmetry_space_group_name_H-M "P N N M"
_symmetry_group_IT_number 58
_symmetry_cell_setting 'orthorhombic'
loop_
_space_group_symop_operation_xyz
x,y,z
-x,-y,z
1/2+x,1/2-y,1/2-z
1/2-x,1/2+y,1/2-z
-x,-y,-z
x,y,-z
1/2-x,1/2+y,1/2+z
1/2+x,1/2-y,1/2+z
loop_
_atom_site_type_symbol
_atom_site_label
_atom_site_fract_x
_atom_site_fract_y
_atom_site_fract_z
Si Si1 0.512792 0.157097 0.076615
Si Si2 0.766281 0.431327 0.925145
Si Si3 0.801461 0.442444 0.701492
Si Si4 0.181502 0.351953 0.577730
Si Si5 0.714467 0.624202 0.807794
Si Si6 0.455125 0.358752 0.819240
Si Si7 0.564336 0.883366 0.572268
Si Si8 0.049696 0.637329 0.781592
O O1 0.597762 0.207477 0.084332
O O2 0.458216 0.268734 0.112026
O O3 0.500000 0.000000 0.108914
O O4 0.485951 0.153050 0.000000
O O5 0.738842 0.273560 0.901114
O O6 0.734942 0.553787 0.878218
O O7 0.854318 0.452148 0.925170
O O8 0.733817 0.455867 0.000000
O O9 0.812052 0.513595 0.628014
O O10 0.751664 0.547803 0.744780
O O11 0.761259 0.290241 0.690337
O O12 0.875901 0.411037 0.743453
O O13 0.196048 0.402018 0.500000
O O14 0.627403 0.605345 0.797618
O O15 0.500000 0.500000 0.829247
O O16 0.491437 0.260925 0.760430
O O17 0.558296 0.796428 0.500000
O O18 0.560090 0.796084 0.642590
O O19 0.500000 0.000000 0.571286
O O20 0.000000 0.500000 0.788189
#
# Coordination Sequence:
#
# PCOD8237486 Si02
#       8
#     8   8   8   8   8   8   8   8
#     4  10  20  37  59  83 114 155 199 234 271 334
#     4  10  20  37  59  84 113 144 188 234 288 347
#     4  11  22  36  56  80 117 147 189 233 277 340
#     4  10  21  36  59  85 113 154 192 233 286 339
#     4  11  23  37  55  82 113 153 186 232 285 330
#     4  11  23  36  53  83 117 150 185 233 285 338
#     4   9  18  35  59  83 105 137 188 240 282 335
#     4  10  20  36  60  83 106 145 189 230 278 339
#
# _framework density 19.080964999999999
#
# number of rings (size 3 to 8) (size 9 to 14) (size 15 to 20)
#    0.000    1.750    1.250    4.125    1.750    2.250 
#    0.000    0.000    0.000    0.375    0.000    0.000 
#    0.000    0.000    0.000    0.000    0.000    0.000 
#
# Total GULP energy -793074.829848 kJ/mol
# GULP energy per Si atom -12391.794216 kJ/mol
# Density = 1.903754 g / cm^3
# Si number density = 19.080965 Si / 1000 Ang^3
#
#
#
# Elastic Constant Matrix: (Units=GPa)
#
#
# Indices 1 2 3 4 5 6 
#
# 1 62.5989 26.2597 18.4356 0.0000 0.0000 0.0000
# 2 26.2597 106.1632 62.3692 0.0000 0.0000 0.0000
# 3 18.4356 62.3692 136.3656 0.0000 0.0000 0.0000
# 4 0.0000 0.0000 0.0000 18.7142 0.0000 0.0000
# 5 0.0000 0.0000 0.0000 0.0000 26.0228 0.0000
# 6 0.0000 0.0000 0.0000 0.0000 0.0000 22.5687
#
#
#
# Elastic Compliance Matrix: (Units=1/GPa)
#
#
# Indices 1 2 3 4 5 6 
#
# 1 0.017853 -0.004100 -0.000539 0.000000 0.000000 0.000000
# 2 -0.004100 0.013822 -0.005767 0.000000 0.000000 0.000000
# 3 -0.000539 -0.005767 0.010044 0.000000 0.000000 0.000000
# 4 0.000000 0.000000 0.000000 0.053435 0.000000 0.000000
# 5 0.000000 0.000000 0.000000 0.000000 0.038428 0.000000
# 6 0.000000 0.000000 0.000000 0.000000 0.000000 0.044309
#
#
# Mechanical properties :
#
#
# Convention : Reuss Voigt Hill
#
# Bulk Modulus (GPa) = 47.82955 57.69518 52.76236
# Shear Modulus (GPa) = 24.31062 26.66534 25.48798
#
# Velocity S-wave (km/s) = 3.57329 3.74235 3.65880
# Velocity P-wave (km/s) = 6.49197 6.99830 6.74988
#
# Compressibility (1/GPa) = 0.02090758
#
# Stress axis : x y z
#
# Youngs Moduli (GPa) = 56.01272 72.34979 99.56338
#
# Poissons Ratio (x) = 0.29660 0.05362
# Poissons Ratio (y) = 0.22963 0.57422
# Poissons Ratio (z) = 0.03017 0.41727
#
# Static dielectric constant tensor:
#      x y z
#    x 3.512560 0.000000 0.000000 
#    y 0.000000 3.489990 0.000000 
#    z 0.000000 0.000000 4.099810 
# 
# 
# High freq. dielectric constant tensor:
#      x y z
#    x 1.740130 0.000000 0.000000 
#    y 0.000000 1.717080 0.000000 
#    z 0.000000 0.000000 1.766740 
# 
# From -- ./inp_files/30305.got.cif
#   From: 2010.06.25/outbox.cif.g09.slc.cpg/sg58_16_cif.got.tgz:30305.got - 2010.06.26 21:38:00.
