data_PCOD8237754
_publ_section_title
;
Structure prediction by ZEFSAII (Michael W. Deem and Ramdas Pophale) SiO2 
 PCOD8237754
Probable space group: P N N M
;
_chemical_formula_sum "Si O2"
_cell_formula_units_Z 48
_cell_length_a 18.703741
_cell_length_b 14.748738
_cell_length_c 8.811349
_cell_angle_alpha 90.000000
_cell_angle_beta 90.000000
_cell_angle_gamma 90.000000
_cell_volume 2430.668562
_symmetry_space_group_name_H-M "P N N M"
_symmetry_group_IT_number 58
_symmetry_cell_setting 'orthorhombic'
loop_
_space_group_symop_operation_xyz
x,y,z
-x,-y,z
1/2+x,1/2-y,1/2-z
1/2-x,1/2+y,1/2-z
-x,-y,-z
x,y,-z
1/2-x,1/2+y,1/2+z
1/2+x,1/2-y,1/2+z
loop_
_atom_site_type_symbol
_atom_site_label
_atom_site_fract_x
_atom_site_fract_y
_atom_site_fract_z
Si Si1 0.432062 0.054020 0.180241
Si Si2 0.679494 0.392626 0.177959
Si Si3 0.771922 0.220573 0.173858
Si Si4 0.973462 0.902707 0.820480
Si Si5 0.920301 0.239900 0.678529
Si Si6 0.216508 0.473665 0.324890
O O1 0.434551 0.157710 0.235734
O O2 0.500000 0.000000 0.248374
O O3 0.359541 0.007091 0.240563
O O4 0.433408 0.048638 0.000000
O O5 0.727757 0.307676 0.226595
O O6 0.605660 0.383344 0.264498
O O7 0.719466 0.483679 0.228087
O O8 0.664096 0.394629 0.000000
O O9 0.840484 0.209775 0.279988
O O10 0.720337 0.134321 0.193794
O O11 0.797701 0.229948 0.000000
O O12 0.024262 0.824478 0.760491
O O13 0.975027 0.901260 0.000000
O O14 0.000000 0.000000 0.758412
O O15 0.931356 0.231271 0.500000
O O16 0.225945 0.503163 0.500000
#
# Coordination Sequence:
#
# PCOD8237754 Si02
#       6
#     8   8   8   8   8   8
#     4   9  19  35  59  87 117 155 201 243 288 355
#     4  11  23  39  61  91 122 152 197 252 297 346
#     4  10  22  38  60  87 121 159 196 240 296 359
#     4  11  25  43  62  85 119 161 201 243 299 364
#     4  11  22  38  64  92 120 154 198 250 299 348
#     4  10  20  38  62  86 116 159 201 239 292 358
#
# _framework density 19.747654000000001
#
# number of rings (size 3 to 8) (size 9 to 14) (size 15 to 20)
#    0.000    1.667    1.667    2.500    2.333    6.667 
#    0.000    0.000    0.000    2.500    0.000    0.000 
#    0.000    0.000    0.000    0.000    0.000    0.000 
#
# Total GULP energy -595450.604127 kJ/mol
# GULP energy per Si atom -12405.220919 kJ/mol
# Density = 1.970271 g / cm^3
# Si number density = 19.747654 Si / 1000 Ang^3
#
#
#
# Elastic Constant Matrix: (Units=GPa)
#
#
# Indices 1 2 3 4 5 6 
#
# 1 133.1107 43.9876 28.6141 0.0000 0.0000 0.0000
# 2 43.9876 100.8735 25.6476 0.0000 0.0000 0.0000
# 3 28.6141 25.6476 41.9139 0.0000 0.0000 0.0000
# 4 0.0000 0.0000 0.0000 25.8080 0.0000 0.0000
# 5 0.0000 0.0000 0.0000 0.0000 52.2764 0.0000
# 6 0.0000 0.0000 0.0000 0.0000 0.0000 -289.8572
#
#
#
# Elastic Compliance Matrix: (Units=1/GPa)
#
#
# Indices 1 2 3 4 5 6 
#
# 1 0.009493 -0.002951 -0.004675 0.000000 0.000000 0.000000
# 2 -0.002951 0.012657 -0.005731 0.000000 0.000000 0.000000
# 3 -0.004675 -0.005731 0.030557 0.000000 0.000000 0.000000
# 4 0.000000 0.000000 0.000000 0.038748 0.000000 0.000000
# 5 0.000000 0.000000 0.000000 0.000000 0.019129 0.000000
# 6 0.000000 0.000000 0.000000 0.000000 0.000000 -0.003450
#
#
# Mechanical properties :
#
#
# Convention : Reuss Voigt Hill
#
# Bulk Modulus (GPa) = 38.47071 52.48852 45.47961
# Shear Modulus (GPa) = 35.08517 -30.51133 2.28692
#
# Velocity S-wave (km/s) = 4.21964 -3.93499 1.07731
# Velocity P-wave (km/s) = 6.57753 2.44781 4.96264
#
# Compressibility (1/GPa) = 0.02599380
#
# Stress axis : x y z
#
# Youngs Moduli (GPa) = 105.34542 79.00642 32.72619
#
# Poissons Ratio (x) = 0.23313 0.15299
# Poissons Ratio (y) = 0.31085 0.18754
# Poissons Ratio (z) = 0.49247 0.45276
#
# Static dielectric constant tensor:
#      x y z
#    x 3.877850 0.000000 0.000000 
#    y 0.000000 3.719760 0.000000 
#    z 0.000000 0.000000 3.433730 
# 
# 
# High freq. dielectric constant tensor:
#      x y z
#    x 1.780430 0.000000 0.000000 
#    y 0.000000 1.785480 0.000000 
#    z 0.000000 0.000000 1.753160 
# 
# From -- ./inp_files/5864.got.cif
#   From: 2010.06.25/outbox.cif.g09.slc.cpg/sg58_3_cif.got.tgz:5864.got - 2010.06.26 21:38:00.
