data_PCOD8237951
_publ_section_title
;
Structure prediction by ZEFSAII (Michael W. Deem and Ramdas Pophale) SiO2 
 PCOD8237951
Probable space group: P N N M
;
_chemical_formula_sum "Si O2"
_cell_formula_units_Z 40
_cell_length_a 10.517352
_cell_length_b 21.462742
_cell_length_c 8.809238
_cell_angle_alpha 90.000000
_cell_angle_beta 90.000000
_cell_angle_gamma 90.000000
_cell_volume 1988.519975
_symmetry_space_group_name_H-M "P N N M"
_symmetry_group_IT_number 58
_symmetry_cell_setting 'orthorhombic'
loop_
_space_group_symop_operation_xyz
x,y,z
-x,-y,z
1/2+x,1/2-y,1/2-z
1/2-x,1/2+y,1/2-z
-x,-y,-z
x,y,-z
1/2-x,1/2+y,1/2+z
1/2+x,1/2-y,1/2+z
loop_
_atom_site_type_symbol
_atom_site_label
_atom_site_fract_x
_atom_site_fract_y
_atom_site_fract_z
Si Si1 0.089969 0.589638 0.819510
Si Si2 0.806060 0.280988 0.819792
Si Si3 0.948231 0.064683 0.680009
Si Si4 0.476414 0.698596 0.179176
Si Si5 0.326494 0.957244 0.680232
O O1 0.151316 0.652166 0.752042
O O2 0.166580 0.528908 0.761943
O O3 0.944618 0.583690 0.759417
O O4 0.094260 0.593234 0.000000
O O5 0.658122 0.270258 0.770361
O O6 0.900634 0.229384 0.755015
O O7 0.816445 0.279918 0.000000
O O8 0.951117 0.058279 0.500000
O O9 0.803490 0.073636 0.738350
O O10 0.027660 0.125634 0.729500
O O11 0.000000 0.000000 0.751655
O O12 0.495157 0.703827 0.000000
O O13 0.333843 0.959006 0.500000
#
# Coordination Sequence:
#
# PCOD8237951 Si02
#       5
#     8   8   8   8   8
#     4   8  14  25  43  69 101 130 162 207 257 307
#     4  10  21  36  53  75 108 144 176 215 261 312
#     4   9  16  27  46  71 102 132 165 216 271 311
#     4  10  22  36  53  80 109 140 179 218 263 317
#     4   8  13  22  41  70  97 126 163 206 259 309
#
# _framework density 20.115463999999999
#
# number of rings (size 3 to 8) (size 9 to 14) (size 15 to 20)
#    0.000    3.000    0.000    2.400    2.800    5.600 
#    0.000    0.000    0.000    0.600    0.000    4.200 
#    0.000    0.000    0.000    0.000    0.000    0.000 
#
# Total GULP energy -495589.515440 kJ/mol
# GULP energy per Si atom -12389.737886 kJ/mol
# Density = 2.006968 g / cm^3
# Si number density = 20.115464 Si / 1000 Ang^3
#
#
#
# Elastic Constant Matrix: (Units=GPa)
#
#
# Indices 1 2 3 4 5 6 
#
# 1 153.3166 63.5711 21.9131 0.0000 0.0000 0.0000
# 2 63.5711 100.3881 16.5448 0.0000 0.0000 0.0000
# 3 21.9131 16.5448 12.9887 0.0000 0.0000 0.0000
# 4 0.0000 0.0000 0.0000 15.8251 0.0000 0.0000
# 5 0.0000 0.0000 0.0000 0.0000 27.2020 0.0000
# 6 0.0000 0.0000 0.0000 0.0000 0.0000 37.4193
#
#
#
# Elastic Compliance Matrix: (Units=1/GPa)
#
#
# Indices 1 2 3 4 5 6 
#
# 1 0.009969 -0.004482 -0.011109 0.000000 0.000000 0.000000
# 2 -0.004482 0.014623 -0.011065 0.000000 0.000000 0.000000
# 3 -0.011109 -0.011065 0.109827 0.000000 0.000000 0.000000
# 4 0.000000 0.000000 0.000000 0.063191 0.000000 0.000000
# 5 0.000000 0.000000 0.000000 0.000000 0.036762 0.000000
# 6 0.000000 0.000000 0.000000 0.000000 0.000000 0.026724
#
#
# Mechanical properties :
#
#
# Convention : Reuss Voigt Hill
#
# Bulk Modulus (GPa) = 12.32957 52.30571 32.31764
# Shear Modulus (GPa) = 14.64373 27.06693 20.85533
#
# Velocity S-wave (km/s) = 2.70104 3.67219 3.22340
# Velocity P-wave (km/s) = 3.98374 6.63620 5.47309
#
# Compressibility (1/GPa) = 0.08110585
#
# Stress axis : x y z
#
# Youngs Moduli (GPa) = 100.31556 68.38498 9.10524
#
# Poissons Ratio (x) = 0.30648 0.10115
# Poissons Ratio (y) = 0.44959 0.10075
# Poissons Ratio (z) = 1.11441 0.75671
#
# Static dielectric constant tensor:
#      x y z
#    x 4.048740 0.000000 0.000000 
#    y 0.000000 3.831090 0.000000 
#    z 0.000000 0.000000 2.854250 
# 
# 
# High freq. dielectric constant tensor:
#      x y z
#    x 1.805080 0.000000 0.000000 
#    y 0.000000 1.789980 0.000000 
#    z 0.000000 0.000000 1.698040 
# 
# From -- ./inp_files/4017.got.cif
#   From: 2010.06.25/outbox.cif.g09.slc.cpg/sg58_3_cif.got.tgz:4017.got - 2010.06.26 21:38:00.
