data_PCOD8237464
_publ_section_title
;
Structure prediction by ZEFSAII (Michael W. Deem and Ramdas Pophale) SiO2 
 PCOD8237464
Probable space group: P N N M
;
_chemical_formula_sum "Si O2"
_cell_formula_units_Z 40
_cell_length_a 8.979728
_cell_length_b 25.298205
_cell_length_c 8.703211
_cell_angle_alpha 90.000000
_cell_angle_beta 90.000000
_cell_angle_gamma 90.000000
_cell_volume 1977.117144
_symmetry_space_group_name_H-M "P N N M"
_symmetry_group_IT_number 58
_symmetry_cell_setting 'orthorhombic'
loop_
_space_group_symop_operation_xyz
x,y,z
-x,-y,z
1/2+x,1/2-y,1/2-z
1/2-x,1/2+y,1/2-z
-x,-y,-z
x,y,-z
1/2-x,1/2+y,1/2+z
1/2+x,1/2-y,1/2+z
loop_
_atom_site_type_symbol
_atom_site_label
_atom_site_fract_x
_atom_site_fract_y
_atom_site_fract_z
Si Si1 0.827720 0.986465 0.830987
Si Si2 0.899511 0.884459 0.322332
Si Si3 0.717201 0.601776 0.681036
Si Si4 0.212621 0.705898 0.323742
Si Si5 0.598990 0.192034 0.323310
O O1 0.803808 0.937421 0.716149
O O2 0.748314 0.040495 0.774053
O O3 0.767574 0.970242 0.000000
O O4 0.000000 0.000000 0.843472
O O5 0.942777 0.884706 0.500000
O O6 0.799184 0.834243 0.285504
O O7 0.050100 0.881389 0.224815
O O8 0.735233 0.610967 0.500000
O O9 0.837541 0.635636 0.772423
O O10 0.231826 0.688023 0.500000
O O11 0.273659 0.764619 0.296961
O O12 0.040288 0.707558 0.280549
O O13 0.548606 0.188960 0.500000
#
# Coordination Sequence:
#
# PCOD8237464 Si02
#       5
#     8   8   8   8   8
#     4   8  16  32  54  81 113 150 189 226 273 334
#     4  11  21  34  57  87 117 149 189 237 279 322
#     4  10  20  36  59  85 116 153 189 228 278 336
#     4  11  24  41  60  82 113 151 186 227 283 342
#     4  11  24  40  60  86 113 144 187 236 281 330
#
# _framework density 20.231476000000001
#
# number of rings (size 3 to 8) (size 9 to 14) (size 15 to 20)
#    0.000    1.800    0.000    6.000    0.000   10.800 
#    0.000    1.000    0.000    6.000    0.000    0.000 
#    0.000    0.000    0.000    0.000    0.000    0.000 
#
# Total GULP energy -496072.798806 kJ/mol
# GULP energy per Si atom -12401.819970 kJ/mol
# Density = 2.018543 g / cm^3
# Si number density = 20.231476 Si / 1000 Ang^3
#
#
#
# Elastic Constant Matrix: (Units=GPa)
#
#
# Indices 1 2 3 4 5 6 
#
# 1 41.1322 -11.3879 4.4784 0.0000 0.0000 0.0000
# 2 -11.3879 50.9786 33.1853 0.0000 0.0000 0.0000
# 3 4.4784 33.1853 70.5646 0.0000 0.0000 0.0000
# 4 0.0000 0.0000 0.0000 31.2983 0.0000 0.0000
# 5 0.0000 0.0000 0.0000 0.0000 29.3759 0.0000
# 6 0.0000 0.0000 0.0000 0.0000 0.0000 31.4126
#
#
#
# Elastic Compliance Matrix: (Units=1/GPa)
#
#
# Indices 1 2 3 4 5 6 
#
# 1 0.028011 0.010686 -0.006803 0.000000 0.000000 0.000000
# 2 0.010686 0.032347 -0.015891 0.000000 0.000000 0.000000
# 3 -0.006803 -0.015891 0.022076 0.000000 0.000000 0.000000
# 4 0.000000 0.000000 0.000000 0.031951 0.000000 0.000000
# 5 0.000000 0.000000 0.000000 0.000000 0.034042 0.000000
# 6 0.000000 0.000000 0.000000 0.000000 0.000000 0.031834
#
#
# Mechanical properties :
#
#
# Convention : Reuss Voigt Hill
#
# Bulk Modulus (GPa) = 17.11773 23.91411 20.51592
# Shear Modulus (GPa) = 22.34639 27.51067 24.92853
#
# Velocity S-wave (km/s) = 3.32706 3.69154 3.51403
# Velocity P-wave (km/s) = 4.82062 5.47867 5.16015
#
# Compressibility (1/GPa) = 0.05841896
#
# Stress axis : x y z
#
# Youngs Moduli (GPa) = 35.70023 30.91442 45.29756
#
# Poissons Ratio (x) = -0.33035 0.30816
# Poissons Ratio (y) = -0.38149 0.71980
# Poissons Ratio (z) = 0.24287 0.49125
#
# Static dielectric constant tensor:
#      x y z
#    x 3.336350 0.000000 0.000000 
#    y 0.000000 4.093290 0.000000 
#    z 0.000000 0.000000 3.688980 
# 
# 
# High freq. dielectric constant tensor:
#      x y z
#    x 1.761470 0.000000 0.000000 
#    y 0.000000 1.805880 0.000000 
#    z 0.000000 0.000000 1.794880 
# 
# From -- ./inp_files/2411.got.cif
#   From: 2010.06.25/outbox.cif.g09.slc.cpg/sg58_2_cif.got.tgz:2411.got - 2010.06.26 21:38:00.
