data_PCOD8237358
_publ_section_title
;
Structure prediction by ZEFSAII (Michael W. Deem and Ramdas Pophale) SiO2 
 PCOD8237358
Probable space group: P N N M
;
_chemical_formula_sum "Si O2"
_cell_formula_units_Z 64
_cell_length_a 24.342767
_cell_length_b 14.574166
_cell_length_c 8.994285
_cell_angle_alpha 90.000000
_cell_angle_beta 90.000000
_cell_angle_gamma 90.000000
_cell_volume 3190.952202
_symmetry_space_group_name_H-M "P N N M"
_symmetry_group_IT_number 58
_symmetry_cell_setting 'orthorhombic'
loop_
_space_group_symop_operation_xyz
x,y,z
-x,-y,z
1/2+x,1/2-y,1/2-z
1/2-x,1/2+y,1/2-z
-x,-y,-z
x,y,-z
1/2-x,1/2+y,1/2+z
1/2+x,1/2-y,1/2+z
loop_
_atom_site_type_symbol
_atom_site_label
_atom_site_fract_x
_atom_site_fract_y
_atom_site_fract_z
Si Si1 0.240022 0.365966 0.676187
Si Si2 0.371925 0.954220 0.830290
Si Si3 0.445014 0.447359 0.824559
Si Si4 0.012391 0.395568 0.668592
Si Si5 0.055865 0.755246 0.169985
Si Si6 0.651507 0.876084 0.330466
Si Si7 0.166058 0.003840 0.174158
Si Si8 0.258010 0.671377 0.327408
O O1 0.241068 0.362429 0.500000
O O2 0.183456 0.409590 0.733970
O O3 0.291766 0.425755 0.734151
O O4 0.240478 0.263277 0.733789
O O5 0.421733 0.881663 0.819937
O O6 0.387322 0.041696 0.727663
O O7 0.364168 0.987311 0.000000
O O8 0.500000 0.500000 0.773832
O O9 0.450550 0.343267 0.772126
O O10 0.392053 0.496748 0.755361
O O11 0.438064 0.449021 0.000000
O O12 0.991431 0.377463 0.500000
O O13 0.000000 0.500000 0.715030
O O14 0.985774 0.323557 0.779876
O O15 0.118405 0.719186 0.183509
O O16 0.042474 0.781137 0.000000
O O17 0.669923 0.892083 0.500000
O O18 0.703358 0.881337 0.221542
O O19 0.190478 0.104978 0.206312
O O20 0.156207 0.988860 0.000000
O O21 0.254853 0.695817 0.500000
#
# Coordination Sequence:
#
# PCOD8237358 Si02
#       8
#     8   8   8   8   8   8   8   8
#     4  10  21  39  60  88 126 161 198 246 300 359
#     4  10  20  37  59  85 122 164 198 244 305 358
#     4  11  26  46  67  91 119 155 207 262 308 363
#     4  10  20  35  60  90 123 163 205 247 299 360
#     4  11  24  40  62  91 125 165 207 256 310 363
#     4  11  22  36  58  89 122 158 203 249 299 359
#     4  10  22  42  66  91 124 161 201 250 309 367
#     4  11  23  39  61  90 123 161 203 248 302 364
#
# _framework density 20.056709999999999
#
# number of rings (size 3 to 8) (size 9 to 14) (size 15 to 20)
#    0.000    1.500    2.500    2.250    0.000    9.250 
#    0.000    3.750    0.000    0.000    0.000    0.000 
#    0.000    0.000    0.000    0.000    0.000    0.000 
#
# Total GULP energy -793688.615473 kJ/mol
# GULP energy per Si atom -12401.384617 kJ/mol
# Density = 2.001106 g / cm^3
# Si number density = 20.056710 Si / 1000 Ang^3
#
#
#
# Elastic Constant Matrix: (Units=GPa)
#
#
# Indices 1 2 3 4 5 6 
#
# 1 128.2439 30.1005 38.2442 0.0000 0.0000 0.0000
# 2 30.1005 67.9026 16.1953 0.0000 0.0000 0.0000
# 3 38.2442 16.1953 36.0844 0.0000 0.0000 0.0000
# 4 0.0000 0.0000 0.0000 33.8037 0.0000 0.0000
# 5 0.0000 0.0000 0.0000 0.0000 22.6211 0.0000
# 6 0.0000 0.0000 0.0000 0.0000 0.0000 29.1658
#
#
#
# Elastic Compliance Matrix: (Units=1/GPa)
#
#
# Indices 1 2 3 4 5 6 
#
# 1 0.011772 -0.002511 -0.011349 0.000000 0.000000 0.000000
# 2 -0.002511 0.017028 -0.004981 0.000000 0.000000 0.000000
# 3 -0.011349 -0.004981 0.041977 0.000000 0.000000 0.000000
# 4 0.000000 0.000000 0.000000 0.029583 0.000000 0.000000
# 5 0.000000 0.000000 0.000000 0.000000 0.044207 0.000000
# 6 0.000000 0.000000 0.000000 0.000000 0.000000 0.034287
#
#
# Mechanical properties :
#
#
# Convention : Reuss Voigt Hill
#
# Bulk Modulus (GPa) = 30.21702 44.59009 37.40356
# Shear Modulus (GPa) = 21.97167 26.96417 24.46792
#
# Velocity S-wave (km/s) = 3.31339 3.67058 3.49655
# Velocity P-wave (km/s) = 5.45313 6.34385 5.91528
#
# Compressibility (1/GPa) = 0.03309393
#
# Stress axis : x y z
#
# Youngs Moduli (GPa) = 84.95083 58.72609 23.82283
#
# Poissons Ratio (x) = 0.14748 0.27036
# Poissons Ratio (y) = 0.21334 0.11866
# Poissons Ratio (z) = 0.96410 0.29251
#
# Static dielectric constant tensor:
#      x y z
#    x 3.878740 0.000000 0.000000 
#    y 0.000000 3.607460 0.000000 
#    z 0.000000 0.000000 3.529840 
# 
# 
# High freq. dielectric constant tensor:
#      x y z
#    x 1.792520 0.000000 0.000000 
#    y 0.000000 1.781330 0.000000 
#    z 0.000000 0.000000 1.778830 
# 
# From -- ./inp_files/6933.got.cif
#   From: 2010.06.25/outbox.cif.g09.slc.cpg/sg58_4_cif.got.tgz:6933.got - 2010.06.26 21:38:00.
