data_PCOD8237220
_publ_section_title
;
Structure prediction by ZEFSAII (Michael W. Deem and Ramdas Pophale) SiO2 
 PCOD8237220
Probable space group: P N N M
;
_chemical_formula_sum "Si O2"
_cell_formula_units_Z 64
_cell_length_a 18.347231
_cell_length_b 19.535260
_cell_length_c 9.315805
_cell_angle_alpha 90.000000
_cell_angle_beta 90.000000
_cell_angle_gamma 90.000000
_cell_volume 3338.951524
_symmetry_space_group_name_H-M "P N N M"
_symmetry_group_IT_number 58
_symmetry_cell_setting 'orthorhombic'
loop_
_space_group_symop_operation_xyz
x,y,z
-x,-y,z
1/2+x,1/2-y,1/2-z
1/2-x,1/2+y,1/2-z
-x,-y,-z
x,y,-z
1/2-x,1/2+y,1/2+z
1/2+x,1/2-y,1/2+z
loop_
_atom_site_type_symbol
_atom_site_label
_atom_site_fract_x
_atom_site_fract_y
_atom_site_fract_z
Si Si1 0.361167 0.721848 0.670663
Si Si2 0.277750 0.471850 0.335144
Si Si3 0.556423 0.558335 0.335815
Si Si4 0.180557 0.373432 0.835535
Si Si5 0.476881 0.926282 0.665444
Si Si6 0.235477 0.620487 0.329435
Si Si7 0.008891 0.811992 0.666247
Si Si8 0.919901 0.329266 0.665079
O O1 0.374380 0.718667 0.500000
O O2 0.334078 0.796672 0.718819
O O3 0.301153 0.667979 0.725823
O O4 0.436045 0.704999 0.748193
O O5 0.254855 0.463956 0.500000
O O6 0.364159 0.473757 0.316131
O O7 0.245841 0.406796 0.252767
O O8 0.246432 0.543230 0.271879
O O9 0.500000 0.500000 0.290427
O O10 0.542964 0.582016 0.500000
O O11 0.547377 0.621698 0.230300
O O12 0.109139 0.419382 0.812766
O O13 0.205347 0.371869 0.000000
O O14 0.499434 0.918367 0.500000
O O15 0.516574 0.867154 0.751189
O O16 0.500000 0.000000 0.726562
O O17 0.236848 0.621649 0.500000
O O18 0.159027 0.650342 0.271087
O O19 0.989288 0.824037 0.500000
O O20 0.067889 0.751504 0.683530
O O21 0.925233 0.351809 0.500000
#
# Coordination Sequence:
#
# PCOD8237220 Si02
#       8
#     8   8   8   8   8   8   8   8
#     4  10  20  38  63  82 109 156 202 236 280 352
#     4  10  21  37  59  86 113 145 192 248 290 339
#     4  10  22  41  64  87 114 155 203 245 293 354
#     4  10  21  35  55  83 114 154 191 230 288 348
#     4  10  20  35  55  81 114 149 188 230 279 339
#     4   9  19  37  60  83 108 147 197 238 284 347
#     4  11  23  37  58  89 122 151 189 245 298 344
#     4  10  21  36  56  84 115 150 191 236 286 344
#
# _framework density 19.167694000000001
#
# number of rings (size 3 to 8) (size 9 to 14) (size 15 to 20)
#    0.000    2.000    1.250    1.875    1.750    4.500 
#    0.000    2.500    0.000    0.000    0.000    0.000 
#    0.000    0.000    0.000    0.000    0.000    0.000 
#
# Total GULP energy -793843.181147 kJ/mol
# GULP energy per Si atom -12403.799705 kJ/mol
# Density = 1.912407 g / cm^3
# Si number density = 19.167694 Si / 1000 Ang^3
#
#
#
# Elastic Constant Matrix: (Units=GPa)
#
#
# Indices 1 2 3 4 5 6 
#
# 1 84.8040 27.1249 27.9841 0.0000 0.0000 0.0000
# 2 27.1249 103.4712 34.5446 0.0000 0.0000 0.0000
# 3 27.9841 34.5446 51.5677 0.0000 0.0000 0.0000
# 4 0.0000 0.0000 0.0000 82.9837 0.0000 0.0000
# 5 0.0000 0.0000 0.0000 0.0000 23.6239 0.0000
# 6 0.0000 0.0000 0.0000 0.0000 0.0000 40.6234
#
#
#
# Elastic Compliance Matrix: (Units=1/GPa)
#
#
# Indices 1 2 3 4 5 6 
#
# 1 0.014547 -0.001517 -0.006878 0.000000 0.000000 0.000000
# 2 -0.001517 0.012607 -0.007622 0.000000 0.000000 0.000000
# 3 -0.006878 -0.007622 0.028230 0.000000 0.000000 0.000000
# 4 0.000000 0.000000 0.000000 0.012051 0.000000 0.000000
# 5 0.000000 0.000000 0.000000 0.000000 0.042330 0.000000
# 6 0.000000 0.000000 0.000000 0.000000 0.000000 0.024616
#
#
# Mechanical properties :
#
#
# Convention : Reuss Voigt Hill
#
# Bulk Modulus (GPa) = 42.82625 46.57224 44.69924
# Shear Modulus (GPa) = 28.70309 39.45883 34.08096
#
# Velocity S-wave (km/s) = 3.87392 4.54211 4.22126
# Velocity P-wave (km/s) = 6.51161 7.20123 6.86509
#
# Compressibility (1/GPa) = 0.02335016
#
# Stress axis : x y z
#
# Youngs Moduli (GPa) = 68.74408 79.32186 35.42334
#
# Poissons Ratio (x) = 0.12035 0.24363
# Poissons Ratio (y) = 0.10430 0.26999
# Poissons Ratio (z) = 0.47280 0.60458
#
# Static dielectric constant tensor:
#      x y z
#    x 3.543960 0.000000 0.000000 
#    y 0.000000 3.656070 0.000000 
#    z 0.000000 0.000000 3.339570 
# 
# 
# High freq. dielectric constant tensor:
#      x y z
#    x 1.754460 0.000000 0.000000 
#    y 0.000000 1.758890 0.000000 
#    z 0.000000 0.000000 1.723590 
# 
# From -- ./inp_files/8381.got.cif
#   From: 2010.06.25/outbox.cif.g09.slc.cpg/sg58_5_cif.got.tgz:8381.got - 2010.06.26 21:38:00.
