data_PCOD8237246
_publ_section_title
;
Structure prediction by ZEFSAII (Michael W. Deem and Ramdas Pophale) SiO2 
 PCOD8237246
Probable space group: P N N M
;
_chemical_formula_sum "Si O2"
_cell_formula_units_Z 64
_cell_length_a 11.040909
_cell_length_b 32.107734
_cell_length_c 9.657516
_cell_angle_alpha 90.000000
_cell_angle_beta 90.000000
_cell_angle_gamma 90.000000
_cell_volume 3423.575605
_symmetry_space_group_name_H-M "P N N M"
_symmetry_group_IT_number 58
_symmetry_cell_setting 'orthorhombic'
loop_
_space_group_symop_operation_xyz
x,y,z
-x,-y,z
1/2+x,1/2-y,1/2-z
1/2-x,1/2+y,1/2-z
-x,-y,-z
x,y,-z
1/2-x,1/2+y,1/2+z
1/2+x,1/2-y,1/2+z
loop_
_atom_site_type_symbol
_atom_site_label
_atom_site_fract_x
_atom_site_fract_y
_atom_site_fract_z
Si Si1 0.704394 0.272970 0.338219
Si Si2 0.542870 0.321416 0.849227
Si Si3 0.760629 0.181222 0.346204
Si Si4 0.633480 0.480526 0.339971
Si Si5 0.115552 0.473953 0.662862
Si Si6 0.142815 0.648069 0.343158
Si Si7 0.622063 0.120168 0.842214
Si Si8 0.187503 0.097955 0.662239
O O1 0.678599 0.272287 0.500000
O O2 0.582853 0.287362 0.262206
O O3 0.734326 0.226917 0.283542
O O4 0.812244 0.305561 0.301733
O O5 0.401708 0.323480 0.856620
O O6 0.587703 0.367112 0.808858
O O7 0.596354 0.308825 0.000000
O O8 0.702811 0.176532 0.500000
O O9 0.719063 0.144310 0.248111
O O10 0.500000 0.500000 0.318386
O O11 0.647927 0.466466 0.500000
O O12 0.749763 0.509186 0.298187
O O13 0.635850 0.442604 0.234836
O O14 0.098714 0.474095 0.500000
O O15 0.105215 0.426508 0.717547
O O16 0.000000 0.500000 0.726102
O O17 0.184803 0.636954 0.500000
O O18 0.190165 0.612919 0.237916
O O19 0.999144 0.647353 0.332082
O O20 0.669248 0.117969 0.000000
O O21 0.212505 0.089747 0.500000
#
# Coordination Sequence:
#
# PCOD8237246 Si02
#       8
#     8   8   8   8   8   8   8   8
#     4   9  19  35  55  79 105 139 182 223 264 314
#     4   9  20  37  56  77 108 146 180 221 273 325
#     4  10  22  37  53  77 114 149 176 220 278 326
#     4  10  21  35  55  81 110 146 184 231 283 332
#     4   9  18  35  57  82 110 139 180 231 282 332
#     4   9  18  35  58  82 106 139 182 227 269 317
#     4  10  21  35  58  86 109 141 184 228 274 328
#     4  10  20  35  56  82 109 143 184 223 272 332
#
# _framework density 18.693905999999998
#
# number of rings (size 3 to 8) (size 9 to 14) (size 15 to 20)
#    0.000    2.500    0.000    1.125    3.500    4.250 
#    0.000    0.625    0.000    1.500    0.000    0.000 
#    0.000    0.000    0.000    0.000    0.000    0.000 
#
# Total GULP energy -793292.037515 kJ/mol
# GULP energy per Si atom -12395.188086 kJ/mol
# Density = 1.865136 g / cm^3
# Si number density = 18.693906 Si / 1000 Ang^3
#
#
#
# Elastic Constant Matrix: (Units=GPa)
#
#
# Indices 1 2 3 4 5 6 
#
# 1 83.2661 44.1596 24.1470 0.0000 0.0000 0.0000
# 2 44.1596 116.2943 45.2731 0.0000 0.0000 0.0000
# 3 24.1470 45.2731 61.3636 0.0000 0.0000 0.0000
# 4 0.0000 0.0000 0.0000 -6.5483 0.0000 0.0000
# 5 0.0000 0.0000 0.0000 0.0000 -377.7329 0.0000
# 6 0.0000 0.0000 0.0000 0.0000 0.0000 15.3604
#
#
#
# Elastic Compliance Matrix: (Units=1/GPa)
#
#
# Indices 1 2 3 4 5 6 
#
# 1 0.015293 -0.004860 -0.002432 0.000000 0.000000 0.000000
# 2 -0.004860 0.013608 -0.008128 0.000000 0.000000 0.000000
# 3 -0.002432 -0.008128 0.023250 0.000000 0.000000 0.000000
# 4 0.000000 0.000000 0.000000 -0.152712 0.000000 0.000000
# 5 0.000000 0.000000 0.000000 0.000000 -0.002647 0.000000
# 6 0.000000 0.000000 0.000000 0.000000 0.000000 0.065103
#
#
# Mechanical properties :
#
#
# Convention : Reuss Voigt Hill
#
# Bulk Modulus (GPa) = 46.92359 54.23148 50.57754
# Shear Modulus (GPa) = -30596.54900 -63.96120 -15330.25510
#
# Velocity S-wave (km/s) = -128.07285 -5.85570 -90.65579
# Velocity P-wave (km/s) = 147.80072 4.07993 104.55070
#
# Compressibility (1/GPa) = 0.02131124
#
# Stress axis : x y z
#
# Youngs Moduli (GPa) = 65.39150 73.48379 43.01131
#
# Poissons Ratio (x) = 0.35714 0.10460
# Poissons Ratio (y) = 0.31781 0.34958
# Poissons Ratio (z) = 0.15903 0.59725
#
# Static dielectric constant tensor:
#      x y z
#    x 3.422290 0.000000 0.000000 
#    y 0.000000 3.616770 0.000000 
#    z 0.000000 0.000000 3.483980 
# 
# 
# High freq. dielectric constant tensor:
#      x y z
#    x 1.723470 0.000000 0.000000 
#    y 0.000000 1.730970 0.000000 
#    z 0.000000 0.000000 1.711640 
# 
# From -- ./inp_files/4831.got.cif
#   From: 2010.06.25/outbox.cif.g09.slc.cpg/sg58_3_cif.got.tgz:4831.got - 2010.06.26 21:38:00.
