data_PCOD8237791
_publ_section_title
;
Structure prediction by ZEFSAII (Michael W. Deem and Ramdas Pophale) SiO2 
 PCOD8237791
Probable space group: P N N M
;
_chemical_formula_sum "Si O2"
_cell_formula_units_Z 40
_cell_length_a 10.043953
_cell_length_b 12.071409
_cell_length_c 12.978564
_cell_angle_alpha 90.000000
_cell_angle_beta 90.000000
_cell_angle_gamma 90.000000
_cell_volume 1573.581640
_symmetry_space_group_name_H-M "P N N M"
_symmetry_group_IT_number 58
_symmetry_cell_setting 'orthorhombic'
loop_
_space_group_symop_operation_xyz
x,y,z
-x,-y,z
1/2+x,1/2-y,1/2-z
1/2-x,1/2+y,1/2-z
-x,-y,-z
x,y,-z
1/2-x,1/2+y,1/2+z
1/2+x,1/2-y,1/2+z
loop_
_atom_site_type_symbol
_atom_site_label
_atom_site_fract_x
_atom_site_fract_y
_atom_site_fract_z
Si Si1 0.775641 0.726079 0.379713
Si Si2 0.881932 0.586621 0.118204
Si Si3 0.038952 0.623455 0.388278
Si Si4 0.485722 0.665411 0.619680
Si Si5 0.273265 0.568829 0.244878
O O1 0.787017 0.707017 0.500000
O O2 0.910725 0.676114 0.329550
O O3 0.640040 0.664647 0.343958
O O4 0.776843 0.856097 0.357167
O O5 0.925341 0.712284 0.137728
O O6 0.764680 0.553088 0.200369
O O7 0.000000 0.500000 0.143741
O O8 0.834928 0.571566 0.000000
O O9 0.070550 0.680551 0.500000
O O10 0.000000 0.500000 0.411565
O O11 0.167194 0.631087 0.317663
O O12 0.471925 0.631287 0.500000
O O13 0.410190 0.573138 0.689500
#
# Coordination Sequence:
#
# PCOD8237791 Si02
#       5
#     8   8   8   8   8
#     4  10  21  38  61  90 124 163 207 259 316 383
#     4  10  20  38  64  94 128 167 213 266 327 391
#     4  10  23  41  62  89 127 169 209 256 319 385
#     4  10  22  40  63  94 130 167 212 269 329 384
#     4  12  21  34  65  96 125 165 217 269 316 383
#
# _framework density 25.419715
#
# number of rings (size 3 to 8) (size 9 to 14) (size 15 to 20)
#    0.000    1.600    2.000    3.000    2.800    0.000 
#    0.000    1.000    4.400    4.800    0.000    8.400 
#    0.000    0.000    0.000    0.000    0.000    0.000 
#
# Total GULP energy -495737.203260 kJ/mol
# GULP energy per Si atom -12393.430082 kJ/mol
# Density = 2.536186 g / cm^3
# Si number density = 25.419715 Si / 1000 Ang^3
#
#
#
# Elastic Constant Matrix: (Units=GPa)
#
#
# Indices 1 2 3 4 5 6 
#
# 1 124.8407 -0.8341 35.9158 0.0000 0.0000 0.0000
# 2 -0.8341 30.6130 0.8206 0.0000 0.0000 0.0000
# 3 35.9158 0.8206 76.7496 0.0000 0.0000 0.0000
# 4 0.0000 0.0000 0.0000 28.0010 0.0000 0.0000
# 5 0.0000 0.0000 0.0000 0.0000 16.7347 0.0000
# 6 0.0000 0.0000 0.0000 0.0000 0.0000 33.1614
#
#
#
# Elastic Compliance Matrix: (Units=1/GPa)
#
#
# Indices 1 2 3 4 5 6 
#
# 1 0.009261 0.000369 -0.004338 0.000000 0.000000 0.000000
# 2 0.000369 0.032690 -0.000522 0.000000 0.000000 0.000000
# 3 -0.004338 -0.000522 0.015065 0.000000 0.000000 0.000000
# 4 0.000000 0.000000 0.000000 0.035713 0.000000 0.000000
# 5 0.000000 0.000000 0.000000 0.000000 0.059756 0.000000
# 6 0.000000 0.000000 0.000000 0.000000 0.000000 0.030156
#
#
# Mechanical properties :
#
#
# Convention : Reuss Voigt Hill
#
# Bulk Modulus (GPa) = 20.81888 33.77866 27.29877
# Shear Modulus (GPa) = 24.08099 28.66616 26.37357
#
# Velocity S-wave (km/s) = 3.08122 3.36179 3.22456
# Velocity P-wave (km/s) = 4.56797 5.32786 4.96248
#
# Compressibility (1/GPa) = 0.04803332
#
# Stress axis : x y z
#
# Youngs Moduli (GPa) = 107.98500 30.59050 66.38013
#
# Poissons Ratio (x) = -0.01127 0.28792
# Poissons Ratio (y) = -0.03980 0.03465
# Poissons Ratio (z) = 0.46839 0.01597
#
# Static dielectric constant tensor:
#      x y z
#    x 4.272830 0.000000 0.000000 
#    y 0.000000 4.445650 0.000000 
#    z 0.000000 0.000000 4.945950 
# 
# 
# High freq. dielectric constant tensor:
#      x y z
#    x 2.007530 0.000000 0.000000 
#    y 0.000000 1.997240 0.000000 
#    z 0.000000 0.000000 2.038740 
# 
# From -- ./inp_files/19490.got.cif
#   From: 2010.06.25/outbox.cif.g09.slc.cpg/sg58_10_cif.got.tgz:19490.got - 2010.06.26 21:38:00.
