data_PCOD8237017
_publ_section_title
;
Structure prediction by ZEFSAII (Michael W. Deem and Ramdas Pophale) SiO2 
 PCOD8237017
Probable space group: P N N M
;
_chemical_formula_sum "Si O2"
_cell_formula_units_Z 64
_cell_length_a 13.052219
_cell_length_b 8.986222
_cell_length_c 28.510627
_cell_angle_alpha 90.000000
_cell_angle_beta 90.000000
_cell_angle_gamma 90.000000
_cell_volume 3344.015362
_symmetry_space_group_name_H-M "P N N M"
_symmetry_group_IT_number 58
_symmetry_cell_setting 'orthorhombic'
loop_
_space_group_symop_operation_xyz
x,y,z
-x,-y,z
1/2+x,1/2-y,1/2-z
1/2-x,1/2+y,1/2-z
-x,-y,-z
x,y,-z
1/2-x,1/2+y,1/2+z
1/2+x,1/2-y,1/2+z
loop_
_atom_site_type_symbol
_atom_site_label
_atom_site_fract_x
_atom_site_fract_y
_atom_site_fract_z
Si Si1 0.283491 0.343351 0.394595
Si Si2 0.398253 0.690034 0.945615
Si Si3 0.714367 0.657015 0.716743
Si Si4 0.965632 0.345239 0.208624
Si Si5 0.477949 0.159267 0.398096
Si Si6 0.871031 0.153948 0.445559
Si Si7 0.692523 0.316950 0.609434
Si Si8 0.660023 0.327104 0.714830
O O1 0.174974 0.296723 0.416053
O O2 0.271522 0.329889 0.338705
O O3 0.377593 0.247610 0.417167
O O4 0.305370 0.513547 0.407752
O O5 0.517027 0.718555 0.931427
O O6 0.368275 0.520768 0.934995
O O7 0.382878 0.727171 0.000000
O O8 0.634714 0.783670 0.734257
O O9 0.678106 0.493963 0.732650
O O10 0.812990 0.701859 0.746536
O O11 0.944219 0.381372 0.154525
O O12 0.000000 0.500000 0.233538
O O13 0.040456 0.203236 0.208728
O O14 0.579945 0.257123 0.403540
O O15 0.500000 0.000000 0.423934
O O16 0.850029 0.185728 0.500000
O O17 0.781960 0.227463 0.415682
O O18 0.715428 0.300993 0.664924
#
# Coordination Sequence:
#
# PCOD8237017 Si02
#       8
#     8   8   8   8   8   8   8   8
#     4  10  20  34  54  81 110 139 176 224 273 322
#     4   9  19  37  59  81 107 142 183 224 268 324
#     4  10  20  34  51  74 104 140 178 218 264 317
#     4   9  17  31  51  72  96 131 172 214 260 314
#     4   9  17  31  54  78 103 139 175 211 259 318
#     4   9  19  37  59  81 107 142 183 224 268 324
#     4  10  20  34  54  81 110 139 176 224 273 322
#     4  10  20  34  51  74 104 140 178 218 264 317
#
# _framework density 19.138667999999999
#
# number of rings (size 3 to 8) (size 9 to 14) (size 15 to 20)
#    0.000    2.500    0.000    3.000    0.000    7.000 
#    2.250    1.875    0.000    3.750    0.000    0.000 
#    0.000    0.000    0.000    0.000    0.000    0.000 
#
# Total GULP energy -793155.598841 kJ/mol
# GULP energy per Si atom -12393.056232 kJ/mol
# Density = 1.909511 g / cm^3
# Si number density = 19.138668 Si / 1000 Ang^3
#
#
#
# Elastic Constant Matrix: (Units=GPa)
#
#
# Indices 1 2 3 4 5 6 
#
# 1 82.0611 22.3218 22.8731 0.0000 0.0000 0.0000
# 2 22.3218 82.6497 20.7432 0.0000 0.0000 0.0000
# 3 22.8731 20.7432 32.0448 0.0000 0.0000 0.0000
# 4 0.0000 0.0000 0.0000 21.3027 0.0000 0.0000
# 5 0.0000 0.0000 0.0000 0.0000 19.2654 0.0000
# 6 0.0000 0.0000 0.0000 0.0000 0.0000 34.7111
#
#
#
# Elastic Compliance Matrix: (Units=1/GPa)
#
#
# Indices 1 2 3 4 5 6 
#
# 1 0.015404 -0.001672 -0.009912 0.000000 0.000000 0.000000
# 2 -0.001672 0.014628 -0.008275 0.000000 0.000000 0.000000
# 3 -0.009912 -0.008275 0.043638 0.000000 0.000000 0.000000
# 4 0.000000 0.000000 0.000000 0.046942 0.000000 0.000000
# 5 0.000000 0.000000 0.000000 0.000000 0.051907 0.000000
# 6 0.000000 0.000000 0.000000 0.000000 0.000000 0.028809
#
#
# Mechanical properties :
#
#
# Convention : Reuss Voigt Hill
#
# Bulk Modulus (GPa) = 29.45506 36.51464 32.98485
# Shear Modulus (GPa) = 19.81259 23.77702 21.79480
#
# Velocity S-wave (km/s) = 3.22096 3.52853 3.37825
# Velocity P-wave (km/s) = 5.40893 5.97671 5.69990
#
# Compressibility (1/GPa) = 0.03395003
#
# Stress axis : x y z
#
# Youngs Moduli (GPa) = 64.91864 68.36297 22.91562
#
# Poissons Ratio (x) = 0.11433 0.22715
# Poissons Ratio (y) = 0.10857 0.18963
# Poissons Ratio (z) = 0.64351 0.56571
#
# Static dielectric constant tensor:
#      x y z
#    x 3.514030 0.000000 0.000000 
#    y 0.000000 3.674980 0.000000 
#    z 0.000000 0.000000 3.168370 
# 
# 
# High freq. dielectric constant tensor:
#      x y z
#    x 1.750600 0.000000 0.000000 
#    y 0.000000 1.758980 0.000000 
#    z 0.000000 0.000000 1.706010 
# 
# From -- ./inp_files/34934.got.cif
#   From: 2010.06.25/outbox.cif.g09.slc.cpg/sg58_18_cif.got.tgz:34934.got - 2010.06.26 21:38:00.
