data_PCOD8237329
_publ_section_title
;
Structure prediction by ZEFSAII (Michael W. Deem and Ramdas Pophale) SiO2 
 PCOD8237329
Probable space group: P N N M
;
_chemical_formula_sum "Si O2"
_cell_formula_units_Z 64
_cell_length_a 12.709770
_cell_length_b 27.798456
_cell_length_c 9.133292
_cell_angle_alpha 90.000000
_cell_angle_beta 90.000000
_cell_angle_gamma 90.000000
_cell_volume 3226.901500
_symmetry_space_group_name_H-M "P N N M"
_symmetry_group_IT_number 58
_symmetry_cell_setting 'orthorhombic'
loop_
_space_group_symop_operation_xyz
x,y,z
-x,-y,z
1/2+x,1/2-y,1/2-z
1/2-x,1/2+y,1/2-z
-x,-y,-z
x,y,-z
1/2-x,1/2+y,1/2+z
1/2+x,1/2-y,1/2+z
loop_
_atom_site_type_symbol
_atom_site_label
_atom_site_fract_x
_atom_site_fract_y
_atom_site_fract_z
Si Si1 0.856954 0.860307 0.833979
Si Si2 0.755621 0.704407 0.831416
Si Si3 0.967320 0.654277 0.826987
Si Si4 0.438708 0.365114 0.833129
Si Si5 0.685941 0.800340 0.674062
Si Si6 0.244883 0.041595 0.165578
Si Si7 0.394103 0.471987 0.830468
Si Si8 0.455794 0.051682 0.326781
O O1 0.764845 0.839607 0.735473
O O2 0.845980 0.917950 0.828782
O O3 0.968925 0.844192 0.768358
O O4 0.849103 0.840681 0.000000
O O5 0.862221 0.680287 0.766094
O O6 0.664151 0.666114 0.816764
O O7 0.721046 0.749158 0.734971
O O8 0.771450 0.720499 0.000000
O O9 0.068808 0.684624 0.772342
O O10 0.972283 0.597677 0.778871
O O11 0.962204 0.655518 0.000000
O O12 0.407793 0.417750 0.778285
O O13 0.480189 0.366668 0.000000
O O14 0.692604 0.799554 0.500000
O O15 0.344381 0.061017 0.253156
O O16 0.201991 0.993234 0.238492
O O17 0.278581 0.030204 0.000000
O O18 0.500000 0.500000 0.795296
O O19 0.362631 0.475656 0.000000
O O20 0.439794 0.051169 0.500000
O O21 0.500000 0.000000 0.272388
#
# Coordination Sequence:
#
# PCOD8237329 Si02
#       8
#     8   8   8   8   8   8   8   8
#     4  11  23  39  61  88 122 161 203 251 307 364
#     4  10  23  42  63  90 124 158 197 252 313 364
#     4   9  20  40  63  90 123 156 195 251 305 360
#     4  10  22  39  62  91 123 160 206 257 304 359
#     4  11  23  41  65  90 118 156 204 251 305 366
#     4  11  23  37  56  86 124 162 199 247 305 361
#     4  10  20  35  58  86 120 160 201 246 293 351
#     4  10  21  38  65  91 115 157 208 250 297 365
#
# _framework density 19.833269000000001
#
# number of rings (size 3 to 8) (size 9 to 14) (size 15 to 20)
#    0.000    1.750    2.500    1.125    3.500    2.500 
#    0.000    1.250    0.000    0.000    0.000    0.000 
#    0.000    0.000    0.000    0.000    0.000    0.000 
#
# Total GULP energy -793629.212838 kJ/mol
# GULP energy per Si atom -12400.456451 kJ/mol
# Density = 1.978813 g / cm^3
# Si number density = 19.833269 Si / 1000 Ang^3
#
#
#
# Elastic Constant Matrix: (Units=GPa)
#
#
# Indices 1 2 3 4 5 6 
#
# 1 117.2236 47.3971 41.8232 0.0000 0.0000 0.0000
# 2 47.3971 111.3903 38.4199 0.0000 0.0000 0.0000
# 3 41.8232 38.4199 67.6966 0.0000 0.0000 0.0000
# 4 0.0000 0.0000 0.0000 43.6711 0.0000 0.0000
# 5 0.0000 0.0000 0.0000 0.0000 39.0110 0.0000
# 6 0.0000 0.0000 0.0000 0.0000 0.0000 31.7259
#
#
#
# Elastic Compliance Matrix: (Units=1/GPa)
#
#
# Indices 1 2 3 4 5 6 
#
# 1 0.011746 -0.003102 -0.005496 0.000000 0.000000 0.000000
# 2 -0.003102 0.011982 -0.004883 0.000000 0.000000 0.000000
# 3 -0.005496 -0.004883 0.020939 0.000000 0.000000 0.000000
# 4 0.000000 0.000000 0.000000 0.022898 0.000000 0.000000
# 5 0.000000 0.000000 0.000000 0.000000 0.025634 0.000000
# 6 0.000000 0.000000 0.000000 0.000000 0.000000 0.031520
#
#
# Mechanical properties :
#
#
# Convention : Reuss Voigt Hill
#
# Bulk Modulus (GPa) = 56.48764 61.28787 58.88776
# Shear Modulus (GPa) = 31.72924 34.12628 32.92776
#
# Velocity S-wave (km/s) = 4.00409 4.15258 4.07901
# Velocity P-wave (km/s) = 7.06541 7.34578 7.20696
#
# Compressibility (1/GPa) = 0.01770299
#
# Stress axis : x y z
#
# Youngs Moduli (GPa) = 85.13580 83.45959 47.75833
#
# Poissons Ratio (x) = 0.25892 0.26248
# Poissons Ratio (y) = 0.26412 0.23323
# Poissons Ratio (z) = 0.46791 0.40757
#
# Static dielectric constant tensor:
#      x y z
#    x 3.664240 0.000000 0.000000 
#    y 0.000000 4.141980 0.000000 
#    z 0.000000 0.000000 3.485480 
# 
# 
# High freq. dielectric constant tensor:
#      x y z
#    x 1.777570 0.000000 0.000000 
#    y 0.000000 1.782120 0.000000 
#    z 0.000000 0.000000 1.755780 
# 
# From -- ./inp_files/4828.got.cif
#   From: 2010.06.25/outbox.cif.g09.slc.cpg/sg58_3_cif.got.tgz:4828.got - 2010.06.26 21:38:00.
