data_PCOD8237449
_publ_section_title
;
Structure prediction by ZEFSAII (Michael W. Deem and Ramdas Pophale) SiO2 
 PCOD8237449
Probable space group: P N N M
;
_chemical_formula_sum "Si O2"
_cell_formula_units_Z 48
_cell_length_a 15.113934
_cell_length_b 18.868446
_cell_length_c 8.599269
_cell_angle_alpha 90.000000
_cell_angle_beta 90.000000
_cell_angle_gamma 90.000000
_cell_volume 2452.308985
_symmetry_space_group_name_H-M "P N N M"
_symmetry_group_IT_number 58
_symmetry_cell_setting 'orthorhombic'
loop_
_space_group_symop_operation_xyz
x,y,z
-x,-y,z
1/2+x,1/2-y,1/2-z
1/2-x,1/2+y,1/2-z
-x,-y,-z
x,y,-z
1/2-x,1/2+y,1/2+z
1/2+x,1/2-y,1/2+z
loop_
_atom_site_type_symbol
_atom_site_label
_atom_site_fract_x
_atom_site_fract_y
_atom_site_fract_z
Si Si1 0.339447 0.673995 0.318243
Si Si2 0.340446 0.329318 0.819248
Si Si3 0.345727 0.823486 0.180762
Si Si4 0.993879 0.082461 0.180535
Si Si5 0.492153 0.918832 0.318759
Si Si6 0.347029 0.180309 0.680959
O O1 0.319022 0.670120 0.500000
O O2 0.371687 0.752980 0.275883
O O3 0.414392 0.618536 0.268312
O O4 0.250433 0.653441 0.226830
O O5 0.252451 0.349339 0.724391
O O6 0.415056 0.386364 0.782272
O O7 0.373995 0.250925 0.774106
O O8 0.317331 0.331256 0.000000
O O9 0.413357 0.885563 0.220021
O O10 0.349535 0.805058 0.000000
O O11 0.974165 0.097598 0.000000
O O12 0.000000 0.000000 0.217685
O O13 0.469237 0.911113 0.500000
O O14 0.584210 0.881062 0.276392
O O15 0.500000 0.000000 0.268070
O O16 0.349100 0.199274 0.500000
#
# Coordination Sequence:
#
# PCOD8237449 Si02
#       6
#     8   8   8   8   8   8
#     4  10  20  36  59  83 110 144 184 230 277 327
#     4  11  22  37  59  84 111 144 186 232 276 327
#     4  11  22  37  59  84 111 144 186 232 276 327
#     4  10  22  39  57  81 115 151 184 224 277 331
#     4  10  22  39  57  81 115 151 184 224 277 331
#     4  10  20  36  59  83 110 144 184 230 277 327
#
# _framework density 19.573391000000001
#
# number of rings (size 3 to 8) (size 9 to 14) (size 15 to 20)
#    0.000    1.667    0.000    7.000    0.000    8.667 
#    0.000    3.333    0.000    0.000    0.000    0.000 
#    0.000    0.000    0.000    0.000    0.000    0.000 
#
# Total GULP energy -595481.508099 kJ/mol
# GULP energy per Si atom -12405.864752 kJ/mol
# Density = 1.952884 g / cm^3
# Si number density = 19.573391 Si / 1000 Ang^3
#
#
#
# Elastic Constant Matrix: (Units=GPa)
#
#
# Indices 1 2 3 4 5 6 
#
# 1 112.8515 77.9514 28.2242 0.0000 0.0000 0.0000
# 2 77.9514 115.6400 21.9116 0.0000 0.0000 0.0000
# 3 28.2242 21.9116 53.5431 0.0000 0.0000 0.0000
# 4 0.0000 0.0000 0.0000 10.0836 0.0000 0.0000
# 5 0.0000 0.0000 0.0000 0.0000 33.6868 0.0000
# 6 0.0000 0.0000 0.0000 0.0000 0.0000 9.1779
#
#
#
# Elastic Compliance Matrix: (Units=1/GPa)
#
#
# Indices 1 2 3 4 5 6 
#
# 1 0.017655 -0.010990 -0.004809 0.000000 0.000000 0.000000
# 2 -0.010990 0.016215 -0.000843 0.000000 0.000000 0.000000
# 3 -0.004809 -0.000843 0.021556 0.000000 0.000000 0.000000
# 4 0.000000 0.000000 0.000000 0.099171 0.000000 0.000000
# 5 0.000000 0.000000 0.000000 0.000000 0.029685 0.000000
# 6 0.000000 0.000000 0.000000 0.000000 0.000000 0.108957
#
#
# Mechanical properties :
#
#
# Convention : Reuss Voigt Hill
#
# Bulk Modulus (GPa) = 45.16016 59.80099 52.48058
# Shear Modulus (GPa) = 14.97432 20.85282 17.91357
#
# Velocity S-wave (km/s) = 2.76893 3.26754 3.02851
# Velocity P-wave (km/s) = 5.77451 6.69733 6.25297
#
# Compressibility (1/GPa) = 0.02214341
#
# Stress axis : x y z
#
# Youngs Moduli (GPa) = 56.64079 61.67007 46.38979
#
# Poissons Ratio (x) = 0.67774 0.22310
# Poissons Ratio (y) = 0.62247 0.03910
# Poissons Ratio (z) = 0.27239 0.05197
#
# Static dielectric constant tensor:
#      x y z
#    x 3.639970 0.000000 0.000000 
#    y 0.000000 3.507500 0.000000 
#    z 0.000000 0.000000 3.583620 
# 
# 
# High freq. dielectric constant tensor:
#      x y z
#    x 1.773300 0.000000 0.000000 
#    y 0.000000 1.755980 0.000000 
#    z 0.000000 0.000000 1.767330 
# 
# From -- ./inp_files/5800.got.cif
#   From: 2010.06.25/outbox.cif.g09.slc.cpg/sg58_3_cif.got.tgz:5800.got - 2010.06.26 21:38:00.
