data_PCOD8237996
_publ_section_title
;
Structure prediction by ZEFSAII (Michael W. Deem and Ramdas Pophale) SiO2 
 PCOD8237996
Probable space group: P N N M
;
_chemical_formula_sum "Si O2"
_cell_formula_units_Z 64
_cell_length_a 22.278385
_cell_length_b 16.702831
_cell_length_c 8.897483
_cell_angle_alpha 90.000000
_cell_angle_beta 90.000000
_cell_angle_gamma 90.000000
_cell_volume 3310.861080
_symmetry_space_group_name_H-M "P N N M"
_symmetry_group_IT_number 58
_symmetry_cell_setting 'orthorhombic'
loop_
_space_group_symop_operation_xyz
x,y,z
-x,-y,z
1/2+x,1/2-y,1/2-z
1/2-x,1/2+y,1/2-z
-x,-y,-z
x,y,-z
1/2-x,1/2+y,1/2+z
1/2+x,1/2-y,1/2+z
loop_
_atom_site_type_symbol
_atom_site_label
_atom_site_fract_x
_atom_site_fract_y
_atom_site_fract_z
Si Si1 0.356519 0.353724 0.322407
Si Si2 0.122828 0.675233 0.176525
Si Si3 0.000914 0.408986 0.823581
Si Si4 0.356837 0.644411 0.823176
Si Si5 0.569207 0.495897 0.322613
Si Si6 0.264544 0.093907 0.822229
Si Si7 0.769803 0.588488 0.321391
Si Si8 0.112646 0.323637 0.323253
O O1 0.354850 0.361107 0.500000
O O2 0.382331 0.267886 0.273845
O O3 0.399762 0.423398 0.260102
O O4 0.289076 0.365664 0.258914
O O5 0.174705 0.635828 0.273037
O O6 0.061397 0.632229 0.220803
O O7 0.137509 0.666794 0.000000
O O8 0.053456 0.359932 0.747454
O O9 0.000000 0.500000 0.763557
O O10 0.012241 0.406967 0.000000
O O11 0.401918 0.579720 0.757326
O O12 0.291057 0.638476 0.752929
O O13 0.383705 0.730612 0.780889
O O14 0.350634 0.632928 0.000000
O O15 0.500000 0.500000 0.277953
O O16 0.578655 0.485645 0.500000
O O17 0.266841 0.002628 0.765225
O O18 0.257049 0.098421 0.000000
O O19 0.771212 0.592590 0.500000
O O20 0.829030 0.631071 0.255651
O O21 0.109435 0.336919 0.500000
#
# Coordination Sequence:
#
# PCOD8237996 Si02
#       8
#     8   8   8   8   8   8   8   8
#     4   9  17  34  57  82 110 146 190 233 278 341
#     4  10  21  36  58  83 114 153 190 232 289 349
#     4  10  22  39  58  86 122 154 188 238 295 343
#     4  11  23  39  59  86 121 156 192 241 300 350
#     4  10  21  37  62  89 115 152 198 239 284 349
#     4  11  21  36  60  87 115 149 194 244 288 339
#     4   9  17  33  57  81 107 142 189 239 280 329
#     4  10  22  38  59  84 112 154 200 238 283 346
#
# _framework density 19.330318999999999
#
# number of rings (size 3 to 8) (size 9 to 14) (size 15 to 20)
#    0.000    2.000    1.250    2.250    1.750    4.000 
#    0.000    1.250    0.000    0.000    0.000    0.000 
#    0.000    0.000    0.000    0.000    0.000    0.000 
#
# Total GULP energy -793757.674736 kJ/mol
# GULP energy per Si atom -12402.463668 kJ/mol
# Density = 1.928632 g / cm^3
# Si number density = 19.330319 Si / 1000 Ang^3
#
#
#
# Elastic Constant Matrix: (Units=GPa)
#
#
# Indices 1 2 3 4 5 6 
#
# 1 159.9721 95.7756 35.0432 0.0000 0.0000 0.0000
# 2 95.7756 161.3783 35.1873 0.0000 0.0000 0.0000
# 3 35.0432 35.1873 27.1032 0.0000 0.0000 0.0000
# 4 0.0000 0.0000 0.0000 25.9240 0.0000 0.0000
# 5 0.0000 0.0000 0.0000 0.0000 27.6535 0.0000
# 6 0.0000 0.0000 0.0000 0.0000 0.0000 36.7825
#
#
#
# Elastic Compliance Matrix: (Units=1/GPa)
#
#
# Indices 1 2 3 4 5 6 
#
# 1 0.010775 -0.004682 -0.007852 0.000000 0.000000 0.000000
# 2 -0.004682 0.010678 -0.007809 0.000000 0.000000 0.000000
# 3 -0.007852 -0.007809 0.057186 0.000000 0.000000 0.000000
# 4 0.000000 0.000000 0.000000 0.038574 0.000000 0.000000
# 5 0.000000 0.000000 0.000000 0.000000 0.036162 0.000000
# 6 0.000000 0.000000 0.000000 0.000000 0.000000 0.027187
#
#
# Mechanical properties :
#
#
# Convention : Reuss Voigt Hill
#
# Bulk Modulus (GPa) = 26.34885 75.60731 50.97808
# Shear Modulus (GPa) = 21.37670 30.23517 25.80593
#
# Velocity S-wave (km/s) = 3.32906 3.95920 3.65773
# Velocity P-wave (km/s) = 5.33266 7.75233 6.65342
#
# Compressibility (1/GPa) = 0.03795233
#
# Stress axis : x y z
#
# Youngs Moduli (GPa) = 92.81163 93.64773 17.48671
#
# Poissons Ratio (x) = 0.43850 0.13730
# Poissons Ratio (y) = 0.43459 0.13656
# Poissons Ratio (z) = 0.72874 0.73130
#
# Static dielectric constant tensor:
#      x y z
#    x 3.753050 0.000000 0.000000 
#    y 0.000000 3.951950 0.000000 
#    z 0.000000 0.000000 3.224250 
# 
# 
# High freq. dielectric constant tensor:
#      x y z
#    x 1.767770 0.000000 0.000000 
#    y 0.000000 1.771050 0.000000 
#    z 0.000000 0.000000 1.720830 
# 
# From -- ./inp_files/10104.got.cif
#   From: 2010.06.25/outbox.cif.g09.slc.cpg/sg58_6_cif.got.tgz:10104.got - 2010.06.26 21:38:00.
