data_PCOD8237138
_publ_section_title
;
Structure prediction by ZEFSAII (Michael W. Deem and Ramdas Pophale) SiO2 
 PCOD8237138
Probable space group: P N N M
;
_chemical_formula_sum "Si O2"
_cell_formula_units_Z 64
_cell_length_a 20.350248
_cell_length_b 17.743393
_cell_length_c 9.074027
_cell_angle_alpha 90.000000
_cell_angle_beta 90.000000
_cell_angle_gamma 90.000000
_cell_volume 3276.471882
_symmetry_space_group_name_H-M "P N N M"
_symmetry_group_IT_number 58
_symmetry_cell_setting 'orthorhombic'
loop_
_space_group_symop_operation_xyz
x,y,z
-x,-y,z
1/2+x,1/2-y,1/2-z
1/2-x,1/2+y,1/2-z
-x,-y,-z
x,y,-z
1/2-x,1/2+y,1/2+z
1/2+x,1/2-y,1/2+z
loop_
_atom_site_type_symbol
_atom_site_label
_atom_site_fract_x
_atom_site_fract_y
_atom_site_fract_z
Si Si1 0.257736 0.829580 0.175082
Si Si2 0.999854 0.667897 0.671317
Si Si3 0.008565 0.177864 0.825600
Si Si4 0.624005 0.064871 0.170956
Si Si5 0.123644 0.901133 0.824615
Si Si6 0.762004 0.839270 0.330962
Si Si7 0.872956 0.929014 0.826001
Si Si8 0.880413 0.407546 0.830719
O O1 0.318112 0.880830 0.228185
O O2 0.189844 0.863276 0.239126
O O3 0.268844 0.745075 0.234521
O O4 0.253514 0.827030 0.000000
O O5 0.011404 0.683259 0.500000
O O6 0.974922 0.744195 0.746333
O O7 0.067052 0.640880 0.742576
O O8 0.945559 0.604157 0.696764
O O9 0.938691 0.146548 0.768871
O O10 0.063991 0.118706 0.776768
O O11 0.008334 0.191023 0.000000
O O12 0.626481 0.990486 0.266827
O O13 0.634202 0.043803 0.000000
O O14 0.118148 0.986367 0.764918
O O15 0.124373 0.901960 0.000000
O O16 0.785172 0.842102 0.500000
O O17 0.806584 0.895257 0.238579
O O18 0.687238 0.863746 0.314188
O O19 0.865174 0.929595 0.000000
O O20 0.902626 0.413115 0.000000
#
# Coordination Sequence:
#
# PCOD8237138 Si02
#       8
#     8   8   8   8   8   8   8   8
#     4   9  17  32  55  78 104 143 185 222 265 323
#     4  11  23  38  57  81 111 148 187 228 276 332
#     4  10  20  35  56  83 114 146 184 230 275 322
#     4  10  21  37  57  81 109 143 183 225 272 329
#     4   9  17  32  55  81 109 143 183 224 268 320
#     4  10  21  37  56  80 111 146 183 226 279 333
#     4  10  20  34  56  84 111 144 186 230 273 323
#     4  11  23  38  58  83 111 144 183 230 280 328
#
# _framework density 19.533206
#
# number of rings (size 3 to 8) (size 9 to 14) (size 15 to 20)
#    0.000    2.000    0.000    3.750    0.000    9.500 
#    0.000    1.250    0.000    4.500    0.000    0.000 
#    0.000    0.000    0.000    0.000    0.000    0.000 
#
# Total GULP energy -793849.509284 kJ/mol
# GULP energy per Si atom -12403.898583 kJ/mol
# Density = 1.948875 g / cm^3
# Si number density = 19.533206 Si / 1000 Ang^3
#
#
#
# Elastic Constant Matrix: (Units=GPa)
#
#
# Indices 1 2 3 4 5 6 
#
# 1 66.4718 -0.1817 17.3106 0.0000 0.0000 0.0000
# 2 -0.1817 101.1998 25.6023 0.0000 0.0000 0.0000
# 3 17.3106 25.6023 34.5134 0.0000 0.0000 0.0000
# 4 0.0000 0.0000 0.0000 29.5251 0.0000 0.0000
# 5 0.0000 0.0000 0.0000 0.0000 18.9539 0.0000
# 6 0.0000 0.0000 0.0000 0.0000 0.0000 30.5955
#
#
#
# Elastic Compliance Matrix: (Units=1/GPa)
#
#
# Indices 1 2 3 4 5 6 
#
# 1 0.017945 0.002843 -0.011109 0.000000 0.000000 0.000000
# 2 0.002843 0.012615 -0.010783 0.000000 0.000000 0.000000
# 3 -0.011109 -0.010783 0.042545 0.000000 0.000000 0.000000
# 4 0.000000 0.000000 0.000000 0.033869 0.000000 0.000000
# 5 0.000000 0.000000 0.000000 0.000000 0.052760 0.000000
# 6 0.000000 0.000000 0.000000 0.000000 0.000000 0.032685
#
#
# Mechanical properties :
#
#
# Convention : Reuss Voigt Hill
#
# Bulk Modulus (GPa) = 28.56728 31.96082 30.26405
# Shear Modulus (GPa) = 20.64526 26.44516 23.54521
#
# Velocity S-wave (km/s) = 3.25458 3.68347 3.47565
# Velocity P-wave (km/s) = 5.36468 5.87269 5.62442
#
# Compressibility (1/GPa) = 0.03500508
#
# Stress axis : x y z
#
# Youngs Moduli (GPa) = 55.72650 79.27309 23.50433
#
# Poissons Ratio (x) = -0.22535 0.26111
# Poissons Ratio (y) = -0.15841 0.25346
# Poissons Ratio (z) = 0.61907 0.85483
#
# Static dielectric constant tensor:
#      x y z
#    x 3.718940 0.000000 0.000000 
#    y 0.000000 3.802730 0.000000 
#    z 0.000000 0.000000 3.297900 
# 
# 
# High freq. dielectric constant tensor:
#      x y z
#    x 1.777460 0.000000 0.000000 
#    y 0.000000 1.779840 0.000000 
#    z 0.000000 0.000000 1.727820 
# 
# From -- ./inp_files/9298.got.cif
#   From: 2010.06.25/outbox.cif.g09.slc.cpg/sg58_5_cif.got.tgz:9298.got - 2010.06.26 21:38:00.
