data_PCOD8237122
_publ_section_title
;
Structure prediction by ZEFSAII (Michael W. Deem and Ramdas Pophale) SiO2 
 PCOD8237122
Probable space group: P N N M
;
_chemical_formula_sum "Si O2"
_cell_formula_units_Z 64
_cell_length_a 14.523782
_cell_length_b 24.323375
_cell_length_c 9.144604
_cell_angle_alpha 90.000000
_cell_angle_beta 90.000000
_cell_angle_gamma 90.000000
_cell_volume 3230.490443
_symmetry_space_group_name_H-M "P N N M"
_symmetry_group_IT_number 58
_symmetry_cell_setting 'orthorhombic'
loop_
_space_group_symop_operation_xyz
x,y,z
-x,-y,z
1/2+x,1/2-y,1/2-z
1/2-x,1/2+y,1/2-z
-x,-y,-z
x,y,-z
1/2-x,1/2+y,1/2+z
1/2+x,1/2-y,1/2+z
loop_
_atom_site_type_symbol
_atom_site_label
_atom_site_fract_x
_atom_site_fract_y
_atom_site_fract_z
Si Si1 0.551768 0.354798 0.670771
Si Si2 0.552486 0.053419 0.827571
Si Si3 0.234160 0.171737 0.671031
Si Si4 0.242659 0.914795 0.173946
Si Si5 0.061478 0.947371 0.326930
Si Si6 0.039039 0.266799 0.160201
Si Si7 0.573682 0.867537 0.661218
Si Si8 0.287706 0.794490 0.170860
O O1 0.549002 0.371481 0.500000
O O2 0.655872 0.354354 0.728412
O O3 0.490810 0.394997 0.765588
O O4 0.508907 0.294774 0.701666
O O5 0.658522 0.059674 0.775043
O O6 0.491368 0.104459 0.778096
O O7 0.500000 0.000000 0.762618
O O8 0.551500 0.052051 0.000000
O O9 0.205896 0.169818 0.500000
O O10 0.319218 0.131164 0.704048
O O11 0.256709 0.235544 0.715920
O O12 0.162836 0.949781 0.253696
O O13 0.235887 0.850239 0.225055
O O14 0.229362 0.920564 0.000000
O O15 0.073846 0.942736 0.500000
O O16 0.000000 0.000000 0.283794
O O17 0.947105 0.302543 0.156712
O O18 0.108698 0.295215 0.271018
O O19 0.087007 0.265264 0.000000
O O20 0.557430 0.893665 0.500000
O O21 0.295928 0.800842 0.000000
#
# Coordination Sequence:
#
# PCOD8237122 Si02
#       8
#     8   8   8   8   8   8   8   8
#     4  10  21  38  61  87 117 153 196 246 297 352
#     4  10  22  40  60  86 120 155 195 244 290 340
#     4   9  19  34  55  85 125 164 196 236 291 351
#     4  10  21  38  62  89 116 153 197 243 297 352
#     4  11  26  45  63  85 115 153 200 253 302 354
#     4   9  18  32  54  84 120 153 188 237 288 343
#     4  10  20  34  55  84 119 158 194 234 286 346
#     4   9  17  32  56  83 116 156 195 235 286 346
#
# _framework density 19.811233999999999
#
# number of rings (size 3 to 8) (size 9 to 14) (size 15 to 20)
#    0.000    2.250    1.250    0.750    1.750    4.250 
#    0.000    2.500    0.000    0.000    0.000    0.000 
#    0.000    0.000    0.000    0.000    0.000    0.000 
#
# Total GULP energy -793136.524769 kJ/mol
# GULP energy per Si atom -12392.758200 kJ/mol
# Density = 1.976614 g / cm^3
# Si number density = 19.811234 Si / 1000 Ang^3
#
#
#
# Elastic Constant Matrix: (Units=GPa)
#
#
# Indices 1 2 3 4 5 6 
#
# 1 114.8376 60.2395 33.8007 0.0000 0.0000 0.0000
# 2 60.2395 87.9988 31.1939 0.0000 0.0000 0.0000
# 3 33.8007 31.1939 23.4940 0.0000 0.0000 0.0000
# 4 0.0000 0.0000 0.0000 25.2641 0.0000 0.0000
# 5 0.0000 0.0000 0.0000 0.0000 27.4859 0.0000
# 6 0.0000 0.0000 0.0000 0.0000 0.0000 28.1593
#
#
#
# Elastic Compliance Matrix: (Units=1/GPa)
#
#
# Indices 1 2 3 4 5 6 
#
# 1 0.016355 -0.005393 -0.016369 0.000000 0.000000 0.000000
# 2 -0.005393 0.023246 -0.023105 0.000000 0.000000 0.000000
# 3 -0.016369 -0.023105 0.096792 0.000000 0.000000 0.000000
# 4 0.000000 0.000000 0.000000 0.039582 0.000000 0.000000
# 5 0.000000 0.000000 0.000000 0.000000 0.036382 0.000000
# 6 0.000000 0.000000 0.000000 0.000000 0.000000 0.035512
#
#
# Mechanical properties :
#
#
# Convention : Reuss Voigt Hill
#
# Bulk Modulus (GPa) = 21.43275 52.97761 37.20518
# Shear Modulus (GPa) = 14.15800 22.92162 18.53981
#
# Velocity S-wave (km/s) = 2.67618 3.40516 3.06244
# Velocity P-wave (km/s) = 4.51567 6.50072 5.59690
#
# Compressibility (1/GPa) = 0.04665756
#
# Stress axis : x y z
#
# Youngs Moduli (GPa) = 61.14327 43.01769 10.33146
#
# Poissons Ratio (x) = 0.23201 0.16911
# Poissons Ratio (y) = 0.32977 0.23871
# Poissons Ratio (z) = 1.00085 0.99394
#
# Static dielectric constant tensor:
#      x y z
#    x 3.653170 0.000000 0.000000 
#    y 0.000000 3.749920 0.000000 
#    z 0.000000 0.000000 3.539120 
# 
# 
# High freq. dielectric constant tensor:
#      x y z
#    x 1.770860 0.000000 0.000000 
#    y 0.000000 1.770830 0.000000 
#    z 0.000000 0.000000 1.763330 
# 
# From -- ./inp_files/6969.got.cif
#   From: 2010.06.25/outbox.cif.g09.slc.cpg/sg58_4_cif.got.tgz:6969.got - 2010.06.26 21:38:00.
