data_PCOD8237805
_publ_section_title
;
Structure prediction by ZEFSAII (Michael W. Deem and Ramdas Pophale) SiO2 
 PCOD8237805
Probable space group: P N N M
;
_chemical_formula_sum "Si O2"
_cell_formula_units_Z 56
_cell_length_a 20.039415
_cell_length_b 9.311114
_cell_length_c 14.174005
_cell_angle_alpha 90.000000
_cell_angle_beta 90.000000
_cell_angle_gamma 90.000000
_cell_volume 2644.717353
_symmetry_space_group_name_H-M "P N N M"
_symmetry_group_IT_number 58
_symmetry_cell_setting 'orthorhombic'
loop_
_space_group_symop_operation_xyz
x,y,z
-x,-y,z
1/2+x,1/2-y,1/2-z
1/2-x,1/2+y,1/2-z
-x,-y,-z
x,y,-z
1/2-x,1/2+y,1/2+z
1/2+x,1/2-y,1/2+z
loop_
_atom_site_type_symbol
_atom_site_label
_atom_site_fract_x
_atom_site_fract_y
_atom_site_fract_z
Si Si1 0.431959 0.688317 0.393634
Si Si2 0.620911 0.797784 0.783320
Si Si3 0.284281 0.396476 0.108910
Si Si4 0.497842 0.338224 0.107535
Si Si5 0.086918 0.862495 0.893483
Si Si6 0.349475 0.696001 0.895187
Si Si7 0.656240 0.110005 0.731045
O O1 0.415219 0.736997 0.500000
O O2 0.401616 0.530965 0.374447
O O3 0.510644 0.682696 0.378243
O O4 0.400905 0.801018 0.321928
O O5 0.681066 0.745501 0.849848
O O6 0.549813 0.757784 0.828293
O O7 0.631045 0.726136 0.680374
O O8 0.623276 0.968030 0.773524
O O9 0.334625 0.528981 0.124549
O O10 0.215346 0.430393 0.160713
O O11 0.268095 0.368836 0.000000
O O12 0.500000 0.500000 0.147908
O O13 0.571713 0.273691 0.112381
O O14 0.470353 0.339554 0.000000
O O15 0.109475 0.823702 0.000000
O O16 0.313960 0.796288 0.817823
O O17 0.323578 0.737094 0.000000
#
# Coordination Sequence:
#
# PCOD8237805 Si02
#       7
#     8   8   8   8   8   8   8
#     4   9  19  38  61  87 122 167 213 254 305 371
#     4  12  24  37  64  98 126 162 213 267 324 386
#     4  11  24  45  67  86 118 173 227 262 305 385
#     4  10  20  38  66  95 122 163 211 261 313 373
#     4   9  20  37  61  90 122 165 214 258 303 373
#     4  10  22  41  65  91 125 166 211 259 315 380
#     4  12  25  40  59  94 134 166 201 263 332 375
#
# _framework density 21.174287
#
# number of rings (size 3 to 8) (size 9 to 14) (size 15 to 20)
#    0.000    1.571    1.429    4.286    2.000    4.571 
#    0.000    3.571    0.000    0.000    0.000    0.000 
#    0.000    0.000    0.000    0.000    0.000    0.000 
#
# Total GULP energy -694635.601621 kJ/mol
# GULP energy per Si atom -12404.207172 kJ/mol
# Density = 2.112609 g / cm^3
# Si number density = 21.174287 Si / 1000 Ang^3
#
#
#
# Elastic Constant Matrix: (Units=GPa)
#
#
# Indices 1 2 3 4 5 6 
#
# 1 66.8421 32.7393 37.3304 0.0000 0.0000 0.0000
# 2 32.7393 127.7673 71.7938 0.0000 0.0000 0.0000
# 3 37.3304 71.7938 145.6718 0.0000 0.0000 0.0000
# 4 0.0000 0.0000 0.0000 19.9017 0.0000 0.0000
# 5 0.0000 0.0000 0.0000 0.0000 35.4163 0.0000
# 6 0.0000 0.0000 0.0000 0.0000 0.0000 21.7035
#
#
#
# Elastic Compliance Matrix: (Units=1/GPa)
#
#
# Indices 1 2 3 4 5 6 
#
# 1 0.018165 -0.002820 -0.003265 0.000000 0.000000 0.000000
# 2 -0.002820 0.011262 -0.004828 0.000000 0.000000 0.000000
# 3 -0.003265 -0.004828 0.010081 0.000000 0.000000 0.000000
# 4 0.000000 0.000000 0.000000 0.050247 0.000000 0.000000
# 5 0.000000 0.000000 0.000000 0.000000 0.028236 0.000000
# 6 0.000000 0.000000 0.000000 0.000000 0.000000 0.046075
#
#
# Mechanical properties :
#
#
# Convention : Reuss Voigt Hill
#
# Bulk Modulus (GPa) = 56.55381 69.33424 62.94402
# Shear Modulus (GPa) = 26.07060 28.63216 27.35138
#
# Velocity S-wave (km/s) = 3.51271 3.68123 3.59796
# Velocity P-wave (km/s) = 6.57410 7.13332 6.85941
#
# Compressibility (1/GPa) = 0.01768227
#
# Stress axis : x y z
#
# Youngs Moduli (GPa) = 55.04946 88.79307 99.19710
#
# Poissons Ratio (x) = 0.25039 0.32392
# Poissons Ratio (y) = 0.15523 0.47891
# Poissons Ratio (z) = 0.17976 0.42868
#
# Static dielectric constant tensor:
#      x y z
#    x 3.526390 0.000000 0.000000 
#    y 0.000000 3.613020 0.000000 
#    z 0.000000 0.000000 4.204140 
# 
# 
# High freq. dielectric constant tensor:
#      x y z
#    x 1.813840 0.000000 0.000000 
#    y 0.000000 1.814190 0.000000 
#    z 0.000000 0.000000 1.854400 
# 
# From -- ./inp_files/23232.got.cif
#   From: 2010.06.25/outbox.cif.g09.slc.cpg/sg58_12_cif.got.tgz:23232.got - 2010.06.26 21:38:00.
