data_PCOD8237827
_publ_section_title
;
Structure prediction by ZEFSAII (Michael W. Deem and Ramdas Pophale) SiO2 
 PCOD8237827
Probable space group: P N N M
;
_chemical_formula_sum "Si O2"
_cell_formula_units_Z 48
_cell_length_a 9.233786
_cell_length_b 17.564645
_cell_length_c 15.569156
_cell_angle_alpha 90.000000
_cell_angle_beta 90.000000
_cell_angle_gamma 90.000000
_cell_volume 2525.132968
_symmetry_space_group_name_H-M "P N N M"
_symmetry_group_IT_number 58
_symmetry_cell_setting 'orthorhombic'
loop_
_space_group_symop_operation_xyz
x,y,z
-x,-y,z
1/2+x,1/2-y,1/2-z
1/2-x,1/2+y,1/2-z
-x,-y,-z
x,y,-z
1/2-x,1/2+y,1/2+z
1/2+x,1/2-y,1/2+z
loop_
_atom_site_type_symbol
_atom_site_label
_atom_site_fract_x
_atom_site_fract_y
_atom_site_fract_z
Si Si1 0.597495 0.073824 0.098811
Si Si2 0.284197 0.546370 0.000000
Si Si3 0.844017 0.024845 0.788924
Si Si4 0.371976 0.060725 0.676899
Si Si5 0.911001 0.120992 0.500000
Si Si6 0.156727 0.826039 0.316411
Si Si7 0.033482 0.308313 0.742725
O O1 0.760835 0.054776 0.127225
O O2 0.541815 0.144939 0.153783
O O3 0.500000 0.000000 0.116326
O O4 0.595556 0.098451 0.000000
O O5 0.183798 0.560863 0.080910
O O6 0.332148 0.459511 0.000000
O O7 0.416837 0.605859 0.000000
O O8 0.864545 0.088818 0.716904
O O9 0.757531 0.956311 0.743467
O O10 0.000000 0.000000 0.822525
O O11 0.431363 0.145127 0.692708
O O12 0.500000 0.000000 0.691654
O O13 0.861631 0.171210 0.418852
O O14 0.033275 0.773693 0.275289
O O15 0.313223 0.794403 0.288914
#
# Coordination Sequence:
#
# PCOD8237827 Si02
#       7
#     8   4   8   8   4   8   8
#     4  10  20  39  63  87 113 157 211 254 301 362
#     4  11  23  34  70  98 128 156 206 272 312 373
#     4  11  21  38  65  90 123 159 205 259 309 373
#     4  12  20  41  62  94 124 167 212 256 315 375
#     4  11  22  42  60 102 129 159 206 261 322 371
#     4  11  25  40  64  90 127 166 204 251 315 377
#     4  11  24  41  62  88 125 169 205 255 311 379
#
# _framework density 19.008900000000001
#
# number of rings (size 3 to 8) (size 9 to 14) (size 15 to 20)
#    0.000    1.000    6.667    1.250    5.833    1.000 
#    0.000    0.000    7.333    0.000    0.000    0.000 
#    0.000    0.000    0.000    0.000    0.000    0.000 
#
# Total GULP energy -595393.119403 kJ/mol
# GULP energy per Si atom -12404.023321 kJ/mol
# Density = 1.896563 g / cm^3
# Si number density = 19.008900 Si / 1000 Ang^3
#
#
#
# Elastic Constant Matrix: (Units=GPa)
#
#
# Indices 1 2 3 4 5 6 
#
# 1 116.0687 28.4217 33.6022 0.0000 0.0000 0.0000
# 2 28.4217 45.3724 14.5246 0.0000 0.0000 0.0000
# 3 33.6022 14.5246 91.4340 0.0000 0.0000 0.0000
# 4 0.0000 0.0000 0.0000 33.4049 0.0000 0.0000
# 5 0.0000 0.0000 0.0000 0.0000 18.1594 0.0000
# 6 0.0000 0.0000 0.0000 0.0000 0.0000 37.4980
#
#
#
# Elastic Compliance Matrix: (Units=1/GPa)
#
#
# Indices 1 2 3 4 5 6 
#
# 1 0.010947 -0.005868 -0.003091 0.000000 0.000000 0.000000
# 2 -0.005868 0.026366 -0.002032 0.000000 0.000000 0.000000
# 3 -0.003091 -0.002032 0.012396 0.000000 0.000000 0.000000
# 4 0.000000 0.000000 0.000000 0.029936 0.000000 0.000000
# 5 0.000000 0.000000 0.000000 0.000000 0.055068 0.000000
# 6 0.000000 0.000000 0.000000 0.000000 0.000000 0.026668
#
#
# Mechanical properties :
#
#
# Convention : Reuss Voigt Hill
#
# Bulk Modulus (GPa) = 36.06565 45.10802 40.58684
# Shear Modulus (GPa) = 25.95991 29.56758 27.76375
#
# Velocity S-wave (km/s) = 3.69951 3.94821 3.82588
# Velocity P-wave (km/s) = 6.10432 6.67577 6.39643
#
# Compressibility (1/GPa) = 0.02772721
#
# Stress axis : x y z
#
# Youngs Moduli (GPa) = 91.34629 37.92761 80.67399
#
# Poissons Ratio (x) = 0.22256 0.24937
# Poissons Ratio (y) = 0.53602 0.16391
# Poissons Ratio (z) = 0.28235 0.07706
#
# Static dielectric constant tensor:
#      x y z
#    x 3.755740 0.000000 0.000000 
#    y 0.000000 3.342860 0.000000 
#    z 0.000000 0.000000 3.470710 
# 
# 
# High freq. dielectric constant tensor:
#      x y z
#    x 1.751080 0.000000 0.000000 
#    y 0.000000 1.724940 0.000000 
#    z 0.000000 0.000000 1.741270 
# 
# From -- ./inp_files/19867.got.cif
#   From: 2010.06.25/outbox.cif.g09.slc.cpg/sg58_10_cif.got.tgz:19867.got - 2010.06.26 21:38:00.
