data_PCOD8237151
_publ_section_title
;
Structure prediction by ZEFSAII (Michael W. Deem and Ramdas Pophale) SiO2 
 PCOD8237151
Probable space group: P N N M
;
_chemical_formula_sum "Si O2"
_cell_formula_units_Z 56
_cell_length_a 16.664307
_cell_length_b 9.444033
_cell_length_c 18.048576
_cell_angle_alpha 90.000000
_cell_angle_beta 90.000000
_cell_angle_gamma 90.000000
_cell_volume 2840.453581
_symmetry_space_group_name_H-M "P N N M"
_symmetry_group_IT_number 58
_symmetry_cell_setting 'orthorhombic'
loop_
_space_group_symop_operation_xyz
x,y,z
-x,-y,z
1/2+x,1/2-y,1/2-z
1/2-x,1/2+y,1/2-z
-x,-y,-z
x,y,-z
1/2-x,1/2+y,1/2+z
1/2+x,1/2-y,1/2+z
loop_
_atom_site_type_symbol
_atom_site_label
_atom_site_fract_x
_atom_site_fract_y
_atom_site_fract_z
Si Si1 0.074454 0.093212 0.368874
Si Si2 0.820866 0.697613 0.820530
Si Si3 0.093139 0.518346 0.275100
Si Si4 0.684958 0.748577 0.297493
Si Si5 0.422247 0.906519 0.919730
Si Si6 0.250521 0.534796 0.084317
Si Si7 0.589994 0.467579 0.695717
O O1 0.052377 0.253223 0.389112
O O2 0.153753 0.044705 0.411728
O O3 0.088717 0.074507 0.281584
O O4 0.000000 0.000000 0.396624
O O5 0.884547 0.585364 0.790831
O O6 0.762966 0.735915 0.752830
O O7 0.773813 0.622074 0.887399
O O8 0.869836 0.835695 0.848284
O O9 0.116556 0.676415 0.252225
O O10 0.133736 0.477894 0.355337
O O11 0.000000 0.500000 0.289756
O O12 0.708628 0.839467 0.369320
O O13 0.648556 0.598765 0.320821
O O14 0.500000 0.000000 0.933416
O O15 0.377096 0.894277 0.000000
O O16 0.221714 0.551145 0.000000
O O17 0.500000 0.500000 0.666445
#
# Coordination Sequence:
#
# PCOD8237151 Si02
#       7
#     8   8   8   8   8   8   8
#     4  11  22  37  60  92 127 163 209 253 307 381
#     4  11  20  39  59  90 121 156 210 258 306 369
#     4  10  20  34  57  79 111 157 205 255 297 360
#     4  11  21  38  61  88 120 158 207 259 308 369
#     4  10  21  34  50  79 123 168 201 242 300 368
#     4  11  24  41  63  89 128 173 205 252 322 380
#     4  11  21  36  65  96 118 155 207 271 323 361
#
# _framework density 19.715161999999999
#
# number of rings (size 3 to 8) (size 9 to 14) (size 15 to 20)
#    0.000    1.286    4.286    2.143    6.000    1.143 
#    0.000    2.857    0.000   16.286    0.000    0.000 
#    0.000    0.000    0.000    0.000    0.000    0.000 
#
# Total GULP energy -694175.439950 kJ/mol
# GULP energy per Si atom -12395.989999 kJ/mol
# Density = 1.967029 g / cm^3
# Si number density = 19.715162 Si / 1000 Ang^3
#
#
#
# Elastic Constant Matrix: (Units=GPa)
#
#
# Indices 1 2 3 4 5 6 
#
# 1 88.5259 45.1461 23.4365 0.0000 0.0000 0.0000
# 2 45.1461 143.0549 42.1332 0.0000 0.0000 0.0000
# 3 23.4365 42.1332 108.9967 0.0000 0.0000 0.0000
# 4 0.0000 0.0000 0.0000 -14.6996 0.0000 0.0000
# 5 0.0000 0.0000 0.0000 0.0000 21.9141 0.0000
# 6 0.0000 0.0000 0.0000 0.0000 0.0000 34.4229
#
#
#
# Elastic Compliance Matrix: (Units=1/GPa)
#
#
# Indices 1 2 3 4 5 6 
#
# 1 0.013659 -0.003888 -0.001434 0.000000 0.000000 0.000000
# 2 -0.003888 0.008995 -0.002641 0.000000 0.000000 0.000000
# 3 -0.001434 -0.002641 0.010504 0.000000 0.000000 0.000000
# 4 0.000000 0.000000 0.000000 -0.068029 0.000000 0.000000
# 5 0.000000 0.000000 0.000000 0.000000 0.045633 0.000000
# 6 0.000000 0.000000 0.000000 0.000000 0.000000 0.029050
#
#
# Mechanical properties :
#
#
# Convention : Reuss Voigt Hill
#
# Bulk Modulus (GPa) = 58.03370 62.44545 60.23958
# Shear Modulus (GPa) = 81.32483 23.65160 52.48822
#
# Velocity S-wave (km/s) = 6.42958 3.46738 5.16537
# Velocity P-wave (km/s) = 9.19887 6.91179 8.13610
#
# Compressibility (1/GPa) = 0.01723137
#
# Stress axis : x y z
#
# Youngs Moduli (GPa) = 73.21396 111.16981 95.20318
#
# Poissons Ratio (x) = 0.43224 0.13651
# Poissons Ratio (y) = 0.28467 0.25144
# Poissons Ratio (z) = 0.10498 0.29361
#
# Static dielectric constant tensor:
#      x y z
#    x 3.602060 0.000000 0.000000 
#    y 0.000000 4.007950 0.000000 
#    z 0.000000 0.000000 3.684550 
# 
# 
# High freq. dielectric constant tensor:
#      x y z
#    x 1.758780 0.000000 0.000000 
#    y 0.000000 1.787420 0.000000 
#    z 0.000000 0.000000 1.742720 
# 
# From -- ./inp_files/29995.got.cif
#   From: 2010.06.25/outbox.cif.g09.slc.cpg/sg58_15_cif.got.tgz:29995.got - 2010.06.26 21:38:00.
