data_PCOD8237897
_publ_section_title
;
Structure prediction by ZEFSAII (Michael W. Deem and Ramdas Pophale) SiO2 
 PCOD8237897
Probable space group: P N N M
;
_chemical_formula_sum "Si O2"
_cell_formula_units_Z 48
_cell_length_a 9.308220
_cell_length_b 14.191701
_cell_length_c 18.557302
_cell_angle_alpha 90.000000
_cell_angle_beta 90.000000
_cell_angle_gamma 90.000000
_cell_volume 2451.409853
_symmetry_space_group_name_H-M "P N N M"
_symmetry_group_IT_number 58
_symmetry_cell_setting 'orthorhombic'
loop_
_space_group_symop_operation_xyz
x,y,z
-x,-y,z
1/2+x,1/2-y,1/2-z
1/2-x,1/2+y,1/2-z
-x,-y,-z
x,y,-z
1/2-x,1/2+y,1/2+z
1/2+x,1/2-y,1/2+z
loop_
_atom_site_type_symbol
_atom_site_label
_atom_site_fract_x
_atom_site_fract_y
_atom_site_fract_z
Si Si1 0.220020 0.923994 0.172407
Si Si2 0.383326 0.583433 0.161160
Si Si3 0.141236 0.453081 0.819202
Si Si4 0.888988 0.883845 0.174652
Si Si5 0.215009 0.254909 0.417588
Si Si6 0.048121 0.286156 0.084280
O O1 0.266211 0.904862 0.255259
O O2 0.314332 0.854375 0.123015
O O3 0.052826 0.908616 0.158622
O O4 0.230035 0.035931 0.153246
O O5 0.500000 0.500000 0.151686
O O6 0.232104 0.535241 0.143324
O O7 0.380059 0.631211 0.239697
O O8 0.396000 0.672737 0.107391
O O9 0.100181 0.384389 0.883871
O O10 0.000000 0.500000 0.784047
O O11 0.857185 0.791479 0.127455
O O12 0.183968 0.275389 0.500000
O O13 0.378442 0.224183 0.402272
O O14 0.085872 0.279874 0.000000
#
# Coordination Sequence:
#
# PCOD8237897 Si02
#       6
#     8   8   8   8   8   8
#     4   9  18  35  57  83 107 142 188 233 278 332
#     4  11  20  37  58  79 113 149 188 231 273 336
#     4  11  20  35  57  83 109 144 187 232 278 323
#     4   9  17  35  58  81 109 142 189 231 278 333
#     4  10  21  35  54  82 114 148 184 229 285 340
#     4  10  21  34  53  84 116 146 183 232 286 337
#
# _framework density 19.580568
#
# number of rings (size 3 to 8) (size 9 to 14) (size 15 to 20)
#    0.000    2.000    5.000    1.000    0.000    2.000 
#    0.000    3.333    0.000    0.500    0.000    0.000 
#    0.000    0.000    0.000    0.000    0.000    0.000 
#
# Total GULP energy -594652.089777 kJ/mol
# GULP energy per Si atom -12388.585204 kJ/mol
# Density = 1.953600 g / cm^3
# Si number density = 19.580568 Si / 1000 Ang^3
#
#
#
# Elastic Constant Matrix: (Units=GPa)
#
#
# Indices 1 2 3 4 5 6 
#
# 1 42.1670 22.1642 12.6920 0.0000 0.0000 0.0000
# 2 22.1642 99.4353 58.8949 0.0000 0.0000 0.0000
# 3 12.6920 58.8949 95.3194 0.0000 0.0000 0.0000
# 4 0.0000 0.0000 0.0000 22.8951 0.0000 0.0000
# 5 0.0000 0.0000 0.0000 0.0000 24.6669 0.0000
# 6 0.0000 0.0000 0.0000 0.0000 0.0000 32.4102
#
#
#
# Elastic Compliance Matrix: (Units=1/GPa)
#
#
# Indices 1 2 3 4 5 6 
#
# 1 0.026865 -0.006103 0.000194 0.000000 0.000000 0.000000
# 2 -0.006103 0.017248 -0.009844 0.000000 0.000000 0.000000
# 3 0.000194 -0.009844 0.016548 0.000000 0.000000 0.000000
# 4 0.000000 0.000000 0.000000 0.043677 0.000000 0.000000
# 5 0.000000 0.000000 0.000000 0.000000 0.040540 0.000000
# 6 0.000000 0.000000 0.000000 0.000000 0.000000 0.030854
#
#
# Mechanical properties :
#
#
# Convention : Reuss Voigt Hill
#
# Bulk Modulus (GPa) = 34.30137 47.15821 40.72979
# Shear Modulus (GPa) = 23.04603 25.53916 24.29259
#
# Velocity S-wave (km/s) = 3.43444 3.61544 3.52610
# Velocity P-wave (km/s) = 5.76917 6.44710 6.11753
#
# Compressibility (1/GPa) = 0.02915335
#
# Stress axis : x y z
#
# Youngs Moduli (GPa) = 37.22343 57.97826 60.43125
#
# Poissons Ratio (x) = 0.35384 -0.01170
# Poissons Ratio (y) = 0.22717 0.59490
# Poissons Ratio (z) = -0.00721 0.57075
#
# Static dielectric constant tensor:
#      x y z
#    x 3.444790 0.000000 0.000000 
#    y 0.000000 4.094040 0.000000 
#    z 0.000000 0.000000 3.374030 
# 
# 
# High freq. dielectric constant tensor:
#      x y z
#    x 1.734210 0.000000 0.000000 
#    y 0.000000 1.774380 0.000000 
#    z 0.000000 0.000000 1.747070 
# 
# From -- ./inp_files/25261.got.cif
#   From: 2010.06.25/outbox.cif.g09.slc.cpg/sg58_13_cif.got.tgz:25261.got - 2010.06.26 21:38:00.
