data_PCOD8237875
_publ_section_title
;
Structure prediction by ZEFSAII (Michael W. Deem and Ramdas Pophale) SiO2 
 PCOD8237875
Probable space group: P N N M
;
_chemical_formula_sum "Si O2"
_cell_formula_units_Z 64
_cell_length_a 15.198129
_cell_length_b 9.008353
_cell_length_c 22.290186
_cell_angle_alpha 90.000000
_cell_angle_beta 90.000000
_cell_angle_gamma 90.000000
_cell_volume 3051.751839
_symmetry_space_group_name_H-M "P N N M"
_symmetry_group_IT_number 58
_symmetry_cell_setting 'orthorhombic'
loop_
_space_group_symop_operation_xyz
x,y,z
-x,-y,z
1/2+x,1/2-y,1/2-z
1/2-x,1/2+y,1/2-z
-x,-y,-z
x,y,-z
1/2-x,1/2+y,1/2+z
1/2+x,1/2-y,1/2+z
loop_
_atom_site_type_symbol
_atom_site_label
_atom_site_fract_x
_atom_site_fract_y
_atom_site_fract_z
Si Si1 0.307970 0.145773 0.431125
Si Si2 0.667240 0.869331 0.934298
Si Si3 0.810966 0.101503 0.711121
Si Si4 0.502200 0.174925 0.566003
Si Si5 0.729423 0.271934 0.192354
Si Si6 0.183516 0.314396 0.109682
Si Si7 0.457729 0.348026 0.116956
Si Si8 0.921678 0.594235 0.656935
O O1 0.280419 0.188870 0.500000
O O2 0.403024 0.219304 0.414991
O O3 0.243919 0.212101 0.379704
O O4 0.306893 0.967138 0.427750
O O5 0.768129 0.824085 0.922259
O O6 0.611609 0.715579 0.930857
O O7 0.629876 0.987959 0.888358
O O8 0.658869 0.939404 0.000000
O O9 0.811769 0.195783 0.773210
O O10 0.727084 0.165138 0.674588
O O11 0.904863 0.126499 0.679382
O O12 0.795087 0.927856 0.722723
O O13 0.524442 0.240631 0.500000
O O14 0.579000 0.227213 0.612331
O O15 0.500000 0.000000 0.561910
O O16 0.648116 0.158530 0.204000
O O17 0.500000 0.500000 0.093121
O O18 0.537500 0.233829 0.122638
O O19 0.000000 0.500000 0.688963
#
# Coordination Sequence:
#
# PCOD8237875 Si02
#       8
#     8   8   8   8   8   8   8   8
#     4   9  18  34  59  92 126 162 208 258 312 374
#     4  10  21  35  58  90 124 163 209 260 319 379
#     4  10  23  38  62  88 124 159 205 252 309 382
#     4   8  13  26  52  85 121 154 195 252 301 357
#     4  11  23  41  63  92 122 163 203 256 312 374
#     4   9  17  33  56  88 124 165 207 250 312 372
#     4  10  20  41  60  84 118 163 207 253 312 366
#     4  10  23  40  62  83 121 161 203 255 315 363
#
# _framework density 20.97156
#
# number of rings (size 3 to 8) (size 9 to 14) (size 15 to 20)
#    0.000    2.375    1.250    1.875    5.250    3.000 
#    2.250    0.625    0.000    0.000    0.000    2.625 
#    0.000    0.000    0.000    0.000    0.000    0.125 
#
# Total GULP energy -792935.574944 kJ/mol
# GULP energy per Si atom -12389.618358 kJ/mol
# Density = 2.092383 g / cm^3
# Si number density = 20.971560 Si / 1000 Ang^3
#
#
#
# Elastic Constant Matrix: (Units=GPa)
#
#
# Indices 1 2 3 4 5 6 
#
# 1 94.7449 36.1834 13.0889 0.0000 0.0000 0.0000
# 2 36.1834 93.4542 24.4911 0.0000 0.0000 0.0000
# 3 13.0889 24.4911 71.9793 0.0000 0.0000 0.0000
# 4 0.0000 0.0000 0.0000 19.3631 0.0000 0.0000
# 5 0.0000 0.0000 0.0000 0.0000 18.6916 0.0000
# 6 0.0000 0.0000 0.0000 0.0000 0.0000 36.5699
#
#
#
# Elastic Compliance Matrix: (Units=1/GPa)
#
#
# Indices 1 2 3 4 5 6 
#
# 1 0.012417 -0.004628 -0.000683 0.000000 0.000000 0.000000
# 2 -0.004628 0.013473 -0.003743 0.000000 0.000000 0.000000
# 3 -0.000683 -0.003743 0.015291 0.000000 0.000000 0.000000
# 4 0.000000 0.000000 0.000000 0.051645 0.000000 0.000000
# 5 0.000000 0.000000 0.000000 0.000000 0.053500 0.000000
# 6 0.000000 0.000000 0.000000 0.000000 0.000000 0.027345
#
#
# Mechanical properties :
#
#
# Convention : Reuss Voigt Hill
#
# Bulk Modulus (GPa) = 43.34227 45.30058 44.32143
# Shear Modulus (GPa) = 25.06654 27.35258 26.20956
#
# Velocity S-wave (km/s) = 3.46101 3.61539 3.53904
# Velocity P-wave (km/s) = 6.05669 6.25107 6.15465
#
# Compressibility (1/GPa) = 0.02307217
#
# Stress axis : x y z
#
# Youngs Moduli (GPa) = 80.53705 74.22096 65.39991
#
# Poissons Ratio (x) = 0.34353 0.04467
# Poissons Ratio (y) = 0.37276 0.24477
# Poissons Ratio (z) = 0.05501 0.27778
#
# Static dielectric constant tensor:
#      x y z
#    x 4.186920 0.000000 0.000000 
#    y 0.000000 3.709140 0.000000 
#    z 0.000000 0.000000 3.458960 
# 
# 
# High freq. dielectric constant tensor:
#      x y z
#    x 1.828450 0.000000 0.000000 
#    y 0.000000 1.808160 0.000000 
#    z 0.000000 0.000000 1.787420 
# 
# From -- ./inp_files/32224.got.cif
#   From: 2010.06.25/outbox.cif.g09.slc.cpg/sg58_17_cif.got.tgz:32224.got - 2010.06.26 21:38:00.
