data_PCOD8237589
_publ_section_title
;
Structure prediction by ZEFSAII (Michael W. Deem and Ramdas Pophale) SiO2 
 PCOD8237589
Probable space group: P N N M
;
_chemical_formula_sum "Si O2"
_cell_formula_units_Z 48
_cell_length_a 8.933673
_cell_length_b 15.344180
_cell_length_c 18.270689
_cell_angle_alpha 90.000000
_cell_angle_beta 90.000000
_cell_angle_gamma 90.000000
_cell_volume 2504.543976
_symmetry_space_group_name_H-M "P N N M"
_symmetry_group_IT_number 58
_symmetry_cell_setting 'orthorhombic'
loop_
_space_group_symop_operation_xyz
x,y,z
-x,-y,z
1/2+x,1/2-y,1/2-z
1/2-x,1/2+y,1/2-z
-x,-y,-z
x,y,-z
1/2-x,1/2+y,1/2+z
1/2+x,1/2-y,1/2+z
loop_
_atom_site_type_symbol
_atom_site_label
_atom_site_fract_x
_atom_site_fract_y
_atom_site_fract_z
Si Si1 0.571027 0.590034 0.414829
Si Si2 0.435107 0.253305 0.834675
Si Si3 0.614278 0.578625 0.917696
Si Si4 0.915889 0.766956 0.183830
Si Si5 0.896673 0.579727 0.646212
Si Si6 0.110891 0.426025 0.816415
O O1 0.500000 0.500000 0.386295
O O2 0.539308 0.603815 0.500000
O O3 0.489543 0.669545 0.374725
O O4 0.747693 0.586251 0.401387
O O5 0.454343 0.327764 0.895850
O O6 0.264149 0.228150 0.815465
O O7 0.518807 0.290388 0.763154
O O8 0.511787 0.167747 0.866737
O O9 0.500000 0.500000 0.912633
O O10 0.740290 0.555272 0.860170
O O11 0.677811 0.586753 0.000000
O O12 0.961485 0.667565 0.164190
O O13 0.850925 0.567497 0.730652
O O14 0.000000 0.500000 0.618903
O O15 0.000000 0.500000 0.842583
#
# Coordination Sequence:
#
# PCOD8237589 Si02
#       6
#     8   8   8   8   8   8
#     4  11  24  39  56  82 116 154 192 233 286 344
#     4  10  21  37  60  86 113 146 188 236 286 339
#     4  10  22  37  53  78 112 148 183 221 271 329
#     4  10  20  37  59  85 114 145 187 235 283 338
#     4  10  21  39  61  86 111 144 190 238 289 343
#     4   9  20  37  59  83 108 141 182 229 279 329
#
# _framework density 19.165165999999999
#
# number of rings (size 3 to 8) (size 9 to 14) (size 15 to 20)
#    0.000    2.000    0.000    4.000    0.000   12.000 
#    0.000    1.667    0.000    0.000    0.000    0.000 
#    0.000    0.000    0.000    0.000    0.000    0.000 
#
# Total GULP energy -595243.404039 kJ/mol
# GULP energy per Si atom -12400.904251 kJ/mol
# Density = 1.912155 g / cm^3
# Si number density = 19.165166 Si / 1000 Ang^3
#
#
#
# Elastic Constant Matrix: (Units=GPa)
#
#
# Indices 1 2 3 4 5 6 
#
# 1 91.4231 42.7802 16.5987 0.0000 0.0000 0.0000
# 2 42.7802 113.6618 23.8083 0.0000 0.0000 0.0000
# 3 16.5987 23.8083 40.8737 0.0000 0.0000 0.0000
# 4 0.0000 0.0000 0.0000 129.1296 0.0000 0.0000
# 5 0.0000 0.0000 0.0000 0.0000 1677.8710 0.0000
# 6 0.0000 0.0000 0.0000 0.0000 0.0000 36.9634
#
#
#
# Elastic Compliance Matrix: (Units=1/GPa)
#
#
# Indices 1 2 3 4 5 6 
#
# 1 0.013569 -0.004502 -0.002888 0.000000 0.000000 0.000000
# 2 -0.004502 0.011515 -0.004879 0.000000 0.000000 0.000000
# 3 -0.002888 -0.004879 0.028480 0.000000 0.000000 0.000000
# 4 0.000000 0.000000 0.000000 0.007744 0.000000 0.000000
# 5 0.000000 0.000000 0.000000 0.000000 0.000596 0.000000
# 6 0.000000 0.000000 0.000000 0.000000 0.000000 0.027054
#
#
# Mechanical properties :
#
#
# Convention : Reuss Voigt Hill
#
# Bulk Modulus (GPa) = 34.45171 45.81479 40.13325
# Shear Modulus (GPa) = 40.59395 379.64421 210.11908
#
# Velocity S-wave (km/s) = 4.60729 14.08974 10.48208
# Velocity P-wave (km/s) = 6.80573 16.98975 12.94159
#
# Compressibility (1/GPa) = 0.02902613
#
# Stress axis : x y z
#
# Youngs Moduli (GPa) = 73.69588 86.84679 35.11220
#
# Poissons Ratio (x) = 0.39101 0.10140
# Poissons Ratio (y) = 0.33180 0.17130
# Poissons Ratio (z) = 0.21283 0.42370
#
# Static dielectric constant tensor:
#      x y z
#    x 3.507340 0.000000 0.000000 
#    y 0.000000 3.844440 0.000000 
#    z 0.000000 0.000000 3.495430 
# 
# 
# High freq. dielectric constant tensor:
#      x y z
#    x 1.748480 0.000000 0.000000 
#    y 0.000000 1.764730 0.000000 
#    z 0.000000 0.000000 1.738320 
# 
# From -- ./inp_files/25283.got.cif
#   From: 2010.06.25/outbox.cif.g09.slc.cpg/sg58_13_cif.got.tgz:25283.got - 2010.06.26 21:38:00.
