data_PCOD8237567
_publ_section_title
;
Structure prediction by ZEFSAII (Michael W. Deem and Ramdas Pophale) SiO2 
 PCOD8237567
Probable space group: P N N M
;
_chemical_formula_sum "Si O2"
_cell_formula_units_Z 52
_cell_length_a 27.907202
_cell_length_b 5.022857
_cell_length_c 19.195376
_cell_angle_alpha 90.000000
_cell_angle_beta 90.000000
_cell_angle_gamma 90.000000
_cell_volume 2690.690426
_symmetry_space_group_name_H-M "P N N M"
_symmetry_group_IT_number 58
_symmetry_cell_setting 'orthorhombic'
loop_
_space_group_symop_operation_xyz
x,y,z
-x,-y,z
1/2+x,1/2-y,1/2-z
1/2-x,1/2+y,1/2-z
-x,-y,-z
x,y,-z
1/2-x,1/2+y,1/2+z
1/2+x,1/2-y,1/2+z
loop_
_atom_site_type_symbol
_atom_site_label
_atom_site_fract_x
_atom_site_fract_y
_atom_site_fract_z
Si Si1 0.651012 0.426381 0.843379
Si Si2 0.887832 0.904542 0.193572
Si Si3 0.811792 0.881030 0.078651
Si Si4 0.033941 0.743323 0.500000
Si Si5 0.251237 0.611265 0.079190
Si Si6 0.946538 0.418856 0.777438
Si Si7 0.093829 0.572973 0.370435
O O1 0.646428 0.377021 0.760896
O O2 0.705127 0.392692 0.867389
O O3 0.637893 0.732528 0.855217
O O4 0.616242 0.219517 0.885615
O O5 0.855757 0.968418 0.126910
O O6 0.912030 0.619520 0.181634
O O7 0.930461 0.121136 0.201790
O O8 0.788978 0.600939 0.102604
O O9 0.770126 0.096472 0.083827
O O10 0.831752 0.861236 0.000000
O O11 0.066729 0.718040 0.432703
O O12 0.000000 0.500000 0.500000
O O13 0.000000 0.000000 0.500000
O O14 0.268472 0.546997 0.000000
O O15 0.942431 0.452108 0.694147
O O16 0.000000 0.500000 0.799671
#
# Coordination Sequence:
#
# PCOD8237567 Si02
#       7
#     8   8   8   4   8   8   8
#     4  10  21  36  53  82 108 143 188 224 277 311
#     4  10  21  36  58  82 109 142 182 225 276 329
#     4  10  21  38  56  82 110 144 180 220 278 333
#     4  12  24  36  52  76 106 150 196 230 282 324
#     4  10  21  34  55  80 111 148 184 221 266 332
#     4  10  20  37  58  81 107 141 182 225 274 331
#     4  10  22  35  53  77 109 145 181 235 273 318
#
# _framework density 19.325893000000001
#
# number of rings (size 3 to 8) (size 9 to 14) (size 15 to 20)
#    0.000    1.846    0.000    3.692    2.154    3.692 
#    0.000    0.000    0.000    2.769    0.000    0.000 
#    0.000    0.000    0.000    0.000    0.000    0.000 
#
# Total GULP energy -644779.498122 kJ/mol
# GULP energy per Si atom -12399.605733 kJ/mol
# Density = 1.928191 g / cm^3
# Si number density = 19.325893 Si / 1000 Ang^3
#
#
#
# Elastic Constant Matrix: (Units=GPa)
#
#
# Indices 1 2 3 4 5 6 
#
# 1 91.3582 14.3761 58.6401 0.0000 0.0000 0.0000
# 2 14.3761 90.3569 19.1565 0.0000 0.0000 0.0000
# 3 58.6401 19.1565 79.4832 0.0000 0.0000 0.0000
# 4 0.0000 0.0000 0.0000 21.4875 0.0000 0.0000
# 5 0.0000 0.0000 0.0000 0.0000 20.3064 0.0000
# 6 0.0000 0.0000 0.0000 0.0000 0.0000 27.0924
#
#
#
# Elastic Compliance Matrix: (Units=1/GPa)
#
#
# Indices 1 2 3 4 5 6 
#
# 1 0.020792 -0.000059 -0.015326 0.000000 0.000000 0.000000
# 2 -0.000059 0.011663 -0.002768 0.000000 0.000000 0.000000
# 3 -0.015326 -0.002768 0.024555 0.000000 0.000000 0.000000
# 4 0.000000 0.000000 0.000000 0.046539 0.000000 0.000000
# 5 0.000000 0.000000 0.000000 0.000000 0.049246 0.000000
# 6 0.000000 0.000000 0.000000 0.000000 0.000000 0.036911
#
#
# Mechanical properties :
#
#
# Convention : Reuss Voigt Hill
#
# Bulk Modulus (GPa) = 48.29421 49.50485 48.89953
# Shear Modulus (GPa) = 21.46732 25.04561 23.25646
#
# Velocity S-wave (km/s) = 3.33649 3.60385 3.47275
# Velocity P-wave (km/s) = 6.31558 6.55656 6.43719
#
# Compressibility (1/GPa) = 0.02070642
#
# Stress axis : x y z
#
# Youngs Moduli (GPa) = 48.09483 85.73866 40.72483
#
# Poissons Ratio (x) = 0.00505 0.62413
# Poissons Ratio (y) = 0.00284 0.11271
# Poissons Ratio (z) = 0.73708 0.23728
#
# Static dielectric constant tensor:
#      x y z
#    x 3.265240 0.000000 0.000000 
#    y 0.000000 3.759370 0.000000 
#    z 0.000000 0.000000 3.386880 
# 
# 
# High freq. dielectric constant tensor:
#      x y z
#    x 1.741870 0.000000 0.000000 
#    y 0.000000 1.776170 0.000000 
#    z 0.000000 0.000000 1.731970 
# 
# From -- ./inp_files/27719.got.cif
#   From: 2010.06.25/outbox.cif.g09.slc.cpg/sg58_14_cif.got.tgz:27719.got - 2010.06.26 21:38:00.
