data_PCOD8237158
_publ_section_title
;
Structure prediction by ZEFSAII (Michael W. Deem and Ramdas Pophale) SiO2 
 PCOD8237158
Probable space group: P N N M
;
_chemical_formula_sum "Si O2"
_cell_formula_units_Z 56
_cell_length_a 22.884999
_cell_length_b 5.081038
_cell_length_c 22.697625
_cell_angle_alpha 90.000000
_cell_angle_beta 90.000000
_cell_angle_gamma 90.000000
_cell_volume 2639.269611
_symmetry_space_group_name_H-M "P N N M"
_symmetry_group_IT_number 58
_symmetry_cell_setting 'orthorhombic'
loop_
_space_group_symop_operation_xyz
x,y,z
-x,-y,z
1/2+x,1/2-y,1/2-z
1/2-x,1/2+y,1/2-z
-x,-y,-z
x,y,-z
1/2-x,1/2+y,1/2+z
1/2+x,1/2-y,1/2+z
loop_
_atom_site_type_symbol
_atom_site_label
_atom_site_fract_x
_atom_site_fract_y
_atom_site_fract_z
Si Si1 0.241897 0.949161 0.211564
Si Si2 0.788582 0.632091 0.065750
Si Si3 0.432725 0.989054 0.749351
Si Si4 0.360285 0.350114 0.433682
Si Si5 0.841002 0.075543 0.570170
Si Si6 0.144572 0.432091 0.638503
Si Si7 0.891386 0.000372 0.815828
O O1 0.235808 0.665299 0.241891
O O2 0.287784 0.933860 0.158299
O O3 0.178894 0.037780 0.186806
O O4 0.809691 0.931062 0.065542
O O5 0.725149 0.609526 0.094676
O O6 0.834553 0.423940 0.093081
O O7 0.780955 0.521633 0.000000
O O8 0.412237 0.275375 0.728641
O O9 0.500000 0.000000 0.767264
O O10 0.396123 0.892994 0.805197
O O11 0.423175 0.772639 0.698573
O O12 0.387613 0.321939 0.500000
O O13 0.408066 0.433083 0.384260
O O14 0.847241 0.101182 0.500000
O O15 0.866888 0.802570 0.592634
O O16 0.875366 0.309171 0.602928
#
# Coordination Sequence:
#
# PCOD8237158 Si02
#       7
#     8   8   8   8   8   8   8
#     4  12  21  36  59  96 136 157 198 253 312 376
#     4   9  17  31  49  82 126 166 194 224 285 371
#     4  12  27  46  65  87 118 165 219 263 309 366
#     4  10  20  34  57  87 124 163 201 242 298 372
#     4  11  22  36  59  90 126 164 202 244 301 376
#     4  12  23  40  63  90 128 163 202 253 314 368
#     4  12  22  41  65  92 125 162 205 257 313 369
#
# _framework density 21.217993
#
# number of rings (size 3 to 8) (size 9 to 14) (size 15 to 20)
#    0.000    0.857    2.857    6.000    0.000    2.286 
#    0.000    0.000    0.000    5.143    0.000    0.000 
#    0.000    0.000    0.000    0.000    0.000    0.000 
#
# Total GULP energy -694362.153918 kJ/mol
# GULP energy per Si atom -12399.324177 kJ/mol
# Density = 2.116970 g / cm^3
# Si number density = 21.217993 Si / 1000 Ang^3
#
#
#
# Elastic Constant Matrix: (Units=GPa)
#
#
# Indices 1 2 3 4 5 6 
#
# 1 62.2018 4.5837 10.4293 0.0000 0.0000 0.0000
# 2 4.5837 100.1523 19.1404 0.0000 0.0000 0.0000
# 3 10.4293 19.1404 102.0668 0.0000 0.0000 0.0000
# 4 0.0000 0.0000 0.0000 36.1995 0.0000 0.0000
# 5 0.0000 0.0000 0.0000 0.0000 5.6395 0.0000
# 6 0.0000 0.0000 0.0000 0.0000 0.0000 18.4959
#
#
#
# Elastic Compliance Matrix: (Units=1/GPa)
#
#
# Indices 1 2 3 4 5 6 
#
# 1 0.016376 -0.000446 -0.001590 0.000000 0.000000 0.000000
# 2 -0.000446 0.010368 -0.001899 0.000000 0.000000 0.000000
# 3 -0.001590 -0.001899 0.010316 0.000000 0.000000 0.000000
# 4 0.000000 0.000000 0.000000 0.027625 0.000000 0.000000
# 5 0.000000 0.000000 0.000000 0.000000 0.177321 0.000000
# 6 0.000000 0.000000 0.000000 0.000000 0.000000 0.054066
#
#
# Mechanical properties :
#
#
# Convention : Reuss Voigt Hill
#
# Bulk Modulus (GPa) = 34.25618 36.96974 35.61296
# Shear Modulus (GPa) = 15.94026 27.41814 21.67920
#
# Velocity S-wave (km/s) = 2.74389 3.59863 3.19993
# Velocity P-wave (km/s) = 5.12040 5.89309 5.52028
#
# Compressibility (1/GPa) = 0.02919181
#
# Stress axis : x y z
#
# Youngs Moduli (GPa) = 61.06466 96.45000 96.93662
#
# Poissons Ratio (x) = 0.04298 0.15410
# Poissons Ratio (y) = 0.02721 0.18406
# Poissons Ratio (z) = 0.09708 0.18314
#
# Static dielectric constant tensor:
#      x y z
#    x 3.371550 0.000000 0.000000 
#    y 0.000000 4.009640 0.000000 
#    z 0.000000 0.000000 4.069780 
# 
# 
# High freq. dielectric constant tensor:
#      x y z
#    x 1.768290 0.000000 0.000000 
#    y 0.000000 1.856800 0.000000 
#    z 0.000000 0.000000 1.846050 
# 
# From -- ./inp_files/28248.got.cif
#   From: 2010.06.25/outbox.cif.g09.slc.cpg/sg58_15_cif.got.tgz:28248.got - 2010.06.26 21:38:00.
