data_PCOD8237451
_publ_section_title
;
Structure prediction by ZEFSAII (Michael W. Deem and Ramdas Pophale) SiO2 
 PCOD8237451
Probable space group: P N N M
;
_chemical_formula_sum "Si O2"
_cell_formula_units_Z 48
_cell_length_a 17.799000
_cell_length_b 15.440014
_cell_length_c 8.858851
_cell_angle_alpha 90.000000
_cell_angle_beta 90.000000
_cell_angle_gamma 90.000000
_cell_volume 2434.561165
_symmetry_space_group_name_H-M "P N N M"
_symmetry_group_IT_number 58
_symmetry_cell_setting 'orthorhombic'
loop_
_space_group_symop_operation_xyz
x,y,z
-x,-y,z
1/2+x,1/2-y,1/2-z
1/2-x,1/2+y,1/2-z
-x,-y,-z
x,y,-z
1/2-x,1/2+y,1/2+z
1/2+x,1/2-y,1/2+z
loop_
_atom_site_type_symbol
_atom_site_label
_atom_site_fract_x
_atom_site_fract_y
_atom_site_fract_z
Si Si1 0.793143 0.603524 0.675066
Si Si2 0.715436 0.428196 0.320631
Si Si3 0.530746 0.092810 0.826441
Si Si4 0.705860 0.755064 0.178410
Si Si5 0.953445 0.918252 0.179712
Si Si6 0.454470 0.253228 0.322120
O O1 0.773351 0.619742 0.500000
O O2 0.753292 0.516677 0.735921
O O3 0.881088 0.593786 0.701130
O O4 0.765910 0.683234 0.774560
O O5 0.713428 0.425638 0.500000
O O6 0.764375 0.347508 0.260721
O O7 0.631034 0.422155 0.254872
O O8 0.490431 0.162595 0.722775
O O9 0.500000 0.000000 0.776350
O O10 0.509830 0.112155 0.000000
O O11 0.626538 0.733061 0.250653
O O12 0.697186 0.756070 0.000000
O O13 0.992152 0.830264 0.237565
O O14 0.951503 0.920825 0.000000
O O15 0.000000 0.000000 0.242928
O O16 0.445053 0.257961 0.500000
#
# Coordination Sequence:
#
# PCOD8237451 Si02
#       6
#     8   8   8   8   8   8
#     4  10  20  36  59  84 110 143 186 232 275 328
#     4   9  18  34  56  80 107 143 184 222 269 334
#     4  10  21  38  59  83 114 152 189 228 283 345
#     4  11  22  37  57  81 113 151 188 228 280 339
#     4   9  17  31  54  81 106 135 176 226 276 328
#     4  11  22  36  57  84 112 145 189 238 283 328
#
# _framework density 19.716078
#
# number of rings (size 3 to 8) (size 9 to 14) (size 15 to 20)
#    0.000    2.000    0.000    4.000    0.000    7.667 
#    0.000    3.333    0.000   11.000    0.000    0.000 
#    0.000    0.000    0.000    0.000    0.000    0.000 
#
# Total GULP energy -595389.785625 kJ/mol
# GULP energy per Si atom -12403.953867 kJ/mol
# Density = 1.967120 g / cm^3
# Si number density = 19.716078 Si / 1000 Ang^3
#
#
#
# Elastic Constant Matrix: (Units=GPa)
#
#
# Indices 1 2 3 4 5 6 
#
# 1 98.2882 30.1563 25.6879 0.0000 0.0000 0.0000
# 2 30.1563 122.6633 28.1173 0.0000 0.0000 0.0000
# 3 25.6879 28.1173 42.8266 0.0000 0.0000 0.0000
# 4 0.0000 0.0000 0.0000 29.3498 0.0000 0.0000
# 5 0.0000 0.0000 0.0000 0.0000 27.9152 0.0000
# 6 0.0000 0.0000 0.0000 0.0000 0.0000 45.4208
#
#
#
# Elastic Compliance Matrix: (Units=1/GPa)
#
#
# Indices 1 2 3 4 5 6 
#
# 1 0.012318 -0.001571 -0.006357 0.000000 0.000000 0.000000
# 2 -0.001571 0.009797 -0.005490 0.000000 0.000000 0.000000
# 3 -0.006357 -0.005490 0.030767 0.000000 0.000000 0.000000
# 4 0.000000 0.000000 0.000000 0.034072 0.000000 0.000000
# 5 0.000000 0.000000 0.000000 0.000000 0.035823 0.000000
# 6 0.000000 0.000000 0.000000 0.000000 0.000000 0.022016
#
#
# Mechanical properties :
#
#
# Convention : Reuss Voigt Hill
#
# Bulk Modulus (GPa) = 38.39294 47.96678 43.17986
# Shear Modulus (GPa) = 27.73008 32.52495 30.12752
#
# Velocity S-wave (km/s) = 3.75436 4.06601 3.91329
# Velocity P-wave (km/s) = 6.18941 6.81358 6.50898
#
# Compressibility (1/GPa) = 0.02604646
#
# Stress axis : x y z
#
# Youngs Moduli (GPa) = 81.18501 102.07181 32.50238
#
# Poissons Ratio (x) = 0.16037 0.20661
# Poissons Ratio (y) = 0.12755 0.17843
# Poissons Ratio (z) = 0.51607 0.56035
#
# Static dielectric constant tensor:
#      x y z
#    x 0.930800 0.000000 0.000000 
#    y 0.000000 3.864330 0.000000 
#    z 0.000000 0.000000 3.236610 
# 
# 
# High freq. dielectric constant tensor:
#      x y z
#    x 1.789360 0.000000 0.000000 
#    y 0.000000 1.786360 0.000000 
#    z 0.000000 0.000000 1.729800 
# 
# From -- ./inp_files/5829.got.cif
#   From: 2010.06.25/outbox.cif.g09.slc.cpg/sg58_3_cif.got.tgz:5829.got - 2010.06.26 21:38:00.
