data_PCOD8237004
_publ_section_title
;
Structure prediction by ZEFSAII (Michael W. Deem and Ramdas Pophale) SiO2 
 PCOD8237004
Probable space group: P N N M
;
_chemical_formula_sum "Si O2"
_cell_formula_units_Z 32
_cell_length_a 14.885043
_cell_length_b 14.121701
_cell_length_c 8.687957
_cell_angle_alpha 90.000000
_cell_angle_beta 90.000000
_cell_angle_gamma 90.000000
_cell_volume 1826.227037
_symmetry_space_group_name_H-M "P N N M"
_symmetry_group_IT_number 58
_symmetry_cell_setting 'orthorhombic'
loop_
_space_group_symop_operation_xyz
x,y,z
-x,-y,z
1/2+x,1/2-y,1/2-z
1/2-x,1/2+y,1/2-z
-x,-y,-z
x,y,-z
1/2-x,1/2+y,1/2+z
1/2+x,1/2-y,1/2+z
loop_
_atom_site_type_symbol
_atom_site_label
_atom_site_fract_x
_atom_site_fract_y
_atom_site_fract_z
Si Si1 0.078890 0.832692 0.325717
Si Si2 0.890541 0.798528 0.180266
Si Si3 0.258337 0.844126 0.181859
Si Si4 0.821032 0.986243 0.674248
O O1 0.067725 0.794906 0.500000
O O2 0.170003 0.789471 0.249814
O O3 0.994348 0.802460 0.225577
O O4 0.089449 0.947472 0.325455
O O5 0.847848 0.708572 0.264952
O O6 0.838322 0.892870 0.228432
O O7 0.881303 0.784241 0.000000
O O8 0.259522 0.952091 0.248448
O O9 0.252547 0.847084 0.000000
O O10 0.794961 0.957560 0.500000
#
# Coordination Sequence:
#
# PCOD8237004 Si02
#       4
#     8   8   8   8
#     4   9  19  34  51  75 105 131 167 213 254 296
#     4  12  21  31  53  78 103 138 170 203 255 303
#     4  10  20  34  50  74 104 134 168 210 254 300
#     4   9  19  34  51  75 105 131 167 213 254 296
#
# _framework density 17.522466000000001
#
# number of rings (size 3 to 8) (size 9 to 14) (size 15 to 20)
#    1.500    0.500    0.000    6.000    0.000    3.000 
#    0.000    0.000    0.000    1.500    0.000   10.500 
#    0.000    0.000    0.000    0.000    0.000    0.000 
#
# Total GULP energy -396529.891572 kJ/mol
# GULP energy per Si atom -12391.559112 kJ/mol
# Density = 1.748258 g / cm^3
# Si number density = 17.522466 Si / 1000 Ang^3
#
#
#
# Elastic Constant Matrix: (Units=GPa)
#
#
# Indices 1 2 3 4 5 6 
#
# 1 4.6203 10.6290 13.1463 0.0000 0.0000 0.0000
# 2 10.6290 -1.4674 3.8185 0.0000 0.0000 0.0000
# 3 13.1463 3.8185 109.4822 0.0000 0.0000 0.0000
# 4 0.0000 0.0000 0.0000 27.3712 0.0000 0.0000
# 5 0.0000 0.0000 0.0000 0.0000 31.4952 0.0000
# 6 0.0000 0.0000 0.0000 0.0000 0.0000 15.9212
#
#
#
# Elastic Compliance Matrix: (Units=1/GPa)
#
#
# Indices 1 2 3 4 5 6 
#
# 1 0.014779 0.093904 -0.005050 0.000000 0.000000 0.000000
# 2 0.093904 -0.028085 -0.010296 0.000000 0.000000 0.000000
# 3 -0.005050 -0.010296 0.010099 0.000000 0.000000 0.000000
# 4 0.000000 0.000000 0.000000 0.036535 0.000000 0.000000
# 5 0.000000 0.000000 0.000000 0.000000 0.031751 0.000000
# 6 0.000000 0.000000 0.000000 0.000000 0.000000 0.062809
#
#
# Mechanical properties :
#
#
# Convention : Reuss Voigt Hill
#
# Bulk Modulus (GPa) = 6.49733 18.64695 12.57214
# Shear Modulus (GPa) = 226.49740 20.62694 123.56217
#
# Velocity S-wave (km/s) = 11.38164 3.43472 8.40652
# Velocity P-wave (km/s) = 13.28301 5.13756 10.07057
#
# Compressibility (1/GPa) = 0.15390932
#
# Stress axis : x y z
#
# Youngs Moduli (GPa) = 67.66579 -35.60665 99.01620
#
# Poissons Ratio (x) = 3.34360 0.50000
# Poissons Ratio (y) = -6.35408 1.01949
# Poissons Ratio (z) = 0.34169 -0.36661
#
# Static dielectric constant tensor:
#      x y z
#    x 3.032520 0.000000 0.000000 
#    y 0.000000 2.963500 0.000000 
#    z 0.000000 0.000000 3.313690 
# 
# 
# High freq. dielectric constant tensor:
#      x y z
#    x 1.653920 0.000000 0.000000 
#    y 0.000000 1.645260 0.000000 
#    z 0.000000 0.000000 1.700410 
# 
# From -- ./inp_files/3708.got.cif
#   From: 2010.06.25/outbox.cif.g09.slc.cpg/sg58_2_cif.got.tgz:3708.got - 2010.06.26 21:38:00.
