data_PCOD8237096
_publ_section_title
;
Structure prediction by ZEFSAII (Michael W. Deem and Ramdas Pophale) SiO2 
 PCOD8237096
Probable space group: P N N M
;
_chemical_formula_sum "Si O2"
_cell_formula_units_Z 64
_cell_length_a 12.423638
_cell_length_b 26.398995
_cell_length_c 9.355105
_cell_angle_alpha 90.000000
_cell_angle_beta 90.000000
_cell_angle_gamma 90.000000
_cell_volume 3068.208357
_symmetry_space_group_name_H-M "P N N M"
_symmetry_group_IT_number 58
_symmetry_cell_setting 'orthorhombic'
loop_
_space_group_symop_operation_xyz
x,y,z
-x,-y,z
1/2+x,1/2-y,1/2-z
1/2-x,1/2+y,1/2-z
-x,-y,-z
x,y,-z
1/2-x,1/2+y,1/2+z
1/2+x,1/2-y,1/2+z
loop_
_atom_site_type_symbol
_atom_site_label
_atom_site_fract_x
_atom_site_fract_y
_atom_site_fract_z
Si Si1 0.690315 0.328237 0.342679
Si Si2 0.506302 0.357004 0.840157
Si Si3 0.116950 0.713384 0.161239
Si Si4 0.816800 0.172722 0.163845
Si Si5 0.398042 0.843442 0.664665
Si Si6 0.274056 0.062794 0.155768
Si Si7 0.903300 0.968384 0.658813
Si Si8 0.477221 0.057631 0.664683
O O1 0.673251 0.302931 0.500000
O O2 0.585493 0.318162 0.244292
O O3 0.796760 0.307086 0.271507
O O4 0.702087 0.387887 0.365312
O O5 0.393956 0.364289 0.755091
O O6 0.564930 0.410243 0.852116
O O7 0.484494 0.335535 0.000000
O O8 0.122546 0.773679 0.170949
O O9 0.999707 0.692066 0.204095
O O10 0.144665 0.694807 0.000000
O O11 0.698621 0.173875 0.233276
O O12 0.806609 0.154094 0.000000
O O13 0.364302 0.835120 0.500000
O O14 0.424495 0.903286 0.690564
O O15 0.203249 0.022689 0.245972
O O16 0.380344 0.078284 0.240583
O O17 0.302785 0.039630 0.000000
O O18 0.878209 0.989832 0.500000
O O19 0.000000 0.000000 0.729766
O O20 0.441133 0.058963 0.500000
O O21 0.500000 0.000000 0.713086
#
# Coordination Sequence:
#
# PCOD8237096 Si02
#       8
#     8   8   8   8   8   8   8   8
#     4  10  20  35  59  87 115 148 191 244 297 351
#     4  10  21  38  60  85 117 155 196 240 295 353
#     4  10  22  40  62  87 115 154 200 244 294 353
#     4  11  25  41  59  89 125 159 199 246 304 363
#     4  10  22  42  64  87 121 161 204 252 305 361
#     4  10  20  34  54  84 117 150 189 240 303 357
#     4   9  19  36  59  84 112 152 201 247 288 344
#     4  10  21  38  62  88 115 156 207 253 296 354
#
# _framework density 20.859079999999999
#
# number of rings (size 3 to 8) (size 9 to 14) (size 15 to 20)
#    0.000    2.000    1.250    1.500    1.750    5.000 
#    0.000    5.000    0.000    0.000    0.000    0.000 
#    0.000    0.000    0.000    0.000    0.000    0.000 
#
# Total GULP energy -793428.485069 kJ/mol
# GULP energy per Si atom -12397.320079 kJ/mol
# Density = 2.081160 g / cm^3
# Si number density = 20.859080 Si / 1000 Ang^3
#
#
#
# Elastic Constant Matrix: (Units=GPa)
#
#
# Indices 1 2 3 4 5 6 
#
# 1 115.2235 8.5088 74.6749 0.0000 0.0000 0.0000
# 2 8.5088 49.0133 11.0798 0.0000 0.0000 0.0000
# 3 74.6749 11.0798 150.9436 0.0000 0.0000 0.0000
# 4 0.0000 0.0000 0.0000 14.0165 0.0000 0.0000
# 5 0.0000 0.0000 0.0000 0.0000 33.5716 0.0000
# 6 0.0000 0.0000 0.0000 0.0000 0.0000 30.5819
#
#
#
# Elastic Compliance Matrix: (Units=1/GPa)
#
#
# Indices 1 2 3 4 5 6 
#
# 1 0.012806 -0.000804 -0.006276 0.000000 0.000000 0.000000
# 2 -0.000804 0.020797 -0.001129 0.000000 0.000000 0.000000
# 3 -0.006276 -0.001129 0.009813 0.000000 0.000000 0.000000
# 4 0.000000 0.000000 0.000000 0.071345 0.000000 0.000000
# 5 0.000000 0.000000 0.000000 0.000000 0.029787 0.000000
# 6 0.000000 0.000000 0.000000 0.000000 0.000000 0.032699
#
#
# Mechanical properties :
#
#
# Convention : Reuss Voigt Hill
#
# Bulk Modulus (GPa) = 37.04049 55.96749 46.50399
# Shear Modulus (GPa) = 24.67134 30.36179 27.51656
#
# Velocity S-wave (km/s) = 3.44286 3.81933 3.63597
# Velocity P-wave (km/s) = 5.79659 6.80729 6.32217
#
# Compressibility (1/GPa) = 0.02699748
#
# Stress axis : x y z
#
# Youngs Moduli (GPa) = 78.09017 48.08296 101.90764
#
# Poissons Ratio (x) = 0.03867 0.63959
# Poissons Ratio (y) = 0.06281 0.11502
# Poissons Ratio (z) = 0.49011 0.05427
#
# Static dielectric constant tensor:
#      x y z
#    x 3.658050 0.000000 0.000000 
#    y 0.000000 3.655630 0.000000 
#    z 0.000000 0.000000 4.157930 
# 
# 
# High freq. dielectric constant tensor:
#      x y z
#    x 1.815400 0.000000 0.000000 
#    y 0.000000 1.794060 0.000000 
#    z 0.000000 0.000000 1.825100 
# 
# From -- ./inp_files/4724.got.cif
#   From: 2010.06.25/outbox.cif.g09.slc.cpg/sg58_3_cif.got.tgz:4724.got - 2010.06.26 21:38:00.
