data_PCOD8237468
_publ_section_title
;
Structure prediction by ZEFSAII (Michael W. Deem and Ramdas Pophale) SiO2 
 PCOD8237468
Probable space group: P N N M
;
_chemical_formula_sum "Si O2"
_cell_formula_units_Z 56
_cell_length_a 14.490692
_cell_length_b 21.835698
_cell_length_c 8.756849
_cell_angle_alpha 90.000000
_cell_angle_beta 90.000000
_cell_angle_gamma 90.000000
_cell_volume 2770.792897
_symmetry_space_group_name_H-M "P N N M"
_symmetry_group_IT_number 58
_symmetry_cell_setting 'orthorhombic'
loop_
_space_group_symop_operation_xyz
x,y,z
-x,-y,z
1/2+x,1/2-y,1/2-z
1/2-x,1/2+y,1/2-z
-x,-y,-z
x,y,-z
1/2-x,1/2+y,1/2+z
1/2+x,1/2-y,1/2+z
loop_
_atom_site_type_symbol
_atom_site_label
_atom_site_fract_x
_atom_site_fract_y
_atom_site_fract_z
Si Si1 0.912060 0.571836 0.820148
Si Si2 0.894442 0.161512 0.822067
Si Si3 0.095583 0.974932 0.819564
Si Si4 0.200508 0.091967 0.822742
Si Si5 0.581337 0.302327 0.820371
Si Si6 0.310764 0.816809 0.821473
Si Si7 0.900403 0.440720 0.678820
O O1 0.841089 0.624309 0.773885
O O2 0.883866 0.509676 0.735485
O O3 0.015473 0.591088 0.768472
O O4 0.909807 0.560934 0.000000
O O5 0.885205 0.092674 0.753303
O O6 0.797734 0.195787 0.790945
O O7 0.977332 0.197671 0.741888
O O8 0.918302 0.159409 0.000000
O O9 0.175264 0.022595 0.772384
O O10 0.088990 0.969371 0.000000
O O11 0.000000 0.000000 0.750747
O O12 0.139741 0.139045 0.728725
O O13 0.309186 0.099936 0.789471
O O14 0.176621 0.102139 0.000000
O O15 0.632840 0.241586 0.760538
O O16 0.576533 0.301441 0.000000
O O17 0.328468 0.829872 0.000000
O O18 0.923233 0.442702 0.500000
#
# Coordination Sequence:
#
# PCOD8237468 Si02
#       7
#     8   8   8   8   8   8   8
#     4  11  22  37  59  88 119 151 193 246 298 345
#     4  10  20  39  64  84 110 151 198 241 290 357
#     4   9  15  28  56  87 110 136 181 239 285 336
#     4  10  20  36  59  86 114 153 198 235 284 349
#     4  11  24  39  56  84 121 152 189 243 295 345
#     4  10  23  42  61  81 112 159 204 239 286 354
#     4  10  20  36  61  88 120 158 195 237 287 350
#
# _framework density 20.210820999999999
#
# number of rings (size 3 to 8) (size 9 to 14) (size 15 to 20)
#    0.000    1.857    1.429    3.857    0.000    6.286 
#    0.000    4.286    0.000    0.000    0.000    0.000 
#    0.000    0.000    0.000    0.000    0.000    0.000 
#
# Total GULP energy -694417.941272 kJ/mol
# GULP energy per Si atom -12400.320380 kJ/mol
# Density = 2.016482 g / cm^3
# Si number density = 20.210821 Si / 1000 Ang^3
#
#
#
# Elastic Constant Matrix: (Units=GPa)
#
#
# Indices 1 2 3 4 5 6 
#
# 1 117.2899 36.0000 20.6532 0.0000 0.0000 0.0000
# 2 36.0000 73.8237 15.0214 0.0000 0.0000 0.0000
# 3 20.6532 15.0214 41.4720 0.0000 0.0000 0.0000
# 4 0.0000 0.0000 0.0000 20.6261 0.0000 0.0000
# 5 0.0000 0.0000 0.0000 0.0000 29.1002 0.0000
# 6 0.0000 0.0000 0.0000 0.0000 0.0000 33.0664
#
#
#
# Elastic Compliance Matrix: (Units=1/GPa)
#
#
# Indices 1 2 3 4 5 6 
#
# 1 0.010514 -0.004385 -0.003648 0.000000 0.000000 0.000000
# 2 -0.004385 0.016452 -0.003775 0.000000 0.000000 0.000000
# 3 -0.003648 -0.003775 0.027297 0.000000 0.000000 0.000000
# 4 0.000000 0.000000 0.000000 0.048482 0.000000 0.000000
# 5 0.000000 0.000000 0.000000 0.000000 0.034364 0.000000
# 6 0.000000 0.000000 0.000000 0.000000 0.000000 0.030242
#
#
# Mechanical properties :
#
#
# Convention : Reuss Voigt Hill
#
# Bulk Modulus (GPa) = 32.62979 41.77055 37.20017
# Shear Modulus (GPa) = 24.85291 27.28592 26.06942
#
# Velocity S-wave (km/s) = 3.51049 3.67831 3.59538
# Velocity P-wave (km/s) = 5.71062 6.22513 5.97341
#
# Compressibility (1/GPa) = 0.03064684
#
# Stress axis : x y z
#
# Youngs Moduli (GPa) = 95.11046 60.78175 36.63440
#
# Poissons Ratio (x) = 0.26652 0.13364
# Poissons Ratio (y) = 0.41705 0.13831
# Poissons Ratio (z) = 0.34694 0.22948
#
# Static dielectric constant tensor:
#      x y z
#    x 3.870120 0.000000 0.000000 
#    y 0.000000 3.641900 0.000000 
#    z 0.000000 0.000000 3.435160 
# 
# 
# High freq. dielectric constant tensor:
#      x y z
#    x 1.807060 0.000000 0.000000 
#    y 0.000000 1.777870 0.000000 
#    z 0.000000 0.000000 1.767080 
# 
# From -- ./inp_files/6243.got.cif
#   From: 2010.06.25/outbox.cif.g09.slc.cpg/sg58_4_cif.got.tgz:6243.got - 2010.06.26 21:38:00.
