data_PCOD8237292
_publ_section_title
;
Structure prediction by ZEFSAII (Michael W. Deem and Ramdas Pophale) SiO2 
 PCOD8237292
Probable space group: P N N M
;
_chemical_formula_sum "Si O2"
_cell_formula_units_Z 40
_cell_length_a 24.899035
_cell_length_b 8.449340
_cell_length_c 8.958191
_cell_angle_alpha 90.000000
_cell_angle_beta 90.000000
_cell_angle_gamma 90.000000
_cell_volume 1884.627917
_symmetry_space_group_name_H-M "P N N M"
_symmetry_group_IT_number 58
_symmetry_cell_setting 'orthorhombic'
loop_
_space_group_symop_operation_xyz
x,y,z
-x,-y,z
1/2+x,1/2-y,1/2-z
1/2-x,1/2+y,1/2-z
-x,-y,-z
x,y,-z
1/2-x,1/2+y,1/2+z
1/2+x,1/2-y,1/2+z
loop_
_atom_site_type_symbol
_atom_site_label
_atom_site_fract_x
_atom_site_fract_y
_atom_site_fract_z
Si Si1 0.517763 0.318991 0.668582
Si Si2 0.218532 0.235804 0.173788
Si Si3 0.379887 0.589475 0.171805
Si Si4 0.816945 0.408031 0.826224
Si Si5 0.415136 0.229763 0.828095
O O1 0.500000 0.500000 0.671031
O O2 0.522671 0.255277 0.500000
O O3 0.575407 0.302122 0.747684
O O4 0.474376 0.214437 0.757409
O O5 0.177582 0.117353 0.254072
O O6 0.201592 0.414546 0.204184
O O7 0.277394 0.212153 0.241971
O O8 0.219876 0.194456 0.000000
O O9 0.393038 0.406185 0.190950
O O10 0.377813 0.640095 0.000000
O O11 0.876406 0.389397 0.759615
O O12 0.817428 0.365065 0.000000
O O13 0.418334 0.179403 0.000000
#
# Coordination Sequence:
#
# PCOD8237292 Si02
#       5
#     8   8   8   8   8
#     4   9  17  31  54  83 114 149 186 224 270 323
#     4  11  24  40  58  82 111 144 184 229 277 330
#     4  10  20  35  57  85 115 147 185 228 273 324
#     4  11  24  40  58  82 111 144 184 229 277 330
#     4  10  20  35  57  85 115 147 185 228 273 324
#
# _framework density 21.224349
#
# number of rings (size 3 to 8) (size 9 to 14) (size 15 to 20)
#    0.000    1.800    0.000    4.200    0.000   12.800 
#    0.000    1.000    0.000    6.000    0.000    0.000 
#    0.000    0.000    0.000    0.000    0.000    0.000 
#
# Total GULP energy -496254.626772 kJ/mol
# GULP energy per Si atom -12406.365669 kJ/mol
# Density = 2.117604 g / cm^3
# Si number density = 21.224349 Si / 1000 Ang^3
#
#
#
# Elastic Constant Matrix: (Units=GPa)
#
#
# Indices 1 2 3 4 5 6 
#
# 1 51.0353 -9.3451 8.0104 0.0000 0.0000 0.0000
# 2 -9.3451 21.0156 27.6392 0.0000 0.0000 0.0000
# 3 8.0104 27.6392 134.0375 0.0000 0.0000 0.0000
# 4 0.0000 0.0000 0.0000 19.1053 0.0000 0.0000
# 5 0.0000 0.0000 0.0000 0.0000 45.3816 0.0000
# 6 0.0000 0.0000 0.0000 0.0000 0.0000 27.4170
#
#
#
# Elastic Compliance Matrix: (Units=1/GPa)
#
#
# Indices 1 2 3 4 5 6 
#
# 1 0.023441 0.016830 -0.004871 0.000000 0.000000 0.000000
# 2 0.016830 0.077374 -0.016961 0.000000 0.000000 0.000000
# 3 -0.004871 -0.016961 0.011249 0.000000 0.000000 0.000000
# 4 0.000000 0.000000 0.000000 0.052342 0.000000 0.000000
# 5 0.000000 0.000000 0.000000 0.000000 0.022035 0.000000
# 6 0.000000 0.000000 0.000000 0.000000 0.000000 0.036474
#
#
# Mechanical properties :
#
#
# Convention : Reuss Voigt Hill
#
# Bulk Modulus (GPa) = 9.79817 28.74414 19.27116
# Shear Modulus (GPa) = 18.73094 30.36636 24.54865
#
# Velocity S-wave (km/s) = 2.97395 3.78661 3.40461
# Velocity P-wave (km/s) = 4.05204 5.71754 4.95526
#
# Compressibility (1/GPa) = 0.10205983
#
# Stress axis : x y z
#
# Youngs Moduli (GPa) = 42.66097 12.92425 88.89606
#
# Poissons Ratio (x) = -0.21752 0.43304
# Poissons Ratio (y) = -0.71799 1.50774
# Poissons Ratio (z) = 0.20781 0.21920
#
# Static dielectric constant tensor:
#      x y z
#    x 4.031970 0.000000 0.000000 
#    y 0.000000 3.438600 0.000000 
#    z 0.000000 0.000000 3.983510 
# 
# 
# High freq. dielectric constant tensor:
#      x y z
#    x 1.846030 0.000000 0.000000 
#    y 0.000000 1.806360 0.000000 
#    z 0.000000 0.000000 1.847510 
# 
# From -- ./inp_files/2405.got.cif
#   From: 2010.06.25/outbox.cif.g09.slc.cpg/sg58_2_cif.got.tgz:2405.got - 2010.06.26 21:38:00.
