data_PCOD8237414
_publ_section_title
;
Structure prediction by ZEFSAII (Michael W. Deem and Ramdas Pophale) SiO2 
 PCOD8237414
Probable space group: P N N M
;
_chemical_formula_sum "Si O2"
_cell_formula_units_Z 48
_cell_length_a 15.321961
_cell_length_b 9.185642
_cell_length_c 18.120550
_cell_angle_alpha 90.000000
_cell_angle_beta 90.000000
_cell_angle_gamma 90.000000
_cell_volume 2550.323327
_symmetry_space_group_name_H-M "P N N M"
_symmetry_group_IT_number 58
_symmetry_cell_setting 'orthorhombic'
loop_
_space_group_symop_operation_xyz
x,y,z
-x,-y,z
1/2+x,1/2-y,1/2-z
1/2-x,1/2+y,1/2-z
-x,-y,-z
x,y,-z
1/2-x,1/2+y,1/2+z
1/2+x,1/2-y,1/2+z
loop_
_atom_site_type_symbol
_atom_site_label
_atom_site_fract_x
_atom_site_fract_y
_atom_site_fract_z
Si Si1 0.481068 0.831290 0.792708
Si Si2 0.325580 0.218665 0.193657
Si Si3 0.233026 0.043542 0.916660
Si Si4 0.219219 0.032966 0.306469
Si Si5 0.581361 0.401665 0.691982
Si Si6 0.337144 0.760590 0.914527
O O1 0.572143 0.745293 0.803584
O O2 0.441408 0.763931 0.716966
O O3 0.418788 0.809735 0.863850
O O4 0.500000 0.000000 0.779127
O O5 0.313714 0.129571 0.118463
O O6 0.295240 0.118308 0.262756
O O7 0.262072 0.360407 0.187370
O O8 0.143780 0.092365 0.878331
O O9 0.256509 0.873276 0.907926
O O10 0.223309 0.091996 0.000000
O O11 0.129005 0.029757 0.261994
O O12 0.202308 0.107415 0.385878
O O13 0.500000 0.500000 0.670362
O O14 0.367623 0.746012 0.000000
#
# Coordination Sequence:
#
# PCOD8237414 Si02
#       6
#     8   8   8   8   8   8
#     4  11  22  36  59  89 116 151 194 244 291 340
#     4  11  21  36  61  86 116 153 194 244 290 340
#     4  10  22  38  57  84 116 153 193 232 287 350
#     4  10  21  36  59  85 113 152 196 241 289 347
#     4  10  20  36  58  82 111 147 195 243 282 340
#     4  10  22  39  58  85 121 155 190 236 295 356
#
# _framework density 18.821142999999999
#
# number of rings (size 3 to 8) (size 9 to 14) (size 15 to 20)
#    0.000    1.667    3.333    2.000    4.667    2.000 
#    0.000    0.833    0.000    0.500    0.000    0.000 
#    0.000    0.000    0.000    0.000    0.000    0.000 
#
# Total GULP energy -594846.443284 kJ/mol
# GULP energy per Si atom -12392.634235 kJ/mol
# Density = 1.877831 g / cm^3
# Si number density = 18.821143 Si / 1000 Ang^3
#
#
#
# Elastic Constant Matrix: (Units=GPa)
#
#
# Indices 1 2 3 4 5 6 
#
# 1 94.2806 6.4318 45.5141 0.0000 0.0000 0.0000
# 2 6.4318 79.4326 41.7320 0.0000 0.0000 0.0000
# 3 45.5141 41.7320 108.6869 0.0000 0.0000 0.0000
# 4 0.0000 0.0000 0.0000 23.7411 0.0000 0.0000
# 5 0.0000 0.0000 0.0000 0.0000 20.5242 0.0000
# 6 0.0000 0.0000 0.0000 0.0000 0.0000 26.7108
#
#
#
# Elastic Compliance Matrix: (Units=1/GPa)
#
#
# Indices 1 2 3 4 5 6 
#
# 1 0.013643 0.002376 -0.006626 0.000000 0.000000 0.000000
# 2 0.002376 0.016185 -0.007209 0.000000 0.000000 0.000000
# 3 -0.006626 -0.007209 0.014743 0.000000 0.000000 0.000000
# 4 0.000000 0.000000 0.000000 0.042121 0.000000 0.000000
# 5 0.000000 0.000000 0.000000 0.000000 0.048723 0.000000
# 6 0.000000 0.000000 0.000000 0.000000 0.000000 0.037438
#
#
# Mechanical properties :
#
#
# Convention : Reuss Voigt Hill
#
# Bulk Modulus (GPa) = 46.18187 52.19512 49.18850
# Shear Modulus (GPa) = 24.63194 26.77670 25.70432
#
# Velocity S-wave (km/s) = 3.62157 3.77595 3.69957
# Velocity P-wave (km/s) = 6.48677 6.84126 6.66637
#
# Compressibility (1/GPa) = 0.02165352
#
# Stress axis : x y z
#
# Youngs Moduli (GPa) = 73.29739 61.78748 67.82671
#
# Poissons Ratio (x) = -0.14682 0.44939
# Poissons Ratio (y) = -0.17417 0.48899
# Poissons Ratio (z) = 0.48564 0.44545
#
# Static dielectric constant tensor:
#      x y z
#    x 3.463570 0.000000 0.000000 
#    y 0.000000 3.672570 0.000000 
#    z 0.000000 0.000000 3.341600 
# 
# 
# High freq. dielectric constant tensor:
#      x y z
#    x 1.731220 0.000000 0.000000 
#    y 0.000000 1.740280 0.000000 
#    z 0.000000 0.000000 1.710390 
# 
# From -- ./inp_files/26791.got.cif
#   From: 2010.06.25/outbox.cif.g09.slc.cpg/sg58_14_cif.got.tgz:26791.got - 2010.06.26 21:38:00.
