data_PCOD8237229
_publ_section_title
;
Structure prediction by ZEFSAII (Michael W. Deem and Ramdas Pophale) SiO2 
 PCOD8237229
Probable space group: P N N M
;
_chemical_formula_sum "Si O2"
_cell_formula_units_Z 64
_cell_length_a 19.798816
_cell_length_b 19.819210
_cell_length_c 9.051520
_cell_angle_alpha 90.000000
_cell_angle_beta 90.000000
_cell_angle_gamma 90.000000
_cell_volume 3551.788316
_symmetry_space_group_name_H-M "P N N M"
_symmetry_group_IT_number 58
_symmetry_cell_setting 'orthorhombic'
loop_
_space_group_symop_operation_xyz
x,y,z
-x,-y,z
1/2+x,1/2-y,1/2-z
1/2-x,1/2+y,1/2-z
-x,-y,-z
x,y,-z
1/2-x,1/2+y,1/2+z
1/2+x,1/2-y,1/2+z
loop_
_atom_site_type_symbol
_atom_site_label
_atom_site_fract_x
_atom_site_fract_y
_atom_site_fract_z
Si Si1 0.826504 0.916464 0.331855
Si Si2 0.435501 0.328910 0.171398
Si Si3 0.671684 0.926409 0.671431
Si Si4 0.319797 0.935468 0.174180
Si Si5 0.819067 0.070982 0.671049
Si Si6 0.423302 0.174473 0.831946
Si Si7 0.922446 0.680772 0.328848
Si Si8 0.574169 0.319407 0.674193
O O1 0.844069 0.895832 0.500000
O O2 0.748005 0.903155 0.297364
O O3 0.869077 0.872921 0.218039
O O4 0.843909 0.994744 0.304480
O O5 0.377801 0.379590 0.227076
O O6 0.409670 0.253173 0.198601
O O7 0.502795 0.344248 0.262398
O O8 0.452933 0.340639 0.000000
O O9 0.660989 0.942130 0.500000
O O10 0.622466 0.867074 0.720472
O O11 0.654374 0.994374 0.758968
O O12 0.247424 0.913012 0.235530
O O13 0.373463 0.878924 0.221023
O O14 0.314939 0.943741 0.000000
O O15 0.801282 0.083735 0.500000
O O16 0.501145 0.156901 0.799041
O O17 0.404291 0.155598 0.000000
O O18 0.913152 0.700161 0.500000
O O19 0.904319 0.746616 0.235194
O O20 0.568841 0.315279 0.500000
#
# Coordination Sequence:
#
# PCOD8237229 Si02
#       8
#     8   8   8   8   8   8   8   8
#     4   9  19  36  54  73 104 142 174 208 257 316
#     4   9  19  37  57  76 105 142 174 209 260 319
#     4  10  21  36  54  77 106 139 175 215 258 308
#     4  10  20  35  56  79 105 137 173 216 262 309
#     4   9  19  36  57  80 105 137 176 214 257 310
#     4   9  18  34  55  77 104 138 175 214 255 306
#     4   9  20  38  56  76 105 141 175 208 259 320
#     4  11  22  34  53  80 106 134 174 222 260 298
#
# _framework density 18.019091
#
# number of rings (size 3 to 8) (size 9 to 14) (size 15 to 20)
#    0.000    2.500    0.000    3.375    0.000    8.000 
#    0.000    7.500    0.000    0.000    0.000    0.000 
#    0.000    0.000    0.000    0.000    0.000    0.000 
#
# Total GULP energy -793813.647396 kJ/mol
# GULP energy per Si atom -12403.338241 kJ/mol
# Density = 1.797808 g / cm^3
# Si number density = 18.019091 Si / 1000 Ang^3
#
#
#
# Elastic Constant Matrix: (Units=GPa)
#
#
# Indices 1 2 3 4 5 6 
#
# 1 108.1202 85.5631 58.6938 0.0000 0.0000 0.0000
# 2 85.5631 107.0175 57.3920 0.0000 0.0000 0.0000
# 3 58.6938 57.3920 87.3440 0.0000 0.0000 0.0000
# 4 0.0000 0.0000 0.0000 28.6007 0.0000 0.0000
# 5 0.0000 0.0000 0.0000 0.0000 33.5256 0.0000
# 6 0.0000 0.0000 0.0000 0.0000 0.0000 36.7769
#
#
#
# Elastic Compliance Matrix: (Units=1/GPa)
#
#
# Indices 1 2 3 4 5 6 
#
# 1 0.027166 -0.018421 -0.006151 0.000000 0.000000 0.000000
# 2 -0.018421 0.026920 -0.005310 0.000000 0.000000 0.000000
# 3 -0.006151 -0.005310 0.019071 0.000000 0.000000 0.000000
# 4 0.000000 0.000000 0.000000 0.034964 0.000000 0.000000
# 5 0.000000 0.000000 0.000000 0.000000 0.029828 0.000000
# 6 0.000000 0.000000 0.000000 0.000000 0.000000 0.027191
#
#
# Mechanical properties :
#
#
# Convention : Reuss Voigt Hill
#
# Bulk Modulus (GPa) = 74.66372 78.41992 76.54182
# Shear Modulus (GPa) = 21.79891 26.50283 24.15087
#
# Velocity S-wave (km/s) = 3.48194 3.83929 3.66497
# Velocity P-wave (km/s) = 7.59547 7.95415 7.77687
#
# Compressibility (1/GPa) = 0.01339339
#
# Stress axis : x y z
#
# Youngs Moduli (GPa) = 36.81061 37.14691 52.43476
#
# Poissons Ratio (x) = 0.68429 0.32252
# Poissons Ratio (y) = 0.67810 0.27842
# Poissons Ratio (z) = 0.22642 0.19725
#
# Static dielectric constant tensor:
#      x y z
#    x 3.366760 0.000000 0.000000 
#    y 0.000000 3.362020 0.000000 
#    z 0.000000 0.000000 3.263650 
# 
# 
# High freq. dielectric constant tensor:
#      x y z
#    x 1.698750 0.000000 0.000000 
#    y 0.000000 1.700220 0.000000 
#    z 0.000000 0.000000 1.696880 
# 
# From -- ./inp_files/8388.got.cif
#   From: 2010.06.25/outbox.cif.g09.slc.cpg/sg58_5_cif.got.tgz:8388.got - 2010.06.26 21:38:00.
