data_PCOD8237501
_publ_section_title
;
Structure prediction by ZEFSAII (Michael W. Deem and Ramdas Pophale) SiO2 
 PCOD8237501
Probable space group: P N N M
;
_chemical_formula_sum "Si O2"
_cell_formula_units_Z 48
_cell_length_a 28.881970
_cell_length_b 10.078936
_cell_length_c 8.655187
_cell_angle_alpha 90.000000
_cell_angle_beta 90.000000
_cell_angle_gamma 90.000000
_cell_volume 2519.520843
_symmetry_space_group_name_H-M "P N N M"
_symmetry_group_IT_number 58
_symmetry_cell_setting 'orthorhombic'
loop_
_space_group_symop_operation_xyz
x,y,z
-x,-y,z
1/2+x,1/2-y,1/2-z
1/2-x,1/2+y,1/2-z
-x,-y,-z
x,y,-z
1/2-x,1/2+y,1/2+z
1/2+x,1/2-y,1/2+z
loop_
_atom_site_type_symbol
_atom_site_label
_atom_site_fract_x
_atom_site_fract_y
_atom_site_fract_z
Si Si1 0.289208 0.718504 0.320159
Si Si2 0.027421 0.128990 0.819908
Si Si3 0.781215 0.479904 0.177778
Si Si4 0.473163 0.135726 0.822737
Si Si5 0.615204 0.264407 0.180217
Si Si6 0.612642 0.979874 0.321761
O O1 0.302067 0.716840 0.500000
O O2 0.249215 0.613761 0.285717
O O3 0.273141 0.866943 0.273062
O O4 0.334847 0.676591 0.225471
O O5 0.075489 0.131141 0.725213
O O6 0.995675 0.255259 0.786157
O O7 0.039319 0.122631 0.000000
O O8 0.000000 0.000000 0.763809
O O9 0.834293 0.439083 0.206698
O O10 0.767137 0.457669 0.000000
O O11 0.419382 0.118018 0.777720
O O12 0.500000 0.000000 0.792808
O O13 0.476930 0.181184 0.000000
O O14 0.604439 0.130868 0.272862
O O15 0.613503 0.232482 0.000000
O O16 0.598881 0.966626 0.500000
#
# Coordination Sequence:
#
# PCOD8237501 Si02
#       6
#     8   8   8   8   8   8
#     4  10  21  38  61  87 115 151 191 234 286 343
#     4  11  24  41  60  84 116 154 194 237 288 346
#     4   9  20  38  58  85 116 147 189 237 285 339
#     4  11  22  36  59  90 117 149 192 237 284 339
#     4  11  21  36  60  86 115 152 192 235 287 344
#     4  10  20  36  60  87 116 151 193 241 285 337
#
# _framework density 19.051241000000001
#
# number of rings (size 3 to 8) (size 9 to 14) (size 15 to 20)
#    0.000    1.667    1.667    4.500    0.000    6.000 
#    3.000    0.000    0.000    0.000    0.000    0.000 
#    0.000    0.000    0.000    0.000    0.000    0.000 
#
# Total GULP energy -595435.341046 kJ/mol
# GULP energy per Si atom -12404.902938 kJ/mol
# Density = 1.900788 g / cm^3
# Si number density = 19.051241 Si / 1000 Ang^3
#
#
#
# Elastic Constant Matrix: (Units=GPa)
#
#
# Indices 1 2 3 4 5 6 
#
# 1 115.9566 48.9503 31.6071 0.0000 0.0000 0.0000
# 2 48.9503 69.6674 25.0106 0.0000 0.0000 0.0000
# 3 31.6071 25.0106 49.6018 0.0000 0.0000 0.0000
# 4 0.0000 0.0000 0.0000 26.5701 0.0000 0.0000
# 5 0.0000 0.0000 0.0000 0.0000 32.6684 0.0000
# 6 0.0000 0.0000 0.0000 0.0000 0.0000 32.2695
#
#
#
# Elastic Compliance Matrix: (Units=1/GPa)
#
#
# Indices 1 2 3 4 5 6 
#
# 1 0.013035 -0.007542 -0.004503 0.000000 0.000000 0.000000
# 2 -0.007542 0.021891 -0.006232 0.000000 0.000000 0.000000
# 3 -0.004503 -0.006232 0.026172 0.000000 0.000000 0.000000
# 4 0.000000 0.000000 0.000000 0.037636 0.000000 0.000000
# 5 0.000000 0.000000 0.000000 0.000000 0.030611 0.000000
# 6 0.000000 0.000000 0.000000 0.000000 0.000000 0.030989
#
#
# Mechanical properties :
#
#
# Convention : Reuss Voigt Hill
#
# Bulk Modulus (GPa) = 40.74392 49.59577 45.16985
# Shear Modulus (GPa) = 24.38191 26.94546 25.66369
#
# Velocity S-wave (km/s) = 3.58132 3.76489 3.67425
# Velocity P-wave (km/s) = 6.20758 6.70735 6.46230
#
# Compressibility (1/GPa) = 0.02454354
#
# Stress axis : x y z
#
# Youngs Moduli (GPa) = 76.71448 45.68180 38.20823
#
# Poissons Ratio (x) = 0.34455 0.17206
# Poissons Ratio (y) = 0.57860 0.23810
# Poissons Ratio (z) = 0.34547 0.28468
#
# Static dielectric constant tensor:
#      x y z
#    x 3.679830 0.000000 0.000000 
#    y 0.000000 3.392040 0.000000 
#    z 0.000000 0.000000 3.471920 
# 
# 
# High freq. dielectric constant tensor:
#      x y z
#    x 1.751050 0.000000 0.000000 
#    y 0.000000 1.719400 0.000000 
#    z 0.000000 0.000000 1.750860 
# 
# From -- ./inp_files/2895.got.cif
#   From: 2010.06.25/outbox.cif.g09.slc.cpg/sg58_2_cif.got.tgz:2895.got - 2010.06.26 21:38:00.
