data_PCOD8237778
_publ_section_title
;
Structure prediction by ZEFSAII (Michael W. Deem and Ramdas Pophale) SiO2 
 PCOD8237778
Probable space group: P N N M
;
_chemical_formula_sum "Si O2"
_cell_formula_units_Z 44
_cell_length_a 7.826948
_cell_length_b 16.562937
_cell_length_c 15.450647
_cell_angle_alpha 90.000000
_cell_angle_beta 90.000000
_cell_angle_gamma 90.000000
_cell_volume 2002.979336
_symmetry_space_group_name_H-M "P N N M"
_symmetry_group_IT_number 58
_symmetry_cell_setting 'orthorhombic'
loop_
_space_group_symop_operation_xyz
x,y,z
-x,-y,z
1/2+x,1/2-y,1/2-z
1/2-x,1/2+y,1/2-z
-x,-y,-z
x,y,-z
1/2-x,1/2+y,1/2+z
1/2+x,1/2-y,1/2+z
loop_
_atom_site_type_symbol
_atom_site_label
_atom_site_fract_x
_atom_site_fract_y
_atom_site_fract_z
Si Si1 0.913624 0.248255 0.902723
Si Si2 0.826679 0.349805 0.255103
Si Si3 0.848658 0.058482 0.642352
Si Si4 0.000000 0.500000 0.817837
Si Si5 0.970983 0.085593 0.824289
Si Si6 0.310281 0.265561 0.904572
O O1 0.803500 0.298284 0.833466
O O2 0.893463 0.151738 0.888876
O O3 0.108994 0.272658 0.887399
O O4 0.851418 0.268685 0.000000
O O5 0.958888 0.422776 0.242564
O O6 0.643254 0.383514 0.279455
O O7 0.896768 0.291657 0.332132
O O8 0.662543 0.020270 0.619990
O O9 0.883544 0.144181 0.597940
O O10 0.841082 0.067897 0.746248
O O11 0.000000 0.000000 0.610262
O O12 0.000000 0.000000 0.874362
O O13 0.346732 0.228617 0.000000
#
# Coordination Sequence:
#
# PCOD8237778 Si02
#       6
#     8   8   8   4   8   8
#     4  10  21  38  65  96 125 167 213 258 315 382
#     4  11  21  38  66  90 124 169 210 257 317 375
#     4  11  21  39  65  94 127 165 213 256 317 376
#     4  12  22  38  68  92 122 174 210 260 320 372
#     4  10  20  38  63  91 127 163 209 260 316 373
#     4  10  22  40  64  93 129 168 210 260 315 375
#
# _framework density 21.967274
#
# number of rings (size 3 to 8) (size 9 to 14) (size 15 to 20)
#    0.000    1.455    7.273    0.000    0.000    0.727 
#    0.000    3.182    0.000    0.545    0.000    0.000 
#    0.000    0.000    0.000    0.000    0.000    0.000 
#
# Total GULP energy -545489.344974 kJ/mol
# GULP energy per Si atom -12397.485113 kJ/mol
# Density = 2.191728 g / cm^3
# Si number density = 21.967274 Si / 1000 Ang^3
#
#
#
# Elastic Constant Matrix: (Units=GPa)
#
#
# Indices 1 2 3 4 5 6 
#
# 1 77.2808 35.5904 16.0145 0.0000 0.0000 0.0000
# 2 35.5904 175.0003 61.5079 0.0000 0.0000 0.0000
# 3 16.0145 61.5079 120.7044 0.0000 0.0000 0.0000
# 4 0.0000 0.0000 0.0000 12.2212 0.0000 0.0000
# 5 0.0000 0.0000 0.0000 0.0000 7.2033 0.0000
# 6 0.0000 0.0000 0.0000 0.0000 0.0000 31.4272
#
#
#
# Elastic Compliance Matrix: (Units=1/GPa)
#
#
# Indices 1 2 3 4 5 6 
#
# 1 0.014302 -0.002731 -0.000506 0.000000 0.000000 0.000000
# 2 -0.002731 0.007482 -0.003451 0.000000 0.000000 0.000000
# 3 -0.000506 -0.003451 0.010110 0.000000 0.000000 0.000000
# 4 0.000000 0.000000 0.000000 0.081825 0.000000 0.000000
# 5 0.000000 0.000000 0.000000 0.000000 0.138824 0.000000
# 6 0.000000 0.000000 0.000000 0.000000 0.000000 0.031820
#
#
# Mechanical properties :
#
#
# Convention : Reuss Voigt Hill
#
# Bulk Modulus (GPa) = 53.99530 66.57898 60.28714
# Shear Modulus (GPa) = 16.45214 27.49520 21.97367
#
# Velocity S-wave (km/s) = 2.73964 3.54170 3.16617
# Velocity P-wave (km/s) = 5.88564 6.86286 6.39295
#
# Compressibility (1/GPa) = 0.01852013
#
# Stress axis : x y z
#
# Youngs Moduli (GPa) = 69.91862 133.64630 98.91058
#
# Poissons Ratio (x) = 0.36497 0.05005
# Poissons Ratio (y) = 0.19094 0.34130
# Poissons Ratio (z) = 0.03538 0.46115
#
# Static dielectric constant tensor:
#      x y z
#    x 3.741730 0.000000 0.000000 
#    y 0.000000 4.415630 0.000000 
#    z 0.000000 0.000000 3.764990 
# 
# 
# High freq. dielectric constant tensor:
#      x y z
#    x 1.847980 0.000000 0.000000 
#    y 0.000000 1.884750 0.000000 
#    z 0.000000 0.000000 1.832940 
# 
# From -- ./inp_files/19714.got.cif
#   From: 2010.06.25/outbox.cif.g09.slc.cpg/sg58_10_cif.got.tgz:19714.got - 2010.06.26 21:38:00.
