data_PCOD8237145
_publ_section_title
;
Structure prediction by ZEFSAII (Michael W. Deem and Ramdas Pophale) SiO2 
 PCOD8237145
Probable space group: P N N M
;
_chemical_formula_sum "Si O2"
_cell_formula_units_Z 64
_cell_length_a 24.422212
_cell_length_b 14.953244
_cell_length_c 9.145168
_cell_angle_alpha 90.000000
_cell_angle_beta 90.000000
_cell_angle_gamma 90.000000
_cell_volume 3339.735745
_symmetry_space_group_name_H-M "P N N M"
_symmetry_group_IT_number 58
_symmetry_cell_setting 'orthorhombic'
loop_
_space_group_symop_operation_xyz
x,y,z
-x,-y,z
1/2+x,1/2-y,1/2-z
1/2-x,1/2+y,1/2-z
-x,-y,-z
x,y,-z
1/2-x,1/2+y,1/2+z
1/2+x,1/2-y,1/2+z
loop_
_atom_site_type_symbol
_atom_site_label
_atom_site_fract_x
_atom_site_fract_y
_atom_site_fract_z
Si Si1 0.553935 0.192085 0.669588
Si Si2 0.444582 0.158566 0.170752
Si Si3 0.762627 0.743884 0.667887
Si Si4 0.608052 0.002636 0.329943
Si Si5 0.347191 0.293602 0.170623
Si Si6 0.143192 0.165771 0.832145
Si Si7 0.663197 0.530160 0.667487
Si Si8 0.786632 0.541122 0.334265
O O1 0.536985 0.197428 0.500000
O O2 0.500616 0.199050 0.768753
O O3 0.586753 0.101718 0.702812
O O4 0.591300 0.276004 0.716876
O O5 0.397882 0.230168 0.205051
O O6 0.432464 0.065475 0.250514
O O7 0.450465 0.139162 0.000000
O O8 0.751218 0.767521 0.500000
O O9 0.705372 0.748848 0.752059
O O10 0.803979 0.815266 0.734544
O O11 0.790474 0.647420 0.685507
O O12 0.608315 0.979584 0.500000
O O13 0.669697 0.992755 0.269783
O O14 0.361621 0.392091 0.232069
O O15 0.334811 0.301849 0.000000
O O16 0.128453 0.060744 0.812495
O O17 0.158326 0.187725 0.000000
O O18 0.662148 0.564666 0.500000
O O19 0.726111 0.508993 0.710907
O O20 0.800506 0.512613 0.500000
#
# Coordination Sequence:
#
# PCOD8237145 Si02
#       8
#     8   8   8   8   8   8   8   8
#     4  10  22  40  60  85 116 151 193 238 287 344
#     4  11  25  41  59  82 111 154 199 243 296 345
#     4  10  20  34  56  86 117 152 191 233 284 342
#     4  11  22  36  57  86 118 152 191 236 286 345
#     4  10  22  40  59  81 114 153 195 244 296 343
#     4  10  20  37  60  87 120 155 190 235 290 344
#     4   9  20  37  59  86 118 154 192 237 288 346
#     4   9  18  33  52  81 119 152 186 227 276 337
#
# _framework density 19.163194000000001
#
# number of rings (size 3 to 8) (size 9 to 14) (size 15 to 20)
#    0.000    2.000    1.250    2.625    1.750    7.500 
#    0.000    0.625    0.000    3.750    0.000    0.000 
#    0.000    0.000    0.000    0.000    0.000    0.000 
#
# Total GULP energy -793860.162673 kJ/mol
# GULP energy per Si atom -12404.065042 kJ/mol
# Density = 1.911958 g / cm^3
# Si number density = 19.163194 Si / 1000 Ang^3
#
#
#
# Elastic Constant Matrix: (Units=GPa)
#
#
# Indices 1 2 3 4 5 6 
#
# 1 83.2132 31.2558 57.5280 0.0000 0.0000 0.0000
# 2 31.2558 63.8887 45.1496 0.0000 0.0000 0.0000
# 3 57.5280 45.1496 104.1145 0.0000 0.0000 0.0000
# 4 0.0000 0.0000 0.0000 19.6749 0.0000 0.0000
# 5 0.0000 0.0000 0.0000 0.0000 33.9045 0.0000
# 6 0.0000 0.0000 0.0000 0.0000 0.0000 25.5520
#
#
#
# Elastic Compliance Matrix: (Units=1/GPa)
#
#
# Indices 1 2 3 4 5 6 
#
# 1 0.019791 -0.002818 -0.009713 0.000000 0.000000 0.000000
# 2 -0.002818 0.022970 -0.008404 0.000000 0.000000 0.000000
# 3 -0.009713 -0.008404 0.018616 0.000000 0.000000 0.000000
# 4 0.000000 0.000000 0.000000 0.050826 0.000000 0.000000
# 5 0.000000 0.000000 0.000000 0.000000 0.029495 0.000000
# 6 0.000000 0.000000 0.000000 0.000000 0.000000 0.039136
#
#
# Mechanical properties :
#
#
# Convention : Reuss Voigt Hill
#
# Bulk Modulus (GPa) = 51.26457 57.67593 54.47025
# Shear Modulus (GPa) = 21.81441 23.64514 22.72977
#
# Velocity S-wave (km/s) = 3.37760 3.51648 3.44774
# Velocity P-wave (km/s) = 6.48233 6.83009 6.65848
#
# Compressibility (1/GPa) = 0.01950665
#
# Stress axis : x y z
#
# Youngs Moduli (GPa) = 50.52823 43.53551 53.71621
#
# Poissons Ratio (x) = 0.12267 0.52177
# Poissons Ratio (y) = 0.14238 0.45143
# Poissons Ratio (z) = 0.49080 0.36587
#
# Static dielectric constant tensor:
#      x y z
#    x 3.376320 0.000000 0.000000 
#    y 0.000000 3.493700 0.000000 
#    z 0.000000 0.000000 3.520920 
# 
# 
# High freq. dielectric constant tensor:
#      x y z
#    x 1.733520 0.000000 0.000000 
#    y 0.000000 1.746340 0.000000 
#    z 0.000000 0.000000 1.749390 
# 
# From -- ./inp_files/6825.got.cif
#   From: 2010.06.25/outbox.cif.g09.slc.cpg/sg58_4_cif.got.tgz:6825.got - 2010.06.26 21:38:00.
