data_PCOD8237013
_publ_section_title
;
Structure prediction by ZEFSAII (Michael W. Deem and Ramdas Pophale) SiO2 
 PCOD8237013
Probable space group: P N N M
;
_chemical_formula_sum "Si O2"
_cell_formula_units_Z 64
_cell_length_a 29.871959
_cell_length_b 14.384734
_cell_length_c 8.689081
_cell_angle_alpha 90.000000
_cell_angle_beta 90.000000
_cell_angle_gamma 90.000000
_cell_volume 3733.699707
_symmetry_space_group_name_H-M "P N N M"
_symmetry_group_IT_number 58
_symmetry_cell_setting 'orthorhombic'
loop_
_space_group_symop_operation_xyz
x,y,z
-x,-y,z
1/2+x,1/2-y,1/2-z
1/2-x,1/2+y,1/2-z
-x,-y,-z
x,y,-z
1/2-x,1/2+y,1/2+z
1/2+x,1/2-y,1/2+z
loop_
_atom_site_type_symbol
_atom_site_label
_atom_site_fract_x
_atom_site_fract_y
_atom_site_fract_z
Si Si1 0.132272 0.842452 0.820970
Si Si2 0.695597 0.166001 0.818959
Si Si3 0.454790 0.395074 0.180489
Si Si4 0.674592 0.488378 0.826831
Si Si5 0.777737 0.483039 0.825428
Si Si6 0.138098 0.187640 0.178599
Si Si7 0.283744 0.226085 0.316710
Si Si8 0.546721 0.405297 0.678954
O O1 0.085574 0.826774 0.731435
O O2 0.170392 0.773249 0.756218
O O3 0.148191 0.947852 0.793225
O O4 0.123575 0.826856 0.000000
O O5 0.652142 0.210205 0.736058
O O6 0.740604 0.217051 0.755596
O O7 0.695360 0.057037 0.776793
O O8 0.690745 0.177783 0.000000
O O9 0.442946 0.500717 0.227504
O O10 0.500044 0.361124 0.264470
O O11 0.462347 0.388851 0.000000
O O12 0.726390 0.513136 0.820105
O O13 0.668366 0.382198 0.777856
O O14 0.656045 0.503999 0.000000
O O15 0.783614 0.379675 0.755214
O O16 0.795916 0.485817 0.000000
O O17 0.085595 0.169714 0.210941
O O18 0.149347 0.175071 0.000000
O O19 0.282196 0.228011 0.500000
O O20 0.543569 0.431702 0.500000
#
# Coordination Sequence:
#
# PCOD8237013 Si02
#       8
#     8   8   8   8   8   8   8   8
#     4  11  20  33  51  72 102 140 178 211 252 306
#     4  11  21  35  52  75 103 135 175 214 252 301
#     4  11  21  32  49  74 104 134 168 209 259 306
#     4  11  20  30  49  74 104 137 172 216 255 295
#     4  10  20  36  51  71 102 137 174 216 256 295
#     4  11  22  34  51  75 102 138 175 210 253 306
#     4   9  19  34  51  71  99 136 176 213 250 297
#     4  10  20  34  51  72 101 134 172 209 251 308
#
# _framework density 17.141173999999999
#
# number of rings (size 3 to 8) (size 9 to 14) (size 15 to 20)
#    0.000    1.500    3.750    3.750    0.000    2.000 
#    0.000    1.250    0.000    0.000    0.000    0.875 
#    0.000    7.000    0.000    0.000    0.000    0.000 
#
# Total GULP energy -793681.183620 kJ/mol
# GULP energy per Si atom -12401.268494 kJ/mol
# Density = 1.710216 g / cm^3
# Si number density = 17.141174 Si / 1000 Ang^3
#
#
#
# Elastic Constant Matrix: (Units=GPa)
#
#
# Indices 1 2 3 4 5 6 
#
# 1 93.3746 29.2864 28.3652 0.0000 0.0000 0.0000
# 2 29.2864 70.8727 12.1887 0.0000 0.0000 0.0000
# 3 28.3652 12.1887 64.5243 0.0000 0.0000 0.0000
# 4 0.0000 0.0000 0.0000 23.2886 0.0000 0.0000
# 5 0.0000 0.0000 0.0000 0.0000 24.8309 0.0000
# 6 0.0000 0.0000 0.0000 0.0000 0.0000 27.8679
#
#
#
# Elastic Compliance Matrix: (Units=1/GPa)
#
#
# Indices 1 2 3 4 5 6 
#
# 1 0.013783 -0.004810 -0.005150 0.000000 0.000000 0.000000
# 2 -0.004810 0.016262 -0.000958 0.000000 0.000000 0.000000
# 3 -0.005150 -0.000958 0.017943 0.000000 0.000000 0.000000
# 4 0.000000 0.000000 0.000000 0.042940 0.000000 0.000000
# 5 0.000000 0.000000 0.000000 0.000000 0.040272 0.000000
# 6 0.000000 0.000000 0.000000 0.000000 0.000000 0.035884
#
#
# Mechanical properties :
#
#
# Convention : Reuss Voigt Hill
#
# Bulk Modulus (GPa) = 38.23718 40.93913 39.58816
# Shear Modulus (GPa) = 25.29908 25.79289 25.54598
#
# Velocity S-wave (km/s) = 3.84594 3.88330 3.86467
# Velocity P-wave (km/s) = 6.48671 6.63642 6.56199
#
# Compressibility (1/GPa) = 0.02615255
#
# Stress axis : x y z
#
# Youngs Moduli (GPa) = 72.55513 61.49333 55.73189
#
# Poissons Ratio (x) = 0.29576 0.28704
# Poissons Ratio (y) = 0.34896 0.05337
# Poissons Ratio (z) = 0.37369 0.05888
#
# Static dielectric constant tensor:
#      x y z
#    x 3.324490 0.000000 0.000000 
#    y 0.000000 3.017960 0.000000 
#    z 0.000000 0.000000 3.147560 
# 
# 
# High freq. dielectric constant tensor:
#      x y z
#    x 1.656140 0.000000 0.000000 
#    y 0.000000 1.628180 0.000000 
#    z 0.000000 0.000000 1.664080 
# 
# From -- ./inp_files/7163.got.cif
#   From: 2010.06.25/outbox.cif.g09.slc.cpg/sg58_4_cif.got.tgz:7163.got - 2010.06.26 21:38:00.
