data_PCOD8237318
_publ_section_title
;
Structure prediction by ZEFSAII (Michael W. Deem and Ramdas Pophale) SiO2 
 PCOD8237318
Probable space group: P N N M
;
_chemical_formula_sum "Si O2"
_cell_formula_units_Z 60
_cell_length_a 11.903111
_cell_length_b 21.867012
_cell_length_c 11.025502
_cell_angle_alpha 90.000000
_cell_angle_beta 90.000000
_cell_angle_gamma 90.000000
_cell_volume 2869.777982
_symmetry_space_group_name_H-M "P N N M"
_symmetry_group_IT_number 58
_symmetry_cell_setting 'orthorhombic'
loop_
_space_group_symop_operation_xyz
x,y,z
-x,-y,z
1/2+x,1/2-y,1/2-z
1/2-x,1/2+y,1/2-z
-x,-y,-z
x,y,-z
1/2-x,1/2+y,1/2+z
1/2+x,1/2-y,1/2+z
loop_
_atom_site_type_symbol
_atom_site_label
_atom_site_fract_x
_atom_site_fract_y
_atom_site_fract_z
Si Si1 0.299636 0.297468 0.703830
Si Si2 0.218608 0.196269 0.137541
Si Si3 0.934203 0.657862 0.364432
Si Si4 0.117140 0.470947 0.735681
Si Si5 0.001037 0.728579 0.867555
Si Si6 0.000000 0.000000 0.278920
Si Si7 0.316766 0.412866 0.133855
Si Si8 0.297700 0.561605 0.359317
O O1 0.303287 0.243332 0.802029
O O2 0.182928 0.305443 0.634211
O O3 0.392931 0.273132 0.612283
O O4 0.333703 0.360627 0.767088
O O5 0.225615 0.128782 0.197756
O O6 0.096049 0.223378 0.157262
O O7 0.256414 0.190819 0.000000
O O8 0.988847 0.668521 0.500000
O O9 0.913292 0.585681 0.351237
O O10 0.006435 0.681003 0.246829
O O11 0.199431 0.449082 0.843966
O O12 0.187278 0.520536 0.659305
O O13 0.000000 0.500000 0.785202
O O14 0.983642 0.694803 0.000000
O O15 0.088673 0.035477 0.196605
O O16 0.926868 0.044712 0.363119
O O17 0.307667 0.384089 0.000000
O O18 0.323625 0.568111 0.500000
#
# Coordination Sequence:
#
# PCOD8237318 Si02
#       8
#     8   8   8   8   8   4   8   8
#     4  10  20  36  59  84 114 152 195 246 294 362
#     4   9  19  34  54  83 115 148 192 243 296 355
#     4  10  22  38  59  88 118 153 199 249 300 357
#     4  10  23  39  57  84 121 159 205 254 301 359
#     4  10  21  38  60  86 119 157 195 245 303 362
#     4  10  20  36  58  86 118 148 198 250 306 370
#     4  10  21  38  61  87 119 161 203 250 307 368
#     4  10  20  35  58  84 116 152 192 250 313 367
#
# _framework density 20.907541999999999
#
# number of rings (size 3 to 8) (size 9 to 14) (size 15 to 20)
#    0.000    2.133    0.000    2.400    1.867    5.600 
#    0.000    4.000    0.000    4.000    0.000    0.000 
#    0.000    0.000    0.000    0.000    0.000    0.000 
#
# Total GULP energy -743357.822856 kJ/mol
# GULP energy per Si atom -12389.297048 kJ/mol
# Density = 2.085996 g / cm^3
# Si number density = 20.907542 Si / 1000 Ang^3
#
#
#
# Elastic Constant Matrix: (Units=GPa)
#
#
# Indices 1 2 3 4 5 6 
#
# 1 103.3557 27.4082 18.2638 0.0000 0.0000 0.0000
# 2 27.4082 118.5861 32.7399 0.0000 0.0000 0.0000
# 3 18.2638 32.7399 92.1088 0.0000 0.0000 0.0000
# 4 0.0000 0.0000 0.0000 23.4743 0.0000 0.0000
# 5 0.0000 0.0000 0.0000 0.0000 7.4068 0.0000
# 6 0.0000 0.0000 0.0000 0.0000 0.0000 26.9361
#
#
#
# Elastic Compliance Matrix: (Units=1/GPa)
#
#
# Indices 1 2 3 4 5 6 
#
# 1 0.010455 -0.002045 -0.001346 0.000000 0.000000 0.000000
# 2 -0.002045 0.009750 -0.003060 0.000000 0.000000 0.000000
# 3 -0.001346 -0.003060 0.012211 0.000000 0.000000 0.000000
# 4 0.000000 0.000000 0.000000 0.042600 0.000000 0.000000
# 5 0.000000 0.000000 0.000000 0.000000 0.135011 0.000000
# 6 0.000000 0.000000 0.000000 0.000000 0.000000 0.037125
#
#
# Mechanical properties :
#
#
# Convention : Reuss Voigt Hill
#
# Bulk Modulus (GPa) = 51.24437 52.31938 51.78187
# Shear Modulus (GPa) = 18.75745 27.27268 23.01506
#
# Velocity S-wave (km/s) = 2.99852 3.61562 3.32143
# Velocity P-wave (km/s) = 6.04577 6.51988 6.28729
#
# Compressibility (1/GPa) = 0.01951434
#
# Stress axis : x y z
#
# Youngs Moduli (GPa) = 95.64357 102.56216 81.89043
#
# Poissons Ratio (x) = 0.20972 0.11025
# Poissons Ratio (y) = 0.19557 0.25060
# Poissons Ratio (z) = 0.12877 0.31386
#
# Static dielectric constant tensor:
#      x y z
#    x 3.919030 0.000000 0.000000 
#    y 0.000000 3.929090 0.000000 
#    z 0.000000 0.000000 3.635550 
# 
# 
# High freq. dielectric constant tensor:
#      x y z
#    x 1.825960 0.000000 0.000000 
#    y 0.000000 1.821990 0.000000 
#    z 0.000000 0.000000 1.804450 
# 
# From -- ./inp_files/14664.got.cif
#   From: 2010.06.25/outbox.cif.g09.slc.cpg/sg58_8_cif.got.tgz:14664.got - 2010.06.26 21:38:00.
