data_PCOD8237824
_publ_section_title
;
Structure prediction by ZEFSAII (Michael W. Deem and Ramdas Pophale) SiO2 
 PCOD8237824
Probable space group: P N N M
;
_chemical_formula_sum "Si O2"
_cell_formula_units_Z 40
_cell_length_a 10.089740
_cell_length_b 22.759225
_cell_length_c 9.222137
_cell_angle_alpha 90.000000
_cell_angle_beta 90.000000
_cell_angle_gamma 90.000000
_cell_volume 2117.722321
_symmetry_space_group_name_H-M "P N N M"
_symmetry_group_IT_number 58
_symmetry_cell_setting 'orthorhombic'
loop_
_space_group_symop_operation_xyz
x,y,z
-x,-y,z
1/2+x,1/2-y,1/2-z
1/2-x,1/2+y,1/2-z
-x,-y,-z
x,y,-z
1/2-x,1/2+y,1/2+z
1/2+x,1/2-y,1/2+z
loop_
_atom_site_type_symbol
_atom_site_label
_atom_site_fract_x
_atom_site_fract_y
_atom_site_fract_z
Si Si1 0.010352 0.689858 0.830533
Si Si2 0.227891 0.121955 0.332655
Si Si3 0.512243 0.675810 0.330040
Si Si4 0.653625 0.003307 0.330862
Si Si5 0.786793 0.618017 0.671580
O O1 0.996273 0.756953 0.780114
O O2 0.912630 0.650658 0.737194
O O3 0.159791 0.669829 0.797120
O O4 0.977508 0.680667 0.000000
O O5 0.188686 0.124305 0.500000
O O6 0.097324 0.135461 0.242994
O O7 0.278776 0.057798 0.288641
O O8 0.493173 0.669968 0.500000
O O9 0.656362 0.653587 0.282456
O O10 0.670079 0.018366 0.500000
O O11 0.725313 0.052986 0.236799
O O12 0.500000 0.000000 0.288408
O O13 0.803853 0.614141 0.500000
#
# Coordination Sequence:
#
# PCOD8237824 Si02
#       5
#     8   8   8   8   8
#     4  10  20  39  62  83 113 155 197 235 279 340
#     4  10  21  38  62  86 112 150 196 240 281 336
#     4  10  23  39  56  84 122 155 186 233 292 342
#     4  10  20  39  63  84 111 151 195 238 284 340
#     4  11  23  38  59  88 119 151 189 238 289 339
#
# _framework density 18.888217000000001
#
# number of rings (size 3 to 8) (size 9 to 14) (size 15 to 20)
#    0.000    1.800    2.000    1.800    0.000    6.800 
#    0.000    4.000    0.000    0.000    0.000    0.000 
#    0.000    0.000    0.000    0.000    0.000    0.000 
#
# Total GULP energy -496208.883105 kJ/mol
# GULP energy per Si atom -12405.222078 kJ/mol
# Density = 1.884523 g / cm^3
# Si number density = 18.888217 Si / 1000 Ang^3
#
#
#
# Elastic Constant Matrix: (Units=GPa)
#
#
# Indices 1 2 3 4 5 6 
#
# 1 51.7174 22.4321 29.6632 0.0000 0.0000 0.0000
# 2 22.4321 108.0468 36.3785 0.0000 0.0000 0.0000
# 3 29.6632 36.3785 43.7884 0.0000 0.0000 0.0000
# 4 0.0000 0.0000 0.0000 34.2512 0.0000 0.0000
# 5 0.0000 0.0000 0.0000 0.0000 35.8050 0.0000
# 6 0.0000 0.0000 0.0000 0.0000 0.0000 26.6495
#
#
#
# Elastic Compliance Matrix: (Units=1/GPa)
#
#
# Indices 1 2 3 4 5 6 
#
# 1 0.031686 0.000900 -0.022213 0.000000 0.000000 0.000000
# 2 0.000900 0.012875 -0.011306 0.000000 0.000000 0.000000
# 3 -0.022213 -0.011306 0.047277 0.000000 0.000000 0.000000
# 4 0.000000 0.000000 0.000000 0.029196 0.000000 0.000000
# 5 0.000000 0.000000 0.000000 0.000000 0.027929 0.000000
# 6 0.000000 0.000000 0.000000 0.000000 0.000000 0.037524
#
#
# Mechanical properties :
#
#
# Convention : Reuss Voigt Hill
#
# Bulk Modulus (GPa) = 37.59232 42.27781 39.93507
# Shear Modulus (GPa) = 19.18716 27.01307 23.10011
#
# Velocity S-wave (km/s) = 3.19066 3.78584 3.50092
# Velocity P-wave (km/s) = 5.78960 6.44530 6.12623
#
# Compressibility (1/GPa) = 0.02660118
#
# Stress axis : x y z
#
# Youngs Moduli (GPa) = 31.56002 77.66976 21.15181
#
# Poissons Ratio (x) = -0.06993 0.46984
# Poissons Ratio (y) = -0.02842 0.23915
# Poissons Ratio (z) = 0.70103 0.87815
#
# Static dielectric constant tensor:
#      x y z
#    x 3.418410 0.000000 0.000000 
#    y 0.000000 3.755340 0.000000 
#    z 0.000000 0.000000 3.385780 
# 
# 
# High freq. dielectric constant tensor:
#      x y z
#    x 1.737290 0.000000 0.000000 
#    y 0.000000 1.751150 0.000000 
#    z 0.000000 0.000000 1.727210 
# 
# From -- ./inp_files/2415.got.cif
#   From: 2010.06.25/outbox.cif.g09.slc.cpg/sg58_2_cif.got.tgz:2415.got - 2010.06.26 21:38:00.
