data_PCOD8237387
_publ_section_title
;
Structure prediction by ZEFSAII (Michael W. Deem and Ramdas Pophale) SiO2 
 PCOD8237387
Probable space group: P N N M
;
_chemical_formula_sum "Si O2"
_cell_formula_units_Z 32
_cell_length_a 19.727094
_cell_length_b 10.338331
_cell_length_c 7.891622
_cell_angle_alpha 90.000000
_cell_angle_beta 90.000000
_cell_angle_gamma 90.000000
_cell_volume 1609.458644
_symmetry_space_group_name_H-M "P N N M"
_symmetry_group_IT_number 58
_symmetry_cell_setting 'orthorhombic'
loop_
_space_group_symop_operation_xyz
x,y,z
-x,-y,z
1/2+x,1/2-y,1/2-z
1/2-x,1/2+y,1/2-z
-x,-y,-z
x,y,-z
1/2-x,1/2+y,1/2+z
1/2+x,1/2-y,1/2+z
loop_
_atom_site_type_symbol
_atom_site_label
_atom_site_fract_x
_atom_site_fract_y
_atom_site_fract_z
Si Si1 0.483979 0.296306 0.500000
Si Si2 0.683743 0.120977 0.195250
Si Si3 0.031250 0.360032 0.308901
Si Si4 0.731096 0.387928 0.687338
Si Si5 0.388976 0.518797 0.500000
O O1 0.485548 0.215817 0.325792
O O2 0.412069 0.369785 0.500000
O O3 0.545831 0.393198 0.500000
O O4 0.607808 0.135818 0.267528
O O5 0.726691 0.253133 0.212690
O O6 0.721356 0.995965 0.280022
O O7 0.679299 0.085910 0.000000
O O8 0.030404 0.297697 0.500000
O O9 0.000000 0.500000 0.322397
O O10 0.759333 0.352903 0.500000
O O11 0.655956 0.451859 0.667866
#
# Coordination Sequence:
#
# PCOD8237387 Si02
#       5
#     4   8   8   8   4
#     4  11  19  38  62  82 117 153 189 236 293 346
#     4  10  20  36  56  81 113 149 187 237 289 338
#     4  10  21  37  57  85 118 152 192 239 288 347
#     4   9  19  37  55  78 112 146 186 236 281 339
#     4   9  20  36  58  82 109 152 187 243 287 340
#
# _framework density 19.882463999999999
#
# number of rings (size 3 to 8) (size 9 to 14) (size 15 to 20)
#    0.750    1.500    2.500    0.375    0.000    3.000 
#    0.000    3.750    0.000    0.000    0.000    0.000 
#    0.000    0.000    0.000    0.000    0.000    0.000 
#
# Total GULP energy -396431.883057 kJ/mol
# GULP energy per Si atom -12388.496346 kJ/mol
# Density = 1.983721 g / cm^3
# Si number density = 19.882464 Si / 1000 Ang^3
#
#
#
# Elastic Constant Matrix: (Units=GPa)
#
#
# Indices 1 2 3 4 5 6 
#
# 1 38.7448 29.2230 5.1317 0.0000 0.0000 0.0000
# 2 29.2230 103.6538 16.4195 0.0000 0.0000 0.0000
# 3 5.1317 16.4195 59.2291 0.0000 0.0000 0.0000
# 4 0.0000 0.0000 0.0000 29.9086 0.0000 0.0000
# 5 0.0000 0.0000 0.0000 0.0000 4.3087 0.0000
# 6 0.0000 0.0000 0.0000 0.0000 0.0000 42.7829
#
#
#
# Elastic Compliance Matrix: (Units=1/GPa)
#
#
# Indices 1 2 3 4 5 6 
#
# 1 0.032785 -0.009197 -0.000291 0.000000 0.000000 0.000000
# 2 -0.009197 0.012671 -0.002716 0.000000 0.000000 0.000000
# 3 -0.000291 -0.002716 0.017662 0.000000 0.000000 0.000000
# 4 0.000000 0.000000 0.000000 0.033435 0.000000 0.000000
# 5 0.000000 0.000000 0.000000 0.000000 0.232087 0.000000
# 6 0.000000 0.000000 0.000000 0.000000 0.000000 0.023374
#
#
# Mechanical properties :
#
#
# Convention : Reuss Voigt Hill
#
# Bulk Modulus (GPa) = 25.83305 33.68622 29.75964
# Shear Modulus (GPa) = 12.84276 25.45695 19.14985
#
# Velocity S-wave (km/s) = 2.54428 3.58211 3.10684
# Velocity P-wave (km/s) = 4.65320 5.83851 5.27922
#
# Compressibility (1/GPa) = 0.03871010
#
# Stress axis : x y z
#
# Youngs Moduli (GPa) = 30.50153 78.92296 56.61986
#
# Poissons Ratio (x) = 0.72585 0.01648
# Poissons Ratio (y) = 0.28052 0.15376
# Poissons Ratio (z) = 0.00888 0.21433
#
# Static dielectric constant tensor:
#      x y z
#    x 3.857520 0.000000 0.000000 
#    y 0.000000 3.658190 0.000000 
#    z 0.000000 0.000000 3.518640 
# 
# 
# High freq. dielectric constant tensor:
#      x y z
#    x 1.770420 0.000000 0.000000 
#    y 0.000000 1.776570 0.000000 
#    z 0.000000 0.000000 1.748180 
# 
# From -- ./inp_files/2203.got.cif
#   From: 2010.06.25/outbox.cif.g09.slc.cpg/sg58_2_cif.got.tgz:2203.got - 2010.06.26 21:38:00.
