data_PCOD8237155
_publ_section_title
;
Structure prediction by ZEFSAII (Michael W. Deem and Ramdas Pophale) SiO2 
 PCOD8237155
Probable space group: P N N M
;
_chemical_formula_sum "Si O2"
_cell_formula_units_Z 40
_cell_length_a 23.744001
_cell_length_b 10.104412
_cell_length_c 8.830411
_cell_angle_alpha 90.000000
_cell_angle_beta 90.000000
_cell_angle_gamma 90.000000
_cell_volume 2118.584866
_symmetry_space_group_name_H-M "P N N M"
_symmetry_group_IT_number 58
_symmetry_cell_setting 'orthorhombic'
loop_
_space_group_symop_operation_xyz
x,y,z
-x,-y,z
1/2+x,1/2-y,1/2-z
1/2-x,1/2+y,1/2-z
-x,-y,-z
x,y,-z
1/2-x,1/2+y,1/2+z
1/2+x,1/2-y,1/2+z
loop_
_atom_site_type_symbol
_atom_site_label
_atom_site_fract_x
_atom_site_fract_y
_atom_site_fract_z
Si Si1 0.767324 0.859844 0.179104
Si Si2 0.130820 0.245030 0.672189
Si Si3 0.651653 0.540575 0.827748
Si Si4 0.648276 0.802557 0.677556
Si Si5 0.937691 0.531972 0.177753
O O1 0.809934 0.742785 0.235883
O O2 0.704663 0.829872 0.230512
O O3 0.787876 0.998380 0.254833
O O4 0.770148 0.871586 0.000000
O O5 0.141788 0.290062 0.500000
O O6 0.082441 0.333615 0.744208
O O7 0.111214 0.089734 0.678500
O O8 0.624662 0.659699 0.730734
O O9 0.661848 0.587464 0.000000
O O10 0.660642 0.802941 0.500000
O O11 0.602496 0.911227 0.723461
O O12 0.000000 0.500000 0.238067
O O13 0.938096 0.557226 0.000000
#
# Coordination Sequence:
#
# PCOD8237155 Si02
#       5
#     8   8   8   8   8
#     4  10  20  34  57  85 120 156 189 240 306 359
#     4   9  20  37  59  85 117 154 196 244 297 358
#     4   9  20  37  56  85 119 150 193 240 295 359
#     4  11  22  36  58  87 119 156 202 248 298 362
#     4  10  23  42  62  86 119 162 209 252 299 359
#
# _framework density 18.880528999999999
#
# number of rings (size 3 to 8) (size 9 to 14) (size 15 to 20)
#    1.200    1.000    0.000    3.000    2.800    2.000 
#    0.000    1.000    0.000    6.000    0.000    0.000 
#    0.000    0.000    0.000    0.000    0.000    0.000 
#
# Total GULP energy -495735.386666 kJ/mol
# GULP energy per Si atom -12393.384667 kJ/mol
# Density = 1.883756 g / cm^3
# Si number density = 18.880529 Si / 1000 Ang^3
#
#
#
# Elastic Constant Matrix: (Units=GPa)
#
#
# Indices 1 2 3 4 5 6 
#
# 1 64.7945 14.6852 17.5138 0.0000 0.0000 0.0000
# 2 14.6852 82.8053 19.7289 0.0000 0.0000 0.0000
# 3 17.5138 19.7289 78.7693 0.0000 0.0000 0.0000
# 4 0.0000 0.0000 0.0000 26.9674 0.0000 0.0000
# 5 0.0000 0.0000 0.0000 0.0000 23.6896 0.0000
# 6 0.0000 0.0000 0.0000 0.0000 0.0000 26.0275
#
#
#
# Elastic Compliance Matrix: (Units=1/GPa)
#
#
# Indices 1 2 3 4 5 6 
#
# 1 0.016796 -0.002221 -0.003178 0.000000 0.000000 0.000000
# 2 -0.002221 0.013137 -0.002796 0.000000 0.000000 0.000000
# 3 -0.003178 -0.002796 0.014102 0.000000 0.000000 0.000000
# 4 0.000000 0.000000 0.000000 0.037082 0.000000 0.000000
# 5 0.000000 0.000000 0.000000 0.000000 0.042213 0.000000
# 6 0.000000 0.000000 0.000000 0.000000 0.000000 0.038421
#
#
# Mechanical properties :
#
#
# Convention : Reuss Voigt Hill
#
# Bulk Modulus (GPa) = 36.17529 36.69164 36.43346
# Shear Modulus (GPa) = 26.68708 26.96630 26.82669
#
# Velocity S-wave (km/s) = 3.76369 3.78333 3.77353
# Velocity P-wave (km/s) = 6.17162 6.20972 6.19070
#
# Compressibility (1/GPa) = 0.02764318
#
# Stress axis : x y z
#
# Youngs Moduli (GPa) = 59.53828 76.12239 70.91038
#
# Poissons Ratio (x) = 0.16911 0.22536
# Poissons Ratio (y) = 0.13226 0.19829
# Poissons Ratio (z) = 0.18922 0.21286
#
# Static dielectric constant tensor:
#      x y z
#    x 3.164480 0.000000 0.000000 
#    y 0.000000 3.554540 0.000000 
#    z 0.000000 0.000000 3.501050 
# 
# 
# High freq. dielectric constant tensor:
#      x y z
#    x 1.696410 0.000000 0.000000 
#    y 0.000000 1.736580 0.000000 
#    z 0.000000 0.000000 1.747220 
# 
# From -- ./inp_files/2412.got.cif
#   From: 2010.06.25/outbox.cif.g09.slc.cpg/sg58_2_cif.got.tgz:2412.got - 2010.06.26 21:38:00.
