data_PCOD8237370
_publ_section_title
;
Structure prediction by ZEFSAII (Michael W. Deem and Ramdas Pophale) SiO2 
 PCOD8237370
Probable space group: P N N M
;
_chemical_formula_sum "Si O2"
_cell_formula_units_Z 40
_cell_length_a 8.398733
_cell_length_b 8.042654
_cell_length_c 27.486833
_cell_angle_alpha 90.000000
_cell_angle_beta 90.000000
_cell_angle_gamma 90.000000
_cell_volume 1856.683442
_symmetry_space_group_name_H-M "P N N M"
_symmetry_group_IT_number 58
_symmetry_cell_setting 'orthorhombic'
loop_
_space_group_symop_operation_xyz
x,y,z
-x,-y,z
1/2+x,1/2-y,1/2-z
1/2-x,1/2+y,1/2-z
-x,-y,-z
x,y,-z
1/2-x,1/2+y,1/2+z
1/2+x,1/2-y,1/2+z
loop_
_atom_site_type_symbol
_atom_site_label
_atom_site_fract_x
_atom_site_fract_y
_atom_site_fract_z
Si Si1 0.330209 0.930286 0.281242
Si Si2 0.674969 0.190203 0.943986
Si Si3 0.823267 0.361468 0.595184
Si Si4 0.332226 0.559656 0.690436
Si Si5 0.309001 0.500330 0.116826
O O1 0.357217 0.739476 0.288642
O O2 0.258829 0.021799 0.328949
O O3 0.500000 0.000000 0.266661
O O4 0.213919 0.942584 0.235241
O O5 0.505008 0.161628 0.919458
O O6 0.757125 0.344808 0.915508
O O7 0.759170 0.006761 0.938625
O O8 0.661609 0.242192 0.000000
O O9 0.805326 0.435346 0.649586
O O10 0.745727 0.175411 0.593095
O O11 0.500000 0.500000 0.667568
O O12 0.500000 0.500000 0.118472
#
# Coordination Sequence:
#
# PCOD8237370 Si02
#       5
#     8   8   8   8   8
#     4  11  24  38  61  88 123 164 204 251 305 374
#     4  10  20  35  64  92 119 158 207 261 308 359
#     4   9  20  35  56  87 122 152 199 252 305 360
#     4  11  24  40  59  90 123 166 202 250 311 371
#     4   9  20  37  57  88 121 158 200 254 306 365
#
# _framework density 21.543790999999999
#
# number of rings (size 3 to 8) (size 9 to 14) (size 15 to 20)
#    0.000    2.000    0.000    3.000    8.400    6.000 
#    0.000    0.000    0.000    3.000    0.000    0.000 
#    0.000    0.000    0.000    0.000    0.000    0.000 
#
# Total GULP energy -495523.062768 kJ/mol
# GULP energy per Si atom -12388.076569 kJ/mol
# Density = 2.149476 g / cm^3
# Si number density = 21.543791 Si / 1000 Ang^3
#
#
#
# Elastic Constant Matrix: (Units=GPa)
#
#
# Indices 1 2 3 4 5 6 
#
# 1 35.8658 2.6315 17.1124 0.0000 0.0000 0.0000
# 2 2.6315 131.0350 49.4642 0.0000 0.0000 0.0000
# 3 17.1124 49.4642 116.4779 0.0000 0.0000 0.0000
# 4 0.0000 0.0000 0.0000 41.5358 0.0000 0.0000
# 5 0.0000 0.0000 0.0000 0.0000 33.3312 0.0000
# 6 0.0000 0.0000 0.0000 0.0000 0.0000 19.9322
#
#
#
# Elastic Compliance Matrix: (Units=1/GPa)
#
#
# Indices 1 2 3 4 5 6 
#
# 1 0.030160 0.001271 -0.004971 0.000000 0.000000 0.000000
# 2 0.001271 0.009142 -0.004069 0.000000 0.000000 0.000000
# 3 -0.004971 -0.004069 0.011044 0.000000 0.000000 0.000000
# 4 0.000000 0.000000 0.000000 0.024076 0.000000 0.000000
# 5 0.000000 0.000000 0.000000 0.000000 0.030002 0.000000
# 6 0.000000 0.000000 0.000000 0.000000 0.000000 0.050170
#
#
# Mechanical properties :
#
#
# Convention : Reuss Voigt Hill
#
# Bulk Modulus (GPa) = 28.72917 46.86609 37.79763
# Shear Modulus (GPa) = 27.51280 33.23789 30.37535
#
# Velocity S-wave (km/s) = 3.57748 3.93212 3.75898
# Velocity P-wave (km/s) = 5.51622 6.51280 6.03511
#
# Compressibility (1/GPa) = 0.03480782
#
# Stress axis : x y z
#
# Youngs Moduli (GPa) = 33.15640 109.38502 90.55079
#
# Poissons Ratio (x) = -0.13899 0.45009
# Poissons Ratio (y) = -0.04213 0.36845
# Poissons Ratio (z) = 0.16481 0.44509
#
# Static dielectric constant tensor:
#      x y z
#    x 3.451940 0.000000 0.000000 
#    y 0.000000 5.040240 0.000000 
#    z 0.000000 0.000000 3.942710 
# 
# 
# High freq. dielectric constant tensor:
#      x y z
#    x 1.797590 0.000000 0.000000 
#    y 0.000000 1.880360 0.000000 
#    z 0.000000 0.000000 1.837280 
# 
# From -- ./inp_files/31273.got.cif
#   From: 2010.06.25/outbox.cif.g09.slc.cpg/sg58_16_cif.got.tgz:31273.got - 2010.06.26 21:38:00.
