data_PCOD8237659
_publ_section_title
;
Structure prediction by ZEFSAII (Michael W. Deem and Ramdas Pophale) SiO2 
 PCOD8237659
Probable space group: P N N M
;
_chemical_formula_sum "Si O2"
_cell_formula_units_Z 64
_cell_length_a 14.702829
_cell_length_b 12.786577
_cell_length_c 17.836414
_cell_angle_alpha 90.000000
_cell_angle_beta 90.000000
_cell_angle_gamma 90.000000
_cell_volume 3353.225412
_symmetry_space_group_name_H-M "P N N M"
_symmetry_group_IT_number 58
_symmetry_cell_setting 'orthorhombic'
loop_
_space_group_symop_operation_xyz
x,y,z
-x,-y,z
1/2+x,1/2-y,1/2-z
1/2-x,1/2+y,1/2-z
-x,-y,-z
x,y,-z
1/2-x,1/2+y,1/2+z
1/2+x,1/2-y,1/2+z
loop_
_atom_site_type_symbol
_atom_site_label
_atom_site_fract_x
_atom_site_fract_y
_atom_site_fract_z
Si Si1 0.305803 0.146835 0.412863
Si Si2 0.189210 0.030475 0.916187
Si Si3 0.179172 0.341606 0.415468
Si Si4 0.586166 0.559808 0.717479
Si Si5 0.069509 0.413692 0.286240
Si Si6 0.983101 0.275697 0.841212
Si Si7 0.264111 0.951049 0.314572
Si Si8 0.671825 0.237366 0.414707
O O1 0.299841 0.119122 0.500000
O O2 0.251303 0.252557 0.393525
O O3 0.410581 0.161250 0.390832
O O4 0.262388 0.051525 0.367668
O O5 0.275520 0.955311 0.906665
O O6 0.110748 0.001815 0.858205
O O7 0.221028 0.150442 0.903257
O O8 0.148345 0.017663 0.000000
O O9 0.142464 0.324289 0.500000
O O10 0.096449 0.339294 0.356397
O O11 0.500000 0.500000 0.753473
O O12 0.563594 0.677758 0.697411
O O13 0.666159 0.557897 0.777452
O O14 0.159807 0.464645 0.249616
O O15 0.000000 0.500000 0.317260
O O16 0.017179 0.348696 0.224589
O O17 0.065795 0.245608 0.895444
O O18 0.280399 0.846007 0.361486
O O19 0.680308 0.198000 0.500000
#
# Coordination Sequence:
#
# PCOD8237659 Si02
#       8
#     8   8   8   8   8   8   8   8
#     4  11  22  39  63  88 122 163 207 250 300 362
#     4  10  20  37  62  89 119 155 198 248 304 362
#     4  10  22  39  61  88 119 164 205 245 298 358
#     4  12  24  39  60  92 124 162 201 250 307 364
#     4  11  22  39  60  90 125 157 202 249 307 368
#     4  11  22  36  59  95 122 155 193 259 313 365
#     4  11  24  40  60  88 125 166 201 247 299 363
#     4  10  22  38  60  89 124 159 199 250 308 363
#
# _framework density 19.086102
#
# number of rings (size 3 to 8) (size 9 to 14) (size 15 to 20)
#    0.000    1.250    5.000    0.750    1.750    3.000 
#    0.000    1.875    0.000    3.000    0.000    0.000 
#    0.000    0.000    0.000    0.000    0.000    0.000 
#
# Total GULP energy -793771.573301 kJ/mol
# GULP energy per Si atom -12402.680833 kJ/mol
# Density = 1.904266 g / cm^3
# Si number density = 19.086102 Si / 1000 Ang^3
#
#
#
# Elastic Constant Matrix: (Units=GPa)
#
#
# Indices 1 2 3 4 5 6 
#
# 1 92.6001 33.3563 52.4185 0.0000 0.0000 0.0000
# 2 33.3563 93.3629 37.1062 0.0000 0.0000 0.0000
# 3 52.4185 37.1062 97.9962 0.0000 0.0000 0.0000
# 4 0.0000 0.0000 0.0000 59.9589 0.0000 0.0000
# 5 0.0000 0.0000 0.0000 0.0000 50.7803 0.0000
# 6 0.0000 0.0000 0.0000 0.0000 0.0000 26.7859
#
#
#
# Elastic Compliance Matrix: (Units=1/GPa)
#
#
# Indices 1 2 3 4 5 6 
#
# 1 0.016061 -0.002735 -0.007556 0.000000 0.000000 0.000000
# 2 -0.002735 0.013074 -0.003487 0.000000 0.000000 0.000000
# 3 -0.007556 -0.003487 0.015566 0.000000 0.000000 0.000000
# 4 0.000000 0.000000 0.000000 0.016678 0.000000 0.000000
# 5 0.000000 0.000000 0.000000 0.000000 0.019693 0.000000
# 6 0.000000 0.000000 0.000000 0.000000 0.000000 0.037333
#
#
# Mechanical properties :
#
#
# Convention : Reuss Voigt Hill
#
# Bulk Modulus (GPa) = 58.32463 58.85791 58.59127
# Shear Modulus (GPa) = 32.96460 38.24357 35.60408
#
# Velocity S-wave (km/s) = 4.16041 4.48117 4.32377
# Velocity P-wave (km/s) = 7.32828 7.59471 7.46268
#
# Compressibility (1/GPa) = 0.01714542
#
# Stress axis : x y z
#
# Youngs Moduli (GPa) = 62.26074 76.48636 64.24081
#
# Poissons Ratio (x) = 0.20923 0.48537
# Poissons Ratio (y) = 0.17031 0.22403
# Poissons Ratio (z) = 0.47041 0.26673
#
# Static dielectric constant tensor:
#      x y z
#    x 3.883830 0.000000 0.000000 
#    y 0.000000 3.643780 0.000000 
#    z 0.000000 0.000000 3.592830 
# 
# 
# High freq. dielectric constant tensor:
#      x y z
#    x 1.725870 0.000000 0.000000 
#    y 0.000000 1.751960 0.000000 
#    z 0.000000 0.000000 1.749840 
# 
# From -- ./inp_files/26995.got.cif
#   From: 2010.06.25/outbox.cif.g09.slc.cpg/sg58_14_cif.got.tgz:26995.got - 2010.06.26 21:38:00.
