data_PCOD8237969
_publ_section_title
;
Structure prediction by ZEFSAII (Michael W. Deem and Ramdas Pophale) SiO2 
 PCOD8237969
Probable space group: P N N M
;
_chemical_formula_sum "Si O2"
_cell_formula_units_Z 40
_cell_length_a 7.410998
_cell_length_b 28.989547
_cell_length_c 9.036201
_cell_angle_alpha 90.000000
_cell_angle_beta 90.000000
_cell_angle_gamma 90.000000
_cell_volume 1941.350750
_symmetry_space_group_name_H-M "P N N M"
_symmetry_group_IT_number 58
_symmetry_cell_setting 'orthorhombic'
loop_
_space_group_symop_operation_xyz
x,y,z
-x,-y,z
1/2+x,1/2-y,1/2-z
1/2-x,1/2+y,1/2-z
-x,-y,-z
x,y,-z
1/2-x,1/2+y,1/2+z
1/2+x,1/2-y,1/2+z
loop_
_atom_site_type_symbol
_atom_site_label
_atom_site_fract_x
_atom_site_fract_y
_atom_site_fract_z
Si Si1 0.727517 0.305462 0.337833
Si Si2 0.553426 0.948038 0.172425
Si Si3 0.815062 0.217586 0.839442
Si Si4 0.728214 0.617683 0.674050
Si Si5 0.348287 0.605906 0.824632
O O1 0.813886 0.315315 0.500000
O O2 0.812872 0.258373 0.277826
O O3 0.517136 0.299110 0.356212
O O4 0.760189 0.348565 0.230395
O O5 0.389891 0.915263 0.224116
O O6 0.733400 0.937387 0.265765
O O7 0.500000 0.000000 0.208526
O O8 0.597082 0.940789 0.000000
O O9 0.710592 0.170853 0.788315
O O10 0.742047 0.234699 0.000000
O O11 0.685250 0.612917 0.500000
O O12 0.550482 0.602659 0.762948
O O13 0.356202 0.605985 0.000000
#
# Coordination Sequence:
#
# PCOD8237969 Si02
#       5
#     8   8   8   8   8
#     4  10  21  36  55  81 115 155 197 238 288 353
#     4  10  22  41  66  93 119 156 205 252 303 360
#     4   9  19  34  52  81 114 149 195 241 292 346
#     4   9  20  40  62  86 119 158 200 247 297 354
#     4  11  23  39  60  87 122 159 198 248 303 358
#
# _framework density 20.604209999999998
#
# number of rings (size 3 to 8) (size 9 to 14) (size 15 to 20)
#    0.000    2.200    0.000    3.600    2.800    6.000 
#    0.000    4.000    0.000    0.000    0.000    0.000 
#    0.000    0.000    0.000    0.000    0.000    0.000 
#
# Total GULP energy -495935.991178 kJ/mol
# GULP energy per Si atom -12398.399779 kJ/mol
# Density = 2.055731 g / cm^3
# Si number density = 20.604210 Si / 1000 Ang^3
#
#
#
# Elastic Constant Matrix: (Units=GPa)
#
#
# Indices 1 2 3 4 5 6 
#
# 1 34.3693 9.9781 24.3389 0.0000 0.0000 0.0000
# 2 9.9781 78.9833 24.8899 0.0000 0.0000 0.0000
# 3 24.3389 24.8899 104.2715 0.0000 0.0000 0.0000
# 4 0.0000 0.0000 0.0000 30.2231 0.0000 0.0000
# 5 0.0000 0.0000 0.0000 0.0000 26.5627 0.0000
# 6 0.0000 0.0000 0.0000 0.0000 0.0000 34.4416
#
#
#
# Elastic Compliance Matrix: (Units=1/GPa)
#
#
# Indices 1 2 3 4 5 6 
#
# 1 0.035149 -0.002006 -0.007726 0.000000 0.000000 0.000000
# 2 -0.002006 0.013805 -0.002827 0.000000 0.000000 0.000000
# 3 -0.007726 -0.002827 0.012069 0.000000 0.000000 0.000000
# 4 0.000000 0.000000 0.000000 0.033087 0.000000 0.000000
# 5 0.000000 0.000000 0.000000 0.000000 0.037647 0.000000
# 6 0.000000 0.000000 0.000000 0.000000 0.000000 0.029035
#
#
# Mechanical properties :
#
#
# Convention : Reuss Voigt Hill
#
# Bulk Modulus (GPa) = 27.85089 37.33754 32.59422
# Shear Modulus (GPa) = 25.26817 28.80661 27.03739
#
# Velocity S-wave (km/s) = 3.50574 3.74317 3.62640
# Velocity P-wave (km/s) = 5.47114 6.06979 5.77822
#
# Compressibility (1/GPa) = 0.03590549
#
# Stress axis : x y z
#
# Youngs Moduli (GPa) = 28.45023 72.43633 82.86030
#
# Poissons Ratio (x) = 0.14530 0.64015
# Poissons Ratio (y) = 0.05707 0.23426
# Poissons Ratio (z) = 0.21980 0.20479
#
# Static dielectric constant tensor:
#      x y z
#    x 3.658990 0.000000 0.000000 
#    y 0.000000 4.123330 0.000000 
#    z 0.000000 0.000000 3.522080 
# 
# 
# High freq. dielectric constant tensor:
#      x y z
#    x 1.804480 0.000000 0.000000 
#    y 0.000000 1.806800 0.000000 
#    z 0.000000 0.000000 1.795740 
# 
# From -- ./inp_files/2620.got.cif
#   From: 2010.06.25/outbox.cif.g09.slc.cpg/sg58_2_cif.got.tgz:2620.got - 2010.06.26 21:38:00.
