data_PCOD8237854
_publ_section_title
;
Structure prediction by ZEFSAII (Michael W. Deem and Ramdas Pophale) SiO2 
 PCOD8237854
Probable space group: P N N M
;
_chemical_formula_sum "Si O2"
_cell_formula_units_Z 56
_cell_length_a 14.633497
_cell_length_b 10.091861
_cell_length_c 18.407320
_cell_angle_alpha 90.000000
_cell_angle_beta 90.000000
_cell_angle_gamma 90.000000
_cell_volume 2718.378617
_symmetry_space_group_name_H-M "P N N M"
_symmetry_group_IT_number 58
_symmetry_cell_setting 'orthorhombic'
loop_
_space_group_symop_operation_xyz
x,y,z
-x,-y,z
1/2+x,1/2-y,1/2-z
1/2-x,1/2+y,1/2-z
-x,-y,-z
x,y,-z
1/2-x,1/2+y,1/2+z
1/2+x,1/2-y,1/2+z
loop_
_atom_site_type_symbol
_atom_site_label
_atom_site_fract_x
_atom_site_fract_y
_atom_site_fract_z
Si Si1 0.130181 0.912784 0.662821
Si Si2 0.539749 0.142772 0.301979
Si Si3 0.594181 0.049287 0.916931
Si Si4 0.423094 0.387181 0.317801
Si Si5 0.190184 0.326377 0.916198
Si Si6 0.286431 0.524297 0.417598
Si Si7 0.932962 0.801484 0.343898
O O1 0.142575 0.875079 0.747441
O O2 0.208423 0.857816 0.611073
O O3 0.035608 0.846675 0.637787
O O4 0.132251 0.071814 0.657165
O O5 0.465934 0.244006 0.336767
O O6 0.616651 0.108881 0.362291
O O7 0.578157 0.217603 0.230757
O O8 0.500000 0.000000 0.279654
O O9 0.600351 0.207919 0.909178
O O10 0.500000 0.000000 0.877892
O O11 0.685305 0.984855 0.880773
O O12 0.590365 0.004519 0.000000
O O13 0.500000 0.500000 0.300634
O O14 0.359763 0.424973 0.384391
O O15 0.173591 0.170106 0.910824
O O16 0.178388 0.374625 0.000000
O O17 0.275805 0.477114 0.500000
#
# Coordination Sequence:
#
# PCOD8237854 Si02
#       7
#     8   8   8   8   8   8   8
#     4  10  21  39  63  88 125 162 212 263 320 387
#     4  11  24  42  64  96 127 168 218 273 334 377
#     4  10  21  36  56  89 127 160 206 263 317 381
#     4  11  20  44  67  89 127 166 218 273 312 381
#     4  11  24  41  62  94 132 168 215 266 330 400
#     4  10  22  39  65  96 123 169 221 263 321 389
#     4  10  20  40  61  88 121 166 213 259 319 387
#
# _framework density 20.600515999999999
#
# number of rings (size 3 to 8) (size 9 to 14) (size 15 to 20)
#    0.000    1.571    4.286    1.286    2.000    5.714 
#    2.571    2.857    0.000    0.000    0.000    0.000 
#    0.000    0.000    0.000    0.000    0.000    0.000 
#
# Total GULP energy -694206.746791 kJ/mol
# GULP energy per Si atom -12396.549050 kJ/mol
# Density = 2.055363 g / cm^3
# Si number density = 20.600516 Si / 1000 Ang^3
#
#
#
# Elastic Constant Matrix: (Units=GPa)
#
#
# Indices 1 2 3 4 5 6 
#
# 1 63.6846 13.6975 27.6452 0.0000 0.0000 0.0000
# 2 13.6975 86.2599 12.6705 0.0000 0.0000 0.0000
# 3 27.6452 12.6705 54.2343 0.0000 0.0000 0.0000
# 4 0.0000 0.0000 0.0000 29.0294 0.0000 0.0000
# 5 0.0000 0.0000 0.0000 0.0000 31.5282 0.0000
# 6 0.0000 0.0000 0.0000 0.0000 0.0000 31.6774
#
#
#
# Elastic Compliance Matrix: (Units=1/GPa)
#
#
# Indices 1 2 3 4 5 6 
#
# 1 0.020423 -0.001775 -0.009996 0.000000 0.000000 0.000000
# 2 -0.001775 0.012159 -0.001936 0.000000 0.000000 0.000000
# 3 -0.009996 -0.001936 0.023986 0.000000 0.000000 0.000000
# 4 0.000000 0.000000 0.000000 0.034448 0.000000 0.000000
# 5 0.000000 0.000000 0.000000 0.000000 0.031718 0.000000
# 6 0.000000 0.000000 0.000000 0.000000 0.000000 0.031568
#
#
# Mechanical properties :
#
#
# Convention : Reuss Voigt Hill
#
# Bulk Modulus (GPa) = 34.29930 34.68948 34.49439
# Shear Modulus (GPa) = 26.11871 28.45806 27.28839
#
# Velocity S-wave (km/s) = 3.56457 3.72078 3.64352
# Velocity P-wave (km/s) = 5.79892 5.94430 5.87206
#
# Compressibility (1/GPa) = 0.02915511
#
# Stress axis : x y z
#
# Youngs Moduli (GPa) = 48.96377 82.24317 41.69090
#
# Poissons Ratio (x) = 0.14597 0.41674
# Poissons Ratio (y) = 0.08690 0.08071
# Poissons Ratio (z) = 0.48943 0.15922
#
# Static dielectric constant tensor:
#      x y z
#    x 3.717500 0.000000 0.000000 
#    y 0.000000 3.771780 0.000000 
#    z 0.000000 0.000000 3.591010 
# 
# 
# High freq. dielectric constant tensor:
#      x y z
#    x 1.799700 0.000000 0.000000 
#    y 0.000000 1.806760 0.000000 
#    z 0.000000 0.000000 1.795620 
# 
# From -- ./inp_files/30041.got.cif
#   From: 2010.06.25/outbox.cif.g09.slc.cpg/sg58_16_cif.got.tgz:30041.got - 2010.06.26 21:38:00.
