data_PCOD8237866
_publ_section_title
;
Structure prediction by ZEFSAII (Michael W. Deem and Ramdas Pophale) SiO2 
 PCOD8237866
Probable space group: P N N M
;
_chemical_formula_sum "Si O2"
_cell_formula_units_Z 56
_cell_length_a 14.536836
_cell_length_b 21.604269
_cell_length_c 8.955069
_cell_angle_alpha 90.000000
_cell_angle_beta 90.000000
_cell_angle_gamma 90.000000
_cell_volume 2812.408511
_symmetry_space_group_name_H-M "P N N M"
_symmetry_group_IT_number 58
_symmetry_cell_setting 'orthorhombic'
loop_
_space_group_symop_operation_xyz
x,y,z
-x,-y,z
1/2+x,1/2-y,1/2-z
1/2-x,1/2+y,1/2-z
-x,-y,-z
x,y,-z
1/2-x,1/2+y,1/2+z
1/2+x,1/2-y,1/2+z
loop_
_atom_site_type_symbol
_atom_site_label
_atom_site_fract_x
_atom_site_fract_y
_atom_site_fract_z
Si Si1 0.428057 0.606886 0.674070
Si Si2 0.078544 0.545209 0.323453
Si Si3 0.059971 0.673571 0.829788
Si Si4 0.616959 0.603990 0.176785
Si Si5 0.278307 0.504475 0.324794
Si Si6 0.882821 0.754428 0.173670
Si Si7 0.800938 0.221512 0.826692
O O1 0.454325 0.605823 0.500000
O O2 0.516598 0.584142 0.765221
O O3 0.345308 0.561133 0.712752
O O4 0.397509 0.675063 0.724791
O O5 0.077742 0.544040 0.500000
O O6 0.057738 0.614639 0.275154
O O7 0.177546 0.522729 0.264869
O O8 0.000000 0.500000 0.258008
O O9 0.153187 0.711665 0.800265
O O10 0.974660 0.717191 0.790075
O O11 0.054642 0.650937 0.000000
O O12 0.692601 0.556268 0.235946
O O13 0.640555 0.671829 0.235774
O O14 0.617673 0.603893 0.000000
O O15 0.278312 0.489181 0.500000
O O16 0.803004 0.723399 0.270110
O O17 0.855628 0.751213 0.000000
O O18 0.803417 0.202655 0.000000
#
# Coordination Sequence:
#
# PCOD8237866 Si02
#       7
#     8   8   8   8   8   8   8
#     4  10  20  40  65  89 124 167 204 245 308 378
#     4  10  23  42  64  92 123 160 210 256 298 361
#     4  10  22  41  64  90 125 162 198 248 309 363
#     4  12  25  39  60  91 125 160 205 261 310 360
#     4  10  22  40  63  88 121 167 207 251 310 366
#     4  10  21  39  63  93 126 159 200 249 305 365
#     4  11  23  41  63  90 124 164 207 251 306 372
#
# _framework density 19.911759
#
# number of rings (size 3 to 8) (size 9 to 14) (size 15 to 20)
#    0.000    1.571    1.429    3.000    2.000    6.571 
#    0.000    0.000    0.000    0.000    0.000    0.000 
#    0.000    0.000    0.000    0.000    0.000    0.000 
#
# Total GULP energy -694767.056321 kJ/mol
# GULP energy per Si atom -12406.554577 kJ/mol
# Density = 1.986644 g / cm^3
# Si number density = 19.911759 Si / 1000 Ang^3
#
#
#
# Elastic Constant Matrix: (Units=GPa)
#
#
# Indices 1 2 3 4 5 6 
#
# 1 112.9324 36.7011 34.2310 0.0000 0.0000 0.0000
# 2 36.7011 98.6563 32.4226 0.0000 0.0000 0.0000
# 3 34.2310 32.4226 56.9571 0.0000 0.0000 0.0000
# 4 0.0000 0.0000 0.0000 33.4806 0.0000 0.0000
# 5 0.0000 0.0000 0.0000 0.0000 25.6364 0.0000
# 6 0.0000 0.0000 0.0000 0.0000 0.0000 28.5332
#
#
#
# Elastic Compliance Matrix: (Units=1/GPa)
#
#
# Indices 1 2 3 4 5 6 
#
# 1 0.011278 -0.002421 -0.005400 0.000000 0.000000 0.000000
# 2 -0.002421 0.012989 -0.005939 0.000000 0.000000 0.000000
# 3 -0.005400 -0.005939 0.024183 0.000000 0.000000 0.000000
# 4 0.000000 0.000000 0.000000 0.029868 0.000000 0.000000
# 5 0.000000 0.000000 0.000000 0.000000 0.039007 0.000000
# 6 0.000000 0.000000 0.000000 0.000000 0.000000 0.035047
#
#
# Mechanical properties :
#
#
# Convention : Reuss Voigt Hill
#
# Bulk Modulus (GPa) = 47.77724 52.80612 50.29168
# Shear Modulus (GPa) = 26.75675 28.54277 27.64976
#
# Velocity S-wave (km/s) = 3.66972 3.79022 3.73045
# Velocity P-wave (km/s) = 6.48092 6.76254 6.62323
#
# Compressibility (1/GPa) = 0.02093047
#
# Stress axis : x y z
#
# Youngs Moduli (GPa) = 88.66436 76.99106 41.35110
#
# Poissons Ratio (x) = 0.18639 0.22330
# Poissons Ratio (y) = 0.21465 0.24557
# Poissons Ratio (z) = 0.47881 0.45722
#
# Static dielectric constant tensor:
#      x y z
#    x 3.853240 0.000000 0.000000 
#    y 0.000000 3.621310 0.000000 
#    z 0.000000 0.000000 3.478420 
# 
# 
# High freq. dielectric constant tensor:
#      x y z
#    x 1.791110 0.000000 0.000000 
#    y 0.000000 1.785580 0.000000 
#    z 0.000000 0.000000 1.764790 
# 
# From -- ./inp_files/6443.got.cif
#   From: 2010.06.25/outbox.cif.g09.slc.cpg/sg58_4_cif.got.tgz:6443.got - 2010.06.26 21:38:00.
