data_PCOD8237462
_publ_section_title
;
Structure prediction by ZEFSAII (Michael W. Deem and Ramdas Pophale) SiO2 
 PCOD8237462
Probable space group: P N N M
;
_chemical_formula_sum "Si O2"
_cell_formula_units_Z 56
_cell_length_a 19.754483
_cell_length_b 16.427161
_cell_length_c 8.963987
_cell_angle_alpha 90.000000
_cell_angle_beta 90.000000
_cell_angle_gamma 90.000000
_cell_volume 2908.904073
_symmetry_space_group_name_H-M "P N N M"
_symmetry_group_IT_number 58
_symmetry_cell_setting 'orthorhombic'
loop_
_space_group_symop_operation_xyz
x,y,z
-x,-y,z
1/2+x,1/2-y,1/2-z
1/2-x,1/2+y,1/2-z
-x,-y,-z
x,y,-z
1/2-x,1/2+y,1/2+z
1/2+x,1/2-y,1/2+z
loop_
_atom_site_type_symbol
_atom_site_label
_atom_site_fract_x
_atom_site_fract_y
_atom_site_fract_z
Si Si1 0.118286 0.301378 0.670029
Si Si2 0.304526 0.426567 0.176339
Si Si3 0.942584 0.064176 0.823965
Si Si4 0.329428 0.977620 0.174699
Si Si5 0.624770 0.866419 0.672896
Si Si6 0.232628 0.764604 0.170154
Si Si7 0.012636 0.759058 0.176051
O O1 0.094145 0.293016 0.500000
O O2 0.129701 0.395570 0.712385
O O3 0.187760 0.252119 0.698776
O O4 0.062724 0.261834 0.774658
O O5 0.374089 0.462836 0.241106
O O6 0.242353 0.478550 0.241582
O O7 0.298556 0.332158 0.221772
O O8 0.303964 0.435315 0.000000
O O9 0.965517 0.152675 0.763314
O O10 0.928975 0.065114 0.000000
O O11 0.000000 0.000000 0.779867
O O12 0.375586 0.051618 0.231187
O O13 0.315288 0.985095 0.000000
O O14 0.613863 0.888538 0.500000
O O15 0.696064 0.820805 0.698313
O O16 0.564526 0.809483 0.734701
O O17 0.220306 0.795215 0.000000
O O18 0.014839 0.761423 0.000000
#
# Coordination Sequence:
#
# PCOD8237462 Si02
#       7
#     8   8   8   8   8   8   8
#     4   9  20  37  57  80 112 154 192 237 287 342
#     4  11  21  35  58  85 113 146 190 241 290 340
#     4  10  21  39  61  84 116 158 195 232 291 357
#     4  10  22  39  58  82 114 153 196 241 293 346
#     4  10  20  36  59  85 114 149 195 243 293 347
#     4   9  18  37  60  80 111 153 193 236 291 348
#     4  10  21  37  58  84 116 153 189 237 292 348
#
# _framework density 19.251235999999999
#
# number of rings (size 3 to 8) (size 9 to 14) (size 15 to 20)
#    0.000    2.143    1.429    2.571    0.000    6.571 
#    0.000    5.714    0.000    0.000    0.000    0.000 
#    0.000    0.000    0.000    0.000    0.000    0.000 
#
# Total GULP energy -694566.548594 kJ/mol
# GULP energy per Si atom -12402.974082 kJ/mol
# Density = 1.920742 g / cm^3
# Si number density = 19.251236 Si / 1000 Ang^3
#
#
#
# Elastic Constant Matrix: (Units=GPa)
#
#
# Indices 1 2 3 4 5 6 
#
# 1 107.3197 29.1187 29.2376 0.0000 0.0000 0.0000
# 2 29.1187 55.5753 19.7174 0.0000 0.0000 0.0000
# 3 29.2376 19.7174 59.6735 0.0000 0.0000 0.0000
# 4 0.0000 0.0000 0.0000 22.9255 0.0000 0.0000
# 5 0.0000 0.0000 0.0000 0.0000 36.1388 0.0000
# 6 0.0000 0.0000 0.0000 0.0000 0.0000 27.5227
#
#
#
# Elastic Compliance Matrix: (Units=1/GPa)
#
#
# Indices 1 2 3 4 5 6 
#
# 1 0.011726 -0.004651 -0.004209 0.000000 0.000000 0.000000
# 2 -0.004651 0.022228 -0.005066 0.000000 0.000000 0.000000
# 3 -0.004209 -0.005066 0.020494 0.000000 0.000000 0.000000
# 4 0.000000 0.000000 0.000000 0.043619 0.000000 0.000000
# 5 0.000000 0.000000 0.000000 0.000000 0.027671 0.000000
# 6 0.000000 0.000000 0.000000 0.000000 0.000000 0.036334
#
#
# Mechanical properties :
#
#
# Convention : Reuss Voigt Hill
#
# Bulk Modulus (GPa) = 37.59794 42.07954 39.83874
# Shear Modulus (GPa) = 25.15234 26.95040 26.05137
#
# Velocity S-wave (km/s) = 3.61852 3.74562 3.68262
# Velocity P-wave (km/s) = 6.08529 6.37274 6.23067
#
# Compressibility (1/GPa) = 0.02659721
#
# Stress axis : x y z
#
# Youngs Moduli (GPa) = 85.27722 44.98890 48.79525
#
# Poissons Ratio (x) = 0.20924 0.20537
# Poissons Ratio (y) = 0.39661 0.24719
# Poissons Ratio (z) = 0.35891 0.22790
#
# Static dielectric constant tensor:
#      x y z
#    x 3.591400 0.000000 0.000000 
#    y 0.000000 3.482130 0.000000 
#    z 0.000000 0.000000 3.347180 
# 
# 
# High freq. dielectric constant tensor:
#      x y z
#    x 1.756040 0.000000 0.000000 
#    y 0.000000 1.742350 0.000000 
#    z 0.000000 0.000000 1.738250 
# 
# From -- ./inp_files/8986.got.cif
#   From: 2010.06.25/outbox.cif.g09.slc.cpg/sg58_5_cif.got.tgz:8986.got - 2010.06.26 21:38:00.
