data_PCOD8237084
_publ_section_title
;
Structure prediction by ZEFSAII (Michael W. Deem and Ramdas Pophale) SiO2 
 PCOD8237084
Probable space group: P N N M
;
_chemical_formula_sum "Si O2"
_cell_formula_units_Z 48
_cell_length_a 9.329357
_cell_length_b 30.680716
_cell_length_c 8.833707
_cell_angle_alpha 90.000000
_cell_angle_beta 90.000000
_cell_angle_gamma 90.000000
_cell_volume 2528.483903
_symmetry_space_group_name_H-M "P N N M"
_symmetry_group_IT_number 58
_symmetry_cell_setting 'orthorhombic'
loop_
_space_group_symop_operation_xyz
x,y,z
-x,-y,z
1/2+x,1/2-y,1/2-z
1/2-x,1/2+y,1/2-z
-x,-y,-z
x,y,-z
1/2-x,1/2+y,1/2+z
1/2+x,1/2-y,1/2+z
loop_
_atom_site_type_symbol
_atom_site_label
_atom_site_fract_x
_atom_site_fract_y
_atom_site_fract_z
Si Si1 0.384598 0.286585 0.675149
Si Si2 0.422119 0.881661 0.179566
Si Si3 0.094261 0.540969 0.821549
Si Si4 0.099818 0.883925 0.824293
Si Si5 0.101192 0.041230 0.824985
Si Si6 0.411737 0.791952 0.323799
O O1 0.336516 0.283260 0.500000
O O2 0.452338 0.334470 0.705329
O O3 0.497282 0.250207 0.721692
O O4 0.249176 0.279754 0.781384
O O5 0.533295 0.915747 0.245803
O O6 0.260681 0.890888 0.241912
O O7 0.469858 0.833526 0.231869
O O8 0.427357 0.883494 0.000000
O O9 0.256436 0.533299 0.770494
O O10 0.000000 0.500000 0.767194
O O11 0.087944 0.546742 0.000000
O O12 0.984034 0.917213 0.753998
O O13 0.108779 0.895343 0.000000
O O14 0.143891 0.048647 0.000000
O O15 0.000000 0.000000 0.805468
O O16 0.423270 0.802712 0.500000
#
# Coordination Sequence:
#
# PCOD8237084 Si02
#       6
#     8   8   8   8   8   8
#     4   9  19  35  53  76 109 147 184 222 268 323
#     4  10  20  37  60  81 106 142 183 225 272 326
#     4  11  24  39  55  80 114 146 177 218 269 324
#     4   8  16  33  55  78 104 137 180 226 267 312
#     4  10  20  35  57  83 109 141 183 225 266 318
#     4  10  20  34  54  81 112 144 183 230 276 323
#
# _framework density 18.983708
#
# number of rings (size 3 to 8) (size 9 to 14) (size 15 to 20)
#    0.000    2.333    0.000    3.500    0.000    5.667 
#    0.000    5.833    0.000    0.000    0.000    0.000 
#    0.000    0.000    0.000    0.000    0.000    0.000 
#
# Total GULP energy -595217.749559 kJ/mol
# GULP energy per Si atom -12400.369782 kJ/mol
# Density = 1.894050 g / cm^3
# Si number density = 18.983708 Si / 1000 Ang^3
#
#
#
# Elastic Constant Matrix: (Units=GPa)
#
#
# Indices 1 2 3 4 5 6 
#
# 1 94.9336 67.4587 31.9966 0.0000 0.0000 0.0000
# 2 67.4587 134.3198 37.5093 0.0000 0.0000 0.0000
# 3 31.9966 37.5093 52.6409 0.0000 0.0000 0.0000
# 4 0.0000 0.0000 0.0000 13.9827 0.0000 0.0000
# 5 0.0000 0.0000 0.0000 0.0000 27.9298 0.0000
# 6 0.0000 0.0000 0.0000 0.0000 0.0000 41.7803
#
#
#
# Elastic Compliance Matrix: (Units=1/GPa)
#
#
# Indices 1 2 3 4 5 6 
#
# 1 0.017560 -0.007289 -0.005480 0.000000 0.000000 0.000000
# 2 -0.007289 0.012320 -0.004348 0.000000 0.000000 0.000000
# 3 -0.005480 -0.004348 0.025426 0.000000 0.000000 0.000000
# 4 0.000000 0.000000 0.000000 0.071517 0.000000 0.000000
# 5 0.000000 0.000000 0.000000 0.000000 0.035804 0.000000
# 6 0.000000 0.000000 0.000000 0.000000 0.000000 0.023935
#
#
# Mechanical properties :
#
#
# Convention : Reuss Voigt Hill
#
# Bulk Modulus (GPa) = 47.45645 61.75819 54.60732
# Shear Modulus (GPa) = 21.94733 26.40056 24.17394
#
# Velocity S-wave (km/s) = 3.40386 3.73325 3.57235
# Velocity P-wave (km/s) = 6.36405 7.15442 6.77078
#
# Compressibility (1/GPa) = 0.02107195
#
# Stress axis : x y z
#
# Youngs Moduli (GPa) = 56.94793 81.17047 39.33035
#
# Poissons Ratio (x) = 0.59163 0.21552
# Poissons Ratio (y) = 0.41508 0.17101
# Poissons Ratio (z) = 0.31206 0.35294
#
# Static dielectric constant tensor:
#      x y z
#    x 3.499540 0.000000 0.000000 
#    y 0.000000 3.708240 0.000000 
#    z 0.000000 0.000000 3.324590 
# 
# 
# High freq. dielectric constant tensor:
#      x y z
#    x 1.733640 0.000000 0.000000 
#    y 0.000000 1.754200 0.000000 
#    z 0.000000 0.000000 1.722470 
# 
# From -- ./inp_files/2868.got.cif
#   From: 2010.06.25/outbox.cif.g09.slc.cpg/sg58_2_cif.got.tgz:2868.got - 2010.06.26 21:38:00.
