data_PCOD8237555
_publ_section_title
;
Structure prediction by ZEFSAII (Michael W. Deem and Ramdas Pophale) SiO2 
 PCOD8237555
Probable space group: P N N M
;
_chemical_formula_sum "Si O2"
_cell_formula_units_Z 52
_cell_length_a 7.901737
_cell_length_b 22.821158
_cell_length_c 11.439269
_cell_angle_alpha 90.000000
_cell_angle_beta 90.000000
_cell_angle_gamma 90.000000
_cell_volume 2062.806642
_symmetry_space_group_name_H-M "P N N M"
_symmetry_group_IT_number 58
_symmetry_cell_setting 'orthorhombic'
loop_
_space_group_symop_operation_xyz
x,y,z
-x,-y,z
1/2+x,1/2-y,1/2-z
1/2-x,1/2+y,1/2-z
-x,-y,-z
x,y,-z
1/2-x,1/2+y,1/2+z
1/2+x,1/2-y,1/2+z
loop_
_atom_site_type_symbol
_atom_site_label
_atom_site_fract_x
_atom_site_fract_y
_atom_site_fract_z
Si Si1 0.704896 0.081032 0.364721
Si Si2 0.373548 0.112888 0.000000
Si Si3 0.987669 0.669315 0.723270
Si Si4 0.691628 0.028792 0.000000
Si Si5 0.526912 0.358753 0.756971
Si Si6 0.312679 0.523249 0.271931
Si Si7 0.507664 0.622400 0.500000
Si Si8 0.253681 0.738287 0.862819
O O1 0.666271 0.088321 0.500000
O O2 0.549110 0.109338 0.293598
O O3 0.873488 0.114758 0.329078
O O4 0.727083 0.012195 0.335199
O O5 0.398641 0.155002 0.111240
O O6 0.509322 0.060136 0.000000
O O7 0.176734 0.090594 0.000000
O O8 0.807763 0.697540 0.684263
O O9 0.082545 0.717107 0.802191
O O10 0.698230 0.987714 0.114250
O O11 0.843164 0.075150 0.000000
O O12 0.678317 0.407553 0.755044
O O13 0.477830 0.340656 0.621510
O O14 0.591113 0.304335 0.830817
O O15 0.500000 0.500000 0.299645
O O16 0.223706 0.741014 0.000000
#
# Coordination Sequence:
#
# PCOD8237555 Si02
#       8
#     8   4   8   4   8   8   4   8
#     4  11  23  42  68 100 137 183 233 284 354 433
#     4  12  24  45  77 106 146 182 241 304 361 431
#     4  12  25  50  69 103 133 177 237 299 364 431
#     4  12  20  42  74 104 152 190 236 306 357 421
#     4  11  23  41  67 101 140 183 234 287 349 419
#     4  10  20  36  69  99 140 187 231 290 350 420
#     4  12  21  42  71 106 142 188 239 295 358 419
#     4  12  27  47  72  97 137 182 230 296 361 432
#
# _framework density 25.208373000000002
#
# number of rings (size 3 to 8) (size 9 to 14) (size 15 to 20)
#    0.000    0.615    6.923    2.538    0.000    3.385 
#    8.308    3.846    0.000    1.846    0.000    0.000 
#    0.000    0.000    0.000    0.000    0.000    0.000 
#
# Total GULP energy -644934.936867 kJ/mol
# GULP energy per Si atom -12402.594940 kJ/mol
# Density = 2.515100 g / cm^3
# Si number density = 25.208373 Si / 1000 Ang^3
#
#
#
# Elastic Constant Matrix: (Units=GPa)
#
#
# Indices 1 2 3 4 5 6 
#
# 1 77.8607 -9.0524 20.7070 0.0000 0.0000 0.0000
# 2 -9.0524 56.7247 26.0647 0.0000 0.0000 0.0000
# 3 20.7070 26.0647 178.6616 0.0000 0.0000 0.0000
# 4 0.0000 0.0000 0.0000 39.8683 0.0000 0.0000
# 5 0.0000 0.0000 0.0000 0.0000 34.4988 0.0000
# 6 0.0000 0.0000 0.0000 0.0000 0.0000 34.9029
#
#
#
# Elastic Compliance Matrix: (Units=1/GPa)
#
#
# Indices 1 2 3 4 5 6 
#
# 1 0.013754 0.003138 -0.002052 0.000000 0.000000 0.000000
# 2 0.003138 0.019612 -0.003225 0.000000 0.000000 0.000000
# 3 -0.002052 -0.003225 0.006305 0.000000 0.000000 0.000000
# 4 0.000000 0.000000 0.000000 0.025083 0.000000 0.000000
# 5 0.000000 0.000000 0.000000 0.000000 0.028987 0.000000
# 6 0.000000 0.000000 0.000000 0.000000 0.000000 0.028651
#
#
# Mechanical properties :
#
#
# Convention : Reuss Voigt Hill
#
# Bulk Modulus (GPa) = 28.25406 43.18728 35.72067
# Shear Modulus (GPa) = 36.10984 40.22250 38.16617
#
# Velocity S-wave (km/s) = 3.78888 3.99883 3.89527
# Velocity P-wave (km/s) = 5.51121 6.20404 5.86786
#
# Compressibility (1/GPa) = 0.03539314
#
# Stress axis : x y z
#
# Youngs Moduli (GPa) = 72.70644 50.99045 158.59318
#
# Poissons Ratio (x) = -0.15999 0.32541
# Poissons Ratio (y) = -0.22813 0.51143
# Poissons Ratio (z) = 0.14918 0.16443
#
# Static dielectric constant tensor:
#      x y z
#    x 4.624920 0.000000 0.000000 
#    y 0.000000 4.740370 0.000000 
#    z 0.000000 0.000000 4.552560 
# 
# 
# High freq. dielectric constant tensor:
#      x y z
#    x 2.025500 0.000000 0.000000 
#    y 0.000000 2.012870 0.000000 
#    z 0.000000 0.000000 2.003770 
# 
# From -- ./inp_files/13258.got.cif
#   From: 2010.06.25/outbox.cif.g09.slc.cpg/sg58_7_cif.got.tgz:13258.got - 2010.06.26 21:38:00.
