data_PCOD8237749
_publ_section_title
;
Structure prediction by ZEFSAII (Michael W. Deem and Ramdas Pophale) SiO2 
 PCOD8237749
Probable space group: P N N M
;
_chemical_formula_sum "Si O2"
_cell_formula_units_Z 56
_cell_length_a 9.015326
_cell_length_b 18.707275
_cell_length_c 16.604837
_cell_angle_alpha 90.000000
_cell_angle_beta 90.000000
_cell_angle_gamma 90.000000
_cell_volume 2800.442003
_symmetry_space_group_name_H-M "P N N M"
_symmetry_group_IT_number 58
_symmetry_cell_setting 'orthorhombic'
loop_
_space_group_symop_operation_xyz
x,y,z
-x,-y,z
1/2+x,1/2-y,1/2-z
1/2-x,1/2+y,1/2-z
-x,-y,-z
x,y,-z
1/2-x,1/2+y,1/2+z
1/2+x,1/2-y,1/2+z
loop_
_atom_site_type_symbol
_atom_site_label
_atom_site_fract_x
_atom_site_fract_y
_atom_site_fract_z
Si Si1 0.696349 0.881504 0.654825
Si Si2 0.070048 0.838139 0.906133
Si Si3 0.577977 0.574707 0.000000
Si Si4 0.667241 0.978631 0.500000
Si Si5 0.955674 0.919270 0.235683
Si Si6 0.913221 0.701306 0.164914
Si Si7 0.158250 0.266979 0.344411
Si Si8 0.905051 0.175890 0.636705
O O1 0.709221 0.935162 0.580286
O O2 0.785312 0.910732 0.733636
O O3 0.522873 0.866658 0.677094
O O4 0.764929 0.806464 0.628858
O O5 0.248467 0.831491 0.885694
O O6 0.984831 0.902152 0.858830
O O7 0.994987 0.763733 0.882254
O O8 0.050765 0.854575 0.000000
O O9 0.500000 0.500000 0.000000
O O10 0.523054 0.619183 0.076256
O O11 0.751682 0.555302 0.000000
O O12 0.500000 0.000000 0.500000
O O13 0.062468 0.859364 0.276325
O O14 0.000000 0.000000 0.255639
O O15 0.840931 0.725817 0.248568
O O16 0.767731 0.680834 0.113812
O O17 0.985513 0.254470 0.371520
#
# Coordination Sequence:
#
# PCOD8237749 Si02
#       8
#     8   8   4   4   8   8   8   8
#     4  10  22  36  62  87 127 166 209 251 311 375
#     4  11  24  39  62  92 122 157 202 270 321 363
#     4  12  24  36  54  86 132 168 203 238 289 377
#     4  12  24  40  54  92 140 176 199 247 299 377
#     4  11  22  41  62  84 115 170 220 253 308 377
#     4  11  20  39  61  94 119 154 204 260 314 368
#     4  10  20  38  62  85 117 154 203 259 313 367
#     4  11  21  36  61  90 119 162 205 251 305 374
#
# _framework density 19.996843999999999
#
# number of rings (size 3 to 8) (size 9 to 14) (size 15 to 20)
#    0.000    1.143    4.286    4.714    6.000    0.286 
#    0.000    0.000    0.000    0.000    0.000    1.000 
#    0.000    0.000    0.000    0.000    0.000    0.000 
#
# Total GULP energy -693864.791481 kJ/mol
# GULP energy per Si atom -12390.442705 kJ/mol
# Density = 1.995133 g / cm^3
# Si number density = 19.996844 Si / 1000 Ang^3
#
#
#
# Elastic Constant Matrix: (Units=GPa)
#
#
# Indices 1 2 3 4 5 6 
#
# 1 132.5101 25.7535 29.7776 0.0000 0.0000 0.0000
# 2 25.7535 50.3255 20.2940 0.0000 0.0000 0.0000
# 3 29.7776 20.2940 109.0259 0.0000 0.0000 0.0000
# 4 0.0000 0.0000 0.0000 20.0723 0.0000 0.0000
# 5 0.0000 0.0000 0.0000 0.0000 19.4443 0.0000
# 6 0.0000 0.0000 0.0000 0.0000 0.0000 28.1074
#
#
#
# Elastic Compliance Matrix: (Units=1/GPa)
#
#
# Indices 1 2 3 4 5 6 
#
# 1 0.008650 -0.003756 -0.001664 0.000000 0.000000 0.000000
# 2 -0.003756 0.023114 -0.003277 0.000000 0.000000 0.000000
# 3 -0.001664 -0.003277 0.010236 0.000000 0.000000 0.000000
# 4 0.000000 0.000000 0.000000 0.049820 0.000000 0.000000
# 5 0.000000 0.000000 0.000000 0.000000 0.051429 0.000000
# 6 0.000000 0.000000 0.000000 0.000000 0.000000 0.035578
#
#
# Mechanical properties :
#
#
# Convention : Reuss Voigt Hill
#
# Bulk Modulus (GPa) = 40.63597 49.27906 44.95752
# Shear Modulus (GPa) = 24.45916 27.92722 26.19319
#
# Velocity S-wave (km/s) = 3.50115 3.74114 3.62313
# Velocity P-wave (km/s) = 6.05883 6.58471 6.32724
#
# Compressibility (1/GPa) = 0.02460874
#
# Stress axis : x y z
#
# Youngs Moduli (GPa) = 115.60181 43.26381 97.69077
#
# Poissons Ratio (x) = 0.16250 0.16251
# Poissons Ratio (y) = 0.43419 0.32009
# Poissons Ratio (z) = 0.19230 0.14176
#
# Static dielectric constant tensor:
#      x y z
#    x 3.926220 0.000000 0.000000 
#    y 0.000000 3.131810 0.000000 
#    z 0.000000 0.000000 3.552130 
# 
# 
# High freq. dielectric constant tensor:
#      x y z
#    x 1.796600 0.000000 0.000000 
#    y 0.000000 1.752750 0.000000 
#    z 0.000000 0.000000 1.767660 
# 
# From -- ./inp_files/20174.got.cif
#   From: 2010.06.25/outbox.cif.g09.slc.cpg/sg58_11_cif.got.tgz:20174.got - 2010.06.26 21:38:00.
