data_PCOD8237502
_publ_section_title
;
Structure prediction by ZEFSAII (Michael W. Deem and Ramdas Pophale) SiO2 
 PCOD8237502
Probable space group: P N N M
;
_chemical_formula_sum "Si O2"
_cell_formula_units_Z 56
_cell_length_a 19.444788
_cell_length_b 16.375834
_cell_length_c 8.950993
_cell_angle_alpha 90.000000
_cell_angle_beta 90.000000
_cell_angle_gamma 90.000000
_cell_volume 2850.216549
_symmetry_space_group_name_H-M "P N N M"
_symmetry_group_IT_number 58
_symmetry_cell_setting 'orthorhombic'
loop_
_space_group_symop_operation_xyz
x,y,z
-x,-y,z
1/2+x,1/2-y,1/2-z
1/2-x,1/2+y,1/2-z
-x,-y,-z
x,y,-z
1/2-x,1/2+y,1/2+z
1/2+x,1/2-y,1/2+z
loop_
_atom_site_type_symbol
_atom_site_label
_atom_site_fract_x
_atom_site_fract_y
_atom_site_fract_z
Si Si1 0.320598 0.490845 0.825222
Si Si2 0.878341 0.314039 0.326798
Si Si3 0.836253 0.475946 0.825694
Si Si4 0.446287 0.569351 0.675465
Si Si5 0.140844 0.360444 0.328136
Si Si6 0.524410 0.264880 0.827505
Si Si7 0.297619 0.325524 0.327682
O O1 0.244757 0.523695 0.787963
O O2 0.373762 0.554965 0.756522
O O3 0.332796 0.401730 0.755069
O O4 0.333515 0.482933 0.000000
O O5 0.858649 0.311741 0.500000
O O6 0.872975 0.405441 0.266682
O O7 0.824870 0.258481 0.238235
O O8 0.955323 0.284730 0.297861
O O9 0.870426 0.560722 0.774864
O O10 0.849722 0.462828 0.000000
O O11 0.500000 0.500000 0.723930
O O12 0.433274 0.569405 0.500000
O O13 0.477284 0.655311 0.725715
O O14 0.128834 0.385960 0.500000
O O15 0.087527 0.291717 0.276754
O O16 0.216204 0.323680 0.303702
O O17 0.531879 0.291021 0.000000
O O18 0.318259 0.332261 0.500000
#
# Coordination Sequence:
#
# PCOD8237502 Si02
#       7
#     8   8   8   8   8   8   8
#     4  10  21  38  60  85 115 153 197 240 291 356
#     4  11  23  38  59  86 119 157 198 241 291 354
#     4  10  22  39  60  87 117 151 195 245 295 347
#     4  11  24  39  58  87 122 157 195 244 299 352
#     4   9  20  40  62  84 114 152 195 243 295 351
#     4  10  23  41  60  85 117 158 201 240 292 356
#     4  10  20  36  60  87 118 151 192 247 298 347
#
# _framework density 19.647629999999999
#
# number of rings (size 3 to 8) (size 9 to 14) (size 15 to 20)
#    0.000    1.857    0.000    3.000    2.000    8.000 
#    0.000    2.857    0.000    0.000    0.000    0.000 
#    0.000    0.000    0.000    0.000    0.000    0.000 
#
# Total GULP energy -694809.285606 kJ/mol
# GULP energy per Si atom -12407.308672 kJ/mol
# Density = 1.960291 g / cm^3
# Si number density = 19.647630 Si / 1000 Ang^3
#
#
#
# Elastic Constant Matrix: (Units=GPa)
#
#
# Indices 1 2 3 4 5 6 
#
# 1 81.7568 56.1981 50.1924 0.0000 0.0000 0.0000
# 2 56.1981 104.4661 52.0913 0.0000 0.0000 0.0000
# 3 50.1924 52.0913 92.6689 0.0000 0.0000 0.0000
# 4 0.0000 0.0000 0.0000 39.9893 0.0000 0.0000
# 5 0.0000 0.0000 0.0000 0.0000 26.0194 0.0000
# 6 0.0000 0.0000 0.0000 0.0000 0.0000 33.9048
#
#
#
# Elastic Compliance Matrix: (Units=1/GPa)
#
#
# Indices 1 2 3 4 5 6 
#
# 1 0.022647 -0.008429 -0.007528 0.000000 0.000000 0.000000
# 2 -0.008429 0.016438 -0.004675 0.000000 0.000000 0.000000
# 3 -0.007528 -0.004675 0.017496 0.000000 0.000000 0.000000
# 4 0.000000 0.000000 0.000000 0.025007 0.000000 0.000000
# 5 0.000000 0.000000 0.000000 0.000000 0.038433 0.000000
# 6 0.000000 0.000000 0.000000 0.000000 0.000000 0.029494
#
#
# Mechanical properties :
#
#
# Convention : Reuss Voigt Hill
#
# Bulk Modulus (GPa) = 65.28518 66.20616 65.74567
# Shear Modulus (GPa) = 25.52512 28.01004 26.76758
#
# Velocity S-wave (km/s) = 3.60828 3.77983 3.69505
# Velocity P-wave (km/s) = 7.11756 7.26770 7.19302
#
# Compressibility (1/GPa) = 0.01531741
#
# Stress axis : x y z
#
# Youngs Moduli (GPa) = 44.15541 60.83440 57.15502
#
# Poissons Ratio (x) = 0.51280 0.43027
# Poissons Ratio (y) = 0.37220 0.26718
# Poissons Ratio (z) = 0.33241 0.28438
#
# Static dielectric constant tensor:
#      x y z
#    x 3.602220 0.000000 0.000000 
#    y 0.000000 3.533260 0.000000 
#    z 0.000000 0.000000 3.650460 
# 
# 
# High freq. dielectric constant tensor:
#      x y z
#    x 1.769030 0.000000 0.000000 
#    y 0.000000 1.771060 0.000000 
#    z 0.000000 0.000000 1.773520 
# 
# From -- ./inp_files/6321.got.cif
#   From: 2010.06.25/outbox.cif.g09.slc.cpg/sg58_4_cif.got.tgz:6321.got - 2010.06.26 21:38:00.
