data_PCOD8237203
_publ_section_title
;
Structure prediction by ZEFSAII (Michael W. Deem and Ramdas Pophale) SiO2 
 PCOD8237203
Probable space group: P N N M
;
_chemical_formula_sum "Si O2"
_cell_formula_units_Z 64
_cell_length_a 13.764639
_cell_length_b 17.427904
_cell_length_c 14.259406
_cell_angle_alpha 90.000000
_cell_angle_beta 90.000000
_cell_angle_gamma 90.000000
_cell_volume 3420.671895
_symmetry_space_group_name_H-M "P N N M"
_symmetry_group_IT_number 58
_symmetry_cell_setting 'orthorhombic'
loop_
_space_group_symop_operation_xyz
x,y,z
-x,-y,z
1/2+x,1/2-y,1/2-z
1/2-x,1/2+y,1/2-z
-x,-y,-z
x,y,-z
1/2-x,1/2+y,1/2+z
1/2+x,1/2-y,1/2+z
loop_
_atom_site_type_symbol
_atom_site_label
_atom_site_fract_x
_atom_site_fract_y
_atom_site_fract_z
Si Si1 0.766891 0.226003 0.395293
Si Si2 0.549186 0.144065 0.232947
Si Si3 0.235815 0.901885 0.246884
Si Si4 0.376746 0.122089 0.106352
Si Si5 0.403876 0.696294 0.709170
Si Si6 0.598733 0.676451 0.607807
Si Si7 0.899477 0.354256 0.892180
Si Si8 0.758140 0.927129 0.733713
O O1 0.756925 0.193686 0.500000
O O2 0.795127 0.156131 0.328582
O O3 0.852855 0.287669 0.387270
O O4 0.665249 0.265699 0.369075
O O5 0.648701 0.097106 0.230247
O O6 0.484367 0.111720 0.148049
O O7 0.566876 0.235365 0.219429
O O8 0.496921 0.128800 0.333140
O O9 0.181885 0.876615 0.152203
O O10 0.203275 0.986570 0.278797
O O11 0.298432 0.075705 0.167170
O O12 0.373299 0.091308 0.000000
O O13 0.496580 0.659727 0.658255
O O14 0.350204 0.629592 0.766650
O O15 0.588638 0.652619 0.500000
O O16 0.629461 0.765191 0.618897
O O17 0.810888 0.404194 0.852556
O O18 0.919237 0.376615 0.000000
#
# Coordination Sequence:
#
# PCOD8237203 Si02
#       8
#     8   8   8   8   8   8   8   8
#     4   9  17  32  55  78  98 128 174 220 257 300
#     4   9  18  33  53  76  99 130 172 214 257 305
#     4  11  22  33  48  76 113 142 167 205 258 315
#     4   9  18  34  55  74  95 129 174 217 253 296
#     4   9  17  34  56  75  99 134 174 218 258 300
#     4  10  20  35  55  77 101 134 180 226 259 295
#     4   9  18  35  58  81 103 131 173 221 263 305
#     4  10  21  35  51  77 111 140 164 202 260 319
#
# _framework density 18.709773999999999
#
# number of rings (size 3 to 8) (size 9 to 14) (size 15 to 20)
#    0.000    2.500    0.000    4.125    0.000    7.500 
#    0.000    2.500    0.000    0.750    0.000    3.500 
#    0.000    0.000    0.000    0.000    0.000    0.000 
#
# Total GULP energy -793700.753121 kJ/mol
# GULP energy per Si atom -12401.574268 kJ/mol
# Density = 1.866719 g / cm^3
# Si number density = 18.709774 Si / 1000 Ang^3
#
#
#
# Elastic Constant Matrix: (Units=GPa)
#
#
# Indices 1 2 3 4 5 6 
#
# 1 61.9773 15.8475 30.4057 0.0000 0.0000 0.0000
# 2 15.8475 71.9261 19.5571 0.0000 0.0000 0.0000
# 3 30.4057 19.5571 82.3234 0.0000 0.0000 0.0000
# 4 0.0000 0.0000 0.0000 17.4399 0.0000 0.0000
# 5 0.0000 0.0000 0.0000 0.0000 20.3014 0.0000
# 6 0.0000 0.0000 0.0000 0.0000 0.0000 16.4810
#
#
#
# Elastic Compliance Matrix: (Units=1/GPa)
#
#
# Indices 1 2 3 4 5 6 
#
# 1 0.020144 -0.002582 -0.006827 0.000000 0.000000 0.000000
# 2 -0.002582 0.015194 -0.002656 0.000000 0.000000 0.000000
# 3 -0.006827 -0.002656 0.015300 0.000000 0.000000 0.000000
# 4 0.000000 0.000000 0.000000 0.057340 0.000000 0.000000
# 5 0.000000 0.000000 0.000000 0.000000 0.049258 0.000000
# 6 0.000000 0.000000 0.000000 0.000000 0.000000 0.060676
#
#
# Mechanical properties :
#
#
# Convention : Reuss Voigt Hill
#
# Bulk Modulus (GPa) = 37.72375 38.64971 38.18673
# Shear Modulus (GPa) = 19.93003 20.87221 20.40112
#
# Velocity S-wave (km/s) = 3.26731 3.34365 3.30570
# Velocity P-wave (km/s) = 5.86857 5.96733 5.91816
#
# Compressibility (1/GPa) = 0.02650850
#
# Stress axis : x y z
#
# Youngs Moduli (GPa) = 49.64165 65.81439 65.36126
#
# Poissons Ratio (x) = 0.16995 0.44621
# Poissons Ratio (y) = 0.12818 0.17359
# Poissons Ratio (z) = 0.33889 0.17480
#
# Static dielectric constant tensor:
#      x y z
#    x 3.425880 0.000000 0.000000 
#    y 0.000000 3.248800 0.000000 
#    z 0.000000 0.000000 3.393410 
# 
# 
# High freq. dielectric constant tensor:
#      x y z
#    x 1.724170 0.000000 0.000000 
#    y 0.000000 1.710620 0.000000 
#    z 0.000000 0.000000 1.716390 
# 
# From -- ./inp_files/21531.got.cif
#   From: 2010.06.25/outbox.cif.g09.slc.cpg/sg58_11_cif.got.tgz:21531.got - 2010.06.26 21:38:00.
