data_PCOD8237077
_publ_section_title
;
Structure prediction by ZEFSAII (Michael W. Deem and Ramdas Pophale) SiO2 
 PCOD8237077
Probable space group: P N N M
;
_chemical_formula_sum "Si O2"
_cell_formula_units_Z 64
_cell_length_a 10.945142
_cell_length_b 35.044215
_cell_length_c 8.950784
_cell_angle_alpha 90.000000
_cell_angle_beta 90.000000
_cell_angle_gamma 90.000000
_cell_volume 3433.197704
_symmetry_space_group_name_H-M "P N N M"
_symmetry_group_IT_number 58
_symmetry_cell_setting 'orthorhombic'
loop_
_space_group_symop_operation_xyz
x,y,z
-x,-y,z
1/2+x,1/2-y,1/2-z
1/2-x,1/2+y,1/2-z
-x,-y,-z
x,y,-z
1/2-x,1/2+y,1/2+z
1/2+x,1/2-y,1/2+z
loop_
_atom_site_type_symbol
_atom_site_label
_atom_site_fract_x
_atom_site_fract_y
_atom_site_fract_z
Si Si1 0.355811 0.727211 0.823264
Si Si2 0.636645 0.724802 0.823453
Si Si3 0.871808 0.145537 0.829365
Si Si4 0.857845 0.999156 0.334751
Si Si5 0.754005 0.422418 0.831092
Si Si6 0.743914 0.069799 0.175384
Si Si7 0.984237 0.543151 0.167728
Si Si8 0.348591 0.647964 0.330418
O O1 0.497321 0.738222 0.775468
O O2 0.248606 0.752399 0.750633
O O3 0.327808 0.684317 0.773792
O O4 0.343236 0.730583 0.000000
O O5 0.656114 0.681232 0.775802
O O6 0.650204 0.728508 0.000000
O O7 0.797282 0.109695 0.763572
O O8 0.012866 0.133710 0.821680
O O9 0.834349 0.155676 0.000000
O O10 0.796450 0.002502 0.500000
O O11 0.818527 0.033950 0.233814
O O12 0.817952 0.958810 0.263420
O O13 0.000000 0.000000 0.350693
O O14 0.736029 0.386066 0.726809
O O15 0.895021 0.432297 0.828718
O O16 0.708882 0.413408 0.000000
O O17 0.604980 0.066481 0.225528
O O18 0.755611 0.069765 0.000000
O O19 0.000000 0.500000 0.229309
O O20 0.930639 0.540862 0.000000
O O21 0.311537 0.658491 0.500000
#
# Coordination Sequence:
#
# PCOD8237077 Si02
#       8
#     8   8   8   8   8   8   8   8
#     4  10  21  39  63  90 122 155 189 233 283 340
#     4  10  21  38  63  93 119 152 195 234 281 341
#     4   9  20  38  57  81 115 151 181 225 283 331
#     4  10  20  34  54  78 105 141 183 226 273 329
#     4  10  20  35  54  77 106 142 185 231 280 330
#     4  11  22  35  54  80 110 142 183 230 280 332
#     4  10  20  38  57  72 103 148 190 232 279 333
#     4  10  20  36  59  84 113 147 185 228 277 332
#
# _framework density 18.641513
#
# number of rings (size 3 to 8) (size 9 to 14) (size 15 to 20)
#    0.000    2.000    1.250    2.250    0.000    4.500 
#    2.250    0.000    0.000    0.000    0.000    0.000 
#    0.000    0.000    0.000    0.000    0.000    0.000 
#
# Total GULP energy -793438.327716 kJ/mol
# GULP energy per Si atom -12397.473871 kJ/mol
# Density = 1.859908 g / cm^3
# Si number density = 18.641513 Si / 1000 Ang^3
#
#
#
# Elastic Constant Matrix: (Units=GPa)
#
#
# Indices 1 2 3 4 5 6 
#
# 1 96.5787 56.0861 36.7120 0.0000 0.0000 0.0000
# 2 56.0861 107.8524 41.0360 0.0000 0.0000 0.0000
# 3 36.7120 41.0360 66.6944 0.0000 0.0000 0.0000
# 4 0.0000 0.0000 0.0000 36.9919 0.0000 0.0000
# 5 0.0000 0.0000 0.0000 0.0000 31.4877 0.0000
# 6 0.0000 0.0000 0.0000 0.0000 0.0000 37.2388
#
#
#
# Elastic Compliance Matrix: (Units=1/GPa)
#
#
# Indices 1 2 3 4 5 6 
#
# 1 0.015927 -0.006459 -0.004793 0.000000 0.000000 0.000000
# 2 -0.006459 0.014725 -0.005505 0.000000 0.000000 0.000000
# 3 -0.004793 -0.005505 0.021019 0.000000 0.000000 0.000000
# 4 0.000000 0.000000 0.000000 0.027033 0.000000 0.000000
# 5 0.000000 0.000000 0.000000 0.000000 0.031758 0.000000
# 6 0.000000 0.000000 0.000000 0.000000 0.000000 0.026854
#
#
# Mechanical properties :
#
#
# Convention : Reuss Voigt Hill
#
# Bulk Modulus (GPa) = 55.07257 59.86599 57.46928
# Shear Modulus (GPa) = 28.26731 30.29643 29.28187
#
# Velocity S-wave (km/s) = 3.89828 4.03577 3.96762
# Velocity P-wave (km/s) = 7.06181 7.34170 7.20312
#
# Compressibility (1/GPa) = 0.01815786
#
# Stress axis : x y z
#
# Youngs Moduli (GPa) = 62.78633 67.91075 47.57557
#
# Poissons Ratio (x) = 0.43862 0.22803
# Poissons Ratio (y) = 0.40552 0.26190
# Poissons Ratio (z) = 0.30094 0.37384
#
# Static dielectric constant tensor:
#      x y z
#    x 3.483240 0.000000 0.000000 
#    y 0.000000 3.378780 0.000000 
#    z 0.000000 0.000000 3.462670 
# 
# 
# High freq. dielectric constant tensor:
#      x y z
#    x 1.728840 0.000000 0.000000 
#    y 0.000000 1.721720 0.000000 
#    z 0.000000 0.000000 1.721950 
# 
# From -- ./inp_files/4717.got.cif
#   From: 2010.06.25/outbox.cif.g09.slc.cpg/sg58_3_cif.got.tgz:4717.got - 2010.06.26 21:38:00.
