data_PCOD8237482
_publ_section_title
;
Structure prediction by ZEFSAII (Michael W. Deem and Ramdas Pophale) SiO2 
 PCOD8237482
Probable space group: P N N M
;
_chemical_formula_sum "Si O2"
_cell_formula_units_Z 64
_cell_length_a 11.956227
_cell_length_b 29.220057
_cell_length_c 9.293098
_cell_angle_alpha 90.000000
_cell_angle_beta 90.000000
_cell_angle_gamma 90.000000
_cell_volume 3246.651906
_symmetry_space_group_name_H-M "P N N M"
_symmetry_group_IT_number 58
_symmetry_cell_setting 'orthorhombic'
loop_
_space_group_symop_operation_xyz
x,y,z
-x,-y,z
1/2+x,1/2-y,1/2-z
1/2-x,1/2+y,1/2-z
-x,-y,-z
x,y,-z
1/2-x,1/2+y,1/2+z
1/2+x,1/2-y,1/2+z
loop_
_atom_site_type_symbol
_atom_site_label
_atom_site_fract_x
_atom_site_fract_y
_atom_site_fract_z
Si Si1 0.081026 0.368262 0.840636
Si Si2 0.216121 0.829553 0.779347
Si Si3 0.629750 0.839668 0.826943
Si Si4 0.715104 0.075042 0.845106
Si Si5 0.973000 0.825998 0.663510
Si Si6 0.234511 0.229621 0.340333
Si Si7 0.871889 0.992621 0.831564
Si Si8 0.698812 0.403756 0.831434
O O1 0.195201 0.337566 0.851988
O O2 0.115329 0.417987 0.771707
O O3 0.995911 0.343918 0.731654
O O4 0.030349 0.374840 0.000000
O O5 0.224635 0.875722 0.873721
O O6 0.086866 0.822077 0.748521
O O7 0.256800 0.783800 0.858471
O O8 0.676407 0.790617 0.773200
O O9 0.700897 0.880514 0.756922
O O10 0.631656 0.841945 0.000000
O O11 0.805432 0.038618 0.789748
O O12 0.665957 0.059062 0.000000
O O13 0.007859 0.820086 0.500000
O O14 0.889375 0.785275 0.712334
O O15 0.914081 0.874733 0.691416
O O16 0.253754 0.207409 0.500000
O O17 0.819210 0.953435 0.734103
O O18 0.860869 0.980144 0.000000
O O19 0.000000 0.000000 0.787931
O O20 0.730373 0.407377 0.000000
#
# Coordination Sequence:
#
# PCOD8237482 Si02
#       8
#     8   8   8   8   8   8   8   8
#     4  10  22  38  60  86 118 154 198 247 293 348
#     4  10  21  34  61  86 117 157 198 242 297 348
#     4  11  23  41  64  86 119 160 202 247 302 362
#     4   9  20  36  55  84 120 156 194 235 291 350
#     4   9  19  37  57  84 118 152 192 245 296 347
#     4  10  22  39  60  87 119 156 201 247 294 351
#     4  10  20  36  59  90 127 161 197 244 297 361
#     4  10  21  39  64  91 120 156 201 250 303 356
#
# _framework density 19.712613999999999
#
# number of rings (size 3 to 8) (size 9 to 14) (size 15 to 20)
#    0.750    1.375    0.000    4.125    1.750    1.750 
#    0.000    6.250    0.000    3.750    0.000    0.000 
#    0.000    0.000    0.000    0.000    0.000    0.000 
#
# Total GULP energy -792882.389700 kJ/mol
# GULP energy per Si atom -12388.787339 kJ/mol
# Density = 1.966775 g / cm^3
# Si number density = 19.712614 Si / 1000 Ang^3
#
#
#
# Elastic Constant Matrix: (Units=GPa)
#
#
# Indices 1 2 3 4 5 6 
#
# 1 89.0377 22.0729 35.9096 0.0000 0.0000 0.0000
# 2 22.0729 116.3709 28.4379 0.0000 0.0000 0.0000
# 3 35.9096 28.4379 115.0967 0.0000 0.0000 0.0000
# 4 0.0000 0.0000 0.0000 20.3631 0.0000 0.0000
# 5 0.0000 0.0000 0.0000 0.0000 20.9003 0.0000
# 6 0.0000 0.0000 0.0000 0.0000 0.0000 22.4308
#
#
#
# Elastic Compliance Matrix: (Units=1/GPa)
#
#
# Indices 1 2 3 4 5 6 
#
# 1 0.013116 -0.001583 -0.003701 0.000000 0.000000 0.000000
# 2 -0.001583 0.009337 -0.001813 0.000000 0.000000 0.000000
# 3 -0.003701 -0.001813 0.010291 0.000000 0.000000 0.000000
# 4 0.000000 0.000000 0.000000 0.049109 0.000000 0.000000
# 5 0.000000 0.000000 0.000000 0.000000 0.047846 0.000000
# 6 0.000000 0.000000 0.000000 0.000000 0.000000 0.044582
#
#
# Mechanical properties :
#
#
# Convention : Reuss Voigt Hill
#
# Bulk Modulus (GPa) = 53.91034 54.81623 54.36329
# Shear Modulus (GPa) = 25.68608 28.34449 27.01529
#
# Velocity S-wave (km/s) = 3.61366 3.79606 3.70598
# Velocity P-wave (km/s) = 6.69469 6.86160 6.77866
#
# Compressibility (1/GPa) = 0.01854932
#
# Stress axis : x y z
#
# Youngs Moduli (GPa) = 76.24054 107.10575 97.17268
#
# Poissons Ratio (x) = 0.16960 0.35964
# Poissons Ratio (y) = 0.12072 0.17616
# Poissons Ratio (z) = 0.28217 0.19417
#
# Static dielectric constant tensor:
#      x y z
#    x 3.506430 0.000000 0.000000 
#    y 0.000000 3.489390 0.000000 
#    z 0.000000 0.000000 3.433590 
# 
# 
# High freq. dielectric constant tensor:
#      x y z
#    x 1.766360 0.000000 0.000000 
#    y 0.000000 1.760110 0.000000 
#    z 0.000000 0.000000 1.763170 
# 
# From -- ./inp_files/4773.got.cif
#   From: 2010.06.25/outbox.cif.g09.slc.cpg/sg58_3_cif.got.tgz:4773.got - 2010.06.26 21:38:00.
