data_PCOD8237008
_publ_section_title
;
Structure prediction by ZEFSAII (Michael W. Deem and Ramdas Pophale) SiO2 
 PCOD8237008
Probable space group: P N N M
;
_chemical_formula_sum "Si O2"
_cell_formula_units_Z 64
_cell_length_a 21.341026
_cell_length_b 18.778674
_cell_length_c 9.264750
_cell_angle_alpha 90.000000
_cell_angle_beta 90.000000
_cell_angle_gamma 90.000000
_cell_volume 3712.905727
_symmetry_space_group_name_H-M "P N N M"
_symmetry_group_IT_number 58
_symmetry_cell_setting 'orthorhombic'
loop_
_space_group_symop_operation_xyz
x,y,z
-x,-y,z
1/2+x,1/2-y,1/2-z
1/2-x,1/2+y,1/2-z
-x,-y,-z
x,y,-z
1/2-x,1/2+y,1/2+z
1/2+x,1/2-y,1/2+z
loop_
_atom_site_type_symbol
_atom_site_label
_atom_site_fract_x
_atom_site_fract_y
_atom_site_fract_z
Si Si1 0.271659 0.620068 0.833482
Si Si2 0.360534 0.075104 0.663958
Si Si3 0.122467 0.175007 0.167835
Si Si4 0.198504 0.424555 0.166183
Si Si5 0.016844 0.579725 0.329620
Si Si6 0.916588 0.669715 0.165150
Si Si7 0.435859 0.528634 0.667871
Si Si8 0.694736 0.522370 0.331722
O O1 0.196631 0.631941 0.821910
O O2 0.312516 0.682318 0.758612
O O3 0.286117 0.549697 0.744987
O O4 0.291511 0.611089 0.000000
O O5 0.385627 0.072999 0.500000
O O6 0.415698 0.101274 0.767427
O O7 0.338276 0.996318 0.710840
O O8 0.081793 0.245758 0.192182
O O9 0.083456 0.106827 0.228049
O O10 0.140160 0.165020 0.000000
O O11 0.153459 0.358140 0.199022
O O12 0.262783 0.415623 0.259313
O O13 0.218893 0.428533 0.000000
O O14 0.018821 0.586565 0.500000
O O15 0.000000 0.500000 0.279121
O O16 0.965886 0.634373 0.270997
O O17 0.934269 0.650908 0.000000
O O18 0.500000 0.500000 0.742553
O O19 0.448870 0.539652 0.500000
O O20 0.380423 0.470085 0.692769
O O21 0.710882 0.518632 0.500000
#
# Coordination Sequence:
#
# PCOD8237008 Si02
#       8
#     8   8   8   8   8   8   8   8
#     4   9  17  30  49  72  96 123 155 199 249 294
#     4   9  17  30  49  70  93 127 167 202 243 294
#     4   9  18  32  52  76  96 127 171 208 250 304
#     4   9  17  29  46  68  94 126 161 200 246 291
#     4  11  22  32  46  74 104 132 170 215 256 293
#     4  10  20  34  51  69  96 137 175 206 247 309
#     4   8  14  27  49  75  99 122 155 202 249 290
#     4   9  16  26  45  72  96 119 153 198 243 291
#
# _framework density 17.237174
#
# number of rings (size 3 to 8) (size 9 to 14) (size 15 to 20)
#    0.000    2.750    1.250    2.625    0.000    4.000 
#    0.000    0.000    2.750    9.375    0.000    0.000 
#    0.000    0.000    0.000    0.000    0.000    0.000 
#
# Total GULP energy -793152.840850 kJ/mol
# GULP energy per Si atom -12393.013138 kJ/mol
# Density = 1.719794 g / cm^3
# Si number density = 17.237174 Si / 1000 Ang^3
#
#
#
# Elastic Constant Matrix: (Units=GPa)
#
#
# Indices 1 2 3 4 5 6 
#
# 1 121.6758 42.6635 59.0696 0.0000 0.0000 0.0000
# 2 42.6635 62.2713 26.0140 0.0000 0.0000 0.0000
# 3 59.0696 26.0140 77.1388 0.0000 0.0000 0.0000
# 4 0.0000 0.0000 0.0000 12.1342 0.0000 0.0000
# 5 0.0000 0.0000 0.0000 0.0000 29.8873 0.0000
# 6 0.0000 0.0000 0.0000 0.0000 0.0000 20.5169
#
#
#
# Elastic Compliance Matrix: (Units=1/GPa)
#
#
# Indices 1 2 3 4 5 6 
#
# 1 0.014976 -0.006366 -0.009321 0.000000 0.000000 0.000000
# 2 -0.006366 0.021399 -0.002341 0.000000 0.000000 0.000000
# 3 -0.009321 -0.002341 0.020891 0.000000 0.000000 0.000000
# 4 0.000000 0.000000 0.000000 0.082411 0.000000 0.000000
# 5 0.000000 0.000000 0.000000 0.000000 0.033459 0.000000
# 6 0.000000 0.000000 0.000000 0.000000 0.000000 0.048740
#
#
# Mechanical properties :
#
#
# Convention : Reuss Voigt Hill
#
# Bulk Modulus (GPa) = 47.15183 57.39778 52.27481
# Shear Modulus (GPa) = 18.86777 21.39695 20.13236
#
# Velocity S-wave (km/s) = 3.31206 3.52707 3.42125
# Velocity P-wave (km/s) = 6.48386 7.06810 6.78227
#
# Compressibility (1/GPa) = 0.02120808
#
# Stress axis : x y z
#
# Youngs Moduli (GPa) = 66.77430 46.73203 47.86815
#
# Poissons Ratio (x) = 0.29752 0.44617
# Poissons Ratio (y) = 0.42512 0.11207
# Poissons Ratio (z) = 0.62239 0.10941
#
# Static dielectric constant tensor:
#      x y z
#    x 3.636770 0.000000 0.000000 
#    y 0.000000 3.081090 0.000000 
#    z 0.000000 0.000000 3.300330 
# 
# 
# High freq. dielectric constant tensor:
#      x y z
#    x 1.669510 0.000000 0.000000 
#    y 0.000000 1.624450 0.000000 
#    z 0.000000 0.000000 1.659350 
# 
# From -- ./inp_files/9470.got.cif
#   From: 2010.06.25/outbox.cif.g09.slc.cpg/sg58_5_cif.got.tgz:9470.got - 2010.06.26 21:38:00.
