data_PCOD8237861
_publ_section_title
;
Structure prediction by ZEFSAII (Michael W. Deem and Ramdas Pophale) SiO2 
 PCOD8237861
Probable space group: P N N M
;
_chemical_formula_sum "Si O2"
_cell_formula_units_Z 48
_cell_length_a 13.826739
_cell_length_b 9.594886
_cell_length_c 18.732901
_cell_angle_alpha 90.000000
_cell_angle_beta 90.000000
_cell_angle_gamma 90.000000
_cell_volume 2485.218753
_symmetry_space_group_name_H-M "P N N M"
_symmetry_group_IT_number 58
_symmetry_cell_setting 'orthorhombic'
loop_
_space_group_symop_operation_xyz
x,y,z
-x,-y,z
1/2+x,1/2-y,1/2-z
1/2-x,1/2+y,1/2-z
-x,-y,-z
x,y,-z
1/2-x,1/2+y,1/2+z
1/2+x,1/2-y,1/2+z
loop_
_atom_site_type_symbol
_atom_site_label
_atom_site_fract_x
_atom_site_fract_y
_atom_site_fract_z
Si Si1 0.539985 0.153676 0.419079
Si Si2 0.238220 0.523719 0.687472
Si Si3 0.435903 0.369704 0.830854
Si Si4 0.918910 0.387249 0.421347
Si Si5 0.065945 0.874983 0.167513
Si Si6 0.783326 0.664225 0.813278
O O1 0.558280 0.204648 0.500000
O O2 0.455592 0.244782 0.382931
O O3 0.641202 0.163430 0.377639
O O4 0.500000 0.000000 0.417942
O O5 0.171001 0.547382 0.619960
O O6 0.323773 0.423097 0.661496
O O7 0.181751 0.440642 0.750447
O O8 0.274575 0.675680 0.715338
O O9 0.500000 0.500000 0.856485
O O10 0.466966 0.241201 0.879677
O O11 0.460286 0.333489 0.748774
O O12 0.320576 0.394486 0.840328
O O13 0.883385 0.339769 0.500000
O O14 0.000000 0.500000 0.429687
O O15 0.000000 0.000000 0.139992
#
# Coordination Sequence:
#
# PCOD8237861 Si02
#       6
#     8   8   8   8   8   8
#     4  11  26  42  60  92 132 170 203 254 325 382
#     4  10  22  38  64  92 119 162 207 258 305 366
#     4   9  21  39  63  89 117 155 204 256 296 359
#     4  10  23  39  56  87 119 155 197 243 306 358
#     4  10  20  40  63  92 116 156 214 250 300 368
#     4  10  22  39  62  93 120 156 207 257 305 368
#
# _framework density 19.314195000000002
#
# number of rings (size 3 to 8) (size 9 to 14) (size 15 to 20)
#    0.000    2.000    1.667    0.000    9.333    4.000 
#    0.000    0.000    0.000    0.000    0.000    0.000 
#    0.000    0.000    0.000    0.000    0.000    0.000 
#
# Total GULP energy -595151.135464 kJ/mol
# GULP energy per Si atom -12398.981989 kJ/mol
# Density = 1.927024 g / cm^3
# Si number density = 19.314195 Si / 1000 Ang^3
#
#
#
# Elastic Constant Matrix: (Units=GPa)
#
#
# Indices 1 2 3 4 5 6 
#
# 1 79.4614 50.4273 44.2087 0.0000 0.0000 0.0000
# 2 50.4273 120.7250 81.8771 0.0000 0.0000 0.0000
# 3 44.2087 81.8771 135.1707 0.0000 0.0000 0.0000
# 4 0.0000 0.0000 0.0000 65.0724 0.0000 0.0000
# 5 0.0000 0.0000 0.0000 0.0000 27.9788 0.0000
# 6 0.0000 0.0000 0.0000 0.0000 0.0000 38.5853
#
#
#
# Elastic Compliance Matrix: (Units=1/GPa)
#
#
# Indices 1 2 3 4 5 6 
#
# 1 0.017501 -0.005819 -0.002199 0.000000 0.000000 0.000000
# 2 -0.005819 0.015993 -0.007785 0.000000 0.000000 0.000000
# 3 -0.002199 -0.007785 0.012833 0.000000 0.000000 0.000000
# 4 0.000000 0.000000 0.000000 0.015367 0.000000 0.000000
# 5 0.000000 0.000000 0.000000 0.000000 0.035741 0.000000
# 6 0.000000 0.000000 0.000000 0.000000 0.000000 0.025917
#
#
# Mechanical properties :
#
#
# Convention : Reuss Voigt Hill
#
# Bulk Modulus (GPa) = 67.92602 76.48704 72.20653
# Shear Modulus (GPa) = 31.27641 36.91690 34.09665
#
# Velocity S-wave (km/s) = 4.02848 4.37668 4.20619
# Velocity P-wave (km/s) = 7.54211 8.07638 7.81382
#
# Compressibility (1/GPa) = 0.01472190
#
# Stress axis : x y z
#
# Youngs Moduli (GPa) = 57.13997 62.52581 77.92546
#
# Poissons Ratio (x) = 0.36381 0.17138
# Poissons Ratio (y) = 0.33247 0.60662
# Poissons Ratio (z) = 0.12567 0.48674
#
# Static dielectric constant tensor:
#      x y z
#    x 3.593770 0.000000 0.000000 
#    y 0.000000 3.767670 0.000000 
#    z 0.000000 0.000000 3.706250 
# 
# 
# High freq. dielectric constant tensor:
#      x y z
#    x 1.751790 0.000000 0.000000 
#    y 0.000000 1.760930 0.000000 
#    z 0.000000 0.000000 1.742460 
# 
# From -- ./inp_files/25282.got.cif
#   From: 2010.06.25/outbox.cif.g09.slc.cpg/sg58_13_cif.got.tgz:25282.got - 2010.06.26 21:38:00.
