data_PCOD8237810
_publ_section_title
;
Structure prediction by ZEFSAII (Michael W. Deem and Ramdas Pophale) SiO2 
 PCOD8237810
Probable space group: P N N M
;
_chemical_formula_sum "Si O2"
_cell_formula_units_Z 48
_cell_length_a 9.056639
_cell_length_b 10.298395
_cell_length_c 27.236166
_cell_angle_alpha 90.000000
_cell_angle_beta 90.000000
_cell_angle_gamma 90.000000
_cell_volume 2540.285767
_symmetry_space_group_name_H-M "P N N M"
_symmetry_group_IT_number 58
_symmetry_cell_setting 'orthorhombic'
loop_
_space_group_symop_operation_xyz
x,y,z
-x,-y,z
1/2+x,1/2-y,1/2-z
1/2-x,1/2+y,1/2-z
-x,-y,-z
x,y,-z
1/2-x,1/2+y,1/2+z
1/2+x,1/2-y,1/2+z
loop_
_atom_site_type_symbol
_atom_site_label
_atom_site_fract_x
_atom_site_fract_y
_atom_site_fract_z
Si Si1 0.200988 0.386240 0.779538
Si Si2 0.117994 0.402811 0.056164
Si Si3 0.373046 0.146417 0.242587
Si Si4 0.123598 0.894635 0.622965
Si Si5 0.874895 0.893260 0.055981
Si Si6 0.107016 0.611749 0.372724
O O1 0.298873 0.285908 0.747564
O O2 0.232397 0.535095 0.765154
O O3 0.251362 0.371320 0.835551
O O4 0.029741 0.352226 0.770379
O O5 0.282092 0.434767 0.075882
O O6 0.065773 0.253793 0.063875
O O7 0.000000 0.500000 0.081739
O O8 0.130667 0.440797 0.000000
O O9 0.381281 0.106470 0.185887
O O10 0.045597 0.755287 0.613210
O O11 0.000000 0.000000 0.636825
O O12 0.756720 0.918909 0.098342
O O13 0.811439 0.905384 0.000000
O O14 0.000000 0.000000 0.064366
O O15 0.000000 0.500000 0.391729
#
# Coordination Sequence:
#
# PCOD8237810 Si02
#       6
#     8   8   8   8   8   8
#     4  10  22  38  57  80 110 148 187 230 279 328
#     4   9  19  37  59  84 114 145 181 229 281 337
#     4  10  22  39  55  82 111 147 185 232 278 328
#     4  10  23  37  56  84 112 148 190 231 279 332
#     4   9  19  37  58  83 112 142 180 225 274 333
#     4  10  20  39  54  80 113 141 185 226 275 327
#
# _framework density 18.895512
#
# number of rings (size 3 to 8) (size 9 to 14) (size 15 to 20)
#    0.000    2.333    1.667    0.000    7.000    2.000 
#    9.000    0.000    0.000    0.000    0.000    0.000 
#    0.000    0.000    0.000    0.000    0.000    0.000 
#
# Total GULP energy -594775.859877 kJ/mol
# GULP energy per Si atom -12391.163747 kJ/mol
# Density = 1.885251 g / cm^3
# Si number density = 18.895512 Si / 1000 Ang^3
#
#
#
# Elastic Constant Matrix: (Units=GPa)
#
#
# Indices 1 2 3 4 5 6 
#
# 1 98.4578 80.4995 48.3260 0.0000 0.0000 0.0000
# 2 80.4995 135.6094 38.7140 0.0000 0.0000 0.0000
# 3 48.3260 38.7140 57.0238 0.0000 0.0000 0.0000
# 4 0.0000 0.0000 0.0000 22.2688 0.0000 0.0000
# 5 0.0000 0.0000 0.0000 0.0000 29.6009 0.0000
# 6 0.0000 0.0000 0.0000 0.0000 0.0000 42.4601
#
#
#
# Elastic Compliance Matrix: (Units=1/GPa)
#
#
# Indices 1 2 3 4 5 6 
#
# 1 0.027249 -0.011886 -0.015023 0.000000 0.000000 0.000000
# 2 -0.011886 0.014332 0.000343 0.000000 0.000000 0.000000
# 3 -0.015023 0.000343 0.030035 0.000000 0.000000 0.000000
# 4 0.000000 0.000000 0.000000 0.044906 0.000000 0.000000
# 5 0.000000 0.000000 0.000000 0.000000 0.033783 0.000000
# 6 0.000000 0.000000 0.000000 0.000000 0.000000 0.023552
#
#
# Mechanical properties :
#
#
# Convention : Reuss Voigt Hill
#
# Bulk Modulus (GPa) = 54.10139 69.57443 61.83791
# Shear Modulus (GPa) = 21.44557 27.10271 24.27414
#
# Velocity S-wave (km/s) = 3.37257 3.79139 3.58809
# Velocity P-wave (km/s) = 6.62266 7.48777 7.06846
#
# Compressibility (1/GPa) = 0.01848381
#
# Stress axis : x y z
#
# Youngs Moduli (GPa) = 36.69920 69.77349 33.29485
#
# Poissons Ratio (x) = 0.82936 0.50017
# Poissons Ratio (y) = 0.43622 -0.01143
# Poissons Ratio (z) = 0.55131 -0.02395
#
# Static dielectric constant tensor:
#      x y z
#    x 3.262900 0.000000 0.000000 
#    y 0.000000 3.896640 0.000000 
#    z 0.000000 0.000000 3.438390 
# 
# 
# High freq. dielectric constant tensor:
#      x y z
#    x 1.711490 0.000000 0.000000 
#    y 0.000000 1.755870 0.000000 
#    z 0.000000 0.000000 1.731950 
# 
# From -- ./inp_files/31445.got.cif
#   From: 2010.06.25/outbox.cif.g09.slc.cpg/sg58_16_cif.got.tgz:31445.got - 2010.06.26 21:38:00.
