data_PCOD8237925
_publ_section_title
;
Structure prediction by ZEFSAII (Michael W. Deem and Ramdas Pophale) SiO2 
 PCOD8237925
Probable space group: P N N M
;
_chemical_formula_sum "Si O2"
_cell_formula_units_Z 64
_cell_length_a 23.197253
_cell_length_b 15.636403
_cell_length_c 9.517520
_cell_angle_alpha 90.000000
_cell_angle_beta 90.000000
_cell_angle_gamma 90.000000
_cell_volume 3452.210048
_symmetry_space_group_name_H-M "P N N M"
_symmetry_group_IT_number 58
_symmetry_cell_setting 'orthorhombic'
loop_
_space_group_symop_operation_xyz
x,y,z
-x,-y,z
1/2+x,1/2-y,1/2-z
1/2-x,1/2+y,1/2-z
-x,-y,-z
x,y,-z
1/2-x,1/2+y,1/2+z
1/2+x,1/2-y,1/2+z
loop_
_atom_site_type_symbol
_atom_site_label
_atom_site_fract_x
_atom_site_fract_y
_atom_site_fract_z
Si Si1 0.565996 0.258704 0.663312
Si Si2 0.686226 0.331261 0.658119
Si Si3 0.548904 0.066536 0.333599
Si Si4 0.128672 0.856781 0.665365
Si Si5 0.835471 0.475203 0.163127
Si Si6 0.294238 0.506277 0.836175
Si Si7 0.684393 0.811089 0.838102
Si Si8 0.000688 0.900811 0.665255
O O1 0.549268 0.270485 0.500000
O O2 0.635566 0.261882 0.683115
O O3 0.542445 0.165802 0.718781
O O4 0.542402 0.339598 0.750265
O O5 0.682024 0.368089 0.500000
O O6 0.681744 0.409005 0.764846
O O7 0.748314 0.287570 0.681459
O O8 0.544307 0.067409 0.500000
O O9 0.500000 0.000000 0.273688
O O10 0.612616 0.036238 0.286249
O O11 0.139086 0.857994 0.500000
O O12 0.149263 0.767260 0.727123
O O13 0.062995 0.866989 0.706125
O O14 0.167795 0.931152 0.731041
O O15 0.772801 0.516570 0.192930
O O16 0.839136 0.389435 0.250444
O O17 0.842751 0.452233 0.000000
O O18 0.305930 0.519343 0.000000
O O19 0.669642 0.829459 0.000000
O O20 0.986374 0.893525 0.500000
O O21 0.000000 0.000000 0.712881
#
# Coordination Sequence:
#
# PCOD8237925 Si02
#       8
#     8   8   8   8   8   8   8   8
#     4  10  21  35  55  80 105 138 178 216 257 309
#     4   9  18  32  50  74 103 131 163 205 256 305
#     4   9  19  34  52  75 105 139 174 215 261 307
#     4   9  18  31  51  75  98 130 170 206 248 305
#     4   9  18  32  53  77 101 130 170 212 252 302
#     4   9  17  31  53  78 101 130 168 209 252 304
#     4   9  18  32  51  73 101 132 162 205 256 307
#     4  10  21  37  55  76 105 140 174 213 261 309
#
# _framework density 18.538848999999999
#
# number of rings (size 3 to 8) (size 9 to 14) (size 15 to 20)
#    0.000    2.750    0.000    0.750    3.500    1.750 
#    0.000    1.875    0.000    0.750    0.000    0.000 
#    0.000    0.000    0.000    0.000    0.000    0.000 
#
# Total GULP energy -793150.605511 kJ/mol
# GULP energy per Si atom -12392.978211 kJ/mol
# Density = 1.849665 g / cm^3
# Si number density = 18.538849 Si / 1000 Ang^3
#
#
#
# Elastic Constant Matrix: (Units=GPa)
#
#
# Indices 1 2 3 4 5 6 
#
# 1 77.7911 53.5102 28.3329 0.0000 0.0000 0.0000
# 2 53.5102 115.6478 35.1132 0.0000 0.0000 0.0000
# 3 28.3329 35.1132 35.4041 0.0000 0.0000 0.0000
# 4 0.0000 0.0000 0.0000 13.9073 0.0000 0.0000
# 5 0.0000 0.0000 0.0000 0.0000 24.8890 0.0000
# 6 0.0000 0.0000 0.0000 0.0000 0.0000 36.5940
#
#
#
# Elastic Compliance Matrix: (Units=1/GPa)
#
#
# Indices 1 2 3 4 5 6 
#
# 1 0.021219 -0.006671 -0.010365 0.000000 0.000000 0.000000
# 2 -0.006671 0.014470 -0.009013 0.000000 0.000000 0.000000
# 3 -0.010365 -0.009013 0.045478 0.000000 0.000000 0.000000
# 4 0.000000 0.000000 0.000000 0.071904 0.000000 0.000000
# 5 0.000000 0.000000 0.000000 0.000000 0.040178 0.000000
# 6 0.000000 0.000000 0.000000 0.000000 0.000000 0.027327
#
#
# Mechanical properties :
#
#
# Convention : Reuss Voigt Hill
#
# Bulk Modulus (GPa) = 34.39874 51.41731 42.90803
# Shear Modulus (GPa) = 17.70770 22.53718 20.12244
#
# Velocity S-wave (km/s) = 3.09393 3.49043 3.29815
# Velocity P-wave (km/s) = 5.59986 6.63621 6.13994
#
# Compressibility (1/GPa) = 0.02907083
#
# Stress axis : x y z
#
# Youngs Moduli (GPa) = 47.12836 69.10844 21.98852
#
# Poissons Ratio (x) = 0.46102 0.22790
# Poissons Ratio (y) = 0.31439 0.19817
# Poissons Ratio (z) = 0.48846 0.62284
#
# Static dielectric constant tensor:
#      x y z
#    x 3.430780 0.000000 0.000000 
#    y 0.000000 3.500050 0.000000 
#    z 0.000000 0.000000 3.112590 
# 
# 
# High freq. dielectric constant tensor:
#      x y z
#    x 1.732550 0.000000 0.000000 
#    y 0.000000 1.720520 0.000000 
#    z 0.000000 0.000000 1.683920 
# 
# From -- ./inp_files/10047.got.cif
#   From: 2010.06.25/outbox.cif.g09.slc.cpg/sg58_6_cif.got.tgz:10047.got - 2010.06.26 21:38:00.
