data_PCOD8237665
_publ_section_title
;
Structure prediction by ZEFSAII (Michael W. Deem and Ramdas Pophale) SiO2 
 PCOD8237665
Probable space group: P N N M
;
_chemical_formula_sum "Si O2"
_cell_formula_units_Z 56
_cell_length_a 14.583464
_cell_length_b 21.619336
_cell_length_c 8.671686
_cell_angle_alpha 90.000000
_cell_angle_beta 90.000000
_cell_angle_gamma 90.000000
_cell_volume 2734.050858
_symmetry_space_group_name_H-M "P N N M"
_symmetry_group_IT_number 58
_symmetry_cell_setting 'orthorhombic'
loop_
_space_group_symop_operation_xyz
x,y,z
-x,-y,z
1/2+x,1/2-y,1/2-z
1/2-x,1/2+y,1/2-z
-x,-y,-z
x,y,-z
1/2-x,1/2+y,1/2+z
1/2+x,1/2-y,1/2+z
loop_
_atom_site_type_symbol
_atom_site_label
_atom_site_fract_x
_atom_site_fract_y
_atom_site_fract_z
Si Si1 0.085637 0.885682 0.820039
Si Si2 0.563386 0.176617 0.682540
Si Si3 0.090646 0.461547 0.818775
Si Si4 0.386871 0.246820 0.317576
Si Si5 0.104075 0.102026 0.319846
Si Si6 0.220263 0.994345 0.821022
Si Si7 0.198404 0.218668 0.180824
O O1 0.108417 0.817241 0.756092
O O2 0.173979 0.928038 0.787700
O O3 0.999690 0.914324 0.728471
O O4 0.059989 0.884441 0.000000
O O5 0.553486 0.174721 0.500000
O O6 0.575853 0.107600 0.746903
O O7 0.471503 0.207696 0.751679
O O8 0.650520 0.217411 0.732742
O O9 0.174240 0.492627 0.728797
O O10 0.000000 0.500000 0.781215
O O11 0.113012 0.461391 0.000000
O O12 0.389733 0.247257 0.500000
O O13 0.295244 0.212765 0.264263
O O14 0.110309 0.115600 0.500000
O O15 0.133038 0.162715 0.226982
O O16 0.169888 0.045604 0.279472
O O17 0.212961 0.012506 0.000000
O O18 0.214813 0.216892 0.000000
#
# Coordination Sequence:
#
# PCOD8237665 Si02
#       7
#     8   8   8   8   8   8   8
#     4  10  21  41  65  91 126 165 202 251 312 373
#     4   9  19  38  62  86 122 164 199 245 305 361
#     4  10  22  40  63  91 124 165 211 254 302 362
#     4  10  20  37  62  90 123 162 204 248 302 366
#     4  12  25  40  62  91 123 160 207 260 312 372
#     4  11  24  41  63  90 123 164 205 253 314 371
#     4  11  22  39  61  89 124 163 206 255 311 367
#
# _framework density 20.482427999999999
#
# number of rings (size 3 to 8) (size 9 to 14) (size 15 to 20)
#    0.000    1.571    1.429    3.429    2.000    3.714 
#    0.000    1.429    0.000    0.000    0.000    0.000 
#    0.000    0.000    0.000    0.000    0.000    0.000 
#
# Total GULP energy -694702.366962 kJ/mol
# GULP energy per Si atom -12405.399410 kJ/mol
# Density = 2.043581 g / cm^3
# Si number density = 20.482428 Si / 1000 Ang^3
#
#
#
# Elastic Constant Matrix: (Units=GPa)
#
#
# Indices 1 2 3 4 5 6 
#
# 1 119.2601 19.2990 21.8275 0.0000 0.0000 0.0000
# 2 19.2990 80.9318 16.5673 0.0000 0.0000 0.0000
# 3 21.8275 16.5673 20.1284 0.0000 0.0000 0.0000
# 4 0.0000 0.0000 0.0000 20.3904 0.0000 0.0000
# 5 0.0000 0.0000 0.0000 0.0000 33.7829 0.0000
# 6 0.0000 0.0000 0.0000 0.0000 0.0000 34.3416
#
#
#
# Elastic Compliance Matrix: (Units=1/GPa)
#
#
# Indices 1 2 3 4 5 6 
#
# 1 0.010464 -0.000207 -0.011177 0.000000 0.000000 0.000000
# 2 -0.000207 0.014864 -0.012009 0.000000 0.000000 0.000000
# 3 -0.011177 -0.012009 0.071686 0.000000 0.000000 0.000000
# 4 0.000000 0.000000 0.000000 0.049043 0.000000 0.000000
# 5 0.000000 0.000000 0.000000 0.000000 0.029601 0.000000
# 6 0.000000 0.000000 0.000000 0.000000 0.000000 0.029119
#
#
# Mechanical properties :
#
#
# Convention : Reuss Voigt Hill
#
# Bulk Modulus (GPa) = 19.90955 37.30088 28.60522
# Shear Modulus (GPa) = 18.63538 28.54474 23.59006
#
# Velocity S-wave (km/s) = 3.01960 3.73717 3.39738
# Velocity P-wave (km/s) = 4.67961 6.07229 5.42086
#
# Compressibility (1/GPa) = 0.05022714
#
# Stress axis : x y z
#
# Youngs Moduli (GPa) = 95.56355 67.27698 13.94966
#
# Poissons Ratio (x) = 0.01395 0.15591
# Poissons Ratio (y) = 0.01981 0.16753
# Poissons Ratio (z) = 1.06811 0.80796
#
# Static dielectric constant tensor:
#      x y z
#    x 3.764350 0.000000 0.000000 
#    y 0.000000 3.930050 0.000000 
#    z 0.000000 0.000000 3.451400 
# 
# 
# High freq. dielectric constant tensor:
#      x y z
#    x 1.813660 0.000000 0.000000 
#    y 0.000000 1.810480 0.000000 
#    z 0.000000 0.000000 1.779740 
# 
# From -- ./inp_files/6381.got.cif
#   From: 2010.06.25/outbox.cif.g09.slc.cpg/sg58_4_cif.got.tgz:6381.got - 2010.06.26 21:38:00.
