data_PCOD8237817
_publ_section_title
;
Structure prediction by ZEFSAII (Michael W. Deem and Ramdas Pophale) SiO2 
 PCOD8237817
Probable space group: P N N M
;
_chemical_formula_sum "Si O2"
_cell_formula_units_Z 48
_cell_length_a 6.176251
_cell_length_b 13.443856
_cell_length_c 27.899253
_cell_angle_alpha 90.000000
_cell_angle_beta 90.000000
_cell_angle_gamma 90.000000
_cell_volume 2316.548326
_symmetry_space_group_name_H-M "P N N M"
_symmetry_group_IT_number 58
_symmetry_cell_setting 'orthorhombic'
loop_
_space_group_symop_operation_xyz
x,y,z
-x,-y,z
1/2+x,1/2-y,1/2-z
1/2-x,1/2+y,1/2-z
-x,-y,-z
x,y,-z
1/2-x,1/2+y,1/2+z
1/2+x,1/2-y,1/2+z
loop_
_atom_site_type_symbol
_atom_site_label
_atom_site_fract_x
_atom_site_fract_y
_atom_site_fract_z
Si Si1 0.995369 0.190226 0.895419
Si Si2 0.401213 0.105517 0.281960
Si Si3 0.153126 0.416426 0.446261
Si Si4 0.879216 0.216282 0.446741
Si Si5 0.616591 0.326040 0.141429
Si Si6 0.741463 0.276905 0.305847
O O1 0.882280 0.092953 0.918521
O O2 0.809470 0.261394 0.877979
O O3 0.135452 0.249811 0.935077
O O4 0.142442 0.159888 0.850105
O O5 0.235149 0.087979 0.327134
O O6 0.592219 0.182495 0.293585
O O7 0.260633 0.147624 0.238065
O O8 0.500000 0.000000 0.267596
O O9 0.207908 0.451349 0.500000
O O10 0.000000 0.500000 0.421613
O O11 0.030863 0.312128 0.445972
O O12 0.883514 0.166621 0.500000
O O13 0.969482 0.140577 0.404875
O O14 0.476316 0.261398 0.178485
#
# Coordination Sequence:
#
# PCOD8237817 Si02
#       6
#     8   8   8   8   8   8
#     4   9  18  32  53  73 109 155 191 244 305 349
#     4  11  22  38  65  88 115 161 198 240 310 366
#     4   9  17  29  46  72 110 152 199 247 293 357
#     4   9  17  31  54  79 105 148 197 246 310 358
#     4   9  19  37  56  82 118 152 192 247 295 355
#     4  10  20  39  60  83 122 147 197 256 291 361
#
# _framework density 20.720482000000001
#
# number of rings (size 3 to 8) (size 9 to 14) (size 15 to 20)
#    0.000    2.500    1.667    0.500    0.000    2.000 
#    0.000   11.667    3.667    0.500    0.000   10.500 
#    0.000    0.000    0.000    0.000    0.000    0.000 
#
# Total GULP energy -594677.503765 kJ/mol
# GULP energy per Si atom -12389.114662 kJ/mol
# Density = 2.067332 g / cm^3
# Si number density = 20.720482 Si / 1000 Ang^3
#
#
#
# Elastic Constant Matrix: (Units=GPa)
#
#
# Indices 1 2 3 4 5 6 
#
# 1 110.9985 29.9704 58.8018 0.0000 0.0000 0.0000
# 2 29.9704 57.6617 34.8678 0.0000 0.0000 0.0000
# 3 58.8018 34.8678 137.1624 0.0000 0.0000 0.0000
# 4 0.0000 0.0000 0.0000 12.4188 0.0000 0.0000
# 5 0.0000 0.0000 0.0000 0.0000 35.1255 0.0000
# 6 0.0000 0.0000 0.0000 0.0000 0.0000 25.2149
#
#
#
# Elastic Compliance Matrix: (Units=1/GPa)
#
#
# Indices 1 2 3 4 5 6 
#
# 1 0.012321 -0.003793 -0.004318 0.000000 0.000000 0.000000
# 2 -0.003793 0.021660 -0.003880 0.000000 0.000000 0.000000
# 3 -0.004318 -0.003880 0.010128 0.000000 0.000000 0.000000
# 4 0.000000 0.000000 0.000000 0.080523 0.000000 0.000000
# 5 0.000000 0.000000 0.000000 0.000000 0.028469 0.000000
# 6 0.000000 0.000000 0.000000 0.000000 0.000000 0.039659
#
#
# Mechanical properties :
#
#
# Convention : Reuss Voigt Hill
#
# Bulk Modulus (GPa) = 49.68373 61.45587 55.56980
# Shear Modulus (GPa) = 22.37628 26.69734 24.53681
#
# Velocity S-wave (km/s) = 3.28977 3.59340 3.44493
# Velocity P-wave (km/s) = 6.20163 6.85132 6.53455
#
# Compressibility (1/GPa) = 0.02012731
#
# Stress axis : x y z
#
# Youngs Moduli (GPa) = 81.16533 46.16745 98.73626
#
# Poissons Ratio (x) = 0.17511 0.42631
# Poissons Ratio (y) = 0.30785 0.38312
# Poissons Ratio (z) = 0.35044 0.17914
#
# Static dielectric constant tensor:
#      x y z
#    x 4.276260 0.000000 0.000000 
#    y 0.000000 3.212790 0.000000 
#    z 0.000000 0.000000 4.582490 
# 
# 
# High freq. dielectric constant tensor:
#      x y z
#    x 1.834770 0.000000 0.000000 
#    y 0.000000 1.742900 0.000000 
#    z 0.000000 0.000000 1.828760 
# 
# From -- ./inp_files/32793.got.cif
#   From: 2010.06.25/outbox.cif.g09.slc.cpg/sg58_17_cif.got.tgz:32793.got - 2010.06.26 21:38:00.
