data_PCOD8237999
_publ_section_title
;
Structure prediction by ZEFSAII (Michael W. Deem and Ramdas Pophale) SiO2 
 PCOD8237999
Probable space group: P N N M
;
_chemical_formula_sum "Si O2"
_cell_formula_units_Z 64
_cell_length_a 15.333376
_cell_length_b 24.068952
_cell_length_c 9.002663
_cell_angle_alpha 90.000000
_cell_angle_beta 90.000000
_cell_angle_gamma 90.000000
_cell_volume 3322.507421
_symmetry_space_group_name_H-M "P N N M"
_symmetry_group_IT_number 58
_symmetry_cell_setting 'orthorhombic'
loop_
_space_group_symop_operation_xyz
x,y,z
-x,-y,z
1/2+x,1/2-y,1/2-z
1/2-x,1/2+y,1/2-z
-x,-y,-z
x,y,-z
1/2-x,1/2+y,1/2+z
1/2+x,1/2-y,1/2+z
loop_
_atom_site_type_symbol
_atom_site_label
_atom_site_fract_x
_atom_site_fract_y
_atom_site_fract_z
Si Si1 0.250294 0.571113 0.323918
Si Si2 0.902786 0.507171 0.323451
Si Si3 0.342803 0.872365 0.824851
Si Si4 0.832827 0.120382 0.667548
Si Si5 0.399374 0.486873 0.328209
Si Si6 0.588415 0.231058 0.324881
Si Si7 0.249752 0.196275 0.176337
Si Si8 0.418593 0.264308 0.167953
O O1 0.244524 0.574187 0.500000
O O2 0.164255 0.539403 0.261705
O O3 0.338446 0.538399 0.277251
O O4 0.251943 0.633546 0.257659
O O5 0.905649 0.503625 0.500000
O O6 0.868256 0.566486 0.270122
O O7 0.000000 0.500000 0.257304
O O8 0.245974 0.859965 0.770355
O O9 0.408504 0.829038 0.751140
O O10 0.348804 0.866325 0.000000
O O11 0.799605 0.109341 0.500000
O O12 0.878452 0.065882 0.729225
O O13 0.900756 0.170367 0.669441
O O14 0.500000 0.500000 0.301653
O O15 0.380077 0.472441 0.500000
O O16 0.596100 0.223795 0.500000
O O17 0.665901 0.270339 0.262816
O O18 0.496688 0.257217 0.282297
O O19 0.337058 0.228024 0.227029
O O20 0.244803 0.194498 0.000000
O O21 0.443156 0.245423 0.000000
#
# Coordination Sequence:
#
# PCOD8237999 Si02
#       8
#     8   8   8   8   8   8   8   8
#     4   9  17  32  53  80 113 146 185 235 282 332
#     4   9  18  31  53  86 113 139 184 237 285 334
#     4  11  21  37  62  87 114 151 197 244 292 347
#     4  11  22  39  61  84 119 157 195 244 300 352
#     4  10  21  36  58  88 116 147 196 245 287 345
#     4  11  23  39  59  88 119 153 195 240 295 350
#     4   9  19  36  57  80 115 154 189 234 289 343
#     4  10  22  40  59  84 114 153 198 238 288 352
#
# _framework density 19.262561999999999
#
# number of rings (size 3 to 8) (size 9 to 14) (size 15 to 20)
#    0.000    2.000    2.500    1.125    3.500    1.250 
#    0.000    0.000    0.000    3.750    0.000    0.000 
#    0.000    0.000    0.000    0.000    0.000    0.000 
#
# Total GULP energy -793635.251233 kJ/mol
# GULP energy per Si atom -12400.550801 kJ/mol
# Density = 1.921872 g / cm^3
# Si number density = 19.262562 Si / 1000 Ang^3
#
#
#
# Elastic Constant Matrix: (Units=GPa)
#
#
# Indices 1 2 3 4 5 6 
#
# 1 123.9067 46.8418 26.3880 0.0000 0.0000 0.0000
# 2 46.8418 139.1267 38.2309 0.0000 0.0000 0.0000
# 3 26.3880 38.2309 48.7199 0.0000 0.0000 0.0000
# 4 0.0000 0.0000 0.0000 22.2009 0.0000 0.0000
# 5 0.0000 0.0000 0.0000 0.0000 23.5392 0.0000
# 6 0.0000 0.0000 0.0000 0.0000 0.0000 26.5573
#
#
#
# Elastic Compliance Matrix: (Units=1/GPa)
#
#
# Indices 1 2 3 4 5 6 
#
# 1 0.009675 -0.002317 -0.003422 0.000000 0.000000 0.000000
# 2 -0.002317 0.009719 -0.006371 0.000000 0.000000 0.000000
# 3 -0.003422 -0.006371 0.027379 0.000000 0.000000 0.000000
# 4 0.000000 0.000000 0.000000 0.045043 0.000000 0.000000
# 5 0.000000 0.000000 0.000000 0.000000 0.042482 0.000000
# 6 0.000000 0.000000 0.000000 0.000000 0.000000 0.037654
#
#
# Mechanical properties :
#
#
# Convention : Reuss Voigt Hill
#
# Bulk Modulus (GPa) = 44.34300 59.40829 51.87564
# Shear Modulus (GPa) = 24.54702 27.81233 26.17967
#
# Velocity S-wave (km/s) = 3.57366 3.80393 3.69059
# Velocity P-wave (km/s) = 6.33233 7.08530 6.71937
#
# Compressibility (1/GPa) = 0.02255147
#
# Stress axis : x y z
#
# Youngs Moduli (GPa) = 103.35524 102.89545 36.52497
#
# Poissons Ratio (x) = 0.23843 0.12499
# Poissons Ratio (y) = 0.23949 0.23271
# Poissons Ratio (z) = 0.35369 0.65557
#
# Static dielectric constant tensor:
#      x y z
#    x 3.642010 0.000000 0.000000 
#    y 0.000000 3.798530 0.000000 
#    z 0.000000 0.000000 3.169330 
# 
# 
# High freq. dielectric constant tensor:
#      x y z
#    x 1.757420 0.000000 0.000000 
#    y 0.000000 1.763890 0.000000 
#    z 0.000000 0.000000 1.709870 
# 
# From -- ./inp_files/6985.got.cif
#   From: 2010.06.25/outbox.cif.g09.slc.cpg/sg58_4_cif.got.tgz:6985.got - 2010.06.26 21:38:00.
