data_PCOD8237338
_publ_section_title
;
Structure prediction by ZEFSAII (Michael W. Deem and Ramdas Pophale) SiO2 
 PCOD8237338
Probable space group: P N N M
;
_chemical_formula_sum "Si O2"
_cell_formula_units_Z 56
_cell_length_a 19.950118
_cell_length_b 16.391280
_cell_length_c 8.820754
_cell_angle_alpha 90.000000
_cell_angle_beta 90.000000
_cell_angle_gamma 90.000000
_cell_volume 2884.456861
_symmetry_space_group_name_H-M "P N N M"
_symmetry_group_IT_number 58
_symmetry_cell_setting 'orthorhombic'
loop_
_space_group_symop_operation_xyz
x,y,z
-x,-y,z
1/2+x,1/2-y,1/2-z
1/2-x,1/2+y,1/2-z
-x,-y,-z
x,y,-z
1/2-x,1/2+y,1/2+z
1/2+x,1/2-y,1/2+z
loop_
_atom_site_type_symbol
_atom_site_label
_atom_site_fract_x
_atom_site_fract_y
_atom_site_fract_z
Si Si1 0.056878 0.064217 0.821445
Si Si2 0.171892 0.526118 0.321137
Si Si3 0.689100 0.503614 0.822147
Si Si4 0.119673 0.685563 0.178567
Si Si5 0.020588 0.243525 0.179687
Si Si6 0.787320 0.187485 0.673760
Si Si7 0.638477 0.140754 0.323621
O O1 0.032775 0.152030 0.761257
O O2 0.124077 0.042809 0.733810
O O3 0.071803 0.063478 0.000000
O O4 0.000000 0.000000 0.777172
O O5 0.175323 0.529222 0.500000
O O6 0.246717 0.535945 0.257506
O O7 0.126650 0.599570 0.260977
O O8 0.137118 0.442687 0.269315
O O9 0.683352 0.599142 0.780942
O O10 0.699204 0.491975 0.000000
O O11 0.180820 0.745339 0.217653
O O12 0.050942 0.725598 0.239590
O O13 0.117900 0.670843 0.000000
O O14 0.079030 0.302787 0.240185
O O15 0.021678 0.242813 0.000000
O O16 0.804502 0.208864 0.500000
O O17 0.707711 0.189080 0.701083
O O18 0.629234 0.118596 0.500000
#
# Coordination Sequence:
#
# PCOD8237338 Si02
#       7
#     8   8   8   8   8   8   8
#     4  10  20  35  58  89 124 160 198 239 289 350
#     4  11  23  39  59  84 114 149 192 244 303 350
#     4  10  21  38  59  86 116 152 197 241 291 348
#     4  11  22  37  59  86 117 152 197 239 284 351
#     4   9  20  37  58  84 116 158 196 237 291 348
#     4   9  19  35  57  83 115 151 190 242 293 340
#     4   9  19  39  61  82 112 151 198 242 292 350
#
# _framework density 19.414401000000002
#
# number of rings (size 3 to 8) (size 9 to 14) (size 15 to 20)
#    0.000    2.143    0.000    3.857    2.000    4.857 
#    0.000    6.429    0.000    0.000    0.000    0.000 
#    0.000    0.000    0.000    0.000    0.000    0.000 
#
# Total GULP energy -694634.053862 kJ/mol
# GULP energy per Si atom -12404.179533 kJ/mol
# Density = 1.937021 g / cm^3
# Si number density = 19.414401 Si / 1000 Ang^3
#
#
#
# Elastic Constant Matrix: (Units=GPa)
#
#
# Indices 1 2 3 4 5 6 
#
# 1 104.3371 76.2203 38.7304 0.0000 0.0000 0.0000
# 2 76.2203 136.4438 47.6639 0.0000 0.0000 0.0000
# 3 38.7304 47.6639 78.1484 0.0000 0.0000 0.0000
# 4 0.0000 0.0000 0.0000 29.3496 0.0000 0.0000
# 5 0.0000 0.0000 0.0000 0.0000 30.0501 0.0000
# 6 0.0000 0.0000 0.0000 0.0000 0.0000 38.5751
#
#
#
# Elastic Compliance Matrix: (Units=1/GPa)
#
#
# Indices 1 2 3 4 5 6 
#
# 1 0.016842 -0.008250 -0.003315 0.000000 0.000000 0.000000
# 2 -0.008250 0.013355 -0.004057 0.000000 0.000000 0.000000
# 3 -0.003315 -0.004057 0.016913 0.000000 0.000000 0.000000
# 4 0.000000 0.000000 0.000000 0.034072 0.000000 0.000000
# 5 0.000000 0.000000 0.000000 0.000000 0.033278 0.000000
# 6 0.000000 0.000000 0.000000 0.000000 0.000000 0.025923
#
#
# Mechanical properties :
#
#
# Convention : Reuss Voigt Hill
#
# Bulk Modulus (GPa) = 63.02556 71.57319 67.29937
# Shear Modulus (GPa) = 28.26220 30.01594 29.13907
#
# Velocity S-wave (km/s) = 3.81955 3.93627 3.87835
# Velocity P-wave (km/s) = 7.21011 7.58980 7.40239
#
# Compressibility (1/GPa) = 0.01586658
#
# Stress axis : x y z
#
# Youngs Moduli (GPa) = 59.37636 74.87952 59.12561
#
# Poissons Ratio (x) = 0.61777 0.19599
# Poissons Ratio (y) = 0.48986 0.23984
# Poissons Ratio (z) = 0.19683 0.30375
#
# Static dielectric constant tensor:
#      x y z
#    x 3.638460 0.000000 0.000000 
#    y 0.000000 3.688740 0.000000 
#    z 0.000000 0.000000 3.338100 
# 
# 
# High freq. dielectric constant tensor:
#      x y z
#    x 1.761740 0.000000 0.000000 
#    y 0.000000 1.765250 0.000000 
#    z 0.000000 0.000000 1.740520 
# 
# From -- ./inp_files/9024.got.cif
#   From: 2010.06.25/outbox.cif.g09.slc.cpg/sg58_5_cif.got.tgz:9024.got - 2010.06.26 21:38:00.
