data_PCOD8237331
_publ_section_title
;
Structure prediction by ZEFSAII (Michael W. Deem and Ramdas Pophale) SiO2 
 PCOD8237331
Probable space group: P N N M
;
_chemical_formula_sum "Si O2"
_cell_formula_units_Z 48
_cell_length_a 21.953965
_cell_length_b 12.568242
_cell_length_c 9.140074
_cell_angle_alpha 90.000000
_cell_angle_beta 90.000000
_cell_angle_gamma 90.000000
_cell_volume 2521.954307
_symmetry_space_group_name_H-M "P N N M"
_symmetry_group_IT_number 58
_symmetry_cell_setting 'orthorhombic'
loop_
_space_group_symop_operation_xyz
x,y,z
-x,-y,z
1/2+x,1/2-y,1/2-z
1/2-x,1/2+y,1/2-z
-x,-y,-z
x,y,-z
1/2-x,1/2+y,1/2+z
1/2+x,1/2-y,1/2+z
loop_
_atom_site_type_symbol
_atom_site_label
_atom_site_fract_x
_atom_site_fract_y
_atom_site_fract_z
Si Si1 0.131277 0.757985 0.668009
Si Si2 0.197896 0.972694 0.668717
Si Si3 0.583065 0.140425 0.164528
Si Si4 0.006564 0.769894 0.173111
Si Si5 0.406295 0.626911 0.835361
Si Si6 0.178991 0.528804 0.672167
O O1 0.108499 0.752668 0.500000
O O2 0.181073 0.849654 0.689526
O O3 0.074989 0.782384 0.772433
O O4 0.163014 0.648745 0.716282
O O5 0.209251 0.001625 0.500000
O O6 0.143403 0.046652 0.731362
O O7 0.258233 0.995854 0.756648
O O8 0.522563 0.159087 0.263989
O O9 0.620773 0.252269 0.162280
O O10 0.625382 0.048235 0.231725
O O11 0.561774 0.110079 0.000000
O O12 0.967328 0.870639 0.234731
O O13 0.004646 0.768712 0.000000
O O14 0.424364 0.590560 0.000000
O O15 0.186039 0.513583 0.500000
#
# Coordination Sequence:
#
# PCOD8237331 Si02
#       6
#     8   8   8   8   8   8
#     4  10  22  39  56  81 113 146 184 222 275 336
#     4  10  22  38  58  82 111 148 185 226 272 325
#     4   8  17  36  58  79 108 147 183 216 270 332
#     4  10  20  35  58  87 113 140 182 234 277 318
#     4   8  17  36  58  79 108 147 183 216 270 332
#     4  10  22  38  58  82 111 148 185 226 272 325
#
# _framework density 19.032857
#
# number of rings (size 3 to 8) (size 9 to 14) (size 15 to 20)
#    1.000    1.667    0.000    1.000    2.333    4.000 
#    0.000    6.667    0.000    0.000    0.000    0.000 
#    0.000    0.000    0.000    0.000    0.000    0.000 
#
# Total GULP energy -594921.254692 kJ/mol
# GULP energy per Si atom -12394.192806 kJ/mol
# Density = 1.898954 g / cm^3
# Si number density = 19.032857 Si / 1000 Ang^3
#
#
#
# Elastic Constant Matrix: (Units=GPa)
#
#
# Indices 1 2 3 4 5 6 
#
# 1 60.3124 -7.3897 22.0647 0.0000 0.0000 0.0000
# 2 -7.3897 55.8471 -5.6540 0.0000 0.0000 0.0000
# 3 22.0647 -5.6540 64.9879 0.0000 0.0000 0.0000
# 4 0.0000 0.0000 0.0000 17.4123 0.0000 0.0000
# 5 0.0000 0.0000 0.0000 0.0000 38.7003 0.0000
# 6 0.0000 0.0000 0.0000 0.0000 0.0000 29.0838
#
#
#
# Elastic Compliance Matrix: (Units=1/GPa)
#
#
# Indices 1 2 3 4 5 6 
#
# 1 0.019128 0.001890 -0.006330 0.000000 0.000000 0.000000
# 2 0.001890 0.018252 0.000946 0.000000 0.000000 0.000000
# 3 -0.006330 0.000946 0.017619 0.000000 0.000000 0.000000
# 4 0.000000 0.000000 0.000000 0.057431 0.000000 0.000000
# 5 0.000000 0.000000 0.000000 0.000000 0.025840 0.000000
# 6 0.000000 0.000000 0.000000 0.000000 0.000000 0.034383
#
#
# Mechanical properties :
#
#
# Convention : Reuss Voigt Hill
#
# Bulk Modulus (GPa) = 20.82831 22.13214 21.48022
# Shear Modulus (GPa) = 25.55677 28.51438 27.03557
#
# Velocity S-wave (km/s) = 3.66836 3.87481 3.77300
# Velocity P-wave (km/s) = 5.37676 5.62784 5.50373
#
# Compressibility (1/GPa) = 0.04801158
#
# Stress axis : x y z
#
# Youngs Moduli (GPa) = 52.28039 54.78875 56.75725
#
# Poissons Ratio (x) = -0.10356 0.35926
# Poissons Ratio (y) = -0.09882 -0.05370
# Poissons Ratio (z) = 0.33092 -0.05184
#
# Static dielectric constant tensor:
#      x y z
#    x 3.250600 0.000000 0.000000 
#    y 0.000000 3.638310 0.000000 
#    z 0.000000 0.000000 3.269680 
# 
# 
# High freq. dielectric constant tensor:
#      x y z
#    x 1.727830 0.000000 0.000000 
#    y 0.000000 1.740600 0.000000 
#    z 0.000000 0.000000 1.722750 
# 
# From -- ./inp_files/9737.got.cif
#   From: 2010.06.25/outbox.cif.g09.slc.cpg/sg58_5_cif.got.tgz:9737.got - 2010.06.26 21:38:00.
