data_PCOD8237041
_publ_section_title
;
Structure prediction by ZEFSAII (Michael W. Deem and Ramdas Pophale) SiO2 
 PCOD8237041
Probable space group: P N N M
;
_chemical_formula_sum "Si O2"
_cell_formula_units_Z 64
_cell_length_a 21.704572
_cell_length_b 17.304997
_cell_length_c 8.894363
_cell_angle_alpha 90.000000
_cell_angle_beta 90.000000
_cell_angle_gamma 90.000000
_cell_volume 3340.700981
_symmetry_space_group_name_H-M "P N N M"
_symmetry_group_IT_number 58
_symmetry_cell_setting 'orthorhombic'
loop_
_space_group_symop_operation_xyz
x,y,z
-x,-y,z
1/2+x,1/2-y,1/2-z
1/2-x,1/2+y,1/2-z
-x,-y,-z
x,y,-z
1/2-x,1/2+y,1/2+z
1/2+x,1/2-y,1/2+z
loop_
_atom_site_type_symbol
_atom_site_label
_atom_site_fract_x
_atom_site_fract_y
_atom_site_fract_z
Si Si1 0.491095 0.909172 0.830844
Si Si2 0.867095 0.571039 0.176676
Si Si3 0.042948 0.075077 0.332495
Si Si4 0.860580 0.011502 0.834789
Si Si5 0.256877 0.377518 0.320621
Si Si6 0.444589 0.340206 0.666482
Si Si7 0.160000 0.751055 0.321987
Si Si8 0.615481 0.892623 0.323626
O O1 0.428713 0.889701 0.741376
O O2 0.547798 0.872461 0.740330
O O3 0.500000 0.000000 0.837645
O O4 0.488384 0.874936 0.000000
O O5 0.811426 0.612717 0.260342
O O6 0.865171 0.480046 0.213377
O O7 0.863430 0.586638 0.000000
O O8 0.051555 0.106840 0.500000
O O9 0.012198 0.143493 0.235042
O O10 0.111288 0.055246 0.270448
O O11 0.000000 0.000000 0.331626
O O12 0.797345 0.047820 0.768849
O O13 0.909888 0.079251 0.847750
O O14 0.848866 0.975815 0.000000
O O15 0.258502 0.369857 0.500000
O O16 0.284887 0.299755 0.250875
O O17 0.451475 0.303207 0.500000
O O18 0.406767 0.283661 0.774588
O O19 0.166879 0.752569 0.500000
O O20 0.164293 0.663414 0.259547
O O21 0.615637 0.876286 0.500000
#
# Coordination Sequence:
#
# PCOD8237041 Si02
#       8
#     8   8   8   8   8   8   8   8
#     4   9  17  31  53  81 109 135 167 209 258 310
#     4  10  20  34  55  82 110 141 177 218 264 316
#     4   9  15  22  36  59  85 115 154 202 251 295
#     4   8  15  26  40  60  87 122 161 201 247 298
#     4  10  20  34  52  75 106 143 182 222 266 318
#     4   9  16  27  42  61  89 124 162 204 253 304
#     4  11  21  33  51  76 106 139 179 223 269 321
#     4  10  20  35  55  80 110 141 175 217 268 321
#
# _framework density 19.157654999999998
#
# number of rings (size 3 to 8) (size 9 to 14) (size 15 to 20)
#    0.000    2.500    0.000    4.125    0.000    8.000 
#    0.000    0.000    0.000    1.500    0.000    7.000 
#    0.000    0.000    0.000    0.000    0.000    0.000 
#
# Total GULP energy -793442.063602 kJ/mol
# GULP energy per Si atom -12397.532244 kJ/mol
# Density = 1.911405 g / cm^3
# Si number density = 19.157655 Si / 1000 Ang^3
#
#
#
# Elastic Constant Matrix: (Units=GPa)
#
#
# Indices 1 2 3 4 5 6 
#
# 1 96.8932 30.4856 45.4145 0.0000 0.0000 0.0000
# 2 30.4856 47.6622 32.5049 0.0000 0.0000 0.0000
# 3 45.4145 32.5049 133.3241 0.0000 0.0000 0.0000
# 4 0.0000 0.0000 0.0000 23.1014 0.0000 0.0000
# 5 0.0000 0.0000 0.0000 0.0000 31.1445 0.0000
# 6 0.0000 0.0000 0.0000 0.0000 0.0000 17.5282
#
#
#
# Elastic Compliance Matrix: (Units=1/GPa)
#
#
# Indices 1 2 3 4 5 6 
#
# 1 0.013901 -0.006791 -0.003079 0.000000 0.000000 0.000000
# 2 -0.006791 0.028483 -0.004631 0.000000 0.000000 0.000000
# 3 -0.003079 -0.004631 0.009678 0.000000 0.000000 0.000000
# 4 0.000000 0.000000 0.000000 0.043287 0.000000 0.000000
# 5 0.000000 0.000000 0.000000 0.000000 0.032108 0.000000
# 6 0.000000 0.000000 0.000000 0.000000 0.000000 0.057051
#
#
# Mechanical properties :
#
#
# Convention : Reuss Voigt Hill
#
# Bulk Modulus (GPa) = 43.36640 54.96551 49.16595
# Shear Modulus (GPa) = 22.60419 25.65311 24.12865
#
# Velocity S-wave (km/s) = 3.43870 3.66328 3.55276
# Velocity P-wave (km/s) = 6.20096 6.82980 6.52297
#
# Compressibility (1/GPa) = 0.02305933
#
# Stress axis : x y z
#
# Youngs Moduli (GPa) = 71.93929 35.10876 103.32190
#
# Poissons Ratio (x) = 0.23842 0.31816
# Poissons Ratio (y) = 0.48854 0.47848
# Poissons Ratio (z) = 0.22152 0.16259
#
# Static dielectric constant tensor:
#      x y z
#    x 3.438860 0.000000 0.000000 
#    y 0.000000 3.230930 0.000000 
#    z 0.000000 0.000000 3.699420 
# 
# 
# High freq. dielectric constant tensor:
#      x y z
#    x 1.726850 0.000000 0.000000 
#    y 0.000000 1.708610 0.000000 
#    z 0.000000 0.000000 1.760450 
# 
# From -- ./inp_files/9293.got.cif
#   From: 2010.06.25/outbox.cif.g09.slc.cpg/sg58_5_cif.got.tgz:9293.got - 2010.06.26 21:38:00.
