data_PCOD8237770
_publ_section_title
;
Structure prediction by ZEFSAII (Michael W. Deem and Ramdas Pophale) SiO2 
 PCOD8237770
Probable space group: P N N M
;
_chemical_formula_sum "Si O2"
_cell_formula_units_Z 48
_cell_length_a 23.539371
_cell_length_b 12.026535
_cell_length_c 8.445717
_cell_angle_alpha 90.000000
_cell_angle_beta 90.000000
_cell_angle_gamma 90.000000
_cell_volume 2390.957730
_symmetry_space_group_name_H-M "P N N M"
_symmetry_group_IT_number 58
_symmetry_cell_setting 'orthorhombic'
loop_
_space_group_symop_operation_xyz
x,y,z
-x,-y,z
1/2+x,1/2-y,1/2-z
1/2-x,1/2+y,1/2-z
-x,-y,-z
x,y,-z
1/2-x,1/2+y,1/2+z
1/2+x,1/2-y,1/2+z
loop_
_atom_site_type_symbol
_atom_site_label
_atom_site_fract_x
_atom_site_fract_y
_atom_site_fract_z
Si Si1 0.916381 0.280826 0.817249
Si Si2 0.539232 0.213339 0.815455
Si Si3 0.383691 0.973224 0.684348
Si Si4 0.214462 0.339815 0.314644
Si Si5 0.140888 0.136768 0.313243
Si Si6 0.834142 0.106869 0.684677
O O1 0.890457 0.398959 0.765931
O O2 0.887735 0.186172 0.711165
O O3 0.983425 0.279461 0.789589
O O4 0.903554 0.256043 0.000000
O O5 0.571478 0.097483 0.785736
O O6 0.579957 0.314521 0.759562
O O7 0.523516 0.221460 0.000000
O O8 0.397140 0.955900 0.500000
O O9 0.319199 0.937273 0.723232
O O10 0.203323 0.355585 0.500000
O O11 0.190716 0.220177 0.256816
O O12 0.280590 0.343641 0.276777
O O13 0.141137 0.127395 0.500000
O O14 0.151305 0.014453 0.241951
O O15 0.819676 0.099405 0.500000
#
# Coordination Sequence:
#
# PCOD8237770 Si02
#       6
#     8   8   8   8   8   8
#     4  11  24  39  56  85 123 157 192 242 294 342
#     4  10  20  38  63  88 115 152 196 244 293 348
#     4  10  21  38  60  86 118 157 194 236 295 348
#     4  10  21  39  61  86 116 150 192 242 294 346
#     4   8  19  39  60  81 113 152 187 233 294 349
#     4  11  23  39  59  85 115 155 198 236 289 351
#
# _framework density 20.075637
#
# number of rings (size 3 to 8) (size 9 to 14) (size 15 to 20)
#    0.000    2.000    0.000    4.000    2.333    5.333 
#    0.000   12.500    0.000    0.000    0.000    0.000 
#    0.000    0.000    0.000    0.000    0.000    0.000 
#
# Total GULP energy -595378.568684 kJ/mol
# GULP energy per Si atom -12403.720181 kJ/mol
# Density = 2.002994 g / cm^3
# Si number density = 20.075637 Si / 1000 Ang^3
#
#
#
# Elastic Constant Matrix: (Units=GPa)
#
#
# Indices 1 2 3 4 5 6 
#
# 1 73.4990 43.9090 19.5998 0.0000 0.0000 0.0000
# 2 43.9090 144.4224 30.9297 0.0000 0.0000 0.0000
# 3 19.5998 30.9297 37.5513 0.0000 0.0000 0.0000
# 4 0.0000 0.0000 0.0000 25.0746 0.0000 0.0000
# 5 0.0000 0.0000 0.0000 0.0000 36.6824 0.0000
# 6 0.0000 0.0000 0.0000 0.0000 0.0000 20.1746
#
#
#
# Elastic Compliance Matrix: (Units=1/GPa)
#
#
# Indices 1 2 3 4 5 6 
#
# 1 0.017609 -0.004111 -0.005806 0.000000 0.000000 0.000000
# 2 -0.004111 0.009367 -0.005569 0.000000 0.000000 0.000000
# 3 -0.005806 -0.005569 0.034248 0.000000 0.000000 0.000000
# 4 0.000000 0.000000 0.000000 0.039881 0.000000 0.000000
# 5 0.000000 0.000000 0.000000 0.000000 0.027261 0.000000
# 6 0.000000 0.000000 0.000000 0.000000 0.000000 0.049567
#
#
# Mechanical properties :
#
#
# Convention : Reuss Voigt Hill
#
# Bulk Modulus (GPa) = 33.05479 49.37219 41.21349
# Shear Modulus (GPa) = 22.83227 27.12195 24.97711
#
# Velocity S-wave (km/s) = 3.37606 3.67957 3.53108
# Velocity P-wave (km/s) = 5.63009 6.53443 6.09905
#
# Compressibility (1/GPa) = 0.03025280
#
# Stress axis : x y z
#
# Youngs Moduli (GPa) = 56.78777 106.76202 29.19898
#
# Poissons Ratio (x) = 0.43885 0.16952
# Poissons Ratio (y) = 0.23343 0.16262
# Poissons Ratio (z) = 0.32968 0.59461
#
# Static dielectric constant tensor:
#      x y z
#    x 3.571360 0.000000 0.000000 
#    y 0.000000 3.926550 0.000000 
#    z 0.000000 0.000000 3.451430 
# 
# 
# High freq. dielectric constant tensor:
#      x y z
#    x 1.787330 0.000000 0.000000 
#    y 0.000000 1.787180 0.000000 
#    z 0.000000 0.000000 1.775370 
# 
# From -- ./inp_files/9709.got.cif
#   From: 2010.06.25/outbox.cif.g09.slc.cpg/sg58_5_cif.got.tgz:9709.got - 2010.06.26 21:38:00.
