data_PCOD8237457
_publ_section_title
;
Structure prediction by ZEFSAII (Michael W. Deem and Ramdas Pophale) SiO2 
 PCOD8237457
Probable space group: P N N M
;
_chemical_formula_sum "Si O2"
_cell_formula_units_Z 64
_cell_length_a 19.684785
_cell_length_b 18.465492
_cell_length_c 9.054010
_cell_angle_alpha 90.000000
_cell_angle_beta 90.000000
_cell_angle_gamma 90.000000
_cell_volume 3291.035213
_symmetry_space_group_name_H-M "P N N M"
_symmetry_group_IT_number 58
_symmetry_cell_setting 'orthorhombic'
loop_
_space_group_symop_operation_xyz
x,y,z
-x,-y,z
1/2+x,1/2-y,1/2-z
1/2-x,1/2+y,1/2-z
-x,-y,-z
x,y,-z
1/2-x,1/2+y,1/2+z
1/2+x,1/2-y,1/2+z
loop_
_atom_site_type_symbol
_atom_site_label
_atom_site_fract_x
_atom_site_fract_y
_atom_site_fract_z
Si Si1 0.567093 0.537943 0.324409
Si Si2 0.351536 0.705113 0.169746
Si Si3 0.093118 0.801043 0.828770
Si Si4 0.754354 0.171150 0.830688
Si Si5 0.552700 0.061596 0.673264
Si Si6 0.809987 0.938723 0.174566
Si Si7 0.706174 0.031446 0.673619
Si Si8 0.014662 0.290043 0.671923
O O1 0.500000 0.500000 0.258002
O O2 0.565550 0.536393 0.500000
O O3 0.570268 0.620327 0.268106
O O4 0.632929 0.494792 0.268672
O O5 0.303548 0.772136 0.208711
O O6 0.332264 0.640840 0.278044
O O7 0.428258 0.729491 0.202824
O O8 0.341979 0.680964 0.000000
O O9 0.173277 0.791115 0.802719
O O10 0.055813 0.738290 0.738649
O O11 0.073787 0.792494 0.000000
O O12 0.746158 0.102348 0.726439
O O13 0.749322 0.144024 0.000000
O O14 0.548412 0.077332 0.500000
O O15 0.627497 0.035197 0.720128
O O16 0.535322 0.134870 0.755952
O O17 0.500000 0.000000 0.722265
O O18 0.738786 0.960802 0.249531
O O19 0.801163 0.940316 0.000000
O O20 0.714792 0.023327 0.500000
O O21 0.005072 0.304316 0.500000
#
# Coordination Sequence:
#
# PCOD8237457 Si02
#       8
#     8   8   8   8   8   8   8   8
#     4   9  17  31  53  81 111 149 196 239 279 338
#     4  10  22  39  59  86 120 158 200 247 304 359
#     4  10  20  36  59  84 117 159 200 240 289 359
#     4  10  20  39  63  84 115 162 205 242 297 367
#     4  10  23  43  66  90 118 160 211 253 301 369
#     4  11  22  37  60  88 120 156 201 248 297 362
#     4  11  22  38  63  90 120 155 199 257 309 359
#     4  11  23  39  61  90 126 161 198 254 311 358
#
# _framework density 19.446767999999999
#
# number of rings (size 3 to 8) (size 9 to 14) (size 15 to 20)
#    0.000    1.750    2.500    1.875    0.000    4.750 
#    0.000    5.000    0.000    2.625    0.000    0.000 
#    0.000    0.000    0.000    0.000    0.000    0.000 
#
# Total GULP energy -793881.434717 kJ/mol
# GULP energy per Si atom -12404.397417 kJ/mol
# Density = 1.940251 g / cm^3
# Si number density = 19.446768 Si / 1000 Ang^3
#
#
#
# Elastic Constant Matrix: (Units=GPa)
#
#
# Indices 1 2 3 4 5 6 
#
# 1 95.1018 27.1684 33.0140 0.0000 0.0000 0.0000
# 2 27.1684 72.6040 40.0525 0.0000 0.0000 0.0000
# 3 33.0140 40.0525 55.0690 0.0000 0.0000 0.0000
# 4 0.0000 0.0000 0.0000 35.6892 0.0000 0.0000
# 5 0.0000 0.0000 0.0000 0.0000 26.1772 0.0000
# 6 0.0000 0.0000 0.0000 0.0000 0.0000 32.8249
#
#
#
# Elastic Compliance Matrix: (Units=1/GPa)
#
#
# Indices 1 2 3 4 5 6 
#
# 1 0.013319 -0.000967 -0.007281 0.000000 0.000000 0.000000
# 2 -0.000967 0.023073 -0.016202 0.000000 0.000000 0.000000
# 3 -0.007281 -0.016202 0.034308 0.000000 0.000000 0.000000
# 4 0.000000 0.000000 0.000000 0.028020 0.000000 0.000000
# 5 0.000000 0.000000 0.000000 0.000000 0.038201 0.000000
# 6 0.000000 0.000000 0.000000 0.000000 0.000000 0.030465
#
#
# Mechanical properties :
#
#
# Convention : Reuss Voigt Hill
#
# Bulk Modulus (GPa) = 45.87203 47.02717 46.44960
# Shear Modulus (GPa) = 22.36617 27.10759 24.73688
#
# Velocity S-wave (km/s) = 3.39502 3.73760 3.57042
# Velocity P-wave (km/s) = 6.24564 6.54685 6.39801
#
# Compressibility (1/GPa) = 0.02179978
#
# Stress axis : x y z
#
# Youngs Moduli (GPa) = 75.08065 43.34083 29.14785
#
# Poissons Ratio (x) = 0.04192 0.21224
# Poissons Ratio (y) = 0.07261 0.47224
# Poissons Ratio (z) = 0.54669 0.70219
#
# Static dielectric constant tensor:
#      x y z
#    x 3.864390 0.000000 0.000000 
#    y 0.000000 3.500750 0.000000 
#    z 0.000000 0.000000 3.387870 
# 
# 
# High freq. dielectric constant tensor:
#      x y z
#    x 1.771690 0.000000 0.000000 
#    y 0.000000 1.757060 0.000000 
#    z 0.000000 0.000000 1.742820 
# 
# From -- ./inp_files/8319.got.cif
#   From: 2010.06.25/outbox.cif.g09.slc.cpg/sg58_5_cif.got.tgz:8319.got - 2010.06.26 21:38:00.
