data_PCOD8237720
_publ_section_title
;
Structure prediction by ZEFSAII (Michael W. Deem and Ramdas Pophale) SiO2 
 PCOD8237720
Probable space group: P N N M
;
_chemical_formula_sum "Si O2"
_cell_formula_units_Z 64
_cell_length_a 15.582201
_cell_length_b 23.695320
_cell_length_c 9.016897
_cell_angle_alpha 90.000000
_cell_angle_beta 90.000000
_cell_angle_gamma 90.000000
_cell_volume 3329.265950
_symmetry_space_group_name_H-M "P N N M"
_symmetry_group_IT_number 58
_symmetry_cell_setting 'orthorhombic'
loop_
_space_group_symop_operation_xyz
x,y,z
-x,-y,z
1/2+x,1/2-y,1/2-z
1/2-x,1/2+y,1/2-z
-x,-y,-z
x,y,-z
1/2-x,1/2+y,1/2+z
1/2+x,1/2-y,1/2+z
loop_
_atom_site_type_symbol
_atom_site_label
_atom_site_fract_x
_atom_site_fract_y
_atom_site_fract_z
Si Si1 0.903287 0.616008 0.327085
Si Si2 0.012955 0.909139 0.824750
Si Si3 0.366558 0.508831 0.325011
Si Si4 0.079788 0.602064 0.829491
Si Si5 0.490267 0.290564 0.823709
Si Si6 0.836106 0.735565 0.326153
Si Si7 0.155895 0.719890 0.172052
Si Si8 0.175806 0.502878 0.325047
O O1 0.928119 0.615901 0.500000
O O2 0.842712 0.669162 0.287918
O O3 0.852380 0.560000 0.281469
O O4 0.989591 0.622308 0.234614
O O5 0.027934 0.852563 0.735527
O O6 0.920247 0.935431 0.781963
O O7 0.085933 0.952467 0.768723
O O8 0.019487 0.897628 0.000000
O O9 0.361067 0.503525 0.500000
O O10 0.270987 0.512871 0.258063
O O11 0.148399 0.652403 0.809253
O O12 0.110250 0.546537 0.745437
O O13 0.067409 0.586100 0.000000
O O14 0.581900 0.268940 0.760724
O O15 0.417448 0.249046 0.766766
O O16 0.488408 0.290299 0.000000
O O17 0.834901 0.745659 0.500000
O O18 0.747701 0.760716 0.260873
O O19 0.145696 0.737678 0.000000
O O20 0.173739 0.512151 0.500000
#
# Coordination Sequence:
#
# PCOD8237720 Si02
#       8
#     8   8   8   8   8   8   8   8
#     4  10  20  38  61  81 106 145 189 232 278 331
#     4   9  18  35  59  82 113 150 187 227 275 331
#     4   8  17  35  57  84 111 145 191 235 270 320
#     4  11  23  38  57  82 114 147 182 229 288 339
#     4  11  22  37  59  88 118 148 186 236 289 338
#     4   9  20  38  60  83 111 149 191 232 279 337
#     4  10  22  40  61  83 111 154 197 231 278 343
#     4  10  21  35  58  85 107 142 193 235 275 329
#
# _framework density 19.223457
#
# number of rings (size 3 to 8) (size 9 to 14) (size 15 to 20)
#    0.000    2.250    1.250    1.875    3.500    2.500 
#    0.000    3.750    0.000    0.000    0.000    0.000 
#    0.000    0.000    0.000    0.000    0.000    0.000 
#
# Total GULP energy -793636.504506 kJ/mol
# GULP energy per Si atom -12400.570383 kJ/mol
# Density = 1.917970 g / cm^3
# Si number density = 19.223457 Si / 1000 Ang^3
#
#
#
# Elastic Constant Matrix: (Units=GPa)
#
#
# Indices 1 2 3 4 5 6 
#
# 1 97.2105 6.6636 25.0242 0.0000 0.0000 0.0000
# 2 6.6636 79.6684 30.7736 0.0000 0.0000 0.0000
# 3 25.0242 30.7736 42.3865 0.0000 0.0000 0.0000
# 4 0.0000 0.0000 0.0000 24.1318 0.0000 0.0000
# 5 0.0000 0.0000 0.0000 0.0000 19.5735 0.0000
# 6 0.0000 0.0000 0.0000 0.0000 0.0000 28.5125
#
#
#
# Elastic Compliance Matrix: (Units=1/GPa)
#
#
# Indices 1 2 3 4 5 6 
#
# 1 0.012480 0.002505 -0.009186 0.000000 0.000000 0.000000
# 2 0.002505 0.017947 -0.014508 0.000000 0.000000 0.000000
# 3 -0.009186 -0.014508 0.039549 0.000000 0.000000 0.000000
# 4 0.000000 0.000000 0.000000 0.041439 0.000000 0.000000
# 5 0.000000 0.000000 0.000000 0.000000 0.051089 0.000000
# 6 0.000000 0.000000 0.000000 0.000000 0.000000 0.035072
#
#
# Mechanical properties :
#
#
# Convention : Reuss Voigt Hill
#
# Bulk Modulus (GPa) = 36.23752 38.24314 37.24033
# Shear Modulus (GPa) = 20.06775 24.89717 22.48246
#
# Velocity S-wave (km/s) = 3.23448 3.60272 3.42355
# Velocity P-wave (km/s) = 5.73068 6.10273 5.91963
#
# Compressibility (1/GPa) = 0.02759571
#
# Stress axis : x y z
#
# Youngs Moduli (GPa) = 80.12786 55.72049 25.28484
#
# Poissons Ratio (x) = -0.13956 0.23228
# Poissons Ratio (y) = -0.20069 0.36684
# Poissons Ratio (z) = 0.73609 0.80842
#
# Static dielectric constant tensor:
#      x y z
#    x 3.945740 0.000000 0.000000 
#    y 0.000000 3.570950 0.000000 
#    z 0.000000 0.000000 3.203220 
# 
# 
# High freq. dielectric constant tensor:
#      x y z
#    x 1.757310 0.000000 0.000000 
#    y 0.000000 1.760550 0.000000 
#    z 0.000000 0.000000 1.715620 
# 
# From -- ./inp_files/6920.got.cif
#   From: 2010.06.25/outbox.cif.g09.slc.cpg/sg58_4_cif.got.tgz:6920.got - 2010.06.26 21:38:00.
