data_PCOD8237043
_publ_section_title
;
Structure prediction by ZEFSAII (Michael W. Deem and Ramdas Pophale) SiO2 
 PCOD8237043
Probable space group: P N N M
;
_chemical_formula_sum "Si O2"
_cell_formula_units_Z 64
_cell_length_a 24.108194
_cell_length_b 8.920186
_cell_length_c 15.599668
_cell_angle_alpha 90.000000
_cell_angle_beta 90.000000
_cell_angle_gamma 90.000000
_cell_volume 3354.701967
_symmetry_space_group_name_H-M "P N N M"
_symmetry_group_IT_number 58
_symmetry_cell_setting 'orthorhombic'
loop_
_space_group_symop_operation_xyz
x,y,z
-x,-y,z
1/2+x,1/2-y,1/2-z
1/2-x,1/2+y,1/2-z
-x,-y,-z
x,y,-z
1/2-x,1/2+y,1/2+z
1/2+x,1/2-y,1/2+z
loop_
_atom_site_type_symbol
_atom_site_label
_atom_site_fract_x
_atom_site_fract_y
_atom_site_fract_z
Si Si1 0.641965 0.172883 0.096271
Si Si2 0.857963 0.327802 0.596255
Si Si3 0.868630 0.322407 0.905849
Si Si4 0.562216 0.821513 0.246057
Si Si5 0.437875 0.821247 0.246057
Si Si6 0.368712 0.821953 0.594157
Si Si7 0.250151 0.322543 0.842235
Si Si8 0.249777 0.176680 0.657782
O O1 0.596124 0.234294 0.162835
O O2 0.697848 0.268020 0.102880
O O3 0.656132 0.000362 0.117653
O O4 0.618124 0.189932 0.000000
O O5 0.881829 0.310745 0.500000
O O6 0.903749 0.266143 0.662833
O O7 0.802027 0.232880 0.602783
O O8 0.908784 0.256614 0.832089
O O9 0.872222 0.500221 0.902969
O O10 0.805539 0.271533 0.890168
O O11 0.887320 0.263532 0.000000
O O12 0.500065 0.755905 0.240710
O O13 0.560633 0.000130 0.248273
O O14 0.408909 0.756278 0.332100
O O15 0.387411 0.763132 0.500000
O O16 0.305649 0.770883 0.609882
O O17 0.249985 0.249585 0.750015
O O18 0.252942 0.499606 0.831991
#
# Coordination Sequence:
#
# PCOD8237043 Si02
#       8
#     8   8   8   8   8   8   8   8
#     4  10  20  34  52  77 108 139 174 215 260 311
#     4  10  20  34  52  77 108 139 174 215 260 311
#     4   9  17  29  47  73 103 131 162 206 259 312
#     4   9  17  30  48  72 103 137 174 215 258 305
#     4   9  17  30  48  72 103 137 174 215 258 305
#     4   9  17  29  47  73 103 131 162 206 259 312
#     4  11  20  33  54  78 107 138 171 212 263 319
#     4  11  20  33  54  78 107 138 171 212 263 319
#
# _framework density 19.0777
#
# number of rings (size 3 to 8) (size 9 to 14) (size 15 to 20)
#    0.000    2.250    2.500    1.500    0.000    2.500 
#    0.000    5.000    0.000    0.750    0.000    1.750 
#    0.000    2.000    0.000    0.000    0.000    0.000 
#
# Total GULP energy -793482.865125 kJ/mol
# GULP energy per Si atom -12398.169768 kJ/mol
# Density = 1.903428 g / cm^3
# Si number density = 19.077700 Si / 1000 Ang^3
#
#
#
# Elastic Constant Matrix: (Units=GPa)
#
#
# Indices 1 2 3 4 5 6 
#
# 1 161.1515 19.1138 78.1969 0.0000 0.0000 0.0000
# 2 19.1138 29.0121 15.8980 0.0000 0.0000 0.0000
# 3 78.1969 15.8980 171.8346 0.0000 0.0000 0.0000
# 4 0.0000 0.0000 0.0000 16.4680 0.0000 0.0000
# 5 0.0000 0.0000 0.0000 0.0000 19.3966 0.0000
# 6 0.0000 0.0000 0.0000 0.0000 0.0000 20.5458
#
#
#
# Elastic Compliance Matrix: (Units=1/GPa)
#
#
# Indices 1 2 3 4 5 6 
#
# 1 0.008303 -0.003581 -0.003447 0.000000 0.000000 0.000000
# 2 -0.003581 0.037854 -0.001873 0.000000 0.000000 0.000000
# 3 -0.003447 -0.001873 0.007561 0.000000 0.000000 0.000000
# 4 0.000000 0.000000 0.000000 0.060724 0.000000 0.000000
# 5 0.000000 0.000000 0.000000 0.000000 0.051555 0.000000
# 6 0.000000 0.000000 0.000000 0.000000 0.000000 0.048672
#
#
# Mechanical properties :
#
#
# Convention : Reuss Voigt Hill
#
# Bulk Modulus (GPa) = 27.84222 65.37948 46.61085
# Shear Modulus (GPa) = 20.45471 27.86805 24.16138
#
# Velocity S-wave (km/s) = 3.27797 3.82614 3.56261
# Velocity P-wave (km/s) = 5.38076 7.33919 6.43491
#
# Compressibility (1/GPa) = 0.03591667
#
# Stress axis : x y z
#
# Youngs Moduli (GPa) = 120.44270 26.41739 132.25023
#
# Poissons Ratio (x) = 0.09460 0.45587
# Poissons Ratio (y) = 0.43132 0.24764
# Poissons Ratio (z) = 0.41517 0.04947
#
# Static dielectric constant tensor:
#      x y z
#    x 3.755580 0.000000 0.000000 
#    y 0.000000 3.057770 0.000000 
#    z 0.000000 0.000000 3.768190 
# 
# 
# High freq. dielectric constant tensor:
#      x y z
#    x 1.739720 0.000000 0.000000 
#    y 0.000000 1.683660 0.000000 
#    z 0.000000 0.000000 1.762730 
# 
# From -- ./inp_files/9970.got.cif
#   From: 2010.06.25/outbox.cif.g09.slc.cpg/sg58_5_cif.got.tgz:9970.got - 2010.06.26 21:38:00.
