data_PCOD8237552
_publ_section_title
;
Structure prediction by ZEFSAII (Michael W. Deem and Ramdas Pophale) SiO2 
 PCOD8237552
Probable space group: P N N M
;
_chemical_formula_sum "Si O2"
_cell_formula_units_Z 48
_cell_length_a 14.272201
_cell_length_b 8.541159
_cell_length_c 18.709755
_cell_angle_alpha 90.000000
_cell_angle_beta 90.000000
_cell_angle_gamma 90.000000
_cell_volume 2280.740427
_symmetry_space_group_name_H-M "P N N M"
_symmetry_group_IT_number 58
_symmetry_cell_setting 'orthorhombic'
loop_
_space_group_symop_operation_xyz
x,y,z
-x,-y,z
1/2+x,1/2-y,1/2-z
1/2-x,1/2+y,1/2-z
-x,-y,-z
x,y,-z
1/2-x,1/2+y,1/2+z
1/2+x,1/2-y,1/2+z
loop_
_atom_site_type_symbol
_atom_site_label
_atom_site_fract_x
_atom_site_fract_y
_atom_site_fract_z
Si Si1 0.702989 0.308633 0.669463
Si Si2 0.952130 0.666374 0.419689
Si Si3 0.075481 0.376689 0.920416
Si Si4 0.132795 0.837842 0.417388
Si Si5 0.272312 0.850139 0.818571
Si Si6 0.757921 0.392794 0.077433
O O1 0.602867 0.273061 0.629019
O O2 0.795914 0.271276 0.625586
O O3 0.700647 0.203373 0.740067
O O4 0.711595 0.492290 0.686992
O O5 0.917440 0.708943 0.500000
O O6 0.864074 0.651779 0.367858
O O7 0.000000 0.500000 0.419857
O O8 0.027025 0.797283 0.392211
O O9 0.174238 0.460785 0.925748
O O10 0.000000 0.500000 0.887411
O O11 0.041115 0.323496 0.000000
O O12 0.143098 0.789136 0.500000
O O13 0.156033 0.024305 0.406915
O O14 0.207760 0.722443 0.859668
O O15 0.758784 0.307208 0.000000
#
# Coordination Sequence:
#
# PCOD8237552 Si02
#       6
#     8   8   8   8   8   8
#     4  11  22  37  58  84 122 163 205 248 303 372
#     4  10  20  36  63  96 123 152 201 256 312 378
#     4   9  19  39  65  87 109 149 203 252 302 360
#     4   9  18  37  63  91 120 154 197 250 310 375
#     4  12  24  38  56  86 124 166 203 248 310 372
#     4   9  19  36  60  87 118 153 194 249 307 364
#
# _framework density 21.045798000000001
#
# number of rings (size 3 to 8) (size 9 to 14) (size 15 to 20)
#    0.000    2.000    1.667    4.000    0.000    3.333 
#    3.000    3.333    0.000    3.000    0.000    0.000 
#    0.000    0.000    0.000    0.000    0.000    0.000 
#
# Total GULP energy -594668.230859 kJ/mol
# GULP energy per Si atom -12388.921476 kJ/mol
# Density = 2.099790 g / cm^3
# Si number density = 21.045798 Si / 1000 Ang^3
#
#
#
# Elastic Constant Matrix: (Units=GPa)
#
#
# Indices 1 2 3 4 5 6 
#
# 1 75.4769 23.4049 21.9562 0.0000 0.0000 0.0000
# 2 23.4049 102.0579 41.7283 0.0000 0.0000 0.0000
# 3 21.9562 41.7283 89.8392 0.0000 0.0000 0.0000
# 4 0.0000 0.0000 0.0000 31.5850 0.0000 0.0000
# 5 0.0000 0.0000 0.0000 0.0000 10.3815 0.0000
# 6 0.0000 0.0000 0.0000 0.0000 0.0000 29.1339
#
#
#
# Elastic Compliance Matrix: (Units=1/GPa)
#
#
# Indices 1 2 3 4 5 6 
#
# 1 0.014706 -0.002349 -0.002503 0.000000 0.000000 0.000000
# 2 -0.002349 0.012471 -0.005218 0.000000 0.000000 0.000000
# 3 -0.002503 -0.005218 0.014166 0.000000 0.000000 0.000000
# 4 0.000000 0.000000 0.000000 0.031661 0.000000 0.000000
# 5 0.000000 0.000000 0.000000 0.000000 0.096325 0.000000
# 6 0.000000 0.000000 0.000000 0.000000 0.000000 0.034324
#
#
# Mechanical properties :
#
#
# Convention : Reuss Voigt Hill
#
# Bulk Modulus (GPa) = 47.16466 49.06142 48.11304
# Shear Modulus (GPa) = 21.65812 26.23906 23.94859
#
# Velocity S-wave (km/s) = 3.21143 3.53478 3.37698
# Velocity P-wave (km/s) = 6.01749 6.32629 6.17382
#
# Compressibility (1/GPa) = 0.02120231
#
# Stress axis : x y z
#
# Youngs Moduli (GPa) = 68.00128 80.18826 70.58940
#
# Poissons Ratio (x) = 0.18837 0.17668
# Poissons Ratio (y) = 0.15974 0.36835
# Poissons Ratio (z) = 0.17020 0.41844
#
# Static dielectric constant tensor:
#      x y z
#    x 3.940210 0.000000 0.000000 
#    y 0.000000 4.167360 0.000000 
#    z 0.000000 0.000000 4.221370 
# 
# 
# High freq. dielectric constant tensor:
#      x y z
#    x 1.812660 0.000000 0.000000 
#    y 0.000000 1.823160 0.000000 
#    z 0.000000 0.000000 1.819090 
# 
# From -- ./inp_files/26808.got.cif
#   From: 2010.06.25/outbox.cif.g09.slc.cpg/sg58_14_cif.got.tgz:26808.got - 2010.06.26 21:38:00.
