data_PCOD8237157
_publ_section_title
;
Structure prediction by ZEFSAII (Michael W. Deem and Ramdas Pophale) SiO2 
 PCOD8237157
Probable space group: P N N M
;
_chemical_formula_sum "Si O2"
_cell_formula_units_Z 64
_cell_length_a 15.118259
_cell_length_b 24.401408
_cell_length_c 8.984480
_cell_angle_alpha 90.000000
_cell_angle_beta 90.000000
_cell_angle_gamma 90.000000
_cell_volume 3314.435821
_symmetry_space_group_name_H-M "P N N M"
_symmetry_group_IT_number 58
_symmetry_cell_setting 'orthorhombic'
loop_
_space_group_symop_operation_xyz
x,y,z
-x,-y,z
1/2+x,1/2-y,1/2-z
1/2-x,1/2+y,1/2-z
-x,-y,-z
x,y,-z
1/2-x,1/2+y,1/2+z
1/2+x,1/2-y,1/2+z
loop_
_atom_site_type_symbol
_atom_site_label
_atom_site_fract_x
_atom_site_fract_y
_atom_site_fract_z
Si Si1 0.184046 0.440852 0.672567
Si Si2 0.003125 0.388547 0.675083
Si Si3 0.492845 0.341345 0.327671
Si Si4 0.192847 0.856282 0.676198
Si Si5 0.668095 0.359643 0.173655
Si Si6 0.684563 0.931295 0.172966
Si Si7 0.035117 0.717598 0.169447
Si Si8 0.270735 0.247530 0.672635
O O1 0.197223 0.424549 0.500000
O O2 0.254990 0.409903 0.773248
O O3 0.198694 0.504698 0.698208
O O4 0.085514 0.425262 0.727691
O O5 0.999540 0.386998 0.500000
O O6 0.912020 0.414637 0.735858
O O7 0.016540 0.326636 0.732269
O O8 0.483645 0.357537 0.500000
O O9 0.404744 0.359935 0.244356
O O10 0.576461 0.372414 0.257172
O O11 0.509203 0.276600 0.307412
O O12 0.185582 0.854310 0.500000
O O13 0.245708 0.802387 0.732379
O O14 0.742123 0.400189 0.233219
O O15 0.694349 0.296382 0.203773
O O16 0.655304 0.370647 0.000000
O O17 0.694192 0.915358 0.000000
O O18 0.136988 0.720011 0.221905
O O19 0.029050 0.697982 0.000000
O O20 0.276492 0.265071 0.500000
#
# Coordination Sequence:
#
# PCOD8237157 Si02
#       8
#     8   8   8   8   8   8   8   8
#     4  10  22  40  60  83 117 160 200 243 297 353
#     4  10  20  34  57  87 117 153 197 240 283 343
#     4  10  22  40  60  84 120 158 194 240 298 359
#     4  11  23  39  60  87 117 152 200 250 295 346
#     4  11  22  37  60  89 120 154 197 245 295 348
#     4  10  21  39  61  86 118 157 201 243 292 353
#     4   9  18  34  54  81 117 153 186 228 286 346
#     4   9  19  36  56  81 117 158 190 231 293 352
#
# _framework density 19.309470000000001
#
# number of rings (size 3 to 8) (size 9 to 14) (size 15 to 20)
#    0.000    2.000    1.250    3.000    1.750    6.000 
#    0.000    0.625    0.000    6.000    0.000    0.000 
#    0.000    0.000    0.000    0.000    0.000    0.000 
#
# Total GULP energy -793790.684829 kJ/mol
# GULP energy per Si atom -12402.979450 kJ/mol
# Density = 1.926552 g / cm^3
# Si number density = 19.309470 Si / 1000 Ang^3
#
#
#
# Elastic Constant Matrix: (Units=GPa)
#
#
# Indices 1 2 3 4 5 6 
#
# 1 111.6216 49.5078 63.7249 0.0000 0.0000 0.0000
# 2 49.5078 75.5428 44.0781 0.0000 0.0000 0.0000
# 3 63.7249 44.0781 88.9107 0.0000 0.0000 0.0000
# 4 0.0000 0.0000 0.0000 31.0445 0.0000 0.0000
# 5 0.0000 0.0000 0.0000 0.0000 19.3384 0.0000
# 6 0.0000 0.0000 0.0000 0.0000 0.0000 24.0011
#
#
#
# Elastic Compliance Matrix: (Units=1/GPa)
#
#
# Indices 1 2 3 4 5 6 
#
# 1 0.016675 -0.005564 -0.009193 0.000000 0.000000 0.000000
# 2 -0.005564 0.020482 -0.006166 0.000000 0.000000 0.000000
# 3 -0.009193 -0.006166 0.020893 0.000000 0.000000 0.000000
# 4 0.000000 0.000000 0.000000 0.032212 0.000000 0.000000
# 5 0.000000 0.000000 0.000000 0.000000 0.051711 0.000000
# 6 0.000000 0.000000 0.000000 0.000000 0.000000 0.041665
#
#
# Mechanical properties :
#
#
# Convention : Reuss Voigt Hill
#
# Bulk Modulus (GPa) = 61.71518 65.63299 63.67409
# Shear Modulus (GPa) = 21.65583 22.79440 22.22511
#
# Velocity S-wave (km/s) = 3.35253 3.43954 3.39631
# Velocity P-wave (km/s) = 6.85685 7.05958 6.95896
#
# Compressibility (1/GPa) = 0.01620347
#
# Stress axis : x y z
#
# Youngs Moduli (GPa) = 59.96986 48.82373 47.86296
#
# Poissons Ratio (x) = 0.27166 0.44000
# Poissons Ratio (y) = 0.33368 0.29512
# Poissons Ratio (z) = 0.55130 0.30105
#
# Static dielectric constant tensor:
#      x y z
#    x 3.563910 0.000000 0.000000 
#    y 0.000000 3.390330 0.000000 
#    z 0.000000 0.000000 3.435670 
# 
# 
# High freq. dielectric constant tensor:
#      x y z
#    x 1.755850 0.000000 0.000000 
#    y 0.000000 1.740430 0.000000 
#    z 0.000000 0.000000 1.746640 
# 
# From -- ./inp_files/6766.got.cif
#   From: 2010.06.25/outbox.cif.g09.slc.cpg/sg58_4_cif.got.tgz:6766.got - 2010.06.26 21:38:00.
