data_PCOD8237644
_publ_section_title
;
Structure prediction by ZEFSAII (Michael W. Deem and Ramdas Pophale) SiO2 
 PCOD8237644
Probable space group: P N N M
;
_chemical_formula_sum "Si O2"
_cell_formula_units_Z 64
_cell_length_a 15.249161
_cell_length_b 24.079639
_cell_length_c 8.634088
_cell_angle_alpha 90.000000
_cell_angle_beta 90.000000
_cell_angle_gamma 90.000000
_cell_volume 3170.387830
_symmetry_space_group_name_H-M "P N N M"
_symmetry_group_IT_number 58
_symmetry_cell_setting 'orthorhombic'
loop_
_space_group_symop_operation_xyz
x,y,z
-x,-y,z
1/2+x,1/2-y,1/2-z
1/2-x,1/2+y,1/2-z
-x,-y,-z
x,y,-z
1/2-x,1/2+y,1/2+z
1/2+x,1/2-y,1/2+z
loop_
_atom_site_type_symbol
_atom_site_label
_atom_site_fract_x
_atom_site_fract_y
_atom_site_fract_z
Si Si1 0.920094 0.766484 0.820329
Si Si2 0.248451 0.428533 0.815871
Si Si3 0.747114 0.197044 0.683612
Si Si4 0.599770 0.996196 0.818897
Si Si5 0.645556 0.882296 0.674350
Si Si6 0.347090 0.628342 0.824668
Si Si7 0.594238 0.772290 0.180849
Si Si8 0.402138 0.507250 0.183804
O O1 0.843955 0.724745 0.763538
O O2 0.891124 0.829650 0.794555
O O3 0.003304 0.757959 0.711988
O O4 0.943226 0.757245 0.000000
O O5 0.251943 0.365682 0.750340
O O6 0.158569 0.457383 0.763560
O O7 0.334249 0.461077 0.750950
O O8 0.249115 0.429027 0.000000
O O9 0.753576 0.195618 0.500000
O O10 0.827869 0.233600 0.748860
O O11 0.635403 0.935180 0.783354
O O12 0.500000 0.000000 0.757652
O O13 0.604507 0.007779 0.000000
O O14 0.617185 0.898347 0.500000
O O15 0.744289 0.861030 0.679805
O O16 0.587333 0.831471 0.734421
O O17 0.367425 0.566926 0.763375
O O18 0.383096 0.636701 0.000000
O O19 0.608595 0.782805 0.000000
O O20 0.500000 0.500000 0.252779
O O21 0.404374 0.502269 0.000000
#
# Coordination Sequence:
#
# PCOD8237644 Si02
#       8
#     8   8   8   8   8   8   8   8
#     4  11  23  40  59  89 123 161 206 249 299 359
#     4  10  20  39  62  87 117 157 203 246 294 355
#     4   9  21  39  61  86 119 160 202 245 298 361
#     4  11  25  42  60  88 123 160 201 249 306 362
#     4  11  22  40  65  91 119 157 206 256 303 361
#     4  10  20  37  61  90 117 153 202 251 304 358
#     4  11  23  41  63  91 123 161 202 250 308 361
#     4   9  18  33  59  90 117 147 195 249 296 353
#
# _framework density 20.186803999999999
#
# number of rings (size 3 to 8) (size 9 to 14) (size 15 to 20)
#    0.000    1.750    2.500    1.500    3.500    1.500 
#    0.000    1.875    0.000    0.750    0.000    0.000 
#    0.000    0.000    0.000    0.000    0.000    0.000 
#
# Total GULP energy -793762.279857 kJ/mol
# GULP energy per Si atom -12402.535623 kJ/mol
# Density = 2.014086 g / cm^3
# Si number density = 20.186804 Si / 1000 Ang^3
#
#
#
# Elastic Constant Matrix: (Units=GPa)
#
#
# Indices 1 2 3 4 5 6 
#
# 1 115.1740 40.2299 21.0455 0.0000 0.0000 0.0000
# 2 40.2299 133.8202 15.4791 0.0000 0.0000 0.0000
# 3 21.0455 15.4791 27.2507 0.0000 0.0000 0.0000
# 4 0.0000 0.0000 0.0000 25.3017 0.0000 0.0000
# 5 0.0000 0.0000 0.0000 0.0000 23.9682 0.0000
# 6 0.0000 0.0000 0.0000 0.0000 0.0000 29.5012
#
#
#
# Elastic Compliance Matrix: (Units=1/GPa)
#
#
# Indices 1 2 3 4 5 6 
#
# 1 0.010808 -0.002444 -0.006958 0.000000 0.000000 0.000000
# 2 -0.002444 0.008551 -0.002970 0.000000 0.000000 0.000000
# 3 -0.006958 -0.002970 0.043757 0.000000 0.000000 0.000000
# 4 0.000000 0.000000 0.000000 0.039523 0.000000 0.000000
# 5 0.000000 0.000000 0.000000 0.000000 0.041722 0.000000
# 6 0.000000 0.000000 0.000000 0.000000 0.000000 0.033897
#
#
# Mechanical properties :
#
#
# Convention : Reuss Voigt Hill
#
# Bulk Modulus (GPa) = 26.06105 47.75046 36.90575
# Shear Modulus (GPa) = 23.17043 29.05359 26.11201
#
# Velocity S-wave (km/s) = 3.39160 3.79784 3.60045
# Velocity P-wave (km/s) = 5.31744 6.55264 5.96709
#
# Compressibility (1/GPa) = 0.03837144
#
# Stress axis : x y z
#
# Youngs Moduli (GPa) = 92.52605 116.94538 22.85352
#
# Poissons Ratio (x) = 0.28584 0.15902
# Poissons Ratio (y) = 0.22615 0.06786
# Poissons Ratio (z) = 0.64383 0.34727
#
# Static dielectric constant tensor:
#      x y z
#    x 3.788650 0.000000 0.000000 
#    y 0.000000 3.797060 0.000000 
#    z 0.000000 0.000000 3.323040 
# 
# 
# High freq. dielectric constant tensor:
#      x y z
#    x 1.796290 0.000000 0.000000 
#    y 0.000000 1.800290 0.000000 
#    z 0.000000 0.000000 1.758430 
# 
# From -- ./inp_files/6792.got.cif
#   From: 2010.06.25/outbox.cif.g09.slc.cpg/sg58_4_cif.got.tgz:6792.got - 2010.06.26 21:38:00.
