data_PCOD8237795
_publ_section_title
;
Structure prediction by ZEFSAII (Michael W. Deem and Ramdas Pophale) SiO2 
 PCOD8237795
Probable space group: P N N M
;
_chemical_formula_sum "Si O2"
_cell_formula_units_Z 64
_cell_length_a 12.295304
_cell_length_b 16.718319
_cell_length_c 15.043014
_cell_angle_alpha 90.000000
_cell_angle_beta 90.000000
_cell_angle_gamma 90.000000
_cell_volume 3092.194038
_symmetry_space_group_name_H-M "P N N M"
_symmetry_group_IT_number 58
_symmetry_cell_setting 'orthorhombic'
loop_
_space_group_symop_operation_xyz
x,y,z
-x,-y,z
1/2+x,1/2-y,1/2-z
1/2-x,1/2+y,1/2-z
-x,-y,-z
x,y,-z
1/2-x,1/2+y,1/2+z
1/2+x,1/2-y,1/2+z
loop_
_atom_site_type_symbol
_atom_site_label
_atom_site_fract_x
_atom_site_fract_y
_atom_site_fract_z
Si Si1 0.352724 0.214825 0.653574
Si Si2 0.491955 0.286662 0.097176
Si Si3 0.774229 0.589930 0.769760
Si Si4 0.263041 0.249630 0.158224
Si Si5 0.669911 0.163103 0.901659
Si Si6 0.978752 0.087381 0.739318
Si Si7 0.548408 0.323976 0.601980
Si Si8 0.120702 0.531916 0.101465
O O1 0.315710 0.206770 0.755669
O O2 0.264049 0.269341 0.603738
O O3 0.471383 0.255174 0.643821
O O4 0.364392 0.126535 0.612338
O O5 0.362867 0.271079 0.094292
O O6 0.554008 0.204231 0.115977
O O7 0.531791 0.350488 0.170192
O O8 0.524849 0.320200 0.000000
O O9 0.809208 0.671481 0.819017
O O10 0.823347 0.590613 0.669826
O O11 0.647554 0.603102 0.754956
O O12 0.801530 0.512084 0.827360
O O13 0.176643 0.194665 0.107386
O O14 0.675191 0.124682 0.000000
O O15 0.030411 0.097368 0.837420
O O16 0.000000 0.000000 0.701720
O O17 0.516521 0.341192 0.500000
O O18 0.000000 0.500000 0.122369
O O19 0.152370 0.508915 0.000000
#
# Coordination Sequence:
#
# PCOD8237795 Si02
#       8
#     8   8   8   8   8   8   8   8
#     4  11  22  39  67  91 127 164 213 264 318 377
#     4  10  21  39  63  93 124 162 206 261 319 380
#     4  10  22  38  61  88 123 166 195 258 318 378
#     4  10  22  39  65  92 127 165 210 259 311 377
#     4  10  20  38  65  90 117 158 215 260 306 375
#     4  11  24  40  58  88 130 167 209 256 319 375
#     4  12  23  41  69  96 124 168 222 269 312 369
#     4  11  25  40  60  95 130 163 207 264 327 387
#
# _framework density 20.697277
#
# number of rings (size 3 to 8) (size 9 to 14) (size 15 to 20)
#    0.000    1.375    3.750    3.750    5.250    4.000 
#    0.000    0.000    0.000    0.375    0.000    0.000 
#    0.000    0.000    0.000    0.000    0.000    0.000 
#
# Total GULP energy -793362.161806 kJ/mol
# GULP energy per Si atom -12396.283778 kJ/mol
# Density = 2.065017 g / cm^3
# Si number density = 20.697277 Si / 1000 Ang^3
#
#
#
# Elastic Constant Matrix: (Units=GPa)
#
#
# Indices 1 2 3 4 5 6 
#
# 1 56.3996 6.2184 17.4201 0.0000 0.0000 0.0000
# 2 6.2184 60.3467 31.8124 0.0000 0.0000 0.0000
# 3 17.4201 31.8124 135.3923 0.0000 0.0000 0.0000
# 4 0.0000 0.0000 0.0000 2.0722 0.0000 0.0000
# 5 0.0000 0.0000 0.0000 0.0000 23.5058 0.0000
# 6 0.0000 0.0000 0.0000 0.0000 0.0000 25.7300
#
#
#
# Elastic Compliance Matrix: (Units=1/GPa)
#
#
# Indices 1 2 3 4 5 6 
#
# 1 0.018494 -0.000743 -0.002205 0.000000 0.000000 0.000000
# 2 -0.000743 0.018943 -0.004355 0.000000 0.000000 0.000000
# 3 -0.002205 -0.004355 0.008693 0.000000 0.000000 0.000000
# 4 0.000000 0.000000 0.000000 0.482579 0.000000 0.000000
# 5 0.000000 0.000000 0.000000 0.000000 0.042543 0.000000
# 6 0.000000 0.000000 0.000000 0.000000 0.000000 0.038865
#
#
# Mechanical properties :
#
#
# Convention : Reuss Voigt Hill
#
# Bulk Modulus (GPa) = 31.72295 40.33781 36.03038
# Shear Modulus (GPa) = 7.87115 23.37411 15.62263
#
# Velocity S-wave (km/s) = 1.95224 3.36420 2.75037
# Velocity P-wave (km/s) = 4.52129 5.88406 5.24711
#
# Compressibility (1/GPa) = 0.03152292
#
# Stress axis : x y z
#
# Youngs Moduli (GPa) = 54.07282 52.78856 115.03527
#
# Poissons Ratio (x) = 0.03924 0.25363
# Poissons Ratio (y) = 0.04020 0.50102
# Poissons Ratio (z) = 0.11922 0.22992
#
# Static dielectric constant tensor:
#      x y z
#    x 3.901350 0.000000 0.000000 
#    y 0.000000 4.040490 0.000000 
#    z 0.000000 0.000000 3.884800 
# 
# 
# High freq. dielectric constant tensor:
#      x y z
#    x 1.816140 0.000000 0.000000 
#    y 0.000000 1.776500 0.000000 
#    z 0.000000 0.000000 1.821290 
# 
# From -- ./inp_files/21536.got.cif
#   From: 2010.06.25/outbox.cif.g09.slc.cpg/sg58_11_cif.got.tgz:21536.got - 2010.06.26 21:38:00.
