data_PCOD8237566
_publ_section_title
;
Structure prediction by ZEFSAII (Michael W. Deem and Ramdas Pophale) SiO2 
 PCOD8237566
Probable space group: P N N M
;
_chemical_formula_sum "Si O2"
_cell_formula_units_Z 48
_cell_length_a 21.127620
_cell_length_b 8.111849
_cell_length_c 12.692508
_cell_angle_alpha 90.000000
_cell_angle_beta 90.000000
_cell_angle_gamma 90.000000
_cell_volume 2175.293593
_symmetry_space_group_name_H-M "P N N M"
_symmetry_group_IT_number 58
_symmetry_cell_setting 'orthorhombic'
loop_
_space_group_symop_operation_xyz
x,y,z
-x,-y,z
1/2+x,1/2-y,1/2-z
1/2-x,1/2+y,1/2-z
-x,-y,-z
x,y,-z
1/2-x,1/2+y,1/2+z
1/2+x,1/2-y,1/2+z
loop_
_atom_site_type_symbol
_atom_site_label
_atom_site_fract_x
_atom_site_fract_y
_atom_site_fract_z
Si Si1 0.362866 0.118905 0.380244
Si Si2 0.457914 0.358129 0.302875
Si Si3 0.897825 0.945510 0.382575
Si Si4 0.918851 0.692602 0.781000
Si Si5 0.261925 0.483877 0.819222
Si Si6 0.694463 0.354044 0.379074
O O1 0.372440 0.057342 0.500000
O O2 0.395255 0.299002 0.365816
O O3 0.288702 0.126470 0.351867
O O4 0.396556 0.993453 0.298926
O O5 0.500000 0.500000 0.360565
O O6 0.437725 0.425552 0.188069
O O7 0.505539 0.201980 0.297121
O O8 0.925877 0.949893 0.500000
O O9 0.903299 0.759000 0.336739
O O10 0.824414 0.995719 0.388358
O O11 0.880192 0.820073 0.858091
O O12 0.279450 0.499533 0.695088
O O13 0.231326 0.309924 0.845344
O O14 0.706381 0.402598 0.500000
#
# Coordination Sequence:
#
# PCOD8237566 Si02
#       6
#     8   8   8   8   8   8
#     4  11  22  38  60  84 118 157 191 241 295 340
#     4  10  22  38  57  86 118 150 195 236 278 346
#     4  10  20  38  62  84 116 155 189 241 298 342
#     4   9  20  36  56  83 112 147 197 238 278 346
#     4  10  20  37  60  89 116 148 199 240 285 355
#     4  10  20  37  58  80 116 155 188 242 298 341
#
# _framework density 22.065987
#
# number of rings (size 3 to 8) (size 9 to 14) (size 15 to 20)
#    0.000    2.000    0.000    4.500    0.000    5.333 
#    0.000   24.167    0.000    5.000    0.000    0.000 
#    0.000    0.000    0.000    0.000    0.000    0.000 
#
# Total GULP energy -594845.902995 kJ/mol
# GULP energy per Si atom -12392.622979 kJ/mol
# Density = 2.201576 g / cm^3
# Si number density = 22.065987 Si / 1000 Ang^3
#
#
#
# Elastic Constant Matrix: (Units=GPa)
#
#
# Indices 1 2 3 4 5 6 
#
# 1 113.8367 14.1694 16.8008 0.0000 0.0000 0.0000
# 2 14.1694 36.4442 23.4645 0.0000 0.0000 0.0000
# 3 16.8008 23.4645 145.5876 0.0000 0.0000 0.0000
# 4 0.0000 0.0000 0.0000 28.2117 0.0000 0.0000
# 5 0.0000 0.0000 0.0000 0.0000 12.0927 0.0000
# 6 0.0000 0.0000 0.0000 0.0000 0.0000 36.4734
#
#
#
# Elastic Compliance Matrix: (Units=1/GPa)
#
#
# Indices 1 2 3 4 5 6 
#
# 1 0.009270 -0.003253 -0.000545 0.000000 0.000000 0.000000
# 2 -0.003253 0.031758 -0.004743 0.000000 0.000000 0.000000
# 3 -0.000545 -0.004743 0.007696 0.000000 0.000000 0.000000
# 4 0.000000 0.000000 0.000000 0.035446 0.000000 0.000000
# 5 0.000000 0.000000 0.000000 0.000000 0.082694 0.000000
# 6 0.000000 0.000000 0.000000 0.000000 0.000000 0.027417
#
#
# Mechanical properties :
#
#
# Convention : Reuss Voigt Hill
#
# Bulk Modulus (GPa) = 31.60466 44.97084 38.28775
# Shear Modulus (GPa) = 22.53153 31.45116 26.99134
#
# Velocity S-wave (km/s) = 3.19893 3.77944 3.50124
# Velocity P-wave (km/s) = 5.29132 6.28251 5.80810
#
# Compressibility (1/GPa) = 0.03164090
#
# Stress axis : x y z
#
# Youngs Moduli (GPa) = 107.87587 31.48844 129.93589
#
# Poissons Ratio (x) = 0.10243 0.07088
# Poissons Ratio (y) = 0.35091 0.61629
# Poissons Ratio (z) = 0.05884 0.14935
#
# Static dielectric constant tensor:
#      x y z
#    x 4.513500 0.000000 0.000000 
#    y 0.000000 3.776900 0.000000 
#    z 0.000000 0.000000 3.822710 
# 
# 
# High freq. dielectric constant tensor:
#      x y z
#    x 1.893920 0.000000 0.000000 
#    y 0.000000 1.852890 0.000000 
#    z 0.000000 0.000000 1.841630 
# 
# From -- ./inp_files/17408.got.cif
#   From: 2010.06.25/outbox.cif.g09.slc.cpg/sg58_9_cif.got.tgz:17408.got - 2010.06.26 21:38:00.
