data_PCOD8237734
_publ_section_title
;
Structure prediction by ZEFSAII (Michael W. Deem and Ramdas Pophale) SiO2 
 PCOD8237734
Probable space group: P N N M
;
_chemical_formula_sum "Si O2"
_cell_formula_units_Z 64
_cell_length_a 29.102560
_cell_length_b 12.594648
_cell_length_c 8.851471
_cell_angle_alpha 90.000000
_cell_angle_beta 90.000000
_cell_angle_gamma 90.000000
_cell_volume 3244.387192
_symmetry_space_group_name_H-M "P N N M"
_symmetry_group_IT_number 58
_symmetry_cell_setting 'orthorhombic'
loop_
_space_group_symop_operation_xyz
x,y,z
-x,-y,z
1/2+x,1/2-y,1/2-z
1/2-x,1/2+y,1/2-z
-x,-y,-z
x,y,-z
1/2-x,1/2+y,1/2+z
1/2+x,1/2-y,1/2+z
loop_
_atom_site_type_symbol
_atom_site_label
_atom_site_fract_x
_atom_site_fract_y
_atom_site_fract_z
Si Si1 0.002464 0.623163 0.179666
Si Si2 0.327914 0.762902 0.169726
Si Si3 0.255465 0.402008 0.668876
Si Si4 0.420778 0.725877 0.677940
Si Si5 0.445747 0.493373 0.672174
Si Si6 0.250013 0.605027 0.826089
Si Si7 0.077461 0.772105 0.675843
Si Si8 0.317015 0.235373 0.826351
O O1 0.047092 0.683731 0.241144
O O2 0.000000 0.500000 0.237227
O O3 0.958738 0.690883 0.240006
O O4 0.005072 0.624168 0.000000
O O5 0.298188 0.870075 0.175815
O O6 0.371421 0.771957 0.278442
O O7 0.294280 0.670793 0.227813
O O8 0.345514 0.739678 0.000000
O O9 0.267245 0.442892 0.500000
O O10 0.265306 0.485210 0.800293
O O11 0.289893 0.307334 0.706704
O O12 0.426196 0.719716 0.500000
O O13 0.426888 0.605187 0.741238
O O14 0.500000 0.500000 0.680332
O O15 0.429023 0.477697 0.500000
O O16 0.428521 0.392471 0.766371
O O17 0.205495 0.621895 0.716887
O O18 0.238166 0.629022 0.000000
O O19 0.065089 0.770781 0.500000
O O20 0.129320 0.736201 0.707474
O O21 0.307024 0.265531 0.000000
#
# Coordination Sequence:
#
# PCOD8237734 Si02
#       8
#     8   8   8   8   8   8   8   8
#     4  10  22  42  64  85 115 154 197 243 288 345
#     4   9  21  38  55  81 116 149 185 233 287 341
#     4  10  21  38  59  84 115 155 196 237 291 345
#     4  10  21  37  59  89 116 149 196 239 289 347
#     4  10  20  38  61  85 119 154 191 244 291 344
#     4  10  21  38  59  84 114 151 195 241 290 346
#     4  11  24  39  59  89 121 154 195 243 297 353
#     4  10  22  39  57  84 119 152 192 241 287 344
#
# _framework density 19.726374
#
# number of rings (size 3 to 8) (size 9 to 14) (size 15 to 20)
#    0.000    2.000    1.250    2.250    1.750    7.500 
#    0.000    2.500    0.000    0.000    0.000    0.000 
#    0.000    0.000    0.000    0.000    0.000    0.000 
#
# Total GULP energy -793310.623729 kJ/mol
# GULP energy per Si atom -12395.478496 kJ/mol
# Density = 1.968148 g / cm^3
# Si number density = 19.726374 Si / 1000 Ang^3
#
#
#
# Elastic Constant Matrix: (Units=GPa)
#
#
# Indices 1 2 3 4 5 6 
#
# 1 115.5683 37.6443 42.1588 0.0000 0.0000 0.0000
# 2 37.6443 107.0784 31.6555 0.0000 0.0000 0.0000
# 3 42.1588 31.6555 49.6081 0.0000 0.0000 0.0000
# 4 0.0000 0.0000 0.0000 26.1870 0.0000 0.0000
# 5 0.0000 0.0000 0.0000 0.0000 32.2039 0.0000
# 6 0.0000 0.0000 0.0000 0.0000 0.0000 13.5677
#
#
#
# Elastic Compliance Matrix: (Units=1/GPa)
#
#
# Indices 1 2 3 4 5 6 
#
# 1 0.012753 -0.001577 -0.009832 0.000000 0.000000 0.000000
# 2 -0.001577 0.011705 -0.006129 0.000000 0.000000 0.000000
# 3 -0.009832 -0.006129 0.032425 0.000000 0.000000 0.000000
# 4 0.000000 0.000000 0.000000 0.038187 0.000000 0.000000
# 5 0.000000 0.000000 0.000000 0.000000 0.031052 0.000000
# 6 0.000000 0.000000 0.000000 0.000000 0.000000 0.073705
#
#
# Mechanical properties :
#
#
# Convention : Reuss Voigt Hill
#
# Bulk Modulus (GPa) = 45.85652 55.01910 50.43781
# Shear Modulus (GPa) = 20.64651 25.11145 22.87898
#
# Velocity S-wave (km/s) = 3.23870 3.57177 3.40930
# Velocity P-wave (km/s) = 6.10593 6.70535 6.41265
#
# Compressibility (1/GPa) = 0.02180715
#
# Stress axis : x y z
#
# Youngs Moduli (GPa) = 78.41192 85.43154 30.84079
#
# Poissons Ratio (x) = 0.13472 0.30322
# Poissons Ratio (y) = 0.12365 0.18903
# Poissons Ratio (z) = 0.77094 0.52362
#
# Static dielectric constant tensor:
#      x y z
#    x 3.558360 0.000000 0.000000 
#    y 0.000000 3.990920 0.000000 
#    z 0.000000 0.000000 3.478830 
# 
# 
# High freq. dielectric constant tensor:
#      x y z
#    x 1.768090 0.000000 0.000000 
#    y 0.000000 1.774540 0.000000 
#    z 0.000000 0.000000 1.763300 
# 
# From -- ./inp_files/11037.got.cif
#   From: 2010.06.25/outbox.cif.g09.slc.cpg/sg58_6_cif.got.tgz:11037.got - 2010.06.26 21:38:00.
