data_PCOD8237840
_publ_section_title
;
Structure prediction by ZEFSAII (Michael W. Deem and Ramdas Pophale) SiO2 
 PCOD8237840
Probable space group: P N N M
;
_chemical_formula_sum "Si O2"
_cell_formula_units_Z 56
_cell_length_a 21.374451
_cell_length_b 15.347381
_cell_length_c 8.454780
_cell_angle_alpha 90.000000
_cell_angle_beta 90.000000
_cell_angle_gamma 90.000000
_cell_volume 2773.521615
_symmetry_space_group_name_H-M "P N N M"
_symmetry_group_IT_number 58
_symmetry_cell_setting 'orthorhombic'
loop_
_space_group_symop_operation_xyz
x,y,z
-x,-y,z
1/2+x,1/2-y,1/2-z
1/2-x,1/2+y,1/2-z
-x,-y,-z
x,y,-z
1/2-x,1/2+y,1/2+z
1/2+x,1/2-y,1/2+z
loop_
_atom_site_type_symbol
_atom_site_label
_atom_site_fract_x
_atom_site_fract_y
_atom_site_fract_z
Si Si1 0.661838 0.196769 0.812069
Si Si2 0.320523 0.997004 0.814104
Si Si3 0.522871 0.217740 0.319710
Si Si4 0.598016 0.478275 0.316241
Si Si5 0.480075 0.385073 0.183013
Si Si6 0.550260 0.928103 0.826767
Si Si7 0.286138 0.619754 0.816631
O O1 0.593203 0.205797 0.739479
O O2 0.705001 0.279350 0.756893
O O3 0.691310 0.103522 0.754198
O O4 0.654051 0.200249 0.000000
O O5 0.386895 0.031564 0.749792
O O6 0.268726 0.067615 0.769178
O O7 0.323787 0.990579 0.000000
O O8 0.524956 0.249470 0.500000
O O9 0.483325 0.282853 0.209181
O O10 0.480795 0.132552 0.304928
O O11 0.617347 0.480901 0.500000
O O12 0.535265 0.424082 0.290114
O O13 0.585563 0.575896 0.248936
O O14 0.651005 0.433089 0.213610
O O15 0.488878 0.409842 0.000000
O O16 0.500000 0.000000 0.863349
O O17 0.564409 0.883856 0.000000
O O18 0.269979 0.620076 0.000000
#
# Coordination Sequence:
#
# PCOD8237840 Si02
#       7
#     8   8   8   8   8   8   8
#     4  10  21  41  66  88 116 163 210 250 306 373
#     4  10  22  42  66  89 119 163 210 259 312 369
#     4  12  23  35  59  93 125 157 197 253 309 365
#     4  11  21  36  59  89 122 157 202 254 306 359
#     4  11  21  36  58  86 122 162 204 249 303 364
#     4  10  20  39  65  89 118 159 202 252 313 373
#     4  11  23  40  64  91 124 167 210 256 311 375
#
# _framework density 20.190936000000001
#
# number of rings (size 3 to 8) (size 9 to 14) (size 15 to 20)
#    0.000    1.286    2.857    5.143    0.000    2.000 
#    2.571    0.000    0.000    0.000    0.000    0.000 
#    0.000    0.000    0.000    0.000    0.000    0.000 
#
# Total GULP energy -693976.690418 kJ/mol
# GULP energy per Si atom -12392.440900 kJ/mol
# Density = 2.014498 g / cm^3
# Si number density = 20.190936 Si / 1000 Ang^3
#
#
#
# Elastic Constant Matrix: (Units=GPa)
#
#
# Indices 1 2 3 4 5 6 
#
# 1 81.2201 58.9346 -6.3910 0.0000 0.0000 0.0000
# 2 58.9346 142.3485 21.9015 0.0000 0.0000 0.0000
# 3 -6.3910 21.9015 36.0448 0.0000 0.0000 0.0000
# 4 0.0000 0.0000 0.0000 30.8437 0.0000 0.0000
# 5 0.0000 0.0000 0.0000 0.0000 30.5743 0.0000
# 6 0.0000 0.0000 0.0000 0.0000 0.0000 34.5048
#
#
#
# Elastic Compliance Matrix: (Units=1/GPa)
#
#
# Indices 1 2 3 4 5 6 
#
# 1 0.020199 -0.009833 0.009556 0.000000 0.000000 0.000000
# 2 -0.009833 0.012536 -0.009361 0.000000 0.000000 0.000000
# 3 0.009556 -0.009361 0.035126 0.000000 0.000000 0.000000
# 4 0.000000 0.000000 0.000000 0.032421 0.000000 0.000000
# 5 0.000000 0.000000 0.000000 0.000000 0.032707 0.000000
# 6 0.000000 0.000000 0.000000 0.000000 0.000000 0.028981
#
#
# Mechanical properties :
#
#
# Convention : Reuss Voigt Hill
#
# Bulk Modulus (GPa) = 20.58215 45.38928 32.98572
# Shear Modulus (GPa) = 25.32392 31.52913 28.42653
#
# Velocity S-wave (km/s) = 3.54534 3.95593 3.75625
# Velocity P-wave (km/s) = 5.19376 6.58746 5.93169
#
# Compressibility (1/GPa) = 0.04858579
#
# Stress axis : x y z
#
# Youngs Moduli (GPa) = 49.50676 79.76817 28.46934
#
# Poissons Ratio (x) = 0.78437 -0.27206
# Poissons Ratio (y) = 0.48681 0.26650
# Poissons Ratio (z) = -0.47310 0.74669
#
# Static dielectric constant tensor:
#      x y z
#    x 3.664110 0.000000 0.000000 
#    y 0.000000 4.186970 0.000000 
#    z 0.000000 0.000000 3.499940 
# 
# 
# High freq. dielectric constant tensor:
#      x y z
#    x 1.767540 0.000000 0.000000 
#    y 0.000000 1.800870 0.000000 
#    z 0.000000 0.000000 1.784660 
# 
# From -- ./inp_files/9044.got.cif
#   From: 2010.06.25/outbox.cif.g09.slc.cpg/sg58_5_cif.got.tgz:9044.got - 2010.06.26 21:38:00.
