data_PCOD8237343
_publ_section_title
;
Structure prediction by ZEFSAII (Michael W. Deem and Ramdas Pophale) SiO2 
 PCOD8237343
Probable space group: P N N M
;
_chemical_formula_sum "Si O2"
_cell_formula_units_Z 48
_cell_length_a 11.960964
_cell_length_b 23.932477
_cell_length_c 8.435939
_cell_angle_alpha 90.000000
_cell_angle_beta 90.000000
_cell_angle_gamma 90.000000
_cell_volume 2414.833901
_symmetry_space_group_name_H-M "P N N M"
_symmetry_group_IT_number 58
_symmetry_cell_setting 'orthorhombic'
loop_
_space_group_symop_operation_xyz
x,y,z
-x,-y,z
1/2+x,1/2-y,1/2-z
1/2-x,1/2+y,1/2-z
-x,-y,-z
x,y,-z
1/2-x,1/2+y,1/2+z
1/2+x,1/2-y,1/2+z
loop_
_atom_site_type_symbol
_atom_site_label
_atom_site_fract_x
_atom_site_fract_y
_atom_site_fract_z
Si Si1 0.141257 0.643875 0.814402
Si Si2 0.220501 0.921598 0.687951
Si Si3 0.845829 0.794083 0.813962
Si Si4 0.106337 0.329824 0.811968
Si Si5 0.764842 0.958085 0.815970
Si Si6 0.030555 0.103025 0.314637
O O1 0.219305 0.687472 0.721442
O O2 0.179239 0.580586 0.781466
O O3 0.015789 0.652252 0.751022
O O4 0.150759 0.656583 0.000000
O O5 0.228435 0.928712 0.500000
O O6 0.302614 0.873540 0.753059
O O7 0.095931 0.905550 0.742089
O O8 0.259028 0.978513 0.769821
O O9 0.863929 0.731721 0.748019
O O10 0.933138 0.833920 0.724133
O O11 0.869620 0.798239 0.000000
O O12 0.110590 0.329963 0.000000
O O13 0.892427 0.941666 0.776004
O O14 0.742483 0.948305 0.000000
O O15 0.044212 0.091522 0.500000
#
# Coordination Sequence:
#
# PCOD8237343 Si02
#       6
#     8   8   8   8   8   8
#     4  10  20  38  60  81 108 148 191 224 270 337
#     4  10  21  38  58  82 112 148 190 230 272 330
#     4  10  20  36  58  83 114 146 182 231 282 325
#     4   9  21  38  57  82 112 149 187 227 276 330
#     4  11  22  37  57  83 115 147 182 233 286 328
#     4  10  20  35  59  86 111 147 190 229 274 331
#
# _framework density 19.877144000000001
#
# number of rings (size 3 to 8) (size 9 to 14) (size 15 to 20)
#    0.000    2.000    0.000    5.500    2.333    4.000 
#    0.000    9.167    0.000    0.000    0.000    0.000 
#    0.000    0.000    0.000    0.000    0.000    0.000 
#
# Total GULP energy -595383.931585 kJ/mol
# GULP energy per Si atom -12403.831908 kJ/mol
# Density = 1.983190 g / cm^3
# Si number density = 19.877144 Si / 1000 Ang^3
#
#
#
# Elastic Constant Matrix: (Units=GPa)
#
#
# Indices 1 2 3 4 5 6 
#
# 1 104.5376 58.2142 0.9434 0.0000 0.0000 0.0000
# 2 58.2142 151.5460 3.9080 0.0000 0.0000 0.0000
# 3 0.9434 3.9080 35.0209 0.0000 0.0000 0.0000
# 4 0.0000 0.0000 0.0000 29.1210 0.0000 0.0000
# 5 0.0000 0.0000 0.0000 0.0000 15.1056 0.0000
# 6 0.0000 0.0000 0.0000 0.0000 0.0000 21.3671
#
#
#
# Elastic Compliance Matrix: (Units=1/GPa)
#
#
# Indices 1 2 3 4 5 6 
#
# 1 0.012170 -0.004680 0.000194 0.000000 0.000000 0.000000
# 2 -0.004680 0.008417 -0.000813 0.000000 0.000000 0.000000
# 3 0.000194 -0.000813 0.028640 0.000000 0.000000 0.000000
# 4 0.000000 0.000000 0.000000 0.034339 0.000000 0.000000
# 5 0.000000 0.000000 0.000000 0.000000 0.066201 0.000000
# 6 0.000000 0.000000 0.000000 0.000000 0.000000 0.046801
#
#
# Mechanical properties :
#
#
# Convention : Reuss Voigt Hill
#
# Bulk Modulus (GPa) = 25.88674 46.35954 36.12314
# Shear Modulus (GPa) = 22.72283 28.32134 25.52209
#
# Velocity S-wave (km/s) = 3.38474 3.77877 3.58717
# Velocity P-wave (km/s) = 5.32230 6.51249 5.94724
#
# Compressibility (1/GPa) = 0.03862982
#
# Stress axis : x y z
#
# Youngs Moduli (GPa) = 82.16657 118.80123 34.91638
#
# Poissons Ratio (x) = 0.55600 -0.00679
# Poissons Ratio (y) = 0.38455 0.02840
# Poissons Ratio (z) = -0.01597 0.09661
#
# Static dielectric constant tensor:
#      x y z
#    x 3.755700 0.000000 0.000000 
#    y 0.000000 3.746580 0.000000 
#    z 0.000000 0.000000 3.432990 
# 
# 
# High freq. dielectric constant tensor:
#      x y z
#    x 1.776260 0.000000 0.000000 
#    y 0.000000 1.784020 0.000000 
#    z 0.000000 0.000000 1.762840 
# 
# From -- ./inp_files/4232.got.cif
#   From: 2010.06.25/outbox.cif.g09.slc.cpg/sg58_3_cif.got.tgz:4232.got - 2010.06.26 21:38:00.
