data_PCOD8237395
_publ_section_title
;
Structure prediction by ZEFSAII (Michael W. Deem and Ramdas Pophale) SiO2 
 PCOD8237395
Probable space group: P N N M
;
_chemical_formula_sum "Si O2"
_cell_formula_units_Z 56
_cell_length_a 16.206293
_cell_length_b 19.979880
_cell_length_c 9.060307
_cell_angle_alpha 90.000000
_cell_angle_beta 90.000000
_cell_angle_gamma 90.000000
_cell_volume 2933.725498
_symmetry_space_group_name_H-M "P N N M"
_symmetry_group_IT_number 58
_symmetry_cell_setting 'orthorhombic'
loop_
_space_group_symop_operation_xyz
x,y,z
-x,-y,z
1/2+x,1/2-y,1/2-z
1/2-x,1/2+y,1/2-z
-x,-y,-z
x,y,-z
1/2-x,1/2+y,1/2+z
1/2+x,1/2-y,1/2+z
loop_
_atom_site_type_symbol
_atom_site_label
_atom_site_fract_x
_atom_site_fract_y
_atom_site_fract_z
Si Si1 0.567552 0.553996 0.326419
Si Si2 0.737922 0.518654 0.826464
Si Si3 0.247396 0.762584 0.833202
Si Si4 0.060407 0.796987 0.833356
Si Si5 0.646614 0.119561 0.827177
Si Si6 0.805552 0.376210 0.825972
Si Si7 0.966498 0.335732 0.671121
O O1 0.500000 0.500000 0.274589
O O2 0.586011 0.548519 0.500000
O O3 0.652117 0.541289 0.241663
O O4 0.532384 0.628024 0.286704
O O5 0.815912 0.557076 0.758984
O O6 0.752351 0.440946 0.787744
O O7 0.735441 0.531508 0.000000
O O8 0.158925 0.797480 0.821016
O O9 0.313377 0.812327 0.758540
O O10 0.244041 0.688390 0.761130
O O11 0.276439 0.752712 0.000000
O O12 0.021514 0.740210 0.729492
O O13 0.032246 0.780928 0.000000
O O14 0.549163 0.121936 0.801159
O O15 0.669062 0.112414 0.000000
O O16 0.895469 0.377539 0.752111
O O17 0.821304 0.367624 0.000000
O O18 0.944727 0.330493 0.500000
#
# Coordination Sequence:
#
# PCOD8237395 Si02
#       7
#     8   8   8   8   8   8   8
#     4  10  21  38  60  84 114 154 191 225 281 351
#     4  11  23  37  57  85 115 150 191 240 288 332
#     4   8  14  31  57  74  94 142 190 221 267 334
#     4   9  17  34  57  77 106 146 182 223 280 339
#     4  10  20  36  57  81 111 148 191 234 285 346
#     4   9  20  38  56  77 112 154 191 229 286 346
#     4  10  21  34  55  86 112 143 190 244 286 326
#
# _framework density 19.088356999999998
#
# number of rings (size 3 to 8) (size 9 to 14) (size 15 to 20)
#    0.000    2.429    1.429    1.714    0.000    4.857 
#    0.000    4.286    0.000    0.000    0.000    0.000 
#    0.000    0.000    0.000    0.000    0.000    0.000 
#
# Total GULP energy -694233.739474 kJ/mol
# GULP energy per Si atom -12397.031062 kJ/mol
# Density = 1.904491 g / cm^3
# Si number density = 19.088357 Si / 1000 Ang^3
#
#
#
# Elastic Constant Matrix: (Units=GPa)
#
#
# Indices 1 2 3 4 5 6 
#
# 1 36.2056 16.4657 21.5381 0.0000 0.0000 0.0000
# 2 16.4657 90.5506 32.9089 0.0000 0.0000 0.0000
# 3 21.5381 32.9089 57.7722 0.0000 0.0000 0.0000
# 4 0.0000 0.0000 0.0000 28.1775 0.0000 0.0000
# 5 0.0000 0.0000 0.0000 0.0000 24.1484 0.0000
# 6 0.0000 0.0000 0.0000 0.0000 0.0000 29.4971
#
#
#
# Elastic Compliance Matrix: (Units=1/GPa)
#
#
# Indices 1 2 3 4 5 6 
#
# 1 0.035803 -0.002093 -0.012156 0.000000 0.000000 0.000000
# 2 -0.002093 0.014049 -0.007223 0.000000 0.000000 0.000000
# 3 -0.012156 -0.007223 0.025955 0.000000 0.000000 0.000000
# 4 0.000000 0.000000 0.000000 0.035489 0.000000 0.000000
# 5 0.000000 0.000000 0.000000 0.000000 0.041411 0.000000
# 6 0.000000 0.000000 0.000000 0.000000 0.000000 0.033902
#
#
# Mechanical properties :
#
#
# Convention : Reuss Voigt Hill
#
# Bulk Modulus (GPa) = 30.42712 36.26155 33.34434
# Shear Modulus (GPa) = 20.78951 23.93897 22.36424
#
# Velocity S-wave (km/s) = 3.30376 3.54519 3.42660
# Velocity P-wave (km/s) = 5.52520 5.98295 5.75863
#
# Compressibility (1/GPa) = 0.03286541
#
# Stress axis : x y z
#
# Youngs Moduli (GPa) = 27.93070 71.17945 38.52767
#
# Poissons Ratio (x) = 0.14895 0.46833
# Poissons Ratio (y) = 0.05845 0.27827
# Poissons Ratio (z) = 0.33952 0.51410
#
# Static dielectric constant tensor:
#      x y z
#    x 3.313120 0.000000 0.000000 
#    y 0.000000 3.789420 0.000000 
#    z 0.000000 0.000000 3.331620 
# 
# 
# High freq. dielectric constant tensor:
#      x y z
#    x 1.730200 0.000000 0.000000 
#    y 0.000000 1.756070 0.000000 
#    z 0.000000 0.000000 1.722460 
# 
# From -- ./inp_files/6341.got.cif
#   From: 2010.06.25/outbox.cif.g09.slc.cpg/sg58_4_cif.got.tgz:6341.got - 2010.06.26 21:38:00.
