data_PCOD8237841
_publ_section_title
;
Structure prediction by ZEFSAII (Michael W. Deem and Ramdas Pophale) SiO2 
 PCOD8237841
Probable space group: P N N M
;
_chemical_formula_sum "Si O2"
_cell_formula_units_Z 48
_cell_length_a 27.100160
_cell_length_b 9.954809
_cell_length_c 8.853245
_cell_angle_alpha 90.000000
_cell_angle_beta 90.000000
_cell_angle_gamma 90.000000
_cell_volume 2388.401139
_symmetry_space_group_name_H-M "P N N M"
_symmetry_group_IT_number 58
_symmetry_cell_setting 'orthorhombic'
loop_
_space_group_symop_operation_xyz
x,y,z
-x,-y,z
1/2+x,1/2-y,1/2-z
1/2-x,1/2+y,1/2-z
-x,-y,-z
x,y,-z
1/2-x,1/2+y,1/2+z
1/2+x,1/2-y,1/2+z
loop_
_atom_site_type_symbol
_atom_site_label
_atom_site_fract_x
_atom_site_fract_y
_atom_site_fract_z
Si Si1 0.040889 0.283304 0.175816
Si Si2 0.886036 0.956544 0.824440
Si Si3 0.707065 0.100273 0.677917
Si Si4 0.893037 0.506834 0.677805
Si Si5 0.571736 0.745701 0.676201
Si Si6 0.714661 0.376701 0.822587
O O1 0.058573 0.412206 0.269809
O O2 0.985239 0.251452 0.224131
O O3 0.072986 0.153294 0.216182
O O4 0.044679 0.320030 0.000000
O O5 0.907972 0.100216 0.780729
O O6 0.838439 0.931886 0.723648
O O7 0.871217 0.948668 0.000000
O O8 0.700174 0.108962 0.500000
O O9 0.728839 0.240171 0.737555
O O10 0.653976 0.078160 0.750182
O O11 0.744267 0.983714 0.726714
O O12 0.887782 0.511938 0.500000
O O13 0.896582 0.353485 0.731396
O O14 0.578509 0.776366 0.500000
O O15 0.715350 0.349981 0.000000
#
# Coordination Sequence:
#
# PCOD8237841 Si02
#       6
#     8   8   8   8   8   8
#     4  10  20  39  65  91 123 165 211 256 306 369
#     4  10  21  39  65  93 125 164 205 252 306 365
#     4  11  25  45  67  92 124 163 205 249 307 373
#     4  12  25  40  61  91 127 165 209 258 311 362
#     4  10  22  39  62  93 126 166 213 254 302 370
#     4  11  25  43  66  96 125 158 203 254 309 367
#
# _framework density 20.097127
#
# number of rings (size 3 to 8) (size 9 to 14) (size 15 to 20)
#    0.000    1.333    1.667    3.500    2.333    8.000 
#    0.000    0.000    0.000    3.000    0.000    0.000 
#    0.000    0.000    0.000    0.000    0.000    0.000 
#
# Total GULP energy -595558.393644 kJ/mol
# GULP energy per Si atom -12407.466534 kJ/mol
# Density = 2.005139 g / cm^3
# Si number density = 20.097127 Si / 1000 Ang^3
#
#
#
# Elastic Constant Matrix: (Units=GPa)
#
#
# Indices 1 2 3 4 5 6 
#
# 1 78.4474 36.8224 36.0444 0.0000 0.0000 0.0000
# 2 36.8224 129.2948 47.5338 0.0000 0.0000 0.0000
# 3 36.0444 47.5338 77.7817 0.0000 0.0000 0.0000
# 4 0.0000 0.0000 0.0000 30.8905 0.0000 0.0000
# 5 0.0000 0.0000 0.0000 0.0000 23.4099 0.0000
# 6 0.0000 0.0000 0.0000 0.0000 0.0000 37.9144
#
#
#
# Elastic Compliance Matrix: (Units=1/GPa)
#
#
# Indices 1 2 3 4 5 6 
#
# 1 0.016790 -0.002478 -0.006266 0.000000 0.000000 0.000000
# 2 -0.002478 0.010341 -0.005171 0.000000 0.000000 0.000000
# 3 -0.006266 -0.005171 0.018921 0.000000 0.000000 0.000000
# 4 0.000000 0.000000 0.000000 0.032372 0.000000 0.000000
# 5 0.000000 0.000000 0.000000 0.000000 0.042717 0.000000
# 6 0.000000 0.000000 0.000000 0.000000 0.000000 0.026375
#
#
# Mechanical properties :
#
#
# Convention : Reuss Voigt Hill
#
# Bulk Modulus (GPa) = 54.88315 58.48058 56.68186
# Shear Modulus (GPa) = 27.56033 29.45118 28.50576
#
# Velocity S-wave (km/s) = 3.70720 3.83226 3.77025
# Velocity P-wave (km/s) = 6.75964 6.98168 6.87155
#
# Compressibility (1/GPa) = 0.01822053
#
# Stress axis : x y z
#
# Youngs Moduli (GPa) = 59.56075 96.70095 52.85259
#
# Poissons Ratio (x) = 0.23962 0.33118
# Poissons Ratio (y) = 0.14759 0.27332
# Poissons Ratio (z) = 0.37321 0.50008
#
# Static dielectric constant tensor:
#      x y z
#    x 3.724030 0.000000 0.000000 
#    y 0.000000 3.909910 0.000000 
#    z 0.000000 0.000000 3.551490 
# 
# 
# High freq. dielectric constant tensor:
#      x y z
#    x 1.792400 0.000000 0.000000 
#    y 0.000000 1.804320 0.000000 
#    z 0.000000 0.000000 1.777580 
# 
# From -- ./inp_files/2898.got.cif
#   From: 2010.06.25/outbox.cif.g09.slc.cpg/sg58_2_cif.got.tgz:2898.got - 2010.06.26 21:38:00.
