data_PCOD8237316
_publ_section_title
;
Structure prediction by ZEFSAII (Michael W. Deem and Ramdas Pophale) SiO2 
 PCOD8237316
Probable space group: P N N M
;
_chemical_formula_sum "Si O2"
_cell_formula_units_Z 64
_cell_length_a 32.741723
_cell_length_b 10.578994
_cell_length_c 9.448361
_cell_angle_alpha 90.000000
_cell_angle_beta 90.000000
_cell_angle_gamma 90.000000
_cell_volume 3272.671234
_symmetry_space_group_name_H-M "P N N M"
_symmetry_group_IT_number 58
_symmetry_cell_setting 'orthorhombic'
loop_
_space_group_symop_operation_xyz
x,y,z
-x,-y,z
1/2+x,1/2-y,1/2-z
1/2-x,1/2+y,1/2-z
-x,-y,-z
x,y,-z
1/2-x,1/2+y,1/2+z
1/2+x,1/2-y,1/2+z
loop_
_atom_site_type_symbol
_atom_site_label
_atom_site_fract_x
_atom_site_fract_y
_atom_site_fract_z
Si Si1 0.161575 0.786408 0.167005
Si Si2 0.784841 0.978976 0.834997
Si Si3 0.798365 0.475169 0.833000
Si Si4 0.419140 0.731634 0.840635
Si Si5 0.454118 0.007928 0.841757
Si Si6 0.008798 0.143638 0.844862
Si Si7 0.426912 0.226576 0.667127
Si Si8 0.839613 0.739262 0.163092
O O1 0.185811 0.908757 0.223867
O O2 0.179558 0.652531 0.222685
O O3 0.114159 0.800366 0.214433
O O4 0.164290 0.784697 0.000000
O O5 0.744012 0.988047 0.746435
O O6 0.804022 0.841037 0.809877
O O7 0.774996 0.000227 0.000000
O O8 0.825049 0.598780 0.794432
O O9 0.789931 0.469966 0.000000
O O10 0.453801 0.652674 0.761669
O O11 0.376826 0.717040 0.759742
O O12 0.432784 0.874737 0.843017
O O13 0.414127 0.679084 0.000000
O O14 0.425865 0.090523 0.740214
O O15 0.500000 0.000000 0.779089
O O16 0.456021 0.066114 0.000000
O O17 0.967724 0.203998 0.778809
O O18 0.018992 0.204610 0.000000
O O19 0.000000 0.000000 0.871105
O O20 0.427159 0.207006 0.500000
O O21 0.853789 0.742980 0.000000
#
# Coordination Sequence:
#
# PCOD8237316 Si02
#       8
#     8   8   8   8   8   8   8   8
#     4   9  19  35  56  82 112 146 182 227 279 332
#     4  10  21  37  60  85 112 148 184 228 286 343
#     4  10  20  37  59  84 115 147 183 231 282 338
#     4  11  23  38  58  83 114 153 192 235 288 344
#     4  10  20  36  54  76 111 147 181 229 286 334
#     4  10  22  37  57  83 112 151 194 240 284 334
#     4  10  20  35  58  84 109 144 193 234 275 333
#     4  10  22  38  59  86 116 150 192 241 286 336
#
# _framework density 19.555890999999999
#
# number of rings (size 3 to 8) (size 9 to 14) (size 15 to 20)
#    0.000    2.000    1.250    1.875    1.750    3.500 
#    0.000    1.250    0.000    0.000    0.000    0.000 
#    0.000    0.000    0.000    0.000    0.000    0.000 
#
# Total GULP energy -793537.635276 kJ/mol
# GULP energy per Si atom -12399.025551 kJ/mol
# Density = 1.951138 g / cm^3
# Si number density = 19.555891 Si / 1000 Ang^3
#
#
#
# Elastic Constant Matrix: (Units=GPa)
#
#
# Indices 1 2 3 4 5 6 
#
# 1 112.7459 13.4383 48.6930 0.0000 0.0000 0.0000
# 2 13.4383 79.5040 16.3097 0.0000 0.0000 0.0000
# 3 48.6930 16.3097 63.5366 0.0000 0.0000 0.0000
# 4 0.0000 0.0000 0.0000 37.6112 0.0000 0.0000
# 5 0.0000 0.0000 0.0000 0.0000 29.8431 0.0000
# 6 0.0000 0.0000 0.0000 0.0000 0.0000 25.5228
#
#
#
# Elastic Compliance Matrix: (Units=1/GPa)
#
#
# Indices 1 2 3 4 5 6 
#
# 1 0.013260 -0.000165 -0.010119 0.000000 0.000000 0.000000
# 2 -0.000165 0.013279 -0.003282 0.000000 0.000000 0.000000
# 3 -0.010119 -0.003282 0.024337 0.000000 0.000000 0.000000
# 4 0.000000 0.000000 0.000000 0.026588 0.000000 0.000000
# 5 0.000000 0.000000 0.000000 0.000000 0.033509 0.000000
# 6 0.000000 0.000000 0.000000 0.000000 0.000000 0.039181
#
#
# Mechanical properties :
#
#
# Convention : Reuss Voigt Hill
#
# Bulk Modulus (GPa) = 42.11947 45.85207 43.98577
# Shear Modulus (GPa) = 26.99783 30.41847 28.70815
#
# Velocity S-wave (km/s) = 3.71960 3.94821 3.83561
# Velocity P-wave (km/s) = 6.32709 6.65448 6.49285
#
# Compressibility (1/GPa) = 0.02374199
#
# Stress axis : x y z
#
# Youngs Moduli (GPa) = 75.41707 75.30569 41.09015
#
# Poissons Ratio (x) = 0.01245 0.41581
# Poissons Ratio (y) = 0.01247 0.13486
# Poissons Ratio (z) = 0.76318 0.24716
#
# Static dielectric constant tensor:
#      x y z
#    x 3.573620 0.000000 0.000000 
#    y 0.000000 3.753080 0.000000 
#    z 0.000000 0.000000 3.595720 
# 
# 
# High freq. dielectric constant tensor:
#      x y z
#    x 1.770160 0.000000 0.000000 
#    y 0.000000 1.765610 0.000000 
#    z 0.000000 0.000000 1.743790 
# 
# From -- ./inp_files/11029.got.cif
#   From: 2010.06.25/outbox.cif.g09.slc.cpg/sg58_6_cif.got.tgz:11029.got - 2010.06.26 21:38:00.
