data_PCOD8237485
_publ_section_title
;
Structure prediction by ZEFSAII (Michael W. Deem and Ramdas Pophale) SiO2 
 PCOD8237485
Probable space group: P N N M
;
_chemical_formula_sum "Si O2"
_cell_formula_units_Z 36
_cell_length_a 21.371378
_cell_length_b 7.295197
_cell_length_c 12.096073
_cell_angle_alpha 90.000000
_cell_angle_beta 90.000000
_cell_angle_gamma 90.000000
_cell_volume 1885.879541
_symmetry_space_group_name_H-M "P N N M"
_symmetry_group_IT_number 58
_symmetry_cell_setting 'orthorhombic'
loop_
_space_group_symop_operation_xyz
x,y,z
-x,-y,z
1/2+x,1/2-y,1/2-z
1/2-x,1/2+y,1/2-z
-x,-y,-z
x,y,-z
1/2-x,1/2+y,1/2+z
1/2+x,1/2-y,1/2+z
loop_
_atom_site_type_symbol
_atom_site_label
_atom_site_fract_x
_atom_site_fract_y
_atom_site_fract_z
Si Si1 0.552809 0.359335 0.372318
Si Si2 0.667722 0.306055 0.226356
Si Si3 0.720479 0.666320 0.128350
Si Si4 0.614267 0.950211 0.127377
Si Si5 0.000000 0.500000 0.224068
O O1 0.500000 0.500000 0.331682
O O2 0.569248 0.391032 0.500000
O O3 0.614866 0.399474 0.302143
O O4 0.529488 0.152528 0.354982
O O5 0.699095 0.459692 0.150899
O O6 0.717315 0.205839 0.303908
O O7 0.637722 0.157398 0.144495
O O8 0.667106 0.807853 0.165652
O O9 0.736624 0.689474 0.000000
O O10 0.552880 0.908850 0.199135
O O11 0.596603 0.920617 0.000000
#
# Coordination Sequence:
#
# PCOD8237485 Si02
#       5
#     8   8   8   8   4
#     4  10  21  37  57  83 114 149 189 235 287 340
#     4  11  21  38  58  82 115 152 190 238 287 343
#     4  11  22  37  57  83 114 150 192 237 286 341
#     4  10  21  37  58  84 114 148 188 235 285 338
#     4  10  20  36  60  82 112 148 188 234 282 338
#
# _framework density 19.089236
#
# number of rings (size 3 to 8) (size 9 to 14) (size 15 to 20)
#    0.000    1.556    2.222    3.333    0.000    0.000 
#    0.000    0.000    0.000   10.667    0.000    0.000 
#    0.000    0.000    0.000    0.000    0.000    0.000 
#
# Total GULP energy -446626.377621 kJ/mol
# GULP energy per Si atom -12406.288267 kJ/mol
# Density = 1.904579 g / cm^3
# Si number density = 19.089236 Si / 1000 Ang^3
#
#
#
# Elastic Constant Matrix: (Units=GPa)
#
#
# Indices 1 2 3 4 5 6 
#
# 1 67.9075 0.7663 10.2970 0.0000 0.0000 0.0000
# 2 0.7663 56.9832 0.8027 0.0000 0.0000 0.0000
# 3 10.2970 0.8027 45.9708 0.0000 0.0000 0.0000
# 4 0.0000 0.0000 0.0000 26.2225 0.0000 0.0000
# 5 0.0000 0.0000 0.0000 0.0000 9.0493 0.0000
# 6 0.0000 0.0000 0.0000 0.0000 0.0000 36.3922
#
#
#
# Elastic Compliance Matrix: (Units=1/GPa)
#
#
# Indices 1 2 3 4 5 6 
#
# 1 0.015245 -0.000157 -0.003412 0.000000 0.000000 0.000000
# 2 -0.000157 0.017555 -0.000271 0.000000 0.000000 0.000000
# 3 -0.003412 -0.000271 0.022522 0.000000 0.000000 0.000000
# 4 0.000000 0.000000 0.000000 0.038135 0.000000 0.000000
# 5 0.000000 0.000000 0.000000 0.000000 0.110506 0.000000
# 6 0.000000 0.000000 0.000000 0.000000 0.000000 0.027478
#
#
# Mechanical properties :
#
#
# Convention : Reuss Voigt Hill
#
# Bulk Modulus (GPa) = 20.99017 21.62149 21.30583
# Shear Modulus (GPa) = 19.60766 24.93250 22.27008
#
# Velocity S-wave (km/s) = 3.20841 3.61793 3.41930
# Velocity P-wave (km/s) = 4.97442 5.36690 5.17438
#
# Compressibility (1/GPa) = 0.04764134
#
# Stress axis : x y z
#
# Youngs Moduli (GPa) = 65.59508 56.96393 44.40118
#
# Poissons Ratio (x) = 0.00894 0.15150
# Poissons Ratio (y) = 0.01030 0.01205
# Poissons Ratio (z) = 0.22381 0.01546
#
# Static dielectric constant tensor:
#      x y z
#    x 3.587180 0.000000 0.000000 
#    y 0.000000 3.433830 0.000000 
#    z 0.000000 0.000000 3.339650 
# 
# 
# High freq. dielectric constant tensor:
#      x y z
#    x 1.753250 0.000000 0.000000 
#    y 0.000000 1.746340 0.000000 
#    z 0.000000 0.000000 1.743260 
# 
# From -- ./inp_files/11665.got.cif
#   From: 2010.06.25/outbox.cif.g09.slc.cpg/sg58_6_cif.got.tgz:11665.got - 2010.06.26 21:38:00.
