data_PCOD8237985
_publ_section_title
;
Structure prediction by ZEFSAII (Michael W. Deem and Ramdas Pophale) SiO2 
 PCOD8237985
Probable space group: P N N M
;
_chemical_formula_sum "Si O2"
_cell_formula_units_Z 48
_cell_length_a 23.490824
_cell_length_b 11.802437
_cell_length_c 9.120667
_cell_angle_alpha 90.000000
_cell_angle_beta 90.000000
_cell_angle_gamma 90.000000
_cell_volume 2528.695535
_symmetry_space_group_name_H-M "P N N M"
_symmetry_group_IT_number 58
_symmetry_cell_setting 'orthorhombic'
loop_
_space_group_symop_operation_xyz
x,y,z
-x,-y,z
1/2+x,1/2-y,1/2-z
1/2-x,1/2+y,1/2-z
-x,-y,-z
x,y,-z
1/2-x,1/2+y,1/2+z
1/2+x,1/2-y,1/2+z
loop_
_atom_site_type_symbol
_atom_site_label
_atom_site_fract_x
_atom_site_fract_y
_atom_site_fract_z
Si Si1 0.361434 0.857480 0.829937
Si Si2 0.868924 0.982131 0.829496
Si Si3 0.662981 0.887632 0.173469
Si Si4 0.950738 0.780441 0.170719
Si Si5 0.721713 0.344579 0.172261
Si Si6 0.580866 0.723988 0.672225
O O1 0.419498 0.824120 0.748508
O O2 0.311025 0.771179 0.789184
O O3 0.341681 0.981354 0.780606
O O4 0.375870 0.853371 0.000000
O O5 0.920978 0.899231 0.788235
O O6 0.813249 0.951191 0.735684
O O7 0.886887 0.108363 0.788053
O O8 0.852852 0.971198 0.000000
O O9 0.717750 0.834002 0.250422
O O10 0.607399 0.824799 0.233646
O O11 0.667813 0.871824 0.000000
O O12 0.015677 0.787663 0.222674
O O13 0.946910 0.756300 0.000000
O O14 0.730394 0.361323 0.000000
O O15 0.585918 0.750853 0.500000
#
# Coordination Sequence:
#
# PCOD8237985 Si02
#       6
#     8   8   8   8   8   8
#     4   9  21  40  58  77 109 148 183 226 282 335
#     4   9  18  35  59  85 114 148 183 226 281 332
#     4  11  24  39  55  80 112 150 190 228 279 336
#     4   9  18  35  60  86 111 145 188 229 272 329
#     4  10  21  38  59  82 108 142 186 234 282 330
#     4  10  21  36  56  85 118 148 183 229 277 325
#
# _framework density 18.982119000000001
#
# number of rings (size 3 to 8) (size 9 to 14) (size 15 to 20)
#    0.000    2.333    0.000    1.500    2.333    6.000 
#    0.000    3.333    0.000    5.000    0.000    0.000 
#    0.000    0.000    0.000    0.000    0.000    0.000 
#
# Total GULP energy -595409.838571 kJ/mol
# GULP energy per Si atom -12404.371637 kJ/mol
# Density = 1.893892 g / cm^3
# Si number density = 18.982119 Si / 1000 Ang^3
#
#
#
# Elastic Constant Matrix: (Units=GPa)
#
#
# Indices 1 2 3 4 5 6 
#
# 1 75.6874 28.7586 34.2992 0.0000 0.0000 0.0000
# 2 28.7586 96.7034 37.8020 0.0000 0.0000 0.0000
# 3 34.2992 37.8020 57.3868 0.0000 0.0000 0.0000
# 4 0.0000 0.0000 0.0000 29.6231 0.0000 0.0000
# 5 0.0000 0.0000 0.0000 0.0000 36.1692 0.0000
# 6 0.0000 0.0000 0.0000 0.0000 0.0000 22.1006
#
#
#
# Elastic Compliance Matrix: (Units=1/GPa)
#
#
# Indices 1 2 3 4 5 6 
#
# 1 0.018296 -0.001571 -0.009900 0.000000 0.000000 0.000000
# 2 -0.001571 0.014062 -0.008324 0.000000 0.000000 0.000000
# 3 -0.009900 -0.008324 0.028826 0.000000 0.000000 0.000000
# 4 0.000000 0.000000 0.000000 0.033757 0.000000 0.000000
# 5 0.000000 0.000000 0.000000 0.000000 0.027648 0.000000
# 6 0.000000 0.000000 0.000000 0.000000 0.000000 0.045248
#
#
# Mechanical properties :
#
#
# Convention : Reuss Voigt Hill
#
# Bulk Modulus (GPa) = 46.31056 47.94411 47.12734
# Shear Modulus (GPa) = 23.29649 26.17311 24.73480
#
# Velocity S-wave (km/s) = 3.50706 3.71729 3.61371
# Velocity P-wave (km/s) = 6.39134 6.61337 6.50330
#
# Compressibility (1/GPa) = 0.02159335
#
# Stress axis : x y z
#
# Youngs Moduli (GPa) = 54.65799 71.11370 34.69084
#
# Poissons Ratio (x) = 0.11171 0.34345
# Poissons Ratio (y) = 0.08586 0.28877
# Poissons Ratio (z) = 0.54113 0.59195
#
# Static dielectric constant tensor:
#      x y z
#    x 3.546500 0.000000 0.000000 
#    y 0.000000 3.527830 0.000000 
#    z 0.000000 0.000000 3.420520 
# 
# 
# High freq. dielectric constant tensor:
#      x y z
#    x 1.744440 0.000000 0.000000 
#    y 0.000000 1.738990 0.000000 
#    z 0.000000 0.000000 1.733760 
# 
# From -- ./inp_files/4178.got.cif
#   From: 2010.06.25/outbox.cif.g09.slc.cpg/sg58_3_cif.got.tgz:4178.got - 2010.06.26 21:38:00.
