data_PCOD8237944
_publ_section_title
;
Structure prediction by ZEFSAII (Michael W. Deem and Ramdas Pophale) SiO2 
 PCOD8237944
Probable space group: P N N M
;
_chemical_formula_sum "Si O2"
_cell_formula_units_Z 64
_cell_length_a 18.790383
_cell_length_b 23.160813
_cell_length_c 8.869808
_cell_angle_alpha 90.000000
_cell_angle_beta 90.000000
_cell_angle_gamma 90.000000
_cell_volume 3860.145292
_symmetry_space_group_name_H-M "P N N M"
_symmetry_group_IT_number 58
_symmetry_cell_setting 'orthorhombic'
loop_
_space_group_symop_operation_xyz
x,y,z
-x,-y,z
1/2+x,1/2-y,1/2-z
1/2-x,1/2+y,1/2-z
-x,-y,-z
x,y,-z
1/2-x,1/2+y,1/2+z
1/2+x,1/2-y,1/2+z
loop_
_atom_site_type_symbol
_atom_site_label
_atom_site_fract_x
_atom_site_fract_y
_atom_site_fract_z
Si Si1 0.850575 0.554570 0.174947
Si Si2 0.630879 0.721672 0.676691
Si Si3 0.290025 0.175552 0.827383
Si Si4 0.650265 0.264002 0.672638
Si Si5 0.872962 0.436960 0.674723
Si Si6 0.505457 0.118968 0.322744
Si Si7 0.492715 0.756053 0.177313
Si Si8 0.251606 0.842467 0.326096
O O1 0.841247 0.498012 0.275468
O O2 0.781837 0.594127 0.208339
O O3 0.921092 0.588844 0.223310
O O4 0.854817 0.537207 0.000000
O O5 0.619695 0.718627 0.500000
O O6 0.664980 0.783112 0.719690
O O7 0.554465 0.715453 0.755932
O O8 0.681196 0.668797 0.728041
O O9 0.205683 0.183679 0.797760
O O10 0.311136 0.109822 0.794217
O O11 0.307557 0.193324 0.000000
O O12 0.624122 0.262466 0.500000
O O13 0.582320 0.272547 0.778401
O O14 0.687642 0.203754 0.715580
O O15 0.894628 0.438416 0.500000
O O16 0.942513 0.423326 0.772326
O O17 0.501262 0.130482 0.500000
O O18 0.498860 0.179553 0.239705
O O19 0.500264 0.758555 0.000000
O O20 0.230487 0.834968 0.500000
#
# Coordination Sequence:
#
# PCOD8237944 Si02
#       8
#     8   8   8   8   8   8   8   8
#     4  10  21  36  52  70  99 140 176 208 250 297
#     4  11  21  32  51  75  99 130 167 207 251 303
#     4   9  19  35  51  70 100 134 165 206 255 298
#     4   9  17  33  53  71  96 131 166 202 249 305
#     4  11  22  34  50  74 102 136 174 213 250 290
#     4  11  21  35  50  69  98 138 179 209 244 295
#     4  12  22  32  49  75 104 133 165 207 255 300
#     4   9  18  35  53  71  99 133 167 207 255 298
#
# _framework density 16.579688000000001
#
# number of rings (size 3 to 8) (size 9 to 14) (size 15 to 20)
#    0.000    1.750    2.500    4.125    0.000    5.500 
#    0.000    0.000    0.000    0.000    0.000    0.875 
#    0.000    7.000    0.000    0.000    0.000    0.000 
#
# Total GULP energy -793785.841696 kJ/mol
# GULP energy per Si atom -12402.903776 kJ/mol
# Density = 1.654195 g / cm^3
# Si number density = 16.579688 Si / 1000 Ang^3
#
#
#
# Elastic Constant Matrix: (Units=GPa)
#
#
# Indices 1 2 3 4 5 6 
#
# 1 85.7864 29.3868 42.1997 0.0000 0.0000 0.0000
# 2 29.3868 54.2880 24.3797 0.0000 0.0000 0.0000
# 3 42.1997 24.3797 88.2498 0.0000 0.0000 0.0000
# 4 0.0000 0.0000 0.0000 21.4445 0.0000 0.0000
# 5 0.0000 0.0000 0.0000 0.0000 27.2187 0.0000
# 6 0.0000 0.0000 0.0000 0.0000 0.0000 20.7926
#
#
#
# Elastic Compliance Matrix: (Units=1/GPa)
#
#
# Indices 1 2 3 4 5 6 
#
# 1 0.016950 -0.006319 -0.006359 0.000000 0.000000 0.000000
# 2 -0.006319 0.023385 -0.003439 0.000000 0.000000 0.000000
# 3 -0.006359 -0.003439 0.015322 0.000000 0.000000 0.000000
# 4 0.000000 0.000000 0.000000 0.046632 0.000000 0.000000
# 5 0.000000 0.000000 0.000000 0.000000 0.036739 0.000000
# 6 0.000000 0.000000 0.000000 0.000000 0.000000 0.048094
#
#
# Mechanical properties :
#
#
# Convention : Reuss Voigt Hill
#
# Bulk Modulus (GPa) = 42.69326 46.69520 44.69423
# Shear Modulus (GPa) = 22.01043 22.71503 22.36273
#
# Velocity S-wave (km/s) = 3.64751 3.70544 3.67659
# Velocity P-wave (km/s) = 6.59889 6.82146 6.71110
#
# Compressibility (1/GPa) = 0.02342290
#
# Stress axis : x y z
#
# Youngs Moduli (GPa) = 58.99749 42.76208 65.26404
#
# Poissons Ratio (x) = 0.27023 0.41504
# Poissons Ratio (y) = 0.37282 0.22441
# Poissons Ratio (z) = 0.37519 0.14704
#
# Static dielectric constant tensor:
#      x y z
#    x 3.246370 0.000000 0.000000 
#    y 0.000000 2.982570 0.000000 
#    z 0.000000 0.000000 3.112910 
# 
# 
# High freq. dielectric constant tensor:
#      x y z
#    x 1.635370 0.000000 0.000000 
#    y 0.000000 1.610740 0.000000 
#    z 0.000000 0.000000 1.644710 
# 
# From -- ./inp_files/8478.got.cif
#   From: 2010.06.25/outbox.cif.g09.slc.cpg/sg58_5_cif.got.tgz:8478.got - 2010.06.26 21:38:00.
