data_PCOD8237697
_publ_section_title
;
Structure prediction by ZEFSAII (Michael W. Deem and Ramdas Pophale) SiO2 
 PCOD8237697
Probable space group: P N N M
;
_chemical_formula_sum "Si O2"
_cell_formula_units_Z 56
_cell_length_a 9.888050
_cell_length_b 20.883110
_cell_length_c 13.825242
_cell_angle_alpha 90.000000
_cell_angle_beta 90.000000
_cell_angle_gamma 90.000000
_cell_volume 2854.818957
_symmetry_space_group_name_H-M "P N N M"
_symmetry_group_IT_number 58
_symmetry_cell_setting 'orthorhombic'
loop_
_space_group_symop_operation_xyz
x,y,z
-x,-y,z
1/2+x,1/2-y,1/2-z
1/2-x,1/2+y,1/2-z
-x,-y,-z
x,y,-z
1/2-x,1/2+y,1/2+z
1/2+x,1/2-y,1/2+z
loop_
_atom_site_type_symbol
_atom_site_label
_atom_site_fract_x
_atom_site_fract_y
_atom_site_fract_z
Si Si1 0.733961 0.885480 0.775384
Si Si2 0.104970 0.947850 0.389991
Si Si3 0.221760 0.852981 0.110791
Si Si4 0.521261 0.671546 0.229865
Si Si5 0.983574 0.301358 0.385675
Si Si6 0.863142 0.468008 0.110605
Si Si7 0.653502 0.501711 0.611161
O O1 0.869714 0.844835 0.761886
O O2 0.630820 0.844315 0.837490
O O3 0.672526 0.904202 0.671022
O O4 0.757570 0.952048 0.829813
O O5 0.068200 0.929838 0.500000
O O6 0.094890 0.885363 0.325960
O O7 0.253183 0.976337 0.379458
O O8 0.000000 0.000000 0.349764
O O9 0.371623 0.831505 0.138562
O O10 0.111469 0.814954 0.174839
O O11 0.214760 0.928682 0.129219
O O12 0.186835 0.836355 0.000000
O O13 0.521201 0.731357 0.159280
O O14 0.956903 0.297281 0.500000
O O15 0.000000 0.500000 0.149187
O O16 0.876787 0.444624 0.000000
O O17 0.500000 0.500000 0.649192
O O18 0.658887 0.480726 0.500000
#
# Coordination Sequence:
#
# PCOD8237697 Si02
#       7
#     8   8   8   8   8   8   8
#     4  12  24  38  67  95 124 167 210 260 310 378
#     4  10  20  37  64  96 124 157 207 262 311 366
#     4  10  23  42  65  93 129 164 207 258 313 372
#     4  12  23  41  67  92 124 167 214 253 311 370
#     4  11  27  46  61  89 129 170 211 258 306 369
#     4  10  23  40  60  94 132 162 200 258 320 374
#     4  10  20  37  64  97 127 160 202 259 316 368
#
# _framework density 19.615955
#
# number of rings (size 3 to 8) (size 9 to 14) (size 15 to 20)
#    0.000    1.286    2.857    2.571    4.000    1.143 
#    0.000    2.857    0.000    0.000    0.000    0.000 
#    0.000    0.000    0.000    0.000    0.000    0.000 
#
# Total GULP energy -694675.002809 kJ/mol
# GULP energy per Si atom -12404.910764 kJ/mol
# Density = 1.957131 g / cm^3
# Si number density = 19.615955 Si / 1000 Ang^3
#
#
#
# Elastic Constant Matrix: (Units=GPa)
#
#
# Indices 1 2 3 4 5 6 
#
# 1 141.0232 52.7379 63.5978 0.0000 0.0000 0.0000
# 2 52.7379 89.9394 54.4984 0.0000 0.0000 0.0000
# 3 63.5978 54.4984 117.5411 0.0000 0.0000 0.0000
# 4 0.0000 0.0000 0.0000 49.0584 0.0000 0.0000
# 5 0.0000 0.0000 0.0000 0.0000 70.8522 0.0000
# 6 0.0000 0.0000 0.0000 0.0000 0.0000 19.0901
#
#
#
# Elastic Compliance Matrix: (Units=1/GPa)
#
#
# Indices 1 2 3 4 5 6 
#
# 1 0.010178 -0.003659 -0.003810 0.000000 0.000000 0.000000
# 2 -0.003659 0.016778 -0.005800 0.000000 0.000000 0.000000
# 3 -0.003810 -0.005800 0.013258 0.000000 0.000000 0.000000
# 4 0.000000 0.000000 0.000000 0.020384 0.000000 0.000000
# 5 0.000000 0.000000 0.000000 0.000000 0.014114 0.000000
# 6 0.000000 0.000000 0.000000 0.000000 0.000000 0.052383
#
#
# Mechanical properties :
#
#
# Convention : Reuss Voigt Hill
#
# Bulk Modulus (GPa) = 73.11798 76.68577 74.90187
# Shear Modulus (GPa) = 31.60716 39.64479 35.62597
#
# Velocity S-wave (km/s) = 4.01845 4.50048 4.26628
# Velocity P-wave (km/s) = 7.67374 8.13537 7.90792
#
# Compressibility (1/GPa) = 0.01367653
#
# Stress axis : x y z
#
# Youngs Moduli (GPa) = 98.25342 59.60043 75.42461
#
# Poissons Ratio (x) = 0.21808 0.28739
# Poissons Ratio (y) = 0.35952 0.43743
# Poissons Ratio (z) = 0.37438 0.34565
#
# Static dielectric constant tensor:
#      x y z
#    x 3.709760 0.000000 0.000000 
#    y 0.000000 3.400660 0.000000 
#    z 0.000000 0.000000 3.917950 
# 
# 
# High freq. dielectric constant tensor:
#      x y z
#    x 1.773110 0.000000 0.000000 
#    y 0.000000 1.752850 0.000000 
#    z 0.000000 0.000000 1.785680 
# 
# From -- ./inp_files/20123.got.cif
#   From: 2010.06.25/outbox.cif.g09.slc.cpg/sg58_11_cif.got.tgz:20123.got - 2010.06.26 21:38:00.
