data_PCOD8237643
_publ_section_title
;
Structure prediction by ZEFSAII (Michael W. Deem and Ramdas Pophale) SiO2 
 PCOD8237643
Probable space group: P N N M
;
_chemical_formula_sum "Si O2"
_cell_formula_units_Z 56
_cell_length_a 6.746660
_cell_length_b 30.388042
_cell_length_c 13.942209
_cell_angle_alpha 90.000000
_cell_angle_beta 90.000000
_cell_angle_gamma 90.000000
_cell_volume 2858.400841
_symmetry_space_group_name_H-M "P N N M"
_symmetry_group_IT_number 58
_symmetry_cell_setting 'orthorhombic'
loop_
_space_group_symop_operation_xyz
x,y,z
-x,-y,z
1/2+x,1/2-y,1/2-z
1/2-x,1/2+y,1/2-z
-x,-y,-z
x,y,-z
1/2-x,1/2+y,1/2+z
1/2+x,1/2-y,1/2+z
loop_
_atom_site_type_symbol
_atom_site_label
_atom_site_fract_x
_atom_site_fract_y
_atom_site_fract_z
Si Si1 0.552922 0.449690 0.111251
Si Si2 0.024515 0.757237 0.889913
Si Si3 0.286537 0.398940 0.252000
Si Si4 0.696164 0.827848 0.105133
Si Si5 0.878180 0.921844 0.890976
Si Si6 0.598748 0.953584 0.743941
Si Si7 0.841402 0.698113 0.736760
O O1 0.500000 0.500000 0.134579
O O2 0.389287 0.417663 0.156781
O O3 0.770872 0.439146 0.152241
O O4 0.555191 0.439250 0.000000
O O5 0.222292 0.766768 0.828323
O O6 0.900519 0.801798 0.889051
O O7 0.895303 0.718794 0.840043
O O8 0.076406 0.743467 0.000000
O O9 0.405258 0.415296 0.345605
O O10 0.285174 0.346044 0.246177
O O11 0.063795 0.416269 0.261480
O O12 0.749166 0.878269 0.120744
O O13 0.545991 0.812075 0.184733
O O14 0.597988 0.821415 0.000000
O O15 0.749673 0.958469 0.834265
O O16 0.907298 0.937119 0.000000
O O17 0.500000 0.000000 0.723044
#
# Coordination Sequence:
#
# PCOD8237643 Si02
#       7
#     8   8   8   8   8   8   8
#     4  10  22  41  65  91 121 161 207 253 302 367
#     4  11  24  40  61  91 122 157 202 249 307 372
#     4  11  23  38  63  92 125 157 204 254 309 359
#     4  10  20  37  61  89 116 153 204 247 294 361
#     4  10  22  38  60  90 123 160 206 255 299 359
#     4  11  22  39  61  90 125 162 203 254 307 366
#     4  12  22  40  66  88 123 161 199 257 312 358
#
# _framework density 19.591373999999998
#
# number of rings (size 3 to 8) (size 9 to 14) (size 15 to 20)
#    0.000    1.286    5.714    0.429    0.000    2.857 
#    0.000    0.714    0.000    0.000    0.000    0.000 
#    0.000    0.000    0.000    0.000    0.000    0.000 
#
# Total GULP energy -694510.339946 kJ/mol
# GULP energy per Si atom -12401.970356 kJ/mol
# Density = 1.954678 g / cm^3
# Si number density = 19.591374 Si / 1000 Ang^3
#
#
#
# Elastic Constant Matrix: (Units=GPa)
#
#
# Indices 1 2 3 4 5 6 
#
# 1 97.9878 19.7426 54.1639 0.0000 0.0000 0.0000
# 2 19.7426 44.8608 31.8788 0.0000 0.0000 0.0000
# 3 54.1639 31.8788 154.5541 0.0000 0.0000 0.0000
# 4 0.0000 0.0000 0.0000 27.1730 0.0000 0.0000
# 5 0.0000 0.0000 0.0000 0.0000 23.1006 0.0000
# 6 0.0000 0.0000 0.0000 0.0000 0.0000 31.7675
#
#
#
# Elastic Compliance Matrix: (Units=1/GPa)
#
#
# Indices 1 2 3 4 5 6 
#
# 1 0.012972 -0.002904 -0.003947 0.000000 0.000000 0.000000
# 2 -0.002904 0.026770 -0.004504 0.000000 0.000000 0.000000
# 3 -0.003947 -0.004504 0.008783 0.000000 0.000000 0.000000
# 4 0.000000 0.000000 0.000000 0.036801 0.000000 0.000000
# 5 0.000000 0.000000 0.000000 0.000000 0.043289 0.000000
# 6 0.000000 0.000000 0.000000 0.000000 0.000000 0.031479
#
#
# Mechanical properties :
#
#
# Convention : Reuss Voigt Hill
#
# Bulk Modulus (GPa) = 38.73808 56.55262 47.64535
# Shear Modulus (GPa) = 26.12215 29.18271 27.65243
#
# Velocity S-wave (km/s) = 3.65547 3.86368 3.76102
# Velocity P-wave (km/s) = 6.13454 6.98805 6.57516
#
# Compressibility (1/GPa) = 0.02581439
#
# Stress axis : x y z
#
# Youngs Moduli (GPa) = 77.08731 37.35559 113.86258
#
# Poissons Ratio (x) = 0.10848 0.44944
# Poissons Ratio (y) = 0.22386 0.51283
# Poissons Ratio (z) = 0.30428 0.16825
#
# Static dielectric constant tensor:
#      x y z
#    x 3.568210 0.000000 0.000000 
#    y 0.000000 3.505780 0.000000 
#    z 0.000000 0.000000 3.632730 
# 
# 
# High freq. dielectric constant tensor:
#      x y z
#    x 1.772500 0.000000 0.000000 
#    y 0.000000 1.756110 0.000000 
#    z 0.000000 0.000000 1.763850 
# 
# From -- ./inp_files/18723.got.cif
#   From: 2010.06.25/outbox.cif.g09.slc.cpg/sg58_10_cif.got.tgz:18723.got - 2010.06.26 21:38:00.
