data_PCOD8237577
_publ_section_title
;
Structure prediction by ZEFSAII (Michael W. Deem and Ramdas Pophale) SiO2 
 PCOD8237577
Probable space group: P N N M
;
_chemical_formula_sum "Si O2"
_cell_formula_units_Z 32
_cell_length_a 18.332433
_cell_length_b 9.658932
_cell_length_c 9.538619
_cell_angle_alpha 90.000000
_cell_angle_beta 90.000000
_cell_angle_gamma 90.000000
_cell_volume 1689.019708
_symmetry_space_group_name_H-M "P N N M"
_symmetry_group_IT_number 58
_symmetry_cell_setting 'orthorhombic'
loop_
_space_group_symop_operation_xyz
x,y,z
-x,-y,z
1/2+x,1/2-y,1/2-z
1/2-x,1/2+y,1/2-z
-x,-y,-z
x,y,-z
1/2-x,1/2+y,1/2+z
1/2+x,1/2-y,1/2+z
loop_
_atom_site_type_symbol
_atom_site_label
_atom_site_fract_x
_atom_site_fract_y
_atom_site_fract_z
Si Si1 0.441443 0.115191 0.663230
Si Si2 0.709830 0.022089 0.337604
Si Si3 0.820222 0.783948 0.662978
Si Si4 0.514735 0.342303 0.836350
O O1 0.446199 0.152832 0.500000
O O2 0.362211 0.061301 0.706865
O O3 0.456630 0.252762 0.751060
O O4 0.500000 0.000000 0.705722
O O5 0.705781 0.064401 0.500000
O O6 0.779577 0.927622 0.304429
O O7 0.717666 0.161599 0.249054
O O8 0.813234 0.746382 0.500000
O O9 0.903748 0.801244 0.709668
O O10 0.500000 0.500000 0.796632
O O11 0.502099 0.315237 0.000000
#
# Coordination Sequence:
#
# PCOD8237577 Si02
#       4
#     8   8   8   8
#     4  10  20  37  59  83 110 145 187 229 277 329
#     4  10  22  39  58  82 115 149 186 232 278 331
#     4  10  22  39  57  82 114 148 187 229 276 333
#     4  10  22  38  57  84 115 146 186 233 280 329
#
# _framework density 18.945900000000002
#
# number of rings (size 3 to 8) (size 9 to 14) (size 15 to 20)
#    0.000    2.000    2.500    0.000    3.500    3.000 
#    0.000    0.000    0.000    0.000    0.000    0.000 
#    0.000    0.000    0.000    0.000    0.000    0.000 
#
# Total GULP energy -396988.166499 kJ/mol
# GULP energy per Si atom -12405.880203 kJ/mol
# Density = 1.890278 g / cm^3
# Si number density = 18.945900 Si / 1000 Ang^3
#
#
#
# Elastic Constant Matrix: (Units=GPa)
#
#
# Indices 1 2 3 4 5 6 
#
# 1 44.6866 13.8904 17.4805 0.0000 0.0000 0.0000
# 2 13.8904 108.1581 54.4862 0.0000 0.0000 0.0000
# 3 17.4805 54.4862 53.3927 0.0000 0.0000 0.0000
# 4 0.0000 0.0000 0.0000 41.6340 0.0000 0.0000
# 5 0.0000 0.0000 0.0000 0.0000 21.9268 0.0000
# 6 0.0000 0.0000 0.0000 0.0000 0.0000 29.4532
#
#
#
# Elastic Compliance Matrix: (Units=1/GPa)
#
#
# Indices 1 2 3 4 5 6 
#
# 1 0.025862 0.001943 -0.010450 0.000000 0.000000 0.000000
# 2 0.001943 0.019173 -0.020202 0.000000 0.000000 0.000000
# 3 -0.010450 -0.020202 0.042766 0.000000 0.000000 0.000000
# 4 0.000000 0.000000 0.000000 0.024019 0.000000 0.000000
# 5 0.000000 0.000000 0.000000 0.000000 0.045606 0.000000
# 6 0.000000 0.000000 0.000000 0.000000 0.000000 0.033952
#
#
# Mechanical properties :
#
#
# Convention : Reuss Voigt Hill
#
# Bulk Modulus (GPa) = 32.91259 41.99463 37.45361
# Shear Modulus (GPa) = 19.31067 26.62814 22.96940
#
# Velocity S-wave (km/s) = 3.19604 3.75304 3.48569
# Velocity P-wave (km/s) = 5.57038 6.40267 6.00097
#
# Compressibility (1/GPa) = 0.03038351
#
# Stress axis : x y z
#
# Youngs Moduli (GPa) = 38.66703 52.15588 23.38301
#
# Poissons Ratio (x) = -0.10133 0.24434
# Poissons Ratio (y) = -0.07512 0.47238
# Poissons Ratio (z) = 0.40406 1.05366
#
# Static dielectric constant tensor:
#      x y z
#    x 3.602280 0.000000 0.000000 
#    y 0.000000 3.364440 0.000000 
#    z 0.000000 0.000000 3.348550 
# 
# 
# High freq. dielectric constant tensor:
#      x y z
#    x 1.745710 0.000000 0.000000 
#    y 0.000000 1.739930 0.000000 
#    z 0.000000 0.000000 1.728300 
# 
# From -- ./inp_files/2133.got.cif
#   From: 2010.06.25/outbox.cif.g09.slc.cpg/sg58_2_cif.got.tgz:2133.got - 2010.06.26 21:38:00.
