data_PCOD8237525
_publ_section_title
;
Structure prediction by ZEFSAII (Michael W. Deem and Ramdas Pophale) SiO2 
 PCOD8237525
Probable space group: P N N M
;
_chemical_formula_sum "Si O2"
_cell_formula_units_Z 40
_cell_length_a 19.221200
_cell_length_b 10.532844
_cell_length_c 9.078493
_cell_angle_alpha 90.000000
_cell_angle_beta 90.000000
_cell_angle_gamma 90.000000
_cell_volume 1837.976324
_symmetry_space_group_name_H-M "P N N M"
_symmetry_group_IT_number 58
_symmetry_cell_setting 'orthorhombic'
loop_
_space_group_symop_operation_xyz
x,y,z
-x,-y,z
1/2+x,1/2-y,1/2-z
1/2-x,1/2+y,1/2-z
-x,-y,-z
x,y,-z
1/2-x,1/2+y,1/2+z
1/2+x,1/2-y,1/2+z
loop_
_atom_site_type_symbol
_atom_site_label
_atom_site_fract_x
_atom_site_fract_y
_atom_site_fract_z
Si Si1 0.296428 0.875070 0.673910
Si Si2 0.417630 0.503965 0.664533
Si Si3 0.076714 0.758669 0.331965
Si Si4 0.081354 0.256703 0.673739
Si Si5 0.786751 0.375237 0.331727
O O1 0.304028 0.886679 0.500000
O O2 0.372501 0.864125 0.748333
O O3 0.250357 0.754180 0.721123
O O4 0.261636 0.004932 0.735019
O O5 0.500000 0.500000 0.660360
O O6 0.386598 0.519031 0.500000
O O7 0.391967 0.373118 0.735484
O O8 0.392558 0.621564 0.763068
O O9 0.074430 0.807913 0.500000
O O10 0.129723 0.641829 0.313847
O O11 0.999215 0.716453 0.283988
O O12 0.093666 0.260234 0.500000
O O13 0.766985 0.404025 0.500000
#
# Coordination Sequence:
#
# PCOD8237525 Si02
#       5
#     8   8   8   8   8
#     4  11  25  43  64  93 126 162 206 255 312 372
#     4   9  17  30  52  87 126 159 196 248 307 361
#     4   9  19  37  61  89 120 161 210 255 305 368
#     4  10  20  36  61  89 122 163 206 253 307 368
#     4  10  24  45  65  89 123 163 208 255 306 370
#
# _framework density 21.763065000000001
#
# number of rings (size 3 to 8) (size 9 to 14) (size 15 to 20)
#    0.000    2.200    0.000    1.800    2.800    6.400 
#    0.000    4.000    0.000    0.000    0.000    0.000 
#    0.000    0.000    0.000    0.000    0.000    0.000 
#
# Total GULP energy -496021.985749 kJ/mol
# GULP energy per Si atom -12400.549644 kJ/mol
# Density = 2.171353 g / cm^3
# Si number density = 21.763065 Si / 1000 Ang^3
#
#
#
# Elastic Constant Matrix: (Units=GPa)
#
#
# Indices 1 2 3 4 5 6 
#
# 1 77.1222 45.3217 34.5946 0.0000 0.0000 0.0000
# 2 45.3217 138.0597 65.1868 0.0000 0.0000 0.0000
# 3 34.5946 65.1868 102.5209 0.0000 0.0000 0.0000
# 4 0.0000 0.0000 0.0000 39.7005 0.0000 0.0000
# 5 0.0000 0.0000 0.0000 0.0000 15.7684 0.0000
# 6 0.0000 0.0000 0.0000 0.0000 0.0000 32.6880
#
#
#
# Elastic Compliance Matrix: (Units=1/GPa)
#
#
# Indices 1 2 3 4 5 6 
#
# 1 0.016718 -0.004036 -0.003075 0.000000 0.000000 0.000000
# 2 -0.004036 0.011325 -0.005839 0.000000 0.000000 0.000000
# 3 -0.003075 -0.005839 0.014504 0.000000 0.000000 0.000000
# 4 0.000000 0.000000 0.000000 0.025189 0.000000 0.000000
# 5 0.000000 0.000000 0.000000 0.000000 0.063418 0.000000
# 6 0.000000 0.000000 0.000000 0.000000 0.000000 0.030592
#
#
# Mechanical properties :
#
#
# Convention : Reuss Voigt Hill
#
# Bulk Modulus (GPa) = 60.07051 67.54543 63.80797
# Shear Modulus (GPa) = 25.88055 29.13802 27.50928
#
# Velocity S-wave (km/s) = 3.45221 3.66303 3.55918
# Velocity P-wave (km/s) = 6.59942 6.99961 6.80246
#
# Compressibility (1/GPa) = 0.01664710
#
# Stress axis : x y z
#
# Youngs Moduli (GPa) = 59.81714 88.29861 68.94473
#
# Poissons Ratio (x) = 0.35639 0.21199
# Poissons Ratio (y) = 0.24143 0.40257
# Poissons Ratio (z) = 0.18393 0.51558
#
# Static dielectric constant tensor:
#      x y z
#    x 3.967980 0.000000 0.000000 
#    y 0.000000 3.815940 0.000000 
#    z 0.000000 0.000000 3.914520 
# 
# 
# High freq. dielectric constant tensor:
#      x y z
#    x 1.860440 0.000000 0.000000 
#    y 0.000000 1.845400 0.000000 
#    z 0.000000 0.000000 1.850160 
# 
# From -- ./inp_files/8795.got.cif
#   From: 2010.06.25/outbox.cif.g09.slc.cpg/sg58_5_cif.got.tgz:8795.got - 2010.06.26 21:38:00.
