data_PCOD8237052
_publ_section_title
;
Structure prediction by ZEFSAII (Michael W. Deem and Ramdas Pophale) SiO2 
 PCOD8237052
Probable space group: P N N M
;
_chemical_formula_sum "Si O2"
_cell_formula_units_Z 48
_cell_length_a 30.586472
_cell_length_b 9.388566
_cell_length_c 9.176776
_cell_angle_alpha 90.000000
_cell_angle_beta 90.000000
_cell_angle_gamma 90.000000
_cell_volume 2635.231546
_symmetry_space_group_name_H-M "P N N M"
_symmetry_group_IT_number 58
_symmetry_cell_setting 'orthorhombic'
loop_
_space_group_symop_operation_xyz
x,y,z
-x,-y,z
1/2+x,1/2-y,1/2-z
1/2-x,1/2+y,1/2-z
-x,-y,-z
x,y,-z
1/2-x,1/2+y,1/2+z
1/2+x,1/2-y,1/2+z
loop_
_atom_site_type_symbol
_atom_site_label
_atom_site_fract_x
_atom_site_fract_y
_atom_site_fract_z
Si Si1 0.626045 0.423691 0.329965
Si Si2 0.713765 0.922316 0.326667
Si Si3 0.288291 0.404656 0.669913
Si Si4 0.134008 0.395796 0.829666
Si Si5 0.040950 0.100908 0.667246
Si Si6 0.536482 0.109810 0.671070
O O1 0.614009 0.416008 0.500000
O O2 0.663198 0.538671 0.297847
O O3 0.640766 0.266502 0.273946
O O4 0.582855 0.471743 0.243601
O O5 0.715909 0.932465 0.500000
O O6 0.713824 0.758213 0.276530
O O7 0.755445 0.000388 0.261699
O O8 0.670218 0.998630 0.261162
O O9 0.276634 0.419649 0.500000
O O10 0.085043 0.449636 0.791115
O O11 0.141917 0.398715 0.000000
O O12 0.052600 0.130307 0.500000
O O13 0.027620 0.246432 0.743936
O O14 0.000000 0.000000 0.685451
O O15 0.532368 0.141484 0.500000
O O16 0.500000 0.000000 0.724969
#
# Coordination Sequence:
#
# PCOD8237052 Si02
#       6
#     8   8   8   8   8   8
#     4   9  18  34  54  73  98 134 175 218 258 298
#     4  10  20  34  53  76 105 139 170 207 258 310
#     4  10  21  35  53  79 105 132 171 214 255 302
#     4   8  15  30  50  72  99 131 168 211 255 296
#     4  10  21  35  51  75 108 141 171 207 255 309
#     4   9  18  33  55  80 103 134 177 218 257 303
#
# _framework density 18.214718999999999
#
# number of rings (size 3 to 8) (size 9 to 14) (size 15 to 20)
#    0.000    2.667    0.000    2.500    0.000    5.667 
#    0.000    8.333    0.000    0.000    0.000    0.000 
#    0.000    0.000    0.000    0.000    0.000    0.000 
#
# Total GULP energy -595124.817816 kJ/mol
# GULP energy per Si atom -12398.433704 kJ/mol
# Density = 1.817326 g / cm^3
# Si number density = 18.214719 Si / 1000 Ang^3
#
#
#
# Elastic Constant Matrix: (Units=GPa)
#
#
# Indices 1 2 3 4 5 6 
#
# 1 99.6874 63.0000 46.2728 0.0000 0.0000 0.0000
# 2 63.0000 113.2368 41.4868 0.0000 0.0000 0.0000
# 3 46.2728 41.4868 51.1893 0.0000 0.0000 0.0000
# 4 0.0000 0.0000 0.0000 18.7878 0.0000 0.0000
# 5 0.0000 0.0000 0.0000 0.0000 26.5474 0.0000
# 6 0.0000 0.0000 0.0000 0.0000 0.0000 32.4691
#
#
#
# Elastic Compliance Matrix: (Units=1/GPa)
#
#
# Indices 1 2 3 4 5 6 
#
# 1 0.020124 -0.006445 -0.012967 0.000000 0.000000 0.000000
# 2 -0.006445 0.014625 -0.006027 0.000000 0.000000 0.000000
# 3 -0.012967 -0.006027 0.036142 0.000000 0.000000 0.000000
# 4 0.000000 0.000000 0.000000 0.053226 0.000000 0.000000
# 5 0.000000 0.000000 0.000000 0.000000 0.037668 0.000000
# 6 0.000000 0.000000 0.000000 0.000000 0.000000 0.030798
#
#
# Mechanical properties :
#
#
# Convention : Reuss Voigt Hill
#
# Bulk Modulus (GPa) = 49.97071 62.84809 56.40940
# Shear Modulus (GPa) = 19.98940 23.11779 21.55360
#
# Velocity S-wave (km/s) = 3.31634 3.56642 3.44365
# Velocity P-wave (km/s) = 6.49292 7.17900 6.84456
#
# Compressibility (1/GPa) = 0.02001172
#
# Stress axis : x y z
#
# Youngs Moduli (GPa) = 49.69271 68.37688 27.66876
#
# Poissons Ratio (x) = 0.44069 0.35879
# Poissons Ratio (y) = 0.32027 0.16675
# Poissons Ratio (z) = 0.64439 0.41209
#
# Static dielectric constant tensor:
#      x y z
#    x 3.550940 0.000000 0.000000 
#    y 0.000000 3.777200 0.000000 
#    z 0.000000 0.000000 3.197600 
# 
# 
# High freq. dielectric constant tensor:
#      x y z
#    x 1.718770 0.000000 0.000000 
#    y 0.000000 1.704890 0.000000 
#    z 0.000000 0.000000 1.683250 
# 
# From -- ./inp_files/10744.got.cif
#   From: 2010.06.25/outbox.cif.g09.slc.cpg/sg58_6_cif.got.tgz:10744.got - 2010.06.26 21:38:00.
