data_PCOD8237669
_publ_section_title
;
Structure prediction by ZEFSAII (Michael W. Deem and Ramdas Pophale) SiO2 
 PCOD8237669
Probable space group: P N N M
;
_chemical_formula_sum "Si O2"
_cell_formula_units_Z 64
_cell_length_a 15.348333
_cell_length_b 23.685742
_cell_length_c 8.602496
_cell_angle_alpha 90.000000
_cell_angle_beta 90.000000
_cell_angle_gamma 90.000000
_cell_volume 3127.322625
_symmetry_space_group_name_H-M "P N N M"
_symmetry_group_IT_number 58
_symmetry_cell_setting 'orthorhombic'
loop_
_space_group_symop_operation_xyz
x,y,z
-x,-y,z
1/2+x,1/2-y,1/2-z
1/2-x,1/2+y,1/2-z
-x,-y,-z
x,y,-z
1/2-x,1/2+y,1/2+z
1/2+x,1/2-y,1/2+z
loop_
_atom_site_type_symbol
_atom_site_label
_atom_site_fract_x
_atom_site_fract_y
_atom_site_fract_z
Si Si1 0.651973 0.868919 0.322565
Si Si2 0.163114 0.365798 0.317364
Si Si3 0.152945 0.138325 0.321837
Si Si4 0.154816 0.869242 0.680817
Si Si5 0.897774 0.747201 0.820384
Si Si6 0.099306 0.755044 0.819314
Si Si7 0.004547 0.065347 0.180705
Si Si8 0.999777 0.562852 0.317504
O O1 0.620921 0.876112 0.500000
O O2 0.751379 0.888557 0.298005
O O3 0.645364 0.803414 0.274552
O O4 0.591015 0.907313 0.217170
O O5 0.175900 0.374342 0.500000
O O6 0.248819 0.388606 0.230681
O O7 0.148668 0.299868 0.283467
O O8 0.081212 0.401255 0.249864
O O9 0.139208 0.157127 0.500000
O O10 0.144983 0.192637 0.212885
O O11 0.083059 0.091217 0.278912
O O12 0.140302 0.881003 0.500000
O O13 0.143829 0.803003 0.715990
O O14 0.086024 0.905208 0.778314
O O15 0.998556 0.750528 0.774374
O O16 0.885200 0.731097 0.000000
O O17 0.111934 0.770595 0.000000
O O18 0.024208 0.075179 0.000000
O O19 0.000000 0.000000 0.224384
O O20 0.987857 0.558917 0.500000
O O21 0.000000 0.500000 0.244163
#
# Coordination Sequence:
#
# PCOD8237669 Si02
#       8
#     8   8   8   8   8   8   8   8
#     4  10  22  40  62  90 123 160 197 244 302 358
#     4  11  23  40  63  90 126 164 203 254 309 365
#     4  11  23  39  63  94 127 162 202 250 309 368
#     4  12  25  40  64  94 125 160 204 253 308 374
#     4  11  21  36  63  94 126 163 203 247 303 368
#     4  10  20  37  62  91 127 162 198 244 302 368
#     4  11  25  45  66  87 118 163 210 258 312 366
#     4  10  23  42  63  88 118 157 205 253 299 354
#
# _framework density 20.464787999999999
#
# number of rings (size 3 to 8) (size 9 to 14) (size 15 to 20)
#    0.000    1.250    2.500    3.375    0.000    5.750 
#    0.000    3.750    0.000    0.000    0.000    0.000 
#    0.000    0.000    0.000    0.000    0.000    0.000 
#
# Total GULP energy -794022.875789 kJ/mol
# GULP energy per Si atom -12406.607434 kJ/mol
# Density = 2.041821 g / cm^3
# Si number density = 20.464788 Si / 1000 Ang^3
#
#
#
# Elastic Constant Matrix: (Units=GPa)
#
#
# Indices 1 2 3 4 5 6 
#
# 1 135.5388 45.5509 20.5662 0.0000 0.0000 0.0000
# 2 45.5509 106.0141 10.8971 0.0000 0.0000 0.0000
# 3 20.5662 10.8971 38.0563 0.0000 0.0000 0.0000
# 4 0.0000 0.0000 0.0000 26.1230 0.0000 0.0000
# 5 0.0000 0.0000 0.0000 0.0000 32.7236 0.0000
# 6 0.0000 0.0000 0.0000 0.0000 0.0000 5.5775
#
#
#
# Elastic Compliance Matrix: (Units=1/GPa)
#
#
# Indices 1 2 3 4 5 6 
#
# 1 0.009163 -0.003532 -0.003940 0.000000 0.000000 0.000000
# 2 -0.003532 0.011080 -0.001264 0.000000 0.000000 0.000000
# 3 -0.003940 -0.001264 0.028768 0.000000 0.000000 0.000000
# 4 0.000000 0.000000 0.000000 0.038280 0.000000 0.000000
# 5 0.000000 0.000000 0.000000 0.000000 0.030559 0.000000
# 6 0.000000 0.000000 0.000000 0.000000 0.000000 0.179292
#
#
# Mechanical properties :
#
#
# Convention : Reuss Voigt Hill
#
# Bulk Modulus (GPa) = 31.70718 48.18196 39.94457
# Shear Modulus (GPa) = 15.37856 26.39116 20.88486
#
# Velocity S-wave (km/s) = 2.74426 3.59498 3.19803
# Velocity P-wave (km/s) = 5.05653 6.38958 5.76174
#
# Compressibility (1/GPa) = 0.03153859
#
# Stress axis : x y z
#
# Youngs Moduli (GPa) = 109.13623 90.25103 34.76058
#
# Poissons Ratio (x) = 0.31876 0.13697
# Poissons Ratio (y) = 0.38547 0.04394
# Poissons Ratio (z) = 0.43004 0.11408
#
# Static dielectric constant tensor:
#      x y z
#    x 3.851710 0.000000 0.000000 
#    y 0.000000 3.714130 0.000000 
#    z 0.000000 0.000000 3.627210 
# 
# 
# High freq. dielectric constant tensor:
#      x y z
#    x 1.816270 0.000000 0.000000 
#    y 0.000000 1.793510 0.000000 
#    z 0.000000 0.000000 1.796260 
# 
# From -- ./inp_files/6949.got.cif
#   From: 2010.06.25/outbox.cif.g09.slc.cpg/sg58_4_cif.got.tgz:6949.got - 2010.06.26 21:38:00.
