data_PCOD8237335
_publ_section_title
;
Structure prediction by ZEFSAII (Michael W. Deem and Ramdas Pophale) SiO2 
 PCOD8237335
Probable space group: P N N M
;
_chemical_formula_sum "Si O2"
_cell_formula_units_Z 64
_cell_length_a 24.506359
_cell_length_b 15.054094
_cell_length_c 9.002425
_cell_angle_alpha 90.000000
_cell_angle_beta 90.000000
_cell_angle_gamma 90.000000
_cell_volume 3321.183921
_symmetry_space_group_name_H-M "P N N M"
_symmetry_group_IT_number 58
_symmetry_cell_setting 'orthorhombic'
loop_
_space_group_symop_operation_xyz
x,y,z
-x,-y,z
1/2+x,1/2-y,1/2-z
1/2-x,1/2+y,1/2-z
-x,-y,-z
x,y,-z
1/2-x,1/2+y,1/2+z
1/2+x,1/2-y,1/2+z
loop_
_atom_site_type_symbol
_atom_site_label
_atom_site_fract_x
_atom_site_fract_y
_atom_site_fract_z
Si Si1 0.554486 0.172904 0.675921
Si Si2 0.441152 0.188276 0.173213
Si Si3 0.737864 0.781178 0.668742
Si Si4 0.602379 0.007018 0.172014
Si Si5 0.364916 0.324791 0.669671
Si Si6 0.140834 0.199021 0.675516
Si Si7 0.660393 0.480587 0.673149
Si Si8 0.782118 0.454694 0.327903
O O1 0.556062 0.177317 0.500000
O O2 0.495511 0.201709 0.732525
O O3 0.567291 0.073029 0.728116
O O4 0.597608 0.241114 0.741553
O O5 0.400236 0.266773 0.218478
O O6 0.415184 0.093033 0.209606
O O7 0.454690 0.197641 0.000000
O O8 0.742631 0.812265 0.500000
O O9 0.699892 0.694987 0.688432
O O10 0.799545 0.764239 0.725409
O O11 0.708007 0.860427 0.752503
O O12 0.666797 0.018707 0.212286
O O13 0.591099 0.030343 0.000000
O O14 0.382705 0.304489 0.500000
O O15 0.372368 0.428915 0.707067
O O16 0.130929 0.205398 0.500000
O O17 0.134195 0.097061 0.728096
O O18 0.655976 0.454645 0.500000
O O19 0.723978 0.496181 0.718023
O O20 0.784839 0.433507 0.500000
#
# Coordination Sequence:
#
# PCOD8237335 Si02
#       8
#     8   8   8   8   8   8   8   8
#     4  12  26  41  60  85 114 154 200 249 297 351
#     4  11  23  41  62  86 117 155 197 245 293 347
#     4   9  18  32  55  84 118 155 190 232 286 342
#     4  10  21  37  59  87 120 157 195 236 289 350
#     4  10  20  35  58  88 120 157 195 238 290 346
#     4  10  21  39  61  85 118 156 197 246 294 346
#     4   9  19  35  58  86 122 160 195 237 290 347
#     4   9  17  32  55  83 118 157 192 230 280 340
#
# _framework density 19.270237000000002
#
# number of rings (size 3 to 8) (size 9 to 14) (size 15 to 20)
#    0.000    2.000    1.250    2.250    1.750    4.000 
#    0.000    0.625    0.000    3.750    0.000    0.000 
#    0.000    0.000    0.000    0.000    0.000    0.000 
#
# Total GULP energy -793561.748136 kJ/mol
# GULP energy per Si atom -12399.402315 kJ/mol
# Density = 1.922638 g / cm^3
# Si number density = 19.270237 Si / 1000 Ang^3
#
#
#
# Elastic Constant Matrix: (Units=GPa)
#
#
# Indices 1 2 3 4 5 6 
#
# 1 98.1111 46.0616 47.2515 0.0000 0.0000 0.0000
# 2 46.0616 89.8838 46.1104 0.0000 0.0000 0.0000
# 3 47.2515 46.1104 87.9619 0.0000 0.0000 0.0000
# 4 0.0000 0.0000 0.0000 30.9759 0.0000 0.0000
# 5 0.0000 0.0000 0.0000 0.0000 26.7640 0.0000
# 6 0.0000 0.0000 0.0000 0.0000 0.0000 24.6962
#
#
#
# Elastic Compliance Matrix: (Units=1/GPa)
#
#
# Indices 1 2 3 4 5 6 
#
# 1 0.015191 -0.004922 -0.005580 0.000000 0.000000 0.000000
# 2 -0.004922 0.016813 -0.006169 0.000000 0.000000 0.000000
# 3 -0.005580 -0.006169 0.017600 0.000000 0.000000 0.000000
# 4 0.000000 0.000000 0.000000 0.032283 0.000000 0.000000
# 5 0.000000 0.000000 0.000000 0.000000 0.037364 0.000000
# 6 0.000000 0.000000 0.000000 0.000000 0.000000 0.040492
#
#
# Mechanical properties :
#
#
# Convention : Reuss Voigt Hill
#
# Bulk Modulus (GPa) = 61.49794 61.64489 61.57141
# Shear Modulus (GPa) = 25.18823 25.58943 25.38883
#
# Velocity S-wave (km/s) = 3.61931 3.64802 3.63370
# Velocity P-wave (km/s) = 7.03197 7.05714 7.04457
#
# Compressibility (1/GPa) = 0.01626071
#
# Stress axis : x y z
#
# Youngs Moduli (GPa) = 65.82947 59.47890 56.81806
#
# Poissons Ratio (x) = 0.29276 0.31704
# Poissons Ratio (y) = 0.32402 0.35053
# Poissons Ratio (z) = 0.36733 0.36694
#
# Static dielectric constant tensor:
#      x y z
#    x 3.694930 0.000000 0.000000 
#    y 0.000000 3.494790 0.000000 
#    z 0.000000 0.000000 3.506960 
# 
# 
# High freq. dielectric constant tensor:
#      x y z
#    x 1.749680 0.000000 0.000000 
#    y 0.000000 1.743520 0.000000 
#    z 0.000000 0.000000 1.745910 
# 
# From -- ./inp_files/10044.got.cif
#   From: 2010.06.25/outbox.cif.g09.slc.cpg/sg58_6_cif.got.tgz:10044.got - 2010.06.26 21:38:00.
