data_PCOD8237207
_publ_section_title
;
Structure prediction by ZEFSAII (Michael W. Deem and Ramdas Pophale) SiO2 
 PCOD8237207
Probable space group: P N N M
;
_chemical_formula_sum "Si O2"
_cell_formula_units_Z 64
_cell_length_a 16.250051
_cell_length_b 22.473205
_cell_length_c 8.763115
_cell_angle_alpha 90.000000
_cell_angle_beta 90.000000
_cell_angle_gamma 90.000000
_cell_volume 3200.208341
_symmetry_space_group_name_H-M "P N N M"
_symmetry_group_IT_number 58
_symmetry_cell_setting 'orthorhombic'
loop_
_space_group_symop_operation_xyz
x,y,z
-x,-y,z
1/2+x,1/2-y,1/2-z
1/2-x,1/2+y,1/2-z
-x,-y,-z
x,y,-z
1/2-x,1/2+y,1/2+z
1/2+x,1/2-y,1/2+z
loop_
_atom_site_type_symbol
_atom_site_label
_atom_site_fract_x
_atom_site_fract_y
_atom_site_fract_z
Si Si1 0.396319 0.666010 0.326235
Si Si2 0.413246 0.022426 0.821213
Si Si3 0.054175 0.282960 0.329699
Si Si4 0.736122 0.170964 0.828374
Si Si5 0.283982 0.214572 0.829278
Si Si6 0.753409 0.036250 0.818813
Si Si7 0.418440 0.145587 0.673688
Si Si8 0.583820 0.468855 0.681594
O O1 0.427995 0.672688 0.500000
O O2 0.441651 0.714155 0.221078
O O3 0.299606 0.677709 0.317766
O O4 0.414984 0.599800 0.263229
O O5 0.406752 0.091815 0.789768
O O6 0.500000 0.000000 0.748193
O O7 0.331860 0.990850 0.750476
O O8 0.414857 0.009752 0.000000
O O9 0.015987 0.283995 0.500000
O O10 0.139386 0.317698 0.330055
O O11 0.000701 0.318700 0.209156
O O12 0.775819 0.215848 0.708178
O O13 0.757303 0.105013 0.769570
O O14 0.771100 0.180377 0.000000
O O15 0.342645 0.189147 0.700140
O O16 0.320506 0.209043 0.000000
O O17 0.834589 0.002481 0.753949
O O18 0.751161 0.029661 0.000000
O O19 0.420172 0.123121 0.500000
O O20 0.500000 0.500000 0.742949
O O21 0.586024 0.471360 0.500000
#
# Coordination Sequence:
#
# PCOD8237207 Si02
#       8
#     8   8   8   8   8   8   8   8
#     4   9  18  34  55  78 104 137 179 225 273 324
#     4  10  20  36  58  81 108 146 188 228 276 335
#     4  10  20  35  55  78 106 140 178 223 277 334
#     4   9  18  34  56  81 107 139 182 226 270 323
#     4  10  20  35  55  78 107 142 180 225 276 329
#     4   9  17  31  52  77 108 146 184 222 265 321
#     4  12  24  36  53  80 112 143 182 229 277 331
#     4   9  17  29  48  76 107 138 175 218 263 316
#
# _framework density 19.998698000000001
#
# number of rings (size 3 to 8) (size 9 to 14) (size 15 to 20)
#    0.000    2.250    0.000    3.375    0.000    6.250 
#    0.000    3.125    0.000    1.125    0.000    0.000 
#    0.000    0.000    0.000    0.000    0.000    0.000 
#
# Total GULP energy -793472.759799 kJ/mol
# GULP energy per Si atom -12398.011872 kJ/mol
# Density = 1.995318 g / cm^3
# Si number density = 19.998698 Si / 1000 Ang^3
#
#
#
# Elastic Constant Matrix: (Units=GPa)
#
#
# Indices 1 2 3 4 5 6 
#
# 1 94.9560 47.2535 14.4056 0.0000 0.0000 0.0000
# 2 47.2535 127.8886 12.1261 0.0000 0.0000 0.0000
# 3 14.4056 12.1261 41.0501 0.0000 0.0000 0.0000
# 4 0.0000 0.0000 0.0000 19.3013 0.0000 0.0000
# 5 0.0000 0.0000 0.0000 0.0000 20.1260 0.0000
# 6 0.0000 0.0000 0.0000 0.0000 0.0000 28.0381
#
#
#
# Elastic Compliance Matrix: (Units=1/GPa)
#
#
# Indices 1 2 3 4 5 6 
#
# 1 0.013328 -0.004610 -0.003315 0.000000 0.000000 0.000000
# 2 -0.004610 0.009639 -0.001230 0.000000 0.000000 0.000000
# 3 -0.003315 -0.001230 0.025887 0.000000 0.000000 0.000000
# 4 0.000000 0.000000 0.000000 0.051810 0.000000 0.000000
# 5 0.000000 0.000000 0.000000 0.000000 0.049687 0.000000
# 6 0.000000 0.000000 0.000000 0.000000 0.000000 0.035666
#
#
# Mechanical properties :
#
#
# Convention : Reuss Voigt Hill
#
# Bulk Modulus (GPa) = 32.73932 45.71835 39.22883
# Shear Modulus (GPa) = 23.30897 26.16704 24.73801
#
# Velocity S-wave (km/s) = 3.41768 3.62116 3.52089
# Velocity P-wave (km/s) = 5.65512 6.35563 6.01558
#
# Compressibility (1/GPa) = 0.03054431
#
# Stress axis : x y z
#
# Youngs Moduli (GPa) = 75.02744 103.74114 38.62920
#
# Poissons Ratio (x) = 0.47829 0.12807
# Poissons Ratio (y) = 0.34590 0.04750
# Poissons Ratio (z) = 0.24875 0.12756
#
# Static dielectric constant tensor:
#      x y z
#    x 3.769420 0.000000 0.000000 
#    y 0.000000 3.669230 0.000000 
#    z 0.000000 0.000000 3.279710 
# 
# 
# High freq. dielectric constant tensor:
#      x y z
#    x 1.780650 0.000000 0.000000 
#    y 0.000000 1.791550 0.000000 
#    z 0.000000 0.000000 1.743270 
# 
# From -- ./inp_files/8359.got.cif
#   From: 2010.06.25/outbox.cif.g09.slc.cpg/sg58_5_cif.got.tgz:8359.got - 2010.06.26 21:38:00.
