data_PCOD8237235
_publ_section_title
;
Structure prediction by ZEFSAII (Michael W. Deem and Ramdas Pophale) SiO2 
 PCOD8237235
Probable space group: P N N M
;
_chemical_formula_sum "Si O2"
_cell_formula_units_Z 48
_cell_length_a 15.496720
_cell_length_b 17.755676
_cell_length_c 8.809885
_cell_angle_alpha 90.000000
_cell_angle_beta 90.000000
_cell_angle_gamma 90.000000
_cell_volume 2424.081611
_symmetry_space_group_name_H-M "P N N M"
_symmetry_group_IT_number 58
_symmetry_cell_setting 'orthorhombic'
loop_
_space_group_symop_operation_xyz
x,y,z
-x,-y,z
1/2+x,1/2-y,1/2-z
1/2-x,1/2+y,1/2-z
-x,-y,-z
x,y,-z
1/2-x,1/2+y,1/2+z
1/2+x,1/2-y,1/2+z
loop_
_atom_site_type_symbol
_atom_site_label
_atom_site_fract_x
_atom_site_fract_y
_atom_site_fract_z
Si Si1 0.756355 0.451875 0.677765
Si Si2 0.572541 0.216331 0.819435
Si Si3 0.252821 0.708914 0.820469
Si Si4 0.400745 0.298400 0.821563
Si Si5 0.080905 0.452976 0.319519
Si Si6 0.911964 0.043474 0.174479
O O1 0.765230 0.435836 0.500000
O O2 0.768531 0.373681 0.762335
O O3 0.830852 0.508158 0.735129
O O4 0.664876 0.487615 0.720453
O O5 0.654027 0.264002 0.758596
O O6 0.485264 0.255093 0.759869
O O7 0.577392 0.131601 0.753498
O O8 0.573697 0.214551 0.000000
O O9 0.182506 0.767477 0.762669
O O10 0.251343 0.709174 0.000000
O O11 0.410410 0.385948 0.785246
O O12 0.389639 0.286517 0.000000
O O13 0.076926 0.450194 0.500000
O O14 0.000000 0.500000 0.254783
O O15 0.902188 0.070026 0.000000
O O16 0.000000 0.000000 0.202543
#
# Coordination Sequence:
#
# PCOD8237235 Si02
#       6
#     8   8   8   8   8   8
#     4  10  20  35  56  80 107 142 184 228 276 332
#     4   9  19  35  55  80 109 145 186 225 273 335
#     4  11  22  37  57  81 113 149 186 232 283 334
#     4  11  22  37  59  85 113 147 190 235 280 338
#     4   9  16  29  52  77 100 130 173 222 265 313
#     4  10  21  37  57  82 114 150 187 231 283 334
#
# _framework density 19.801314000000001
#
# number of rings (size 3 to 8) (size 9 to 14) (size 15 to 20)
#    0.000    2.000    0.000    4.000    0.000    6.333 
#    0.000    2.500    0.000    5.500    0.000    0.000 
#    0.000    0.000    0.000    0.000    0.000    0.000 
#
# Total GULP energy -595393.237615 kJ/mol
# GULP energy per Si atom -12404.025784 kJ/mol
# Density = 1.975625 g / cm^3
# Si number density = 19.801314 Si / 1000 Ang^3
#
#
#
# Elastic Constant Matrix: (Units=GPa)
#
#
# Indices 1 2 3 4 5 6 
#
# 1 122.4148 23.7611 19.0985 0.0000 0.0000 0.0000
# 2 23.7611 107.1127 24.0824 0.0000 0.0000 0.0000
# 3 19.0985 24.0824 32.2909 0.0000 0.0000 0.0000
# 4 0.0000 0.0000 0.0000 34.3824 0.0000 0.0000
# 5 0.0000 0.0000 0.0000 0.0000 14.3515 0.0000
# 6 0.0000 0.0000 0.0000 0.0000 0.0000 36.1632
#
#
#
# Elastic Compliance Matrix: (Units=1/GPa)
#
#
# Indices 1 2 3 4 5 6 
#
# 1 0.009082 -0.000970 -0.004649 0.000000 0.000000 0.000000
# 2 -0.000970 0.011320 -0.007869 0.000000 0.000000 0.000000
# 3 -0.004649 -0.007869 0.039587 0.000000 0.000000 0.000000
# 4 0.000000 0.000000 0.000000 0.029085 0.000000 0.000000
# 5 0.000000 0.000000 0.000000 0.000000 0.069679 0.000000
# 6 0.000000 0.000000 0.000000 0.000000 0.000000 0.027652
#
#
# Mechanical properties :
#
#
# Convention : Reuss Voigt Hill
#
# Bulk Modulus (GPa) = 30.28966 43.96694 37.12830
# Shear Modulus (GPa) = 22.28310 29.97117 26.12714
#
# Velocity S-wave (km/s) = 3.35824 3.89472 3.63638
# Velocity P-wave (km/s) = 5.51063 6.51746 6.03508
#
# Compressibility (1/GPa) = 0.03301457
#
# Stress axis : x y z
#
# Youngs Moduli (GPa) = 110.10290 88.33695 25.26098
#
# Poissons Ratio (x) = 0.08565 0.11743
# Poissons Ratio (y) = 0.10676 0.19878
# Poissons Ratio (z) = 0.51183 0.69514
#
# Static dielectric constant tensor:
#      x y z
#    x 3.935330 0.000000 0.000000 
#    y 0.000000 3.702980 0.000000 
#    z 0.000000 0.000000 3.212670 
# 
# 
# High freq. dielectric constant tensor:
#      x y z
#    x 1.793990 0.000000 0.000000 
#    y 0.000000 1.787450 0.000000 
#    z 0.000000 0.000000 1.732890 
# 
# From -- ./inp_files/5813.got.cif
#   From: 2010.06.25/outbox.cif.g09.slc.cpg/sg58_3_cif.got.tgz:5813.got - 2010.06.26 21:38:00.
