data_PCOD8237381
_publ_section_title
;
Structure prediction by ZEFSAII (Michael W. Deem and Ramdas Pophale) SiO2 
 PCOD8237381
Probable space group: P N N M
;
_chemical_formula_sum "Si O2"
_cell_formula_units_Z 48
_cell_length_a 8.598759
_cell_length_b 8.930555
_cell_length_c 32.409343
_cell_angle_alpha 90.000000
_cell_angle_beta 90.000000
_cell_angle_gamma 90.000000
_cell_volume 2488.768227
_symmetry_space_group_name_H-M "P N N M"
_symmetry_group_IT_number 58
_symmetry_cell_setting 'orthorhombic'
loop_
_space_group_symop_operation_xyz
x,y,z
-x,-y,z
1/2+x,1/2-y,1/2-z
1/2-x,1/2+y,1/2-z
-x,-y,-z
x,y,-z
1/2-x,1/2+y,1/2+z
1/2+x,1/2-y,1/2+z
loop_
_atom_site_type_symbol
_atom_site_label
_atom_site_fract_x
_atom_site_fract_y
_atom_site_fract_z
Si Si1 0.569547 0.840844 0.276990
Si Si2 0.424384 0.656309 0.791254
Si Si3 0.159928 0.188566 0.617990
Si Si4 0.470153 0.326625 0.641094
Si Si5 0.441224 0.333128 0.955242
Si Si6 0.347852 0.909025 0.590062
O O1 0.509065 0.791513 0.232328
O O2 0.752261 0.856609 0.274100
O O3 0.526707 0.716572 0.310945
O O4 0.500000 0.000000 0.290629
O O5 0.500000 0.500000 0.779855
O O6 0.437471 0.692421 0.839765
O O7 0.302872 0.302580 0.619906
O O8 0.046014 0.241672 0.580865
O O9 0.230280 0.020915 0.613882
O O10 0.500000 0.500000 0.635277
O O11 0.600955 0.225173 0.619647
O O12 0.500000 0.500000 0.959497
O O13 0.255372 0.333909 0.946048
O O14 0.464818 0.252389 0.000000
O O15 0.500000 0.000000 0.573296
#
# Coordination Sequence:
#
# PCOD8237381 Si02
#       6
#     8   8   8   8   8   8
#     4  11  23  37  55  81 110 143 181 226 273 317
#     4  11  21  36  55  78 110 145 183 223 268 323
#     4   9  19  36  56  81 107 141 179 222 273 318
#     4  10  20  36  56  78 107 144 184 221 264 321
#     4   9  17  31  55  85 111 137 177 227 273 320
#     4   9  17  32  56  81 110 143 176 219 270 320
#
# _framework density 19.286650000000002
#
# number of rings (size 3 to 8) (size 9 to 14) (size 15 to 20)
#    0.000    2.167    0.000    5.500    0.000    3.000 
#    0.000    3.333    0.000    3.000    0.000    0.000 
#    0.000    0.000    0.000    0.000    0.000    0.000 
#
# Total GULP energy -595040.551354 kJ/mol
# GULP energy per Si atom -12396.678153 kJ/mol
# Density = 1.924275 g / cm^3
# Si number density = 19.286650 Si / 1000 Ang^3
#
#
#
# Elastic Constant Matrix: (Units=GPa)
#
#
# Indices 1 2 3 4 5 6 
#
# 1 118.1070 38.5580 81.8302 0.0000 0.0000 0.0000
# 2 38.5580 95.7323 36.4151 0.0000 0.0000 0.0000
# 3 81.8302 36.4151 142.8982 0.0000 0.0000 0.0000
# 4 0.0000 0.0000 0.0000 -6.0359 0.0000 0.0000
# 5 0.0000 0.0000 0.0000 0.0000 0.3517 0.0000
# 6 0.0000 0.0000 0.0000 0.0000 0.0000 23.2810
#
#
#
# Elastic Compliance Matrix: (Units=1/GPa)
#
#
# Indices 1 2 3 4 5 6 
#
# 1 0.014788 -0.003029 -0.007697 0.000000 0.000000 0.000000
# 2 -0.003029 0.012187 -0.001371 0.000000 0.000000 0.000000
# 3 -0.007697 -0.001371 0.011755 0.000000 0.000000 0.000000
# 4 0.000000 0.000000 0.000000 -0.165676 0.000000 0.000000
# 5 0.000000 0.000000 0.000000 0.000000 2.843678 0.000000
# 6 0.000000 0.000000 0.000000 0.000000 0.000000 0.042953
#
#
# Mechanical properties :
#
#
# Convention : Reuss Voigt Hill
#
# Bulk Modulus (GPa) = 68.78916 74.48268 71.63592
# Shear Modulus (GPa) = 1.79293 16.84830 9.32062
#
# Velocity S-wave (km/s) = 0.96522 2.95883 2.20072
# Velocity P-wave (km/s) = 6.08164 7.09757 6.60916
#
# Compressibility (1/GPa) = 0.01453717
#
# Stress axis : x y z
#
# Youngs Moduli (GPa) = 67.62131 82.05290 85.07056
#
# Poissons Ratio (x) = 0.24850 0.65476
# Poissons Ratio (y) = 0.20479 0.11667
# Poissons Ratio (z) = 0.52046 0.11253
#
# Static dielectric constant tensor:
#      x y z
#    x 3.798060 0.000000 0.000000 
#    y 0.000000 3.183740 0.000000 
#    z 0.000000 0.000000 3.818200 
# 
# 
# High freq. dielectric constant tensor:
#      x y z
#    x 1.766590 0.000000 0.000000 
#    y 0.000000 1.717880 0.000000 
#    z 0.000000 0.000000 1.745170 
# 
# From -- ./inp_files/34557.got.cif
#   From: 2010.06.25/outbox.cif.g09.slc.cpg/sg58_18_cif.got.tgz:34557.got - 2010.06.26 21:38:00.
