data_PCOD8237040
_publ_section_title
;
Structure prediction by ZEFSAII (Michael W. Deem and Ramdas Pophale) SiO2 
 PCOD8237040
Probable space group: P N N M
;
_chemical_formula_sum "Si O2"
_cell_formula_units_Z 64
_cell_length_a 28.108121
_cell_length_b 13.054264
_cell_length_c 8.710900
_cell_angle_alpha 90.000000
_cell_angle_beta 90.000000
_cell_angle_gamma 90.000000
_cell_volume 3196.297785
_symmetry_space_group_name_H-M "P N N M"
_symmetry_group_IT_number 58
_symmetry_cell_setting 'orthorhombic'
loop_
_space_group_symop_operation_xyz
x,y,z
-x,-y,z
1/2+x,1/2-y,1/2-z
1/2-x,1/2+y,1/2-z
-x,-y,-z
x,y,-z
1/2-x,1/2+y,1/2+z
1/2+x,1/2-y,1/2+z
loop_
_atom_site_type_symbol
_atom_site_label
_atom_site_fract_x
_atom_site_fract_y
_atom_site_fract_z
Si Si1 0.121463 0.627380 0.673732
Si Si2 0.219861 0.721644 0.677191
Si Si3 0.484086 0.615483 0.325687
Si Si4 0.312938 0.638466 0.819873
Si Si5 0.080102 0.814682 0.822948
Si Si6 0.950455 0.549196 0.678476
Si Si7 0.408550 0.740320 0.820521
Si Si8 0.173081 0.918197 0.817797
O O1 0.109839 0.663840 0.500000
O O2 0.178439 0.634908 0.699261
O O3 0.097731 0.700926 0.796575
O O4 0.097305 0.518101 0.705238
O O5 0.235773 0.725439 0.500000
O O6 0.263268 0.691892 0.785235
O O7 0.204660 0.835015 0.728695
O O8 0.500000 0.500000 0.317337
O O9 0.472110 0.648587 0.500000
O O10 0.528364 0.675376 0.246730
O O11 0.438408 0.639461 0.222899
O O12 0.354829 0.715979 0.763429
O O13 0.313396 0.532354 0.727826
O O14 0.317952 0.615149 0.000000
O O15 0.118629 0.897612 0.764574
O O16 0.071590 0.837080 0.000000
O O17 0.960984 0.564722 0.500000
O O18 0.934541 0.658700 0.753321
O O19 0.000000 0.500000 0.749521
O O20 0.406856 0.758158 0.000000
O O21 0.179742 0.902367 0.000000
#
# Coordination Sequence:
#
# PCOD8237040 Si02
#       8
#     8   8   8   8   8   8   8   8
#     4   9  18  33  55  80 105 138 181 226 270 325
#     4  10  21  37  58  85 113 145 191 240 289 346
#     4  10  20  34  52  75 105 140 177 218 269 331
#     4  11  23  38  56  81 114 148 187 236 288 344
#     4   9  18  32  52  78 106 137 175 221 272 325
#     4   9  17  32  55  81 110 144 180 220 273 335
#     4  10  22  37  54  80 111 144 185 232 279 332
#     4  10  20  37  60  82 109 146 185 230 285 338
#
# _framework density 20.023164999999999
#
# number of rings (size 3 to 8) (size 9 to 14) (size 15 to 20)
#    0.000    2.250    0.000    2.625    0.000    5.750 
#    0.000    3.125    0.000    2.250    0.000    0.000 
#    0.000    0.000    0.000    0.000    0.000    0.000 
#
# Total GULP energy -793048.234139 kJ/mol
# GULP energy per Si atom -12391.378658 kJ/mol
# Density = 1.997759 g / cm^3
# Si number density = 20.023165 Si / 1000 Ang^3
#
#
#
# Elastic Constant Matrix: (Units=GPa)
#
#
# Indices 1 2 3 4 5 6 
#
# 1 138.8497 50.8796 19.8233 0.0000 0.0000 0.0000
# 2 50.8796 91.5776 13.6447 0.0000 0.0000 0.0000
# 3 19.8233 13.6447 21.2016 0.0000 0.0000 0.0000
# 4 0.0000 0.0000 0.0000 36.0856 0.0000 0.0000
# 5 0.0000 0.0000 0.0000 0.0000 24.6741 0.0000
# 6 0.0000 0.0000 0.0000 0.0000 0.0000 27.5613
#
#
#
# Elastic Compliance Matrix: (Units=1/GPa)
#
#
# Indices 1 2 3 4 5 6 
#
# 1 0.009731 -0.004481 -0.006215 0.000000 0.000000 0.000000
# 2 -0.004481 0.014141 -0.004911 0.000000 0.000000 0.000000
# 3 -0.006215 -0.004911 0.056138 0.000000 0.000000 0.000000
# 4 0.000000 0.000000 0.000000 0.027712 0.000000 0.000000
# 5 0.000000 0.000000 0.000000 0.000000 0.040528 0.000000
# 6 0.000000 0.000000 0.000000 0.000000 0.000000 0.036283
#
#
# Mechanical properties :
#
#
# Convention : Reuss Voigt Hill
#
# Bulk Modulus (GPa) = 20.49337 46.70268 33.59802
# Shear Modulus (GPa) = 21.55058 28.81629 25.18344
#
# Velocity S-wave (km/s) = 3.28423 3.79773 3.55028
# Velocity P-wave (km/s) = 4.96373 6.52727 5.79844
#
# Compressibility (1/GPa) = 0.04879628
#
# Stress axis : x y z
#
# Youngs Moduli (GPa) = 102.76262 70.71733 17.81321
#
# Poissons Ratio (x) = 0.31685 0.11071
# Poissons Ratio (y) = 0.46043 0.08749
# Poissons Ratio (z) = 0.63867 0.34732
#
# Static dielectric constant tensor:
#      x y z
#    x 4.002500 0.000000 0.000000 
#    y 0.000000 3.677380 0.000000 
#    z 0.000000 0.000000 3.417350 
# 
# 
# High freq. dielectric constant tensor:
#      x y z
#    x 1.795120 0.000000 0.000000 
#    y 0.000000 1.777280 0.000000 
#    z 0.000000 0.000000 1.757740 
# 
# From -- ./inp_files/11005.got.cif
#   From: 2010.06.25/outbox.cif.g09.slc.cpg/sg58_6_cif.got.tgz:11005.got - 2010.06.26 21:38:00.
