data_PCOD8237520
_publ_section_title
;
Structure prediction by ZEFSAII (Michael W. Deem and Ramdas Pophale) SiO2 
 PCOD8237520
Probable space group: P N N M
;
_chemical_formula_sum "Si O2"
_cell_formula_units_Z 56
_cell_length_a 16.645668
_cell_length_b 19.287883
_cell_length_c 8.645887
_cell_angle_alpha 90.000000
_cell_angle_beta 90.000000
_cell_angle_gamma 90.000000
_cell_volume 2775.845859
_symmetry_space_group_name_H-M "P N N M"
_symmetry_group_IT_number 58
_symmetry_cell_setting 'orthorhombic'
loop_
_space_group_symop_operation_xyz
x,y,z
-x,-y,z
1/2+x,1/2-y,1/2-z
1/2-x,1/2+y,1/2-z
-x,-y,-z
x,y,-z
1/2-x,1/2+y,1/2+z
1/2+x,1/2-y,1/2+z
loop_
_atom_site_type_symbol
_atom_site_label
_atom_site_fract_x
_atom_site_fract_y
_atom_site_fract_z
Si Si1 0.574325 0.545571 0.179600
Si Si2 0.744844 0.533058 0.679757
Si Si3 0.245951 0.744742 0.822075
Si Si4 0.091580 0.798762 0.675985
Si Si5 0.648709 0.149472 0.679016
Si Si6 0.824096 0.401462 0.819858
Si Si7 0.980890 0.344492 0.678055
O O1 0.500000 0.500000 0.240612
O O2 0.652243 0.523214 0.275190
O O3 0.551887 0.626407 0.206789
O O4 0.591392 0.529871 0.000000
O O5 0.752732 0.550999 0.500000
O O6 0.781717 0.595464 0.778737
O O7 0.793056 0.463374 0.715118
O O8 0.166375 0.789705 0.790044
O O9 0.320061 0.773568 0.721715
O O10 0.230617 0.664974 0.778653
O O11 0.269183 0.753598 0.000000
O O12 0.124160 0.793745 0.500000
O O13 0.026428 0.738423 0.706860
O O14 0.627819 0.145632 0.500000
O O15 0.568746 0.130719 0.772840
O O16 0.916424 0.385856 0.779892
O O17 0.817851 0.420945 0.000000
O O18 0.966330 0.363603 0.500000
#
# Coordination Sequence:
#
# PCOD8237520 Si02
#       7
#     8   8   8   8   8   8   8
#     4  10  21  38  61  90 124 164 203 245 303 370
#     4  12  25  41  62  90 123 163 208 257 309 364
#     4  10  20  36  61  88 115 154 201 252 303 361
#     4   9  18  35  59  84 116 156 195 242 298 358
#     4  12  24  39  61  89 123 164 209 253 307 369
#     4  10  22  41  63  89 124 163 203 252 312 373
#     4  10  21  38  60  90 122 157 206 258 307 361
#
# _framework density 20.174030999999999
#
# number of rings (size 3 to 8) (size 9 to 14) (size 15 to 20)
#    0.000    1.571    1.429    3.857    0.000    4.286 
#    0.000    5.714    0.000    0.000    0.000    0.000 
#    0.000    0.000    0.000    0.000    0.000    0.000 
#
# Total GULP energy -694658.997743 kJ/mol
# GULP energy per Si atom -12404.624960 kJ/mol
# Density = 2.012811 g / cm^3
# Si number density = 20.174031 Si / 1000 Ang^3
#
#
#
# Elastic Constant Matrix: (Units=GPa)
#
#
# Indices 1 2 3 4 5 6 
#
# 1 91.7882 22.9022 17.9528 0.0000 0.0000 0.0000
# 2 22.9022 62.4294 19.5348 0.0000 0.0000 0.0000
# 3 17.9528 19.5348 63.1048 0.0000 0.0000 0.0000
# 4 0.0000 0.0000 0.0000 27.2894 0.0000 0.0000
# 5 0.0000 0.0000 0.0000 0.0000 34.6969 0.0000
# 6 0.0000 0.0000 0.0000 0.0000 0.0000 26.7240
#
#
#
# Elastic Compliance Matrix: (Units=1/GPa)
#
#
# Indices 1 2 3 4 5 6 
#
# 1 0.012293 -0.003782 -0.002327 0.000000 0.000000 0.000000
# 2 -0.003782 0.018899 -0.004775 0.000000 0.000000 0.000000
# 3 -0.002327 -0.004775 0.017987 0.000000 0.000000 0.000000
# 4 0.000000 0.000000 0.000000 0.036644 0.000000 0.000000
# 5 0.000000 0.000000 0.000000 0.000000 0.028821 0.000000
# 6 0.000000 0.000000 0.000000 0.000000 0.000000 0.037420
#
#
# Mechanical properties :
#
#
# Convention : Reuss Voigt Hill
#
# Bulk Modulus (GPa) = 36.47874 37.56690 37.02282
# Shear Modulus (GPa) = 27.32716 28.20423 27.76569
#
# Velocity S-wave (km/s) = 3.68444 3.74310 3.71389
# Velocity P-wave (km/s) = 6.01843 6.11089 6.06483
#
# Compressibility (1/GPa) = 0.02741323
#
# Stress axis : x y z
#
# Youngs Moduli (GPa) = 81.34511 52.91160 55.59690
#
# Poissons Ratio (x) = 0.20010 0.12936
# Poissons Ratio (y) = 0.30763 0.26546
# Poissons Ratio (z) = 0.18926 0.25263
#
# Static dielectric constant tensor:
#      x y z
#    x 3.506470 0.000000 0.000000 
#    y 0.000000 3.783790 0.000000 
#    z 0.000000 0.000000 3.640060 
# 
# 
# High freq. dielectric constant tensor:
#      x y z
#    x 1.779230 0.000000 0.000000 
#    y 0.000000 1.791460 0.000000 
#    z 0.000000 0.000000 1.790490 
# 
# From -- ./inp_files/6342.got.cif
#   From: 2010.06.25/outbox.cif.g09.slc.cpg/sg58_4_cif.got.tgz:6342.got - 2010.06.26 21:38:00.
