data_PCOD8237902
_publ_section_title
;
Structure prediction by ZEFSAII (Michael W. Deem and Ramdas Pophale) SiO2 
 PCOD8237902
Probable space group: P N N M
;
_chemical_formula_sum "Si O2"
_cell_formula_units_Z 48
_cell_length_a 13.984089
_cell_length_b 9.128831
_cell_length_c 19.210837
_cell_angle_alpha 90.000000
_cell_angle_beta 90.000000
_cell_angle_gamma 90.000000
_cell_volume 2452.424429
_symmetry_space_group_name_H-M "P N N M"
_symmetry_group_IT_number 58
_symmetry_cell_setting 'orthorhombic'
loop_
_space_group_symop_operation_xyz
x,y,z
-x,-y,z
1/2+x,1/2-y,1/2-z
1/2-x,1/2+y,1/2-z
-x,-y,-z
x,y,-z
1/2-x,1/2+y,1/2+z
1/2+x,1/2-y,1/2+z
loop_
_atom_site_type_symbol
_atom_site_label
_atom_site_fract_x
_atom_site_fract_y
_atom_site_fract_z
Si Si1 0.175320 0.140789 0.921926
Si Si2 0.528736 0.692240 0.771180
Si Si3 0.500000 0.500000 0.351472
Si Si4 0.500000 0.000000 0.178536
Si Si5 0.765063 0.152836 0.311894
Si Si6 0.180115 0.164911 0.314022
Si Si7 0.834700 0.596247 0.420218
O O1 0.212536 0.276684 0.877291
O O2 0.071150 0.090875 0.898940
O O3 0.239050 0.996858 0.915442
O O4 0.171254 0.200536 0.000000
O O5 0.553741 0.622039 0.696270
O O6 0.621239 0.678873 0.820392
O O7 0.430315 0.614168 0.798372
O O8 0.505375 0.864442 0.768539
O O9 0.410653 0.987897 0.127084
O O10 0.719361 0.219499 0.242279
O O11 0.750853 0.976706 0.312147
O O12 0.184027 0.241219 0.389595
O O13 0.870252 0.611905 0.500000
#
# Coordination Sequence:
#
# PCOD8237902 Si02
#       7
#     8   8   4   4   8   8   8
#     4  11  24  41  63  87 123 172 213 256 313 379
#     4  11  21  35  61  91 123 155 202 262 319 367
#     4  12  21  42  60  94 127 160 212 264 315 366
#     4  10  21  34  60  92 123 158 202 252 313 378
#     4  12  21  40  61  89 128 158 212 268 313 376
#     4  11  23  36  60  92 121 162 208 264 322 365
#     4  10  21  39  58  86 124 168 204 249 313 378
#
# _framework density 19.572468000000001
#
# number of rings (size 3 to 8) (size 9 to 14) (size 15 to 20)
#    0.000    1.000    5.000    2.500    2.333    0.667 
#    0.000    0.000    0.000    3.000    0.000    5.833 
#    0.000    0.000    0.000    0.000    0.000    0.000 
#
# Total GULP energy -595120.001819 kJ/mol
# GULP energy per Si atom -12398.333371 kJ/mol
# Density = 1.952792 g / cm^3
# Si number density = 19.572468 Si / 1000 Ang^3
#
#
#
# Elastic Constant Matrix: (Units=GPa)
#
#
# Indices 1 2 3 4 5 6 
#
# 1 93.2807 40.0436 35.3408 0.0000 0.0000 0.0000
# 2 40.0436 82.7592 45.4615 0.0000 0.0000 0.0000
# 3 35.3408 45.4615 103.4525 0.0000 0.0000 0.0000
# 4 0.0000 0.0000 0.0000 28.5400 0.0000 0.0000
# 5 0.0000 0.0000 0.0000 0.0000 23.6314 0.0000
# 6 0.0000 0.0000 0.0000 0.0000 0.0000 31.4806
#
#
#
# Elastic Compliance Matrix: (Units=1/GPa)
#
#
# Indices 1 2 3 4 5 6 
#
# 1 0.013959 -0.005451 -0.002374 0.000000 0.000000 0.000000
# 2 -0.005451 0.018056 -0.006073 0.000000 0.000000 0.000000
# 3 -0.002374 -0.006073 0.013146 0.000000 0.000000 0.000000
# 4 0.000000 0.000000 0.000000 0.035039 0.000000 0.000000
# 5 0.000000 0.000000 0.000000 0.000000 0.042317 0.000000
# 6 0.000000 0.000000 0.000000 0.000000 0.000000 0.031766
#
#
# Mechanical properties :
#
#
# Convention : Reuss Voigt Hill
#
# Bulk Modulus (GPa) = 57.57753 57.90935 57.74344
# Shear Modulus (GPa) = 26.61480 27.30681 26.96080
#
# Velocity S-wave (km/s) = 3.69156 3.73924 3.71548
# Velocity P-wave (km/s) = 6.90301 6.94939 6.92624
#
# Compressibility (1/GPa) = 0.01736789
#
# Stress axis : x y z
#
# Youngs Moduli (GPa) = 71.63642 55.38187 76.07012
#
# Poissons Ratio (x) = 0.30186 0.18056
# Poissons Ratio (y) = 0.39045 0.46196
# Poissons Ratio (z) = 0.17003 0.33632
#
# Static dielectric constant tensor:
#      x y z
#    x 3.678220 0.000000 0.000000 
#    y 0.000000 3.668320 0.000000 
#    z 0.000000 0.000000 3.528740 
# 
# 
# High freq. dielectric constant tensor:
#      x y z
#    x 1.771770 0.000000 0.000000 
#    y 0.000000 1.771570 0.000000 
#    z 0.000000 0.000000 1.743080 
# 
# From -- ./inp_files/26842.got.cif
#   From: 2010.06.25/outbox.cif.g09.slc.cpg/sg58_14_cif.got.tgz:26842.got - 2010.06.26 21:38:00.
