data_PCOD8237332
_publ_section_title
;
Structure prediction by ZEFSAII (Michael W. Deem and Ramdas Pophale) SiO2 
 PCOD8237332
Probable space group: P N N M
;
_chemical_formula_sum "Si O2"
_cell_formula_units_Z 64
_cell_length_a 10.669821
_cell_length_b 31.988043
_cell_length_c 9.539891
_cell_angle_alpha 90.000000
_cell_angle_beta 90.000000
_cell_angle_gamma 90.000000
_cell_volume 3256.028648
_symmetry_space_group_name_H-M "P N N M"
_symmetry_group_IT_number 58
_symmetry_cell_setting 'orthorhombic'
loop_
_space_group_symop_operation_xyz
x,y,z
-x,-y,z
1/2+x,1/2-y,1/2-z
1/2-x,1/2+y,1/2-z
-x,-y,-z
x,y,-z
1/2-x,1/2+y,1/2+z
1/2+x,1/2-y,1/2+z
loop_
_atom_site_type_symbol
_atom_site_label
_atom_site_fract_x
_atom_site_fract_y
_atom_site_fract_z
Si Si1 0.393061 0.966887 0.338491
Si Si2 0.359467 0.516480 0.158707
Si Si3 0.779797 0.336465 0.841538
Si Si4 0.992582 0.305833 0.339030
Si Si5 0.413146 0.353489 0.339958
Si Si6 0.476546 0.712592 0.154705
Si Si7 0.848271 0.612898 0.336807
Si Si8 0.833402 0.903572 0.162084
O O1 0.416939 0.955590 0.500000
O O2 0.411239 0.924620 0.249657
O O3 0.500000 0.000000 0.289199
O O4 0.250098 0.982569 0.316415
O O5 0.500000 0.500000 0.182017
O O6 0.336875 0.550459 0.276830
O O7 0.347942 0.534556 0.000000
O O8 0.877865 0.306538 0.767261
O O9 0.651513 0.312004 0.838838
O O10 0.770970 0.378604 0.749698
O O11 0.820285 0.347813 0.000000
O O12 0.946788 0.309484 0.500000
O O13 0.054371 0.260710 0.308387
O O14 0.086410 0.343136 0.302054
O O15 0.393740 0.340116 0.500000
O O16 0.424731 0.309700 0.257687
O O17 0.295324 0.380766 0.288412
O O18 0.532034 0.382780 0.317351
O O19 0.536121 0.709690 0.000000
O O20 0.858547 0.601185 0.500000
O O21 0.792650 0.904960 0.000000
#
# Coordination Sequence:
#
# PCOD8237332 Si02
#       8
#     8   8   8   8   8   8   8   8
#     4  10  23  41  59  83 117 151 191 242 290 344
#     4  10  21  37  59  86 115 151 192 240 293 345
#     4  10  21  37  58  82 111 150 192 229 277 340
#     4  10  22  38  56  82 116 148 187 236 280 331
#     4   9  19  36  59  86 118 152 188 233 282 335
#     4   9  20  37  57  83 114 150 189 234 283 331
#     4  10  22  39  60  84 114 152 191 232 285 343
#     4  10  20  35  58  87 117 148 186 236 286 334
#
# _framework density 19.655846
#
# number of rings (size 3 to 8) (size 9 to 14) (size 15 to 20)
#    0.000    2.250    0.000    1.500    3.500    3.500 
#    0.000    0.000    0.000    0.000    0.000    0.000 
#    0.000    0.000    0.000    0.000    0.000    0.000 
#
# Total GULP energy -793509.177475 kJ/mol
# GULP energy per Si atom -12398.580898 kJ/mol
# Density = 1.961111 g / cm^3
# Si number density = 19.655846 Si / 1000 Ang^3
#
#
#
# Elastic Constant Matrix: (Units=GPa)
#
#
# Indices 1 2 3 4 5 6 
#
# 1 39.6384 9.8776 16.2408 0.0000 0.0000 0.0000
# 2 9.8776 117.6541 60.2365 0.0000 0.0000 0.0000
# 3 16.2408 60.2365 97.4202 0.0000 0.0000 0.0000
# 4 0.0000 0.0000 0.0000 39.9205 0.0000 0.0000
# 5 0.0000 0.0000 0.0000 0.0000 23.9978 0.0000
# 6 0.0000 0.0000 0.0000 0.0000 0.0000 17.7704
#
#
#
# Elastic Compliance Matrix: (Units=1/GPa)
#
#
# Indices 1 2 3 4 5 6 
#
# 1 0.027078 0.000055 -0.004548 0.000000 0.000000 0.000000
# 2 0.000055 0.012437 -0.007699 0.000000 0.000000 0.000000
# 3 -0.004548 -0.007699 0.015783 0.000000 0.000000 0.000000
# 4 0.000000 0.000000 0.000000 0.025050 0.000000 0.000000
# 5 0.000000 0.000000 0.000000 0.000000 0.041671 0.000000
# 6 0.000000 0.000000 0.000000 0.000000 0.000000 0.056273
#
#
# Mechanical properties :
#
#
# Convention : Reuss Voigt Hill
#
# Bulk Modulus (GPa) = 32.34786 47.49138 39.91962
# Shear Modulus (GPa) = 23.47640 27.56160 25.51900
#
# Velocity S-wave (km/s) = 3.45972 3.74867 3.60709
# Velocity P-wave (km/s) = 5.69670 6.55367 6.14015
#
# Compressibility (1/GPa) = 0.03091395
#
# Stress axis : x y z
#
# Youngs Moduli (GPa) = 36.93058 80.40811 63.35748
#
# Poissons Ratio (x) = -0.00445 0.28817
# Poissons Ratio (y) = -0.00204 0.48779
# Poissons Ratio (z) = 0.16797 0.61906
#
# Static dielectric constant tensor:
#      x y z
#    x 3.702010 0.000000 0.000000 
#    y 0.000000 3.554880 0.000000 
#    z 0.000000 0.000000 3.732950 
# 
# 
# High freq. dielectric constant tensor:
#      x y z
#    x 1.763490 0.000000 0.000000 
#    y 0.000000 1.766750 0.000000 
#    z 0.000000 0.000000 1.768160 
# 
# From -- ./inp_files/4686.got.cif
#   From: 2010.06.25/outbox.cif.g09.slc.cpg/sg58_3_cif.got.tgz:4686.got - 2010.06.26 21:38:00.
