data_PCOD8237764
_publ_section_title
;
Structure prediction by ZEFSAII (Michael W. Deem and Ramdas Pophale) SiO2 
 PCOD8237764
Probable space group: P N N M
;
_chemical_formula_sum "Si O2"
_cell_formula_units_Z 48
_cell_length_a 17.334382
_cell_length_b 8.929274
_cell_length_c 14.645533
_cell_angle_alpha 90.000000
_cell_angle_beta 90.000000
_cell_angle_gamma 90.000000
_cell_volume 2266.886074
_symmetry_space_group_name_H-M "P N N M"
_symmetry_group_IT_number 58
_symmetry_cell_setting 'orthorhombic'
loop_
_space_group_symop_operation_xyz
x,y,z
-x,-y,z
1/2+x,1/2-y,1/2-z
1/2-x,1/2+y,1/2-z
-x,-y,-z
x,y,-z
1/2-x,1/2+y,1/2+z
1/2+x,1/2-y,1/2+z
loop_
_atom_site_type_symbol
_atom_site_label
_atom_site_fract_x
_atom_site_fract_y
_atom_site_fract_z
Si Si1 0.372944 0.775687 0.397555
Si Si2 0.309272 0.743398 0.106415
Si Si3 0.703655 0.604300 0.100493
Si Si4 0.087440 0.952226 0.099298
Si Si5 0.840824 0.264755 0.225953
Si Si6 0.417918 0.934471 0.770093
O O1 0.407696 0.796646 0.500000
O O2 0.294689 0.869644 0.387058
O O3 0.359478 0.598458 0.378114
O O4 0.432241 0.835392 0.320968
O O5 0.322275 0.566565 0.113802
O O6 0.235427 0.778586 0.168962
O O7 0.381518 0.835068 0.148222
O O8 0.297046 0.790418 0.000000
O O9 0.658429 0.703305 0.171962
O O10 0.678722 0.659016 0.000000
O O11 0.091867 0.820767 0.172765
O O12 0.112386 0.889211 0.000000
O O13 0.000000 0.000000 0.096913
O O14 0.857807 0.438843 0.237253
O O15 0.500000 0.000000 0.803723
#
# Coordination Sequence:
#
# PCOD8237764 Si02
#       6
#     8   8   8   8   8   8
#     4  10  20  38  62  91 129 166 211 262 316 380
#     4  11  23  42  65  90 126 169 220 272 319 380
#     4  10  22  40  64  93 121 159 216 275 319 367
#     4  10  22  38  60  93 133 171 205 256 324 389
#     4  12  22  39  65  95 123 167 219 262 322 387
#     4  12  26  41  63  98 136 173 212 266 333 396
#
# _framework density 21.174420000000001
#
# number of rings (size 3 to 8) (size 9 to 14) (size 15 to 20)
#    0.000    1.167    3.333    2.500    2.333    2.000 
#    0.000    0.000    0.000    2.500    0.000    0.000 
#    0.000    0.000    0.000    0.000    0.000    0.000 
#
# Total GULP energy -594984.520711 kJ/mol
# GULP energy per Si atom -12395.510848 kJ/mol
# Density = 2.112623 g / cm^3
# Si number density = 21.174420 Si / 1000 Ang^3
#
#
#
# Elastic Constant Matrix: (Units=GPa)
#
#
# Indices 1 2 3 4 5 6 
#
# 1 62.6153 20.4962 28.2310 0.0000 0.0000 0.0000
# 2 20.4962 93.6952 57.9348 0.0000 0.0000 0.0000
# 3 28.2310 57.9348 155.8012 0.0000 0.0000 0.0000
# 4 0.0000 0.0000 0.0000 31.7943 0.0000 0.0000
# 5 0.0000 0.0000 0.0000 0.0000 22.5614 0.0000
# 6 0.0000 0.0000 0.0000 0.0000 0.0000 32.2594
#
#
#
# Elastic Compliance Matrix: (Units=1/GPa)
#
#
# Indices 1 2 3 4 5 6 
#
# 1 0.017821 -0.002470 -0.002311 0.000000 0.000000 0.000000
# 2 -0.002470 0.014202 -0.004833 0.000000 0.000000 0.000000
# 3 -0.002311 -0.004833 0.008634 0.000000 0.000000 0.000000
# 4 0.000000 0.000000 0.000000 0.031452 0.000000 0.000000
# 5 0.000000 0.000000 0.000000 0.000000 0.044323 0.000000
# 6 0.000000 0.000000 0.000000 0.000000 0.000000 0.030999
#
#
# Mechanical properties :
#
#
# Convention : Reuss Voigt Hill
#
# Bulk Modulus (GPa) = 46.66474 58.38175 52.52325
# Shear Modulus (GPa) = 28.76835 31.01969 29.89402
#
# Velocity S-wave (km/s) = 3.68997 3.83163 3.76147
# Velocity P-wave (km/s) = 6.34355 6.87073 6.61239
#
# Compressibility (1/GPa) = 0.02142945
#
# Stress axis : x y z
#
# Youngs Moduli (GPa) = 56.11434 70.41352 115.81458
#
# Poissons Ratio (x) = 0.17389 0.26763
# Poissons Ratio (y) = 0.13857 0.55979
# Poissons Ratio (z) = 0.12967 0.34034
#
# Static dielectric constant tensor:
#      x y z
#    x 3.436430 0.000000 0.000000 
#    y 0.000000 4.003540 0.000000 
#    z 0.000000 0.000000 4.137360 
# 
# 
# High freq. dielectric constant tensor:
#      x y z
#    x 1.798730 0.000000 0.000000 
#    y 0.000000 1.839190 0.000000 
#    z 0.000000 0.000000 1.845160 
# 
# From -- ./inp_files/19836.got.cif
#   From: 2010.06.25/outbox.cif.g09.slc.cpg/sg58_10_cif.got.tgz:19836.got - 2010.06.26 21:38:00.
