data_PCOD8237553
_publ_section_title
;
Structure prediction by ZEFSAII (Michael W. Deem and Ramdas Pophale) SiO2 
 PCOD8237553
Probable space group: P N N M
;
_chemical_formula_sum "Si O2"
_cell_formula_units_Z 32
_cell_length_a 18.898958
_cell_length_b 9.665596
_cell_length_c 7.907617
_cell_angle_alpha 90.000000
_cell_angle_beta 90.000000
_cell_angle_gamma 90.000000
_cell_volume 1444.481969
_symmetry_space_group_name_H-M "P N N M"
_symmetry_group_IT_number 58
_symmetry_cell_setting 'orthorhombic'
loop_
_space_group_symop_operation_xyz
x,y,z
-x,-y,z
1/2+x,1/2-y,1/2-z
1/2-x,1/2+y,1/2-z
-x,-y,-z
x,y,-z
1/2-x,1/2+y,1/2+z
1/2+x,1/2-y,1/2+z
loop_
_atom_site_type_symbol
_atom_site_label
_atom_site_fract_x
_atom_site_fract_y
_atom_site_fract_z
Si Si1 0.520897 0.661037 0.000000
Si Si2 0.429080 0.913040 0.000000
Si Si3 0.925134 0.073879 0.818063
Si Si4 0.709375 0.394876 0.305852
Si Si5 0.672306 0.087273 0.691719
O O1 0.500000 0.500000 0.000000
O O2 0.450277 0.751686 0.000000
O O3 0.568788 0.688793 0.831521
O O4 0.387319 0.949632 0.828764
O O5 0.500000 0.000000 0.000000
O O6 0.867388 0.959460 0.768844
O O7 0.906498 0.144401 0.000000
O O8 0.000000 0.000000 0.835673
O O9 0.731293 0.415498 0.500000
O O10 0.707455 0.233579 0.256626
O O11 0.767667 0.470041 0.191788
O O12 0.640727 0.095855 0.500000
#
# Coordination Sequence:
#
# PCOD8237553 Si02
#       5
#     4   4   8   8   8
#     4  10  20  36  64  92 122 171 221 266 322 395
#     4  12  28  48  66  98 147 175 226 290 343 413
#     4   9  18  34  59  93 127 162 215 277 326 383
#     4  10  22  42  67 100 142 176 231 284 337 415
#     4  11  25  44  70  99 135 188 225 279 348 405
#
# _framework density 22.153271
#
# number of rings (size 3 to 8) (size 9 to 14) (size 15 to 20)
#    0.000    1.750    1.250    3.000    3.500    5.500 
#    0.000    2.500    0.000    0.000    0.000    0.000 
#    0.000    0.000    0.000    0.000    0.000    0.000 
#
# Total GULP energy -396654.000123 kJ/mol
# GULP energy per Si atom -12395.437504 kJ/mol
# Density = 2.210285 g / cm^3
# Si number density = 22.153271 Si / 1000 Ang^3
#
#
#
# Elastic Constant Matrix: (Units=GPa)
#
#
# Indices 1 2 3 4 5 6 
#
# 1 112.8090 58.3774 57.0715 0.0000 0.0000 0.0000
# 2 58.3774 68.3276 31.5612 0.0000 0.0000 0.0000
# 3 57.0715 31.5612 172.5568 0.0000 0.0000 0.0000
# 4 0.0000 0.0000 0.0000 13.1458 0.0000 0.0000
# 5 0.0000 0.0000 0.0000 0.0000 6.6732 0.0000
# 6 0.0000 0.0000 0.0000 0.0000 0.0000 41.9541
#
#
#
# Elastic Compliance Matrix: (Units=1/GPa)
#
#
# Indices 1 2 3 4 5 6 
#
# 1 0.017484 -0.013399 -0.003332 0.000000 0.000000 0.000000
# 2 -0.013399 0.026254 -0.000370 0.000000 0.000000 0.000000
# 3 -0.003332 -0.000370 0.006965 0.000000 0.000000 0.000000
# 4 0.000000 0.000000 0.000000 0.076070 0.000000 0.000000
# 5 0.000000 0.000000 0.000000 0.000000 0.149853 0.000000
# 6 0.000000 0.000000 0.000000 0.000000 0.000000 0.023836
#
#
# Mechanical properties :
#
#
# Convention : Reuss Voigt Hill
#
# Bulk Modulus (GPa) = 60.60382 71.96819 66.28601
# Shear Modulus (GPa) = 14.69880 26.13351 20.41615
#
# Velocity S-wave (km/s) = 2.57865 3.43836 3.03906
# Velocity P-wave (km/s) = 6.02345 6.95126 6.50392
#
# Compressibility (1/GPa) = 0.01650061
#
# Stress axis : x y z
#
# Youngs Moduli (GPa) = 57.19527 38.08931 143.57570
#
# Poissons Ratio (x) = 0.51035 0.47839
# Poissons Ratio (y) = 0.76635 0.05318
# Poissons Ratio (z) = 0.19057 0.01411
#
# Static dielectric constant tensor:
#      x y z
#    x 3.730960 0.000000 0.000000 
#    y 0.000000 3.485450 0.000000 
#    z 0.000000 0.000000 6.960850 
# 
# 
# High freq. dielectric constant tensor:
#      x y z
#    x 1.861970 0.000000 0.000000 
#    y 0.000000 1.843300 0.000000 
#    z 0.000000 0.000000 1.898040 
# 
# From -- ./inp_files/5074.got.cif
#   From: 2010.06.25/outbox.cif.g09.slc.cpg/sg58_3_cif.got.tgz:5074.got - 2010.06.26 21:38:00.
