data_PCOD8237102
_publ_section_title
;
Structure prediction by ZEFSAII (Michael W. Deem and Ramdas Pophale) SiO2 
 PCOD8237102
Probable space group: P N N M
;
_chemical_formula_sum "Si O2"
_cell_formula_units_Z 36
_cell_length_a 22.530545
_cell_length_b 5.834671
_cell_length_c 13.906367
_cell_angle_alpha 90.000000
_cell_angle_beta 90.000000
_cell_angle_gamma 90.000000
_cell_volume 1828.107609
_symmetry_space_group_name_H-M "P N N M"
_symmetry_group_IT_number 58
_symmetry_cell_setting 'orthorhombic'
loop_
_space_group_symop_operation_xyz
x,y,z
-x,-y,z
1/2+x,1/2-y,1/2-z
1/2-x,1/2+y,1/2-z
-x,-y,-z
x,y,-z
1/2-x,1/2+y,1/2+z
1/2+x,1/2-y,1/2+z
loop_
_atom_site_type_symbol
_atom_site_label
_atom_site_fract_x
_atom_site_fract_y
_atom_site_fract_z
Si Si1 0.326077 0.741646 0.743950
Si Si2 0.132828 0.618169 0.894503
Si Si3 0.434759 0.519282 0.320974
Si Si4 0.532513 0.246763 0.500000
Si Si5 0.744739 0.560401 0.394123
O O1 0.381404 0.563002 0.755464
O O2 0.272880 0.648595 0.676137
O O3 0.353468 0.964783 0.696369
O O4 0.299732 0.799479 0.848211
O O5 0.075228 0.774558 0.873080
O O6 0.188708 0.780743 0.908698
O O7 0.121049 0.494540 0.000000
O O8 0.500000 0.500000 0.271840
O O9 0.430621 0.730809 0.399087
O O10 0.500000 0.500000 0.500000
O O11 0.500000 0.000000 0.500000
O O12 0.764342 0.468616 0.500000
#
# Coordination Sequence:
#
# PCOD8237102 Si02
#       5
#     8   8   8   4   8
#     4  11  21  35  58  80 115 150 191 244 300 364
#     4  10  20  34  55  80 114 153 186 237 294 360
#     4  10  23  34  50  82 118 156 198 239 297 366
#     4  10  22  36  54  82 126 166 204 246 301 378
#     4  10  21  38  54  84 113 145 195 242 296 362
#
# _framework density 19.692494
#
# number of rings (size 3 to 8) (size 9 to 14) (size 15 to 20)
#    0.000    1.778    3.333    0.667    9.333    0.000 
#    0.000    0.000    0.000    0.667    0.000    1.556 
#    0.000    0.000    0.000    0.000    0.000    0.000 
#
# Total GULP energy -446081.271608 kJ/mol
# GULP energy per Si atom -12391.146434 kJ/mol
# Density = 1.964767 g / cm^3
# Si number density = 19.692494 Si / 1000 Ang^3
#
#
#
# Elastic Constant Matrix: (Units=GPa)
#
#
# Indices 1 2 3 4 5 6 
#
# 1 112.4462 20.9809 45.4608 0.0000 0.0000 0.0000
# 2 20.9809 58.8376 19.6359 0.0000 0.0000 0.0000
# 3 45.4608 19.6359 82.4147 0.0000 0.0000 0.0000
# 4 0.0000 0.0000 0.0000 -101.8645 0.0000 0.0000
# 5 0.0000 0.0000 0.0000 0.0000 -3.4527 0.0000
# 6 0.0000 0.0000 0.0000 0.0000 0.0000 36.2315
#
#
#
# Elastic Compliance Matrix: (Units=1/GPa)
#
#
# Indices 1 2 3 4 5 6 
#
# 1 0.011700 -0.002193 -0.005932 0.000000 0.000000 0.000000
# 2 -0.002193 0.018875 -0.003288 0.000000 0.000000 0.000000
# 3 -0.005932 -0.003288 0.016189 0.000000 0.000000 0.000000
# 4 0.000000 0.000000 0.000000 -0.009817 0.000000 0.000000
# 5 0.000000 0.000000 0.000000 0.000000 -0.289624 0.000000
# 6 0.000000 0.000000 0.000000 0.000000 0.000000 0.027600
#
#
# Mechanical properties :
#
#
# Convention : Reuss Voigt Hill
#
# Bulk Modulus (GPa) = 41.77013 47.31709 44.54361
# Shear Modulus (GPa) = -25.73701 -2.64241 -14.18971
#
# Velocity S-wave (km/s) = -3.61909 -1.15963 -2.68725
# Velocity P-wave (km/s) = 1.94769 4.72093 3.61114
#
# Compressibility (1/GPa) = 0.02394055
#
# Stress axis : x y z
#
# Youngs Moduli (GPa) = 85.46743 52.98017 61.77032
#
# Poissons Ratio (x) = 0.11617 0.36640
# Poissons Ratio (y) = 0.18740 0.20308
# Poissons Ratio (z) = 0.50696 0.17418
#
# Static dielectric constant tensor:
#      x y z
#    x 3.833920 0.000000 0.000000 
#    y 0.000000 3.867170 0.000000 
#    z 0.000000 0.000000 3.565260 
# 
# 
# High freq. dielectric constant tensor:
#      x y z
#    x 1.777150 0.000000 0.000000 
#    y 0.000000 1.785230 0.000000 
#    z 0.000000 0.000000 1.714470 
# 
# From -- ./inp_files/23415.got.cif
#   From: 2010.06.25/outbox.cif.g09.slc.cpg/sg58_12_cif.got.tgz:23415.got - 2010.06.26 21:38:00.
