data_PCOD8237297
_publ_section_title
;
Structure prediction by ZEFSAII (Michael W. Deem and Ramdas Pophale) SiO2 
 PCOD8237297
Probable space group: P N N M
;
_chemical_formula_sum "Si O2"
_cell_formula_units_Z 56
_cell_length_a 16.125356
_cell_length_b 19.686457
_cell_length_c 9.399487
_cell_angle_alpha 90.000000
_cell_angle_beta 90.000000
_cell_angle_gamma 90.000000
_cell_volume 2983.877746
_symmetry_space_group_name_H-M "P N N M"
_symmetry_group_IT_number 58
_symmetry_cell_setting 'orthorhombic'
loop_
_space_group_symop_operation_xyz
x,y,z
-x,-y,z
1/2+x,1/2-y,1/2-z
1/2-x,1/2+y,1/2-z
-x,-y,-z
x,y,-z
1/2-x,1/2+y,1/2+z
1/2+x,1/2-y,1/2+z
loop_
_atom_site_type_symbol
_atom_site_label
_atom_site_fract_x
_atom_site_fract_y
_atom_site_fract_z
Si Si1 0.386752 0.526874 0.158041
Si Si2 0.110940 0.902550 0.836609
Si Si3 0.985982 0.837447 0.657498
Si Si4 0.803312 0.615221 0.334769
Si Si5 0.596063 0.002040 0.668542
Si Si6 0.321918 0.732257 0.830124
Si Si7 0.726777 0.895455 0.667953
O O1 0.422231 0.471517 0.266376
O O2 0.452419 0.586512 0.147612
O O3 0.298974 0.553673 0.217497
O O4 0.375404 0.494621 0.000000
O O5 0.066376 0.837937 0.760519
O O6 0.208462 0.903312 0.812453
O O7 0.085365 0.899755 0.000000
O O8 0.012305 0.811986 0.500000
O O9 0.913164 0.790662 0.722562
O O10 0.829563 0.610865 0.500000
O O11 0.861939 0.565856 0.245418
O O12 0.810165 0.691760 0.274009
O O13 0.606275 0.012516 0.500000
O O14 0.639840 0.930395 0.717342
O O15 0.500000 0.000000 0.713776
O O16 0.249222 0.680451 0.771608
O O17 0.319521 0.729291 0.000000
O O18 0.727680 0.889076 0.500000
#
# Coordination Sequence:
#
# PCOD8237297 Si02
#       7
#     8   8   8   8   8   8   8
#     4   9  16  29  51  74  96 130 171 207 245 299
#     4  11  21  30  45  76 110 136 162 202 265 321
#     4   9  18  32  52  74  95 130 179 216 248 302
#     4  10  21  37  55  76 107 146 180 214 268 331
#     4  10  20  35  57  86 109 134 180 233 277 314
#     4   8  16  34  56  74  97 139 187 220 256 317
#     4   8  14  29  54  77  99 131 175 223 259 301
#
# _framework density 18.767526
#
# number of rings (size 3 to 8) (size 9 to 14) (size 15 to 20)
#    0.000    2.714    1.429    2.571    0.000    3.143 
#    2.571    0.714    0.000    1.714    0.000    0.000 
#    0.000    0.000    0.000    0.000    0.000    0.000 
#
# Total GULP energy -693811.531730 kJ/mol
# GULP energy per Si atom -12389.491638 kJ/mol
# Density = 1.872481 g / cm^3
# Si number density = 18.767526 Si / 1000 Ang^3
#
#
#
# Elastic Constant Matrix: (Units=GPa)
#
#
# Indices 1 2 3 4 5 6 
#
# 1 80.8714 28.5882 28.3477 0.0000 0.0000 0.0000
# 2 28.5882 102.5050 26.9804 0.0000 0.0000 0.0000
# 3 28.3477 26.9804 53.1402 0.0000 0.0000 0.0000
# 4 0.0000 0.0000 0.0000 18.7135 0.0000 0.0000
# 5 0.0000 0.0000 0.0000 0.0000 21.2428 0.0000
# 6 0.0000 0.0000 0.0000 0.0000 0.0000 11.3938
#
#
#
# Elastic Compliance Matrix: (Units=1/GPa)
#
#
# Indices 1 2 3 4 5 6 
#
# 1 0.015753 -0.002518 -0.007125 0.000000 0.000000 0.000000
# 2 -0.002518 0.011663 -0.004578 0.000000 0.000000 0.000000
# 3 -0.007125 -0.004578 0.024943 0.000000 0.000000 0.000000
# 4 0.000000 0.000000 0.000000 0.053437 0.000000 0.000000
# 5 0.000000 0.000000 0.000000 0.000000 0.047075 0.000000
# 6 0.000000 0.000000 0.000000 0.000000 0.000000 0.087767
#
#
# Mechanical properties :
#
#
# Convention : Reuss Voigt Hill
#
# Bulk Modulus (GPa) = 41.81163 44.92767 43.36965
# Shear Modulus (GPa) = 18.04705 20.44337 19.24521
#
# Velocity S-wave (km/s) = 3.10435 3.30403 3.20574
# Velocity P-wave (km/s) = 5.93097 6.20858 6.07136
#
# Compressibility (1/GPa) = 0.02391679
#
# Stress axis : x y z
#
# Youngs Moduli (GPa) = 63.48022 85.74163 40.09072
#
# Poissons Ratio (x) = 0.21590 0.28564
# Poissons Ratio (y) = 0.15985 0.18355
# Poissons Ratio (z) = 0.45229 0.39255
#
# Static dielectric constant tensor:
#      x y z
#    x 3.730590 0.000000 0.000000 
#    y 0.000000 3.600070 0.000000 
#    z 0.000000 0.000000 3.202870 
# 
# 
# High freq. dielectric constant tensor:
#      x y z
#    x 1.732440 0.000000 0.000000 
#    y 0.000000 1.717490 0.000000 
#    z 0.000000 0.000000 1.691220 
# 
# From -- ./inp_files/6467.got.cif
#   From: 2010.06.25/outbox.cif.g09.slc.cpg/sg58_4_cif.got.tgz:6467.got - 2010.06.26 21:38:00.
