data_PCOD8237491
_publ_section_title
;
Structure prediction by ZEFSAII (Michael W. Deem and Ramdas Pophale) SiO2 
 PCOD8237491
Probable space group: P N N M
;
_chemical_formula_sum "Si O2"
_cell_formula_units_Z 48
_cell_length_a 9.897726
_cell_length_b 27.615500
_cell_length_c 9.296063
_cell_angle_alpha 90.000000
_cell_angle_beta 90.000000
_cell_angle_gamma 90.000000
_cell_volume 2540.898964
_symmetry_space_group_name_H-M "P N N M"
_symmetry_group_IT_number 58
_symmetry_cell_setting 'orthorhombic'
loop_
_space_group_symop_operation_xyz
x,y,z
-x,-y,z
1/2+x,1/2-y,1/2-z
1/2-x,1/2+y,1/2-z
-x,-y,-z
x,y,-z
1/2-x,1/2+y,1/2+z
1/2+x,1/2-y,1/2+z
loop_
_atom_site_type_symbol
_atom_site_label
_atom_site_fract_x
_atom_site_fract_y
_atom_site_fract_z
Si Si1 0.781924 0.704463 0.166425
Si Si2 0.970693 0.140872 0.670346
Si Si3 0.403647 0.455152 0.333387
Si Si4 0.283561 0.684064 0.335963
Si Si5 0.491766 0.853970 0.833338
Si Si6 0.904117 0.541696 0.669639
O O1 0.654776 0.673469 0.221050
O O2 0.749335 0.760270 0.197258
O O3 0.914522 0.688850 0.252365
O O4 0.810291 0.694640 0.000000
O O5 0.979222 0.136479 0.500000
O O6 0.105575 0.165799 0.725978
O O7 0.956943 0.088103 0.736857
O O8 0.500000 0.500000 0.301389
O O9 0.410034 0.439413 0.500000
O O10 0.250922 0.469384 0.289504
O O11 0.334827 0.677807 0.500000
O O12 0.150735 0.652183 0.309628
O O13 0.447819 0.905989 0.768412
O O14 0.452354 0.849795 0.000000
O O15 0.926235 0.542500 0.500000
O O16 0.000000 0.500000 0.737625
#
# Coordination Sequence:
#
# PCOD8237491 Si02
#       6
#     8   8   8   8   8   8
#     4  10  21  38  57  81 116 153 190 235 286 341
#     4  11  23  39  59  85 121 156 190 235 291 347
#     4  10  21  37  61  88 114 149 194 239 285 340
#     4  10  22  37  57  85 114 150 196 239 279 335
#     4  10  20  36  60  85 113 147 190 239 286 339
#     4   9  18  33  56  86 112 140 182 235 286 332
#
# _framework density 18.890951000000001
#
# number of rings (size 3 to 8) (size 9 to 14) (size 15 to 20)
#    0.000    2.000    1.667    1.500    2.333    3.667 
#    0.000    0.000    0.000    1.000    0.000    0.000 
#    0.000    0.000    0.000    0.000    0.000    0.000 
#
# Total GULP energy -595389.526471 kJ/mol
# GULP energy per Si atom -12403.948468 kJ/mol
# Density = 1.884795 g / cm^3
# Si number density = 18.890951 Si / 1000 Ang^3
#
#
#
# Elastic Constant Matrix: (Units=GPa)
#
#
# Indices 1 2 3 4 5 6 
#
# 1 91.0668 44.8369 42.8791 0.0000 0.0000 0.0000
# 2 44.8369 101.5676 40.4742 0.0000 0.0000 0.0000
# 3 42.8791 40.4742 56.0836 0.0000 0.0000 0.0000
# 4 0.0000 0.0000 0.0000 23.3390 0.0000 0.0000
# 5 0.0000 0.0000 0.0000 0.0000 23.7493 0.0000
# 6 0.0000 0.0000 0.0000 0.0000 0.0000 41.3117
#
#
#
# Elastic Compliance Matrix: (Units=1/GPa)
#
#
# Indices 1 2 3 4 5 6 
#
# 1 0.017980 -0.003452 -0.011256 0.000000 0.000000 0.000000
# 2 -0.003452 0.014483 -0.007813 0.000000 0.000000 0.000000
# 3 -0.011256 -0.007813 0.032074 0.000000 0.000000 0.000000
# 4 0.000000 0.000000 0.000000 0.042847 0.000000 0.000000
# 5 0.000000 0.000000 0.000000 0.000000 0.042107 0.000000
# 6 0.000000 0.000000 0.000000 0.000000 0.000000 0.024206
#
#
# Mechanical properties :
#
#
# Convention : Reuss Voigt Hill
#
# Bulk Modulus (GPa) = 51.29067 56.12204 53.70636
# Shear Modulus (GPa) = 22.19884 25.71517 23.95701
#
# Velocity S-wave (km/s) = 3.43170 3.69351 3.56501
# Velocity P-wave (km/s) = 6.55072 6.92548 6.74070
#
# Compressibility (1/GPa) = 0.01949672
#
# Stress axis : x y z
#
# Youngs Moduli (GPa) = 55.61617 69.04707 31.17755
#
# Poissons Ratio (x) = 0.23835 0.35093
# Poissons Ratio (y) = 0.19199 0.24358
# Poissons Ratio (z) = 0.62600 0.53944
#
# Static dielectric constant tensor:
#      x y z
#    x 3.562610 0.000000 0.000000 
#    y 0.000000 3.690420 0.000000 
#    z 0.000000 0.000000 3.238450 
# 
# 
# High freq. dielectric constant tensor:
#      x y z
#    x 1.745250 0.000000 0.000000 
#    y 0.000000 1.745650 0.000000 
#    z 0.000000 0.000000 1.708840 
# 
# From -- ./inp_files/3018.got.cif
#   From: 2010.06.25/outbox.cif.g09.slc.cpg/sg58_2_cif.got.tgz:3018.got - 2010.06.26 21:38:00.
