data_PCOD8237532
_publ_section_title
;
Structure prediction by ZEFSAII (Michael W. Deem and Ramdas Pophale) SiO2 
 PCOD8237532
Probable space group: P N N M
;
_chemical_formula_sum "Si O2"
_cell_formula_units_Z 56
_cell_length_a 22.513968
_cell_length_b 9.029080
_cell_length_c 13.303592
_cell_angle_alpha 90.000000
_cell_angle_beta 90.000000
_cell_angle_gamma 90.000000
_cell_volume 2704.359745
_symmetry_space_group_name_H-M "P N N M"
_symmetry_group_IT_number 58
_symmetry_cell_setting 'orthorhombic'
loop_
_space_group_symop_operation_xyz
x,y,z
-x,-y,z
1/2+x,1/2-y,1/2-z
1/2-x,1/2+y,1/2-z
-x,-y,-z
x,y,-z
1/2-x,1/2+y,1/2+z
1/2+x,1/2-y,1/2+z
loop_
_atom_site_type_symbol
_atom_site_label
_atom_site_fract_x
_atom_site_fract_y
_atom_site_fract_z
Si Si1 0.878520 0.347652 0.115069
Si Si2 0.478152 0.342566 0.306269
Si Si3 0.778869 0.186373 0.383001
Si Si4 0.134313 0.229957 0.616677
Si Si5 0.088985 0.907822 0.612625
Si Si6 0.746057 0.871472 0.295689
Si Si7 0.943415 0.588024 0.244482
O O1 0.921337 0.205909 0.128543
O O2 0.814397 0.306348 0.158315
O O3 0.905824 0.489808 0.168910
O O4 0.872024 0.390133 0.000000
O O5 0.500000 0.500000 0.347033
O O6 0.459943 0.344615 0.188249
O O7 0.532756 0.229216 0.318062
O O8 0.757419 0.186246 0.500000
O O9 0.850115 0.183828 0.379121
O O10 0.756232 0.334411 0.324782
O O11 0.752579 0.044457 0.322978
O O12 0.138448 0.260825 0.500000
O O13 0.200684 0.223322 0.658249
O O14 0.099336 0.366323 0.664967
O O15 0.100313 0.078119 0.641627
O O16 0.063022 0.894094 0.500000
O O17 0.000000 0.500000 0.289255
#
# Coordination Sequence:
#
# PCOD8237532 Si02
#       7
#     8   8   8   8   8   8   8
#     4  11  24  43  62  86 121 167 209 256 326 380
#     4  11  21  38  64  90 119 156 214 260 300 373
#     4  10  21  39  64  94 127 163 206 258 321 381
#     4  10  20  36  61  93 126 163 207 257 316 377
#     4   9  18  35  61  89 119 156 194 247 310 365
#     4  11  21  40  69  93 127 169 211 264 321 390
#     4  10  23  39  60  89 128 167 204 260 317 377
#
# _framework density 20.707305999999999
#
# number of rings (size 3 to 8) (size 9 to 14) (size 15 to 20)
#    0.000    1.714    2.857    3.000    0.000    4.000 
#    0.000    6.429    0.000    0.000    0.000    0.000 
#    0.000    0.000    0.000    0.000    0.000    0.000 
#
# Total GULP energy -694437.754447 kJ/mol
# GULP energy per Si atom -12400.674187 kJ/mol
# Density = 2.066017 g / cm^3
# Si number density = 20.707306 Si / 1000 Ang^3
#
#
#
# Elastic Constant Matrix: (Units=GPa)
#
#
# Indices 1 2 3 4 5 6 
#
# 1 102.2452 32.6902 32.8356 0.0000 0.0000 0.0000
# 2 32.6902 84.5679 44.9953 0.0000 0.0000 0.0000
# 3 32.8356 44.9953 126.0787 0.0000 0.0000 0.0000
# 4 0.0000 0.0000 0.0000 33.3001 0.0000 0.0000
# 5 0.0000 0.0000 0.0000 0.0000 20.1899 0.0000
# 6 0.0000 0.0000 0.0000 0.0000 0.0000 20.8835
#
#
#
# Elastic Compliance Matrix: (Units=1/GPa)
#
#
# Indices 1 2 3 4 5 6 
#
# 1 0.011458 -0.003507 -0.001732 0.000000 0.000000 0.000000
# 2 -0.003507 0.015670 -0.004679 0.000000 0.000000 0.000000
# 3 -0.001732 -0.004679 0.010053 0.000000 0.000000 0.000000
# 4 0.000000 0.000000 0.000000 0.030030 0.000000 0.000000
# 5 0.000000 0.000000 0.000000 0.000000 0.049530 0.000000
# 6 0.000000 0.000000 0.000000 0.000000 0.000000 0.047885
#
#
# Mechanical properties :
#
#
# Convention : Reuss Voigt Hill
#
# Bulk Modulus (GPa) = 57.65915 59.32598 58.49257
# Shear Modulus (GPa) = 26.28207 28.36610 27.32408
#
# Velocity S-wave (km/s) = 3.56647 3.70518 3.63649
# Velocity P-wave (km/s) = 6.69813 6.85685 6.77795
#
# Compressibility (1/GPa) = 0.01734330
#
# Stress axis : x y z
#
# Youngs Moduli (GPa) = 87.27393 63.81571 99.47732
#
# Poissons Ratio (x) = 0.22383 0.17233
# Poissons Ratio (y) = 0.30611 0.46545
# Poissons Ratio (z) = 0.15119 0.29859
#
# Static dielectric constant tensor:
#      x y z
#    x 3.926020 0.000000 0.000000 
#    y 0.000000 3.770010 0.000000 
#    z 0.000000 0.000000 3.652690 
# 
# 
# High freq. dielectric constant tensor:
#      x y z
#    x 1.823030 0.000000 0.000000 
#    y 0.000000 1.801010 0.000000 
#    z 0.000000 0.000000 1.798680 
# 
# From -- ./inp_files/23258.got.cif
#   From: 2010.06.25/outbox.cif.g09.slc.cpg/sg58_12_cif.got.tgz:23258.got - 2010.06.26 21:38:00.
