data_PCOD8237111
_publ_section_title
;
Structure prediction by ZEFSAII (Michael W. Deem and Ramdas Pophale) SiO2 
 PCOD8237111
Probable space group: P N N M
;
_chemical_formula_sum "Si O2"
_cell_formula_units_Z 44
_cell_length_a 7.471940
_cell_length_b 26.803329
_cell_length_c 9.870168
_cell_angle_alpha 90.000000
_cell_angle_beta 90.000000
_cell_angle_gamma 90.000000
_cell_volume 1976.726834
_symmetry_space_group_name_H-M "P N N M"
_symmetry_group_IT_number 58
_symmetry_cell_setting 'orthorhombic'
loop_
_space_group_symop_operation_xyz
x,y,z
-x,-y,z
1/2+x,1/2-y,1/2-z
1/2-x,1/2+y,1/2-z
-x,-y,-z
x,y,-z
1/2-x,1/2+y,1/2+z
1/2+x,1/2-y,1/2+z
loop_
_atom_site_type_symbol
_atom_site_label
_atom_site_fract_x
_atom_site_fract_y
_atom_site_fract_z
Si Si1 0.894639 0.901572 0.851768
Si Si2 0.000000 0.000000 0.268337
Si Si3 0.660074 0.318939 0.844443
Si Si4 0.808292 0.626643 0.352242
Si Si5 0.136089 0.778146 0.152553
Si Si6 0.866853 0.543001 0.848543
O O1 0.787550 0.869376 0.738105
O O2 0.097841 0.884252 0.849169
O O3 0.807850 0.892699 0.000000
O O4 0.890618 0.960417 0.821738
O O5 0.156905 0.972969 0.353529
O O6 0.823339 0.280469 0.839504
O O7 0.499028 0.290502 0.771867
O O8 0.609580 0.332713 0.000000
O O9 0.889299 0.613226 0.500000
O O10 0.814446 0.686577 0.324938
O O11 0.905016 0.592020 0.241970
O O12 0.059855 0.789607 0.000000
O O13 0.000000 0.500000 0.794206
O O14 0.923524 0.557820 0.000000
#
# Coordination Sequence:
#
# PCOD8237111 Si02
#       6
#     8   4   8   8   8   8
#     4   9  18  34  56  80 107 140 183 227 271 327
#     4  10  20  36  60  80 108 150 188 224 280 336
#     4  10  20  34  55  82 111 143 184 227 276 333
#     4   8  16  33  55  74 101 141 180 218 265 322
#     4   9  19  36  54  76 109 143 179 225 273 327
#     4  10  21  36  54  81 113 142 181 230 277 329
#
# _framework density 22.259018999999999
#
# number of rings (size 3 to 8) (size 9 to 14) (size 15 to 20)
#    0.000    2.727    0.000    2.182    0.000    9.818 
#    3.273    0.000    0.000    0.000    0.000    0.000 
#    0.000    0.000    0.000    0.000    0.000    0.000 
#
# Total GULP energy -545108.018791 kJ/mol
# GULP energy per Si atom -12388.818609 kJ/mol
# Density = 2.220836 g / cm^3
# Si number density = 22.259019 Si / 1000 Ang^3
#
#
#
# Elastic Constant Matrix: (Units=GPa)
#
#
# Indices 1 2 3 4 5 6 
#
# 1 28.9802 -7.3969 6.5246 0.0000 0.0000 0.0000
# 2 -7.3969 105.3626 43.7638 0.0000 0.0000 0.0000
# 3 6.5246 43.7638 153.4751 0.0000 0.0000 0.0000
# 4 0.0000 0.0000 0.0000 14.4415 0.0000 0.0000
# 5 0.0000 0.0000 0.0000 0.0000 -0.9209 0.0000
# 6 0.0000 0.0000 0.0000 0.0000 0.0000 23.7288
#
#
#
# Elastic Compliance Matrix: (Units=1/GPa)
#
#
# Indices 1 2 3 4 5 6 
#
# 1 0.035997 0.003588 -0.002553 0.000000 0.000000 0.000000
# 2 0.003588 0.011124 -0.003324 0.000000 0.000000 0.000000
# 3 -0.002553 -0.003324 0.007572 0.000000 0.000000 0.000000
# 4 0.000000 0.000000 0.000000 0.069245 0.000000 0.000000
# 5 0.000000 0.000000 0.000000 0.000000 -1.085864 0.000000
# 6 0.000000 0.000000 0.000000 0.000000 0.000000 0.042143
#
#
# Mechanical properties :
#
#
# Convention : Reuss Voigt Hill
#
# Bulk Modulus (GPa) = 19.95503 41.51121 30.73312
# Shear Modulus (GPa) = -5.56484 23.77829 9.10673
#
# Velocity S-wave (km/s) = -1.58287 3.27196 2.02488
# Velocity P-wave (km/s) = 2.37566 5.74142 4.39362
#
# Compressibility (1/GPa) = 0.05011267
#
# Stress axis : x y z
#
# Youngs Moduli (GPa) = 27.78014 89.89747 132.06104
#
# Poissons Ratio (x) = -0.32253 0.33720
# Poissons Ratio (y) = -0.09967 0.43904
# Poissons Ratio (z) = 0.07093 0.29886
#
# Static dielectric constant tensor:
#      x y z
#    x 3.417840 0.000000 0.000000 
#    y 0.000000 4.675240 0.000000 
#    z 0.000000 0.000000 4.124610 
# 
# 
# High freq. dielectric constant tensor:
#      x y z
#    x 1.830110 0.000000 0.000000 
#    y 0.000000 1.891860 0.000000 
#    z 0.000000 0.000000 1.878310 
# 
# From -- ./inp_files/2829.got.cif
#   From: 2010.06.25/outbox.cif.g09.slc.cpg/sg58_2_cif.got.tgz:2829.got - 2010.06.26 21:38:00.
