data_PCOD8237291
_publ_section_title
;
Structure prediction by ZEFSAII (Michael W. Deem and Ramdas Pophale) SiO2 
 PCOD8237291
Probable space group: P N N M
;
_chemical_formula_sum "Si O2"
_cell_formula_units_Z 48
_cell_length_a 23.798101
_cell_length_b 11.972272
_cell_length_c 8.889388
_cell_angle_alpha 90.000000
_cell_angle_beta 90.000000
_cell_angle_gamma 90.000000
_cell_volume 2532.740768
_symmetry_space_group_name_H-M "P N N M"
_symmetry_group_IT_number 58
_symmetry_cell_setting 'orthorhombic'
loop_
_space_group_symop_operation_xyz
x,y,z
-x,-y,z
1/2+x,1/2-y,1/2-z
1/2-x,1/2+y,1/2-z
-x,-y,-z
x,y,-z
1/2-x,1/2+y,1/2+z
1/2+x,1/2-y,1/2+z
loop_
_atom_site_type_symbol
_atom_site_label
_atom_site_fract_x
_atom_site_fract_y
_atom_site_fract_z
Si Si1 0.667114 0.403403 0.322645
Si Si2 0.105643 0.523090 0.323718
Si Si3 0.862085 0.136556 0.678567
Si Si4 0.083385 0.293582 0.827483
Si Si5 0.288327 0.161722 0.176599
Si Si6 0.045855 0.720317 0.174121
O O1 0.669998 0.425824 0.500000
O O2 0.648504 0.515256 0.241940
O O3 0.622123 0.309587 0.281118
O O4 0.727339 0.365206 0.254260
O O5 0.094790 0.538459 0.500000
O O6 0.099877 0.395305 0.278931
O O7 0.168132 0.564028 0.278995
O O8 0.059669 0.597406 0.237498
O O9 0.865182 0.133033 0.500000
O O10 0.812375 0.219581 0.735181
O O11 0.921300 0.182914 0.738211
O O12 0.019660 0.256086 0.801059
O O13 0.093575 0.329520 0.000000
O O14 0.281034 0.169810 0.000000
O O15 0.062719 0.724532 0.000000
#
# Coordination Sequence:
#
# PCOD8237291 Si02
#       6
#     8   8   8   8   8   8
#     4  10  21  38  57  79 110 149 186 226 274 327
#     4  10  20  35  57  85 115 146 182 232 285 330
#     4  10  21  38  58  83 111 143 184 230 279 332
#     4  10  22  36  55  83 113 147 191 232 272 330
#     4   8  18  36  56  78 109 143 179 224 275 331
#     4  10  20  37  58  81 110 148 190 230 274 332
#
# _framework density 18.951802000000001
#
# number of rings (size 3 to 8) (size 9 to 14) (size 15 to 20)
#    0.000    2.333    0.000    3.000    2.333    4.667 
#    0.000    7.500    0.000    0.000    0.000    0.000 
#    0.000    0.000    0.000    0.000    0.000    0.000 
#
# Total GULP energy -595282.934989 kJ/mol
# GULP energy per Si atom -12401.727812 kJ/mol
# Density = 1.890867 g / cm^3
# Si number density = 18.951802 Si / 1000 Ang^3
#
#
#
# Elastic Constant Matrix: (Units=GPa)
#
#
# Indices 1 2 3 4 5 6 
#
# 1 129.0081 62.0898 37.8039 0.0000 0.0000 0.0000
# 2 62.0898 99.4414 39.1265 0.0000 0.0000 0.0000
# 3 37.8039 39.1265 61.3863 0.0000 0.0000 0.0000
# 4 0.0000 0.0000 0.0000 35.5274 0.0000 0.0000
# 5 0.0000 0.0000 0.0000 0.0000 23.7390 0.0000
# 6 0.0000 0.0000 0.0000 0.0000 0.0000 22.1777
#
#
#
# Elastic Compliance Matrix: (Units=1/GPa)
#
#
# Indices 1 2 3 4 5 6 
#
# 1 0.011581 -0.005906 -0.003368 0.000000 0.000000 0.000000
# 2 -0.005906 0.016434 -0.006838 0.000000 0.000000 0.000000
# 3 -0.003368 -0.006838 0.022722 0.000000 0.000000 0.000000
# 4 0.000000 0.000000 0.000000 0.028147 0.000000 0.000000
# 5 0.000000 0.000000 0.000000 0.000000 0.042125 0.000000
# 6 0.000000 0.000000 0.000000 0.000000 0.000000 0.045090
#
#
# Mechanical properties :
#
#
# Convention : Reuss Voigt Hill
#
# Bulk Modulus (GPa) = 54.01052 63.09734 58.55393
# Shear Modulus (GPa) = 24.45069 26.34320 25.39695
#
# Velocity S-wave (km/s) = 3.59576 3.73233 3.66468
# Velocity P-wave (km/s) = 6.76758 7.20691 6.99070
#
# Compressibility (1/GPa) = 0.01851491
#
# Stress axis : x y z
#
# Youngs Moduli (GPa) = 86.35116 60.84923 44.00949
#
# Poissons Ratio (x) = 0.35936 0.14820
# Poissons Ratio (y) = 0.50997 0.30093
# Poissons Ratio (z) = 0.29079 0.41607
#
# Static dielectric constant tensor:
#      x y z
#    x 3.736370 0.000000 0.000000 
#    y 0.000000 3.431810 0.000000 
#    z 0.000000 0.000000 3.364050 
# 
# 
# High freq. dielectric constant tensor:
#      x y z
#    x 1.746460 0.000000 0.000000 
#    y 0.000000 1.737740 0.000000 
#    z 0.000000 0.000000 1.726530 
# 
# From -- ./inp_files/4212.got.cif
#   From: 2010.06.25/outbox.cif.g09.slc.cpg/sg58_3_cif.got.tgz:4212.got - 2010.06.26 21:38:00.
