data_PCOD8237858
_publ_section_title
;
Structure prediction by ZEFSAII (Michael W. Deem and Ramdas Pophale) SiO2 
 PCOD8237858
Probable space group: P N N M
;
_chemical_formula_sum "Si O2"
_cell_formula_units_Z 56
_cell_length_a 15.007472
_cell_length_b 15.692607
_cell_length_c 11.931170
_cell_angle_alpha 90.000000
_cell_angle_beta 90.000000
_cell_angle_gamma 90.000000
_cell_volume 2809.866419
_symmetry_space_group_name_H-M "P N N M"
_symmetry_group_IT_number 58
_symmetry_cell_setting 'orthorhombic'
loop_
_space_group_symop_operation_xyz
x,y,z
-x,-y,z
1/2+x,1/2-y,1/2-z
1/2-x,1/2+y,1/2-z
-x,-y,-z
x,y,-z
1/2-x,1/2+y,1/2+z
1/2+x,1/2-y,1/2+z
loop_
_atom_site_type_symbol
_atom_site_label
_atom_site_fract_x
_atom_site_fract_y
_atom_site_fract_z
Si Si1 0.281593 0.376101 0.263174
Si Si2 0.825290 0.857959 0.280020
Si Si3 0.602832 0.491895 0.621564
Si Si4 0.185944 0.717918 0.627085
Si Si5 0.318000 0.023914 0.628947
Si Si6 0.889070 0.694730 0.371332
Si Si7 0.958074 0.415213 0.699000
O O1 0.353336 0.419297 0.343239
O O2 0.337743 0.304726 0.194316
O O3 0.227935 0.441512 0.183885
O O4 0.210937 0.334567 0.347545
O O5 0.885521 0.929349 0.225176
O O6 0.780739 0.810546 0.174810
O O7 0.749604 0.896595 0.361200
O O8 0.890518 0.796267 0.349793
O O9 0.500000 0.500000 0.602273
O O10 0.644481 0.463799 0.500000
O O11 0.197539 0.745439 0.500000
O O12 0.116185 0.639041 0.632306
O O13 0.338931 0.004534 0.500000
O O14 0.412056 0.049796 0.687152
O O15 0.916395 0.675509 0.500000
O O16 0.958608 0.649167 0.286348
O O17 0.000000 0.500000 0.637245
#
# Coordination Sequence:
#
# PCOD8237858 Si02
#       7
#     8   8   8   8   8   8   8
#     4  10  21  39  60  89 117 153 204 244 291 366
#     4   9  21  38  60  85 116 151 203 243 291 361
#     4  10  21  38  61  87 119 154 193 246 300 347
#     4  10  21  37  60  85 117 155 195 248 297 347
#     4  10  20  40  63  84 118 156 196 245 305 359
#     4  11  22  38  60  85 121 158 196 244 301 353
#     4  11  23  40  56  92 120 154 200 246 295 363
#
# _framework density 19.929772
#
# number of rings (size 3 to 8) (size 9 to 14) (size 15 to 20)
#    0.000    1.857    1.429    2.143    2.000    1.429 
#    0.000    2.143    0.000    2.571    0.000    0.000 
#    0.000    0.000    0.000    0.000    0.000    0.000 
#
# Total GULP energy -693898.528722 kJ/mol
# GULP energy per Si atom -12391.045156 kJ/mol
# Density = 1.988441 g / cm^3
# Si number density = 19.929772 Si / 1000 Ang^3
#
#
#
# Elastic Constant Matrix: (Units=GPa)
#
#
# Indices 1 2 3 4 5 6 
#
# 1 74.0831 31.2404 31.6898 0.0000 0.0000 0.0000
# 2 31.2404 104.0997 29.2280 0.0000 0.0000 0.0000
# 3 31.6898 29.2280 105.4437 0.0000 0.0000 0.0000
# 4 0.0000 0.0000 0.0000 19.3412 0.0000 0.0000
# 5 0.0000 0.0000 0.0000 0.0000 9.4039 0.0000
# 6 0.0000 0.0000 0.0000 0.0000 0.0000 35.9122
#
#
#
# Elastic Compliance Matrix: (Units=1/GPa)
#
#
# Indices 1 2 3 4 5 6 
#
# 1 0.016862 -0.003944 -0.003974 0.000000 0.000000 0.000000
# 2 -0.003944 0.011340 -0.001958 0.000000 0.000000 0.000000
# 3 -0.003974 -0.001958 0.011221 0.000000 0.000000 0.000000
# 4 0.000000 0.000000 0.000000 0.051703 0.000000 0.000000
# 5 0.000000 0.000000 0.000000 0.000000 0.106339 0.000000
# 6 0.000000 0.000000 0.000000 0.000000 0.000000 0.027846
#
#
# Mechanical properties :
#
#
# Convention : Reuss Voigt Hill
#
# Bulk Modulus (GPa) = 50.84062 51.99365 51.41713
# Shear Modulus (GPa) = 19.87133 25.69602 22.78368
#
# Velocity S-wave (km/s) = 3.16106 3.59462 3.38479
# Velocity P-wave (km/s) = 6.23605 6.58585 6.41334
#
# Compressibility (1/GPa) = 0.01966931
#
# Stress axis : x y z
#
# Youngs Moduli (GPa) = 59.30605 88.18674 89.12007
#
# Poissons Ratio (x) = 0.34784 0.35418
# Poissons Ratio (y) = 0.23392 0.17448
# Poissons Ratio (z) = 0.23570 0.17265
#
# Static dielectric constant tensor:
#      x y z
#    x 3.527170 0.000000 0.000000 
#    y 0.000000 3.968300 0.000000 
#    z 0.000000 0.000000 3.525350 
# 
# 
# High freq. dielectric constant tensor:
#      x y z
#    x 1.771070 0.000000 0.000000 
#    y 0.000000 1.789820 0.000000 
#    z 0.000000 0.000000 1.765090 
# 
# From -- ./inp_files/15676.got.cif
#   From: 2010.06.25/outbox.cif.g09.slc.cpg/sg58_8_cif.got.tgz:15676.got - 2010.06.26 21:38:00.
