data_PCOD8237079
_publ_section_title
;
Structure prediction by ZEFSAII (Michael W. Deem and Ramdas Pophale) SiO2 
 PCOD8237079
Probable space group: P N N M
;
_chemical_formula_sum "Si O2"
_cell_formula_units_Z 32
_cell_length_a 14.591034
_cell_length_b 8.549556
_cell_length_c 14.150989
_cell_angle_alpha 90.000000
_cell_angle_beta 90.000000
_cell_angle_gamma 90.000000
_cell_volume 1765.291476
_symmetry_space_group_name_H-M "P N N M"
_symmetry_group_IT_number 58
_symmetry_cell_setting 'orthorhombic'
loop_
_space_group_symop_operation_xyz
x,y,z
-x,-y,z
1/2+x,1/2-y,1/2-z
1/2-x,1/2+y,1/2-z
-x,-y,-z
x,y,-z
1/2-x,1/2+y,1/2+z
1/2+x,1/2-y,1/2+z
loop_
_atom_site_type_symbol
_atom_site_label
_atom_site_fract_x
_atom_site_fract_y
_atom_site_fract_z
Si Si1 0.257551 0.566705 0.000000
Si Si2 0.719130 0.571671 0.500000
Si Si3 0.421709 0.870215 0.500000
Si Si4 0.089026 0.107062 0.641555
Si Si5 0.078638 0.377772 0.500000
Si Si6 0.090705 0.098955 0.140895
O O1 0.321179 0.535211 0.908482
O O2 0.212408 0.739751 0.000000
O O3 0.178342 0.442507 0.000000
O O4 0.826073 0.526999 0.500000
O O5 0.673231 0.497132 0.407036
O O6 0.429158 0.765655 0.406512
O O7 0.500000 0.000000 0.500000
O O8 0.069211 0.274179 0.594310
O O9 0.114615 0.129088 0.750539
O O10 0.000000 0.000000 0.626879
O O11 0.000000 0.500000 0.500000
O O12 0.000000 0.000000 0.127751
#
# Coordination Sequence:
#
# PCOD8237079 Si02
#       6
#     4   4   4   8   4   8
#     4  10  20  34  54  79 107 136 173 221 260 305
#     4   9  19  36  54  75 106 141 171 213 260 310
#     4  11  22  35  53  80 108 137 176 219 260 306
#     4   9  20  37  56  78 106 139 174 214 261 312
#     4  10  21  37  55  80 109 136 174 219 260 305
#     4  10  20  36  56  77 105 141 175 212 262 314
#
# _framework density 18.127317999999999
#
# number of rings (size 3 to 8) (size 9 to 14) (size 15 to 20)
#    0.000    2.500    0.000    4.500    0.000    9.000 
#    0.000    5.000    0.000    0.000    0.000    0.000 
#    0.000    0.000    0.000    0.000    0.000    0.000 
#
# Total GULP energy -396735.729166 kJ/mol
# GULP energy per Si atom -12397.991536 kJ/mol
# Density = 1.808606 g / cm^3
# Si number density = 18.127318 Si / 1000 Ang^3
#
#
#
# Elastic Constant Matrix: (Units=GPa)
#
#
# Indices 1 2 3 4 5 6 
#
# 1 139.3653 73.6129 81.1187 0.0000 0.0000 0.0000
# 2 73.6129 100.8075 73.1510 0.0000 0.0000 0.0000
# 3 81.1187 73.1510 189.4840 0.0000 0.0000 0.0000
# 4 0.0000 0.0000 0.0000 14.0722 0.0000 0.0000
# 5 0.0000 0.0000 0.0000 0.0000 17.6227 0.0000
# 6 0.0000 0.0000 0.0000 0.0000 0.0000 48.8786
#
#
#
# Elastic Compliance Matrix: (Units=1/GPa)
#
#
# Indices 1 2 3 4 5 6 
#
# 1 0.012502 -0.007287 -0.002539 0.000000 0.000000 0.000000
# 2 -0.007287 0.018028 -0.003840 0.000000 0.000000 0.000000
# 3 -0.002539 -0.003840 0.007847 0.000000 0.000000 0.000000
# 4 0.000000 0.000000 0.000000 0.071062 0.000000 0.000000
# 5 0.000000 0.000000 0.000000 0.000000 0.056745 0.000000
# 6 0.000000 0.000000 0.000000 0.000000 0.000000 0.020459
#
#
# Mechanical properties :
#
#
# Convention : Reuss Voigt Hill
#
# Bulk Modulus (GPa) = 90.54252 98.38022 94.46137
# Shear Modulus (GPa) = 22.97195 29.56633 26.26914
#
# Velocity S-wave (km/s) = 3.56372 4.04299 3.81090
# Velocity P-wave (km/s) = 8.18474 8.72834 8.46091
#
# Compressibility (1/GPa) = 0.01104453
#
# Stress axis : x y z
#
# Youngs Moduli (GPa) = 79.98504 55.47021 127.43846
#
# Poissons Ratio (x) = 0.40422 0.32357
# Poissons Ratio (y) = 0.58286 0.48937
# Poissons Ratio (z) = 0.20309 0.21301
#
# Static dielectric constant tensor:
#      x y z
#    x 3.431530 0.000000 0.000000 
#    y 0.000000 3.792570 0.000000 
#    z 0.000000 0.000000 3.512980 
# 
# 
# High freq. dielectric constant tensor:
#      x y z
#    x 1.715860 0.000000 0.000000 
#    y 0.000000 1.700470 0.000000 
#    z 0.000000 0.000000 1.707220 
# 
# From -- ./inp_files/19351.got.cif
#   From: 2010.06.25/outbox.cif.g09.slc.cpg/sg58_10_cif.got.tgz:19351.got - 2010.06.26 21:38:00.
