data_PCOD8237473
_publ_section_title
;
Structure prediction by ZEFSAII (Michael W. Deem and Ramdas Pophale) SiO2 
 PCOD8237473
Probable space group: P N N M
;
_chemical_formula_sum "Si O2"
_cell_formula_units_Z 56
_cell_length_a 18.540214
_cell_length_b 17.047725
_cell_length_c 9.148834
_cell_angle_alpha 90.000000
_cell_angle_beta 90.000000
_cell_angle_gamma 90.000000
_cell_volume 2891.657962
_symmetry_space_group_name_H-M "P N N M"
_symmetry_group_IT_number 58
_symmetry_cell_setting 'orthorhombic'
loop_
_space_group_symop_operation_xyz
x,y,z
-x,-y,z
1/2+x,1/2-y,1/2-z
1/2-x,1/2+y,1/2-z
-x,-y,-z
x,y,-z
1/2-x,1/2+y,1/2+z
1/2+x,1/2-y,1/2+z
loop_
_atom_site_type_symbol
_atom_site_label
_atom_site_fract_x
_atom_site_fract_y
_atom_site_fract_z
Si Si1 0.208616 0.176902 0.829300
Si Si2 0.081903 0.478116 0.673684
Si Si3 0.456616 0.250933 0.336384
Si Si4 0.845178 0.382847 0.167586
Si Si5 0.897553 0.935618 0.669368
Si Si6 0.605018 0.184225 0.671268
Si Si7 0.437944 0.395978 0.166628
O O1 0.281573 0.167689 0.738916
O O2 0.153923 0.109947 0.778077
O O3 0.176292 0.263708 0.799472
O O4 0.223953 0.164810 0.000000
O O5 0.089868 0.479357 0.500000
O O6 0.138938 0.538485 0.742739
O O7 0.106503 0.393942 0.733154
O O8 0.000000 0.500000 0.720664
O O9 0.461371 0.281871 0.500000
O O10 0.416564 0.168753 0.323949
O O11 0.537132 0.236488 0.275354
O O12 0.413200 0.318601 0.251890
O O13 0.825436 0.403873 0.000000
O O14 0.877575 0.919049 0.500000
O O15 0.978995 0.911948 0.702654
O O16 0.889541 0.028361 0.705862
O O17 0.596933 0.162235 0.500000
O O18 0.426945 0.374707 0.000000
#
# Coordination Sequence:
#
# PCOD8237473 Si02
#       7
#     8   8   8   8   8   8   8
#     4  11  23  40  61  87 120 158 201 251 305 363
#     4  11  23  39  64  96 123 152 199 255 305 358
#     4  10  20  36  59  87 116 151 197 244 295 352
#     4  11  24  42  63  85 119 161 198 246 305 366
#     4   9  18  34  55  82 115 154 194 234 291 354
#     4  10  21  39  63  90 121 159 202 247 302 364
#     4   9  18  32  55  85 115 148 192 242 288 344
#
# _framework density 19.366053000000001
#
# number of rings (size 3 to 8) (size 9 to 14) (size 15 to 20)
#    0.000    1.857    2.857    2.143    0.000    4.000 
#    2.571    1.429    0.000    0.000    0.000    0.000 
#    0.000    0.000    0.000    0.000    0.000    0.000 
#
# Total GULP energy -694375.334985 kJ/mol
# GULP energy per Si atom -12399.559553 kJ/mol
# Density = 1.932197 g / cm^3
# Si number density = 19.366053 Si / 1000 Ang^3
#
#
#
# Elastic Constant Matrix: (Units=GPa)
#
#
# Indices 1 2 3 4 5 6 
#
# 1 64.7235 35.5463 41.4966 0.0000 0.0000 0.0000
# 2 35.5463 110.4903 58.5712 0.0000 0.0000 0.0000
# 3 41.4966 58.5712 96.2992 0.0000 0.0000 0.0000
# 4 0.0000 0.0000 0.0000 38.3651 0.0000 0.0000
# 5 0.0000 0.0000 0.0000 0.0000 28.1075 0.0000
# 6 0.0000 0.0000 0.0000 0.0000 0.0000 10.3585
#
#
#
# Elastic Compliance Matrix: (Units=1/GPa)
#
#
# Indices 1 2 3 4 5 6 
#
# 1 0.022015 -0.003031 -0.007643 0.000000 0.000000 0.000000
# 2 -0.003031 0.013774 -0.007072 0.000000 0.000000 0.000000
# 3 -0.007643 -0.007072 0.017979 0.000000 0.000000 0.000000
# 4 0.000000 0.000000 0.000000 0.026065 0.000000 0.000000
# 5 0.000000 0.000000 0.000000 0.000000 0.035578 0.000000
# 6 0.000000 0.000000 0.000000 0.000000 0.000000 0.096539
#
#
# Mechanical properties :
#
#
# Convention : Reuss Voigt Hill
#
# Bulk Modulus (GPa) = 54.71393 60.30456 57.50925
# Shear Modulus (GPa) = 19.72109 24.42613 22.07361
#
# Velocity S-wave (km/s) = 3.19460 3.55531 3.37977
# Velocity P-wave (km/s) = 6.47465 6.93257 6.70752
#
# Compressibility (1/GPa) = 0.01827688
#
# Stress axis : x y z
#
# Youngs Moduli (GPa) = 45.42298 72.59817 55.62016
#
# Poissons Ratio (x) = 0.22004 0.42512
# Poissons Ratio (y) = 0.13767 0.39334
# Poissons Ratio (z) = 0.34718 0.51340
#
# Static dielectric constant tensor:
#      x y z
#    x 2.219150 0.000000 0.000000 
#    y 0.000000 3.484710 0.000000 
#    z 0.000000 0.000000 3.531190 
# 
# 
# High freq. dielectric constant tensor:
#      x y z
#    x 1.736060 0.000000 0.000000 
#    y 0.000000 1.763300 0.000000 
#    z 0.000000 0.000000 1.754680 
# 
# From -- ./inp_files/9077.got.cif
#   From: 2010.06.25/outbox.cif.g09.slc.cpg/sg58_5_cif.got.tgz:9077.got - 2010.06.26 21:38:00.
