data_PCOD8237099
_publ_section_title
;
Structure prediction by ZEFSAII (Michael W. Deem and Ramdas Pophale) SiO2 
 PCOD8237099
Probable space group: P N N M
;
_chemical_formula_sum "Si O2"
_cell_formula_units_Z 64
_cell_length_a 23.531907
_cell_length_b 12.883484
_cell_length_c 11.189516
_cell_angle_alpha 90.000000
_cell_angle_beta 90.000000
_cell_angle_gamma 90.000000
_cell_volume 3392.358545
_symmetry_space_group_name_H-M "P N N M"
_symmetry_group_IT_number 58
_symmetry_cell_setting 'orthorhombic'
loop_
_space_group_symop_operation_xyz
x,y,z
-x,-y,z
1/2+x,1/2-y,1/2-z
1/2-x,1/2+y,1/2-z
-x,-y,-z
x,y,-z
1/2-x,1/2+y,1/2+z
1/2+x,1/2-y,1/2+z
loop_
_atom_site_type_symbol
_atom_site_label
_atom_site_fract_x
_atom_site_fract_y
_atom_site_fract_z
Si Si1 0.801182 0.688298 0.636633
Si Si2 0.547308 0.914499 0.131513
Si Si3 0.683095 0.762545 0.282334
Si Si4 0.437876 0.207403 0.629777
Si Si5 0.324692 0.035896 0.135224
Si Si6 0.490512 0.383518 0.252585
Si Si7 0.390577 0.645215 0.857541
Si Si8 0.624828 0.586320 0.136442
O O1 0.819033 0.673877 0.500000
O O2 0.738583 0.735848 0.642577
O O3 0.803420 0.572819 0.694988
O O4 0.847292 0.767615 0.693589
O O5 0.500000 0.000000 0.137073
O O6 0.538300 0.844046 0.248522
O O7 0.607514 0.970088 0.141060
O O8 0.543799 0.856707 0.000000
O O9 0.630433 0.786303 0.369444
O O10 0.698335 0.864442 0.205597
O O11 0.667645 0.663586 0.202095
O O12 0.453938 0.155950 0.500000
O O13 0.467866 0.319977 0.632514
O O14 0.302085 0.047055 0.000000
O O15 0.500000 0.500000 0.297720
O O16 0.547591 0.333663 0.198252
O O17 0.440856 0.379981 0.152372
O O18 0.367058 0.532014 0.817588
O O19 0.396274 0.648221 0.000000
O O20 0.641787 0.595681 0.000000
#
# Coordination Sequence:
#
# PCOD8237099 Si02
#       8
#     8   8   8   8   8   8   8   8
#     4  10  21  34  52  76 105 140 179 227 276 327
#     4   9  19  35  58  85 109 139 181 227 276 328
#     4  10  20  34  55  73 105 144 187 224 264 328
#     4  10  21  35  54  80 111 150 188 224 269 322
#     4   9  19  35  53  79 106 135 176 227 279 325
#     4   9  18  32  52  80 110 142 175 219 271 331
#     4   9  18  31  51  80 109 136 173 228 289 335
#     4   9  17  31  53  81 107 136 178 230 285 331
#
# _framework density 18.865929000000001
#
# number of rings (size 3 to 8) (size 9 to 14) (size 15 to 20)
#    0.000    2.625    0.000    1.125    3.500    5.500 
#    0.000    0.000    0.000    2.250    0.000    0.000 
#    0.000    0.000    0.000    0.000    0.000    0.000 
#
# Total GULP energy -792985.672287 kJ/mol
# GULP energy per Si atom -12390.401129 kJ/mol
# Density = 1.882299 g / cm^3
# Si number density = 18.865929 Si / 1000 Ang^3
#
#
#
# Elastic Constant Matrix: (Units=GPa)
#
#
# Indices 1 2 3 4 5 6 
#
# 1 68.6576 37.2083 13.1288 0.0000 0.0000 0.0000
# 2 37.2083 116.0550 39.8385 0.0000 0.0000 0.0000
# 3 13.1288 39.8385 92.3122 0.0000 0.0000 0.0000
# 4 0.0000 0.0000 0.0000 6.0265 0.0000 0.0000
# 5 0.0000 0.0000 0.0000 0.0000 13.8698 0.0000
# 6 0.0000 0.0000 0.0000 0.0000 0.0000 29.5359
#
#
#
# Elastic Compliance Matrix: (Units=1/GPa)
#
#
# Indices 1 2 3 4 5 6 
#
# 1 0.017628 -0.005624 -0.000080 0.000000 0.000000 0.000000
# 2 -0.005624 0.011910 -0.004340 0.000000 0.000000 0.000000
# 3 -0.000080 -0.004340 0.012717 0.000000 0.000000 0.000000
# 4 0.000000 0.000000 0.000000 0.165933 0.000000 0.000000
# 5 0.000000 0.000000 0.000000 0.000000 0.072099 0.000000
# 6 0.000000 0.000000 0.000000 0.000000 0.000000 0.033857
#
#
# Mechanical properties :
#
#
# Convention : Reuss Voigt Hill
#
# Bulk Modulus (GPa) = 45.11236 50.81954 47.96595
# Shear Modulus (GPa) = 14.63607 22.34305 18.48956
#
# Velocity S-wave (km/s) = 2.78833 3.44511 3.13397
# Velocity P-wave (km/s) = 5.85921 6.54375 6.21092
#
# Compressibility (1/GPa) = 0.02216687
#
# Stress axis : x y z
#
# Youngs Moduli (GPa) = 56.72667 83.96602 78.63448
#
# Poissons Ratio (x) = 0.47226 0.00628
# Poissons Ratio (y) = 0.31905 0.34126
# Poissons Ratio (z) = 0.00453 0.36440
#
# Static dielectric constant tensor:
#      x y z
#    x 3.358750 0.000000 0.000000 
#    y 0.000000 3.772280 0.000000 
#    z 0.000000 0.000000 3.209090 
# 
# 
# High freq. dielectric constant tensor:
#      x y z
#    x 1.726420 0.000000 0.000000 
#    y 0.000000 1.740560 0.000000 
#    z 0.000000 0.000000 1.703100 
# 
# From -- ./inp_files/17535.got.cif
#   From: 2010.06.25/outbox.cif.g09.slc.cpg/sg58_9_cif.got.tgz:17535.got - 2010.06.26 21:38:00.
