data_PCOD8237196
_publ_section_title
;
Structure prediction by ZEFSAII (Michael W. Deem and Ramdas Pophale) SiO2 
 PCOD8237196
Probable space group: P N N M
;
_chemical_formula_sum "Si O2"
_cell_formula_units_Z 64
_cell_length_a 40.274008
_cell_length_b 9.782373
_cell_length_c 8.977655
_cell_angle_alpha 90.000000
_cell_angle_beta 90.000000
_cell_angle_gamma 90.000000
_cell_volume 3536.974937
_symmetry_space_group_name_H-M "P N N M"
_symmetry_group_IT_number 58
_symmetry_cell_setting 'orthorhombic'
loop_
_space_group_symop_operation_xyz
x,y,z
-x,-y,z
1/2+x,1/2-y,1/2-z
1/2-x,1/2+y,1/2-z
-x,-y,-z
x,y,-z
1/2-x,1/2+y,1/2+z
1/2+x,1/2-y,1/2+z
loop_
_atom_site_type_symbol
_atom_site_label
_atom_site_fract_x
_atom_site_fract_y
_atom_site_fract_z
Si Si1 0.970467 0.593145 0.826027
Si Si2 0.721143 0.584067 0.827865
Si Si3 0.030798 0.093057 0.173671
Si Si4 0.901419 0.911568 0.674934
Si Si5 0.403125 0.902084 0.173469
Si Si6 0.151941 0.615210 0.326663
Si Si7 0.152454 0.899277 0.176408
Si Si8 0.772454 0.397043 0.330387
O O1 0.978406 0.750614 0.788408
O O2 0.936055 0.544755 0.754247
O O3 0.000000 0.500000 0.759844
O O4 0.966870 0.567696 0.000000
O O5 0.688421 0.553161 0.732996
O O6 0.750020 0.481292 0.782289
O O7 0.733923 0.737388 0.800026
O O8 0.711977 0.562061 0.000000
O O9 0.062154 0.044095 0.269863
O O10 0.039437 0.074940 0.000000
O O11 0.000000 0.000000 0.221887
O O12 0.898367 0.940207 0.500000
O O13 0.895013 0.753582 0.716185
O O14 0.874340 0.995824 0.763218
O O15 0.372165 0.993863 0.225001
O O16 0.409869 0.916810 0.000000
O O17 0.147665 0.653174 0.500000
O O18 0.143087 0.748625 0.232428
O O19 0.189382 0.566009 0.295632
O O20 0.152218 0.901274 0.000000
O O21 0.763378 0.435859 0.500000
#
# Coordination Sequence:
#
# PCOD8237196 Si02
#       8
#     8   8   8   8   8   8   8   8
#     4   9  18  32  49  71 101 135 170 211 257 304
#     4  10  21  37  56  79 108 140 175 216 261 308
#     4   9  18  33  51  72 101 136 175 217 258 304
#     4  10  20  35  54  78 108 140 175 215 263 314
#     4   9  19  35  55  78 104 136 173 213 258 309
#     4   9  19  37  56  77 107 138 171 214 261 308
#     4  11  22  36  55  79 106 138 177 217 260 310
#     4   9  19  35  54  78 107 138 174 215 258 308
#
# _framework density 18.094557999999999
#
# number of rings (size 3 to 8) (size 9 to 14) (size 15 to 20)
#    0.000    2.500    0.000    2.625    0.000    6.000 
#    0.000    2.500    0.000    0.000    0.000    0.000 
#    0.000    0.000    0.000    0.000    0.000    0.000 
#
# Total GULP energy -793791.190982 kJ/mol
# GULP energy per Si atom -12402.987359 kJ/mol
# Density = 1.805337 g / cm^3
# Si number density = 18.094558 Si / 1000 Ang^3
#
#
#
# Elastic Constant Matrix: (Units=GPa)
#
#
# Indices 1 2 3 4 5 6 
#
# 1 139.3576 89.9752 66.9268 0.0000 0.0000 0.0000
# 2 89.9752 95.0145 55.1167 0.0000 0.0000 0.0000
# 3 66.9268 55.1167 88.7940 0.0000 0.0000 0.0000
# 4 0.0000 0.0000 0.0000 26.9846 0.0000 0.0000
# 5 0.0000 0.0000 0.0000 0.0000 34.6216 0.0000
# 6 0.0000 0.0000 0.0000 0.0000 0.0000 39.9899
#
#
#
# Elastic Compliance Matrix: (Units=1/GPa)
#
#
# Indices 1 2 3 4 5 6 
#
# 1 0.019867 -0.015825 -0.005151 0.000000 0.000000 0.000000
# 2 -0.015825 0.029052 -0.006106 0.000000 0.000000 0.000000
# 3 -0.005151 -0.006106 0.018935 0.000000 0.000000 0.000000
# 4 0.000000 0.000000 0.000000 0.037058 0.000000 0.000000
# 5 0.000000 0.000000 0.000000 0.000000 0.028884 0.000000
# 6 0.000000 0.000000 0.000000 0.000000 0.000000 0.025006
#
#
# Mechanical properties :
#
#
# Convention : Reuss Voigt Hill
#
# Bulk Modulus (GPa) = 73.04693 83.02263 78.03478
# Shear Modulus (GPa) = 22.98532 27.72904 25.35718
#
# Velocity S-wave (km/s) = 3.56798 3.91890 3.74755
# Velocity P-wave (km/s) = 7.57833 8.15226 7.87053
#
# Compressibility (1/GPa) = 0.01368983
#
# Stress axis : x y z
#
# Youngs Moduli (GPa) = 50.33427 34.42059 52.81310
#
# Poissons Ratio (x) = 0.54471 0.27206
# Poissons Ratio (y) = 0.79655 0.32246
# Poissons Ratio (z) = 0.25929 0.21016
#
# Static dielectric constant tensor:
#      x y z
#    x 3.449160 0.000000 0.000000 
#    y 0.000000 3.350080 0.000000 
#    z 0.000000 0.000000 3.306590 
# 
# 
# High freq. dielectric constant tensor:
#      x y z
#    x 1.706190 0.000000 0.000000 
#    y 0.000000 1.699310 0.000000 
#    z 0.000000 0.000000 1.701410 
# 
# From -- ./inp_files/10948.got.cif
#   From: 2010.06.25/outbox.cif.g09.slc.cpg/sg58_6_cif.got.tgz:10948.got - 2010.06.26 21:38:00.
