data_PCOD8237710
_publ_section_title
;
Structure prediction by ZEFSAII (Michael W. Deem and Ramdas Pophale) SiO2 
 PCOD8237710
Probable space group: P N N M
;
_chemical_formula_sum "Si O2"
_cell_formula_units_Z 64
_cell_length_a 24.200844
_cell_length_b 14.491304
_cell_length_c 9.175983
_cell_angle_alpha 90.000000
_cell_angle_beta 90.000000
_cell_angle_gamma 90.000000
_cell_volume 3218.033640
_symmetry_space_group_name_H-M "P N N M"
_symmetry_group_IT_number 58
_symmetry_cell_setting 'orthorhombic'
loop_
_space_group_symop_operation_xyz
x,y,z
-x,-y,z
1/2+x,1/2-y,1/2-z
1/2-x,1/2+y,1/2-z
-x,-y,-z
x,y,-z
1/2-x,1/2+y,1/2+z
1/2+x,1/2-y,1/2+z
loop_
_atom_site_type_symbol
_atom_site_label
_atom_site_fract_x
_atom_site_fract_y
_atom_site_fract_z
Si Si1 0.239123 0.368659 0.665938
Si Si2 0.377876 0.961226 0.834075
Si Si3 0.443915 0.448806 0.828659
Si Si4 0.025135 0.401493 0.830310
Si Si5 0.056627 0.762401 0.164467
Si Si6 0.652448 0.869440 0.334003
Si Si7 0.165266 0.008427 0.170145
Si Si8 0.260985 0.679924 0.329450
O O1 0.249228 0.335072 0.500000
O O2 0.185185 0.430724 0.676355
O O3 0.290778 0.430217 0.720875
O O4 0.228149 0.280844 0.766568
O O5 0.419114 0.885628 0.763934
O O6 0.386054 0.053099 0.738290
O O7 0.394982 0.980581 0.000000
O O8 0.500000 0.500000 0.783100
O O9 0.450311 0.344245 0.777337
O O10 0.391812 0.498487 0.755287
O O11 0.434197 0.450705 0.000000
O O12 0.000000 0.500000 0.785146
O O13 0.983921 0.319575 0.788734
O O14 0.040213 0.399300 0.000000
O O15 0.119819 0.727198 0.171766
O O16 0.043604 0.796246 0.000000
O O17 0.665383 0.897492 0.500000
O O18 0.708021 0.864088 0.244197
O O19 0.187993 0.111269 0.202417
O O20 0.153250 0.995485 0.000000
O O21 0.249313 0.687654 0.500000
#
# Coordination Sequence:
#
# PCOD8237710 Si02
#       8
#     8   8   8   8   8   8   8   8
#     4  10  22  41  60  87 127 164 199 247 303 361
#     4  11  22  37  58  87 125 163 200 249 304 356
#     4  11  26  45  64  90 122 154 201 261 310 357
#     4  10  20  38  59  86 124 161 202 248 296 362
#     4  10  22  40  64  90 120 163 208 251 303 363
#     4  11  21  37  61  89 122 161 203 248 305 364
#     4  10  22  43  66  88 122 162 204 249 301 365
#     4  11  23  39  61  93 125 158 204 255 302 361
#
# _framework density 19.887920999999999
#
# number of rings (size 3 to 8) (size 9 to 14) (size 15 to 20)
#    0.000    1.500    2.500    2.250    0.000    9.250 
#    0.000    5.000    0.000    0.000    0.000    0.000 
#    0.000    0.000    0.000    0.000    0.000    0.000 
#
# Total GULP energy -793758.034340 kJ/mol
# GULP energy per Si atom -12402.469287 kJ/mol
# Density = 1.984266 g / cm^3
# Si number density = 19.887921 Si / 1000 Ang^3
#
#
#
# Elastic Constant Matrix: (Units=GPa)
#
#
# Indices 1 2 3 4 5 6 
#
# 1 124.2584 44.0449 63.6111 0.0000 0.0000 0.0000
# 2 44.0449 101.2646 65.2850 0.0000 0.0000 0.0000
# 3 63.6111 65.2850 107.0575 0.0000 0.0000 0.0000
# 4 0.0000 0.0000 0.0000 24.6255 0.0000 0.0000
# 5 0.0000 0.0000 0.0000 0.0000 36.9554 0.0000
# 6 0.0000 0.0000 0.0000 0.0000 0.0000 26.7875
#
#
#
# Elastic Compliance Matrix: (Units=1/GPa)
#
#
# Indices 1 2 3 4 5 6 
#
# 1 0.011626 -0.000994 -0.006302 0.000000 0.000000 0.000000
# 2 -0.000994 0.016358 -0.009384 0.000000 0.000000 0.000000
# 3 -0.006302 -0.009384 0.018808 0.000000 0.000000 0.000000
# 4 0.000000 0.000000 0.000000 0.040608 0.000000 0.000000
# 5 0.000000 0.000000 0.000000 0.000000 0.027060 0.000000
# 6 0.000000 0.000000 0.000000 0.000000 0.000000 0.037331
#
#
# Mechanical properties :
#
#
# Convention : Reuss Voigt Hill
#
# Bulk Modulus (GPa) = 74.45407 75.38473 74.91940
# Shear Modulus (GPa) = 26.36741 28.31633 27.34187
#
# Velocity S-wave (km/s) = 3.64510 3.77741 3.71185
# Velocity P-wave (km/s) = 7.43195 7.55064 7.49153
#
# Compressibility (1/GPa) = 0.01343110
#
# Stress axis : x y z
#
# Youngs Moduli (GPa) = 86.01291 61.13371 53.16897
#
# Poissons Ratio (x) = 0.06077 0.33506
# Poissons Ratio (y) = 0.08550 0.49896
# Poissons Ratio (z) = 0.54204 0.57371
#
# Static dielectric constant tensor:
#      x y z
#    x 3.668300 0.000000 0.000000 
#    y 0.000000 3.620230 0.000000 
#    z 0.000000 0.000000 3.629970 
# 
# 
# High freq. dielectric constant tensor:
#      x y z
#    x 1.784050 0.000000 0.000000 
#    y 0.000000 1.773890 0.000000 
#    z 0.000000 0.000000 1.777570 
# 
# From -- ./inp_files/10112.got.cif
#   From: 2010.06.25/outbox.cif.g09.slc.cpg/sg58_6_cif.got.tgz:10112.got - 2010.06.26 21:38:00.
