data_PCOD8237723
_publ_section_title
;
Structure prediction by ZEFSAII (Michael W. Deem and Ramdas Pophale) SiO2 
 PCOD8237723
Probable space group: P N N M
;
_chemical_formula_sum "Si O2"
_cell_formula_units_Z 48
_cell_length_a 18.629312
_cell_length_b 14.983146
_cell_length_c 8.923922
_cell_angle_alpha 90.000000
_cell_angle_beta 90.000000
_cell_angle_gamma 90.000000
_cell_volume 2490.895989
_symmetry_space_group_name_H-M "P N N M"
_symmetry_group_IT_number 58
_symmetry_cell_setting 'orthorhombic'
loop_
_space_group_symop_operation_xyz
x,y,z
-x,-y,z
1/2+x,1/2-y,1/2-z
1/2-x,1/2+y,1/2-z
-x,-y,-z
x,y,-z
1/2-x,1/2+y,1/2+z
1/2+x,1/2-y,1/2+z
loop_
_atom_site_type_symbol
_atom_site_label
_atom_site_fract_x
_atom_site_fract_y
_atom_site_fract_z
Si Si1 0.064273 0.063464 0.822263
Si Si2 0.028981 0.597690 0.327700
Si Si3 0.259900 0.795108 0.823052
Si Si4 0.676810 0.878566 0.324391
Si Si5 0.715639 0.512895 0.321913
Si Si6 0.416942 0.748249 0.175158
O O1 0.051601 0.161508 0.756484
O O2 0.139356 0.023066 0.761791
O O3 0.064240 0.070688 0.000000
O O4 0.000000 0.000000 0.766130
O O5 0.054317 0.604817 0.500000
O O6 0.094010 0.617809 0.217624
O O7 0.000000 0.500000 0.291494
O O8 0.967233 0.668095 0.290380
O O9 0.205502 0.717941 0.774238
O O10 0.228901 0.887637 0.757928
O O11 0.338693 0.772624 0.758082
O O12 0.266514 0.803887 0.000000
O O13 0.687380 0.894324 0.500000
O O14 0.719662 0.953402 0.236090
O O15 0.716614 0.511823 0.500000
O O16 0.412366 0.726644 0.000000
#
# Coordination Sequence:
#
# PCOD8237723 Si02
#       6
#     8   8   8   8   8   8
#     4  10  22  37  57  85 117 154 196 238 286 345
#     4  10  22  40  62  85 114 156 198 232 281 356
#     4   9  19  36  59  83 110 151 193 230 284 344
#     4  11  22  37  60  89 119 147 187 246 295 334
#     4  10  20  38  61  82 113 158 198 232 280 352
#     4  10  20  38  61  84 114 152 193 239 286 336
#
# _framework density 19.270173
#
# number of rings (size 3 to 8) (size 9 to 14) (size 15 to 20)
#    0.000    2.000    1.667    1.500    2.333    4.000 
#    0.000    4.167    0.000    0.000    0.000    0.000 
#    0.000    0.000    0.000    0.000    0.000    0.000 
#
# Total GULP energy -595368.603444 kJ/mol
# GULP energy per Si atom -12403.512572 kJ/mol
# Density = 1.922631 g / cm^3
# Si number density = 19.270173 Si / 1000 Ang^3
#
#
#
# Elastic Constant Matrix: (Units=GPa)
#
#
# Indices 1 2 3 4 5 6 
#
# 1 111.5848 50.2920 15.9340 0.0000 0.0000 0.0000
# 2 50.2920 163.5315 20.2990 0.0000 0.0000 0.0000
# 3 15.9340 20.2990 14.1610 0.0000 0.0000 0.0000
# 4 0.0000 0.0000 0.0000 25.0571 0.0000 0.0000
# 5 0.0000 0.0000 0.0000 0.0000 -2.9818 0.0000
# 6 0.0000 0.0000 0.0000 0.0000 0.0000 36.9163
#
#
#
# Elastic Compliance Matrix: (Units=1/GPa)
#
#
# Indices 1 2 3 4 5 6 
#
# 1 0.011357 -0.002319 -0.009455 0.000000 0.000000 0.000000
# 2 -0.002319 0.007912 -0.008732 0.000000 0.000000 0.000000
# 3 -0.009455 -0.008732 0.093772 0.000000 0.000000 0.000000
# 4 0.000000 0.000000 0.000000 0.039909 0.000000 0.000000
# 5 0.000000 0.000000 0.000000 0.000000 -0.335371 0.000000
# 6 0.000000 0.000000 0.000000 0.000000 0.000000 0.027088
#
#
# Mechanical properties :
#
#
# Convention : Reuss Voigt Hill
#
# Bulk Modulus (GPa) = 13.88328 51.36971 32.62650
# Shear Modulus (GPa) = -55.36396 25.31516 -15.02440
#
# Velocity S-wave (km/s) = -5.36589 3.62843 -2.79529
# Velocity P-wave (km/s) = 5.58302 6.65353 2.55923
#
# Compressibility (1/GPa) = 0.07202906
#
# Stress axis : x y z
#
# Youngs Moduli (GPa) = 88.05021 126.38781 10.66420
#
# Poissons Ratio (x) = 0.29311 0.10083
# Poissons Ratio (y) = 0.20420 0.09312
# Poissons Ratio (z) = 0.83249 1.10363
#
# Static dielectric constant tensor:
#      x y z
#    x 3.670770 0.000000 0.000000 
#    y 0.000000 3.933830 0.000000 
#    z 0.000000 0.000000 3.224460 
# 
# 
# High freq. dielectric constant tensor:
#      x y z
#    x 1.761600 0.000000 0.000000 
#    y 0.000000 1.767960 0.000000 
#    z 0.000000 0.000000 1.721910 
# 
# From -- ./inp_files/5801.got.cif
#   From: 2010.06.25/outbox.cif.g09.slc.cpg/sg58_3_cif.got.tgz:5801.got - 2010.06.26 21:38:00.
