data_PCOD8237564
_publ_section_title
;
Structure prediction by ZEFSAII (Michael W. Deem and Ramdas Pophale) SiO2 
 PCOD8237564
Probable space group: P N N M
;
_chemical_formula_sum "Si O2"
_cell_formula_units_Z 48
_cell_length_a 9.695555
_cell_length_b 29.986595
_cell_length_c 8.616326
_cell_angle_alpha 90.000000
_cell_angle_beta 90.000000
_cell_angle_gamma 90.000000
_cell_volume 2505.082024
_symmetry_space_group_name_H-M "P N N M"
_symmetry_group_IT_number 58
_symmetry_cell_setting 'orthorhombic'
loop_
_space_group_symop_operation_xyz
x,y,z
-x,-y,z
1/2+x,1/2-y,1/2-z
1/2-x,1/2+y,1/2-z
-x,-y,-z
x,y,-z
1/2-x,1/2+y,1/2+z
1/2+x,1/2-y,1/2+z
loop_
_atom_site_type_symbol
_atom_site_label
_atom_site_fract_x
_atom_site_fract_y
_atom_site_fract_z
Si Si1 0.333719 0.870268 0.180446
Si Si2 0.646850 0.888030 0.821162
Si Si3 0.179057 0.704413 0.179821
Si Si4 0.134439 0.949033 0.817759
Si Si5 0.343748 0.542687 0.819348
Si Si6 0.132397 0.277698 0.179618
O O1 0.484828 0.889539 0.215702
O O2 0.223333 0.906673 0.235164
O O3 0.305300 0.825937 0.279111
O O4 0.317601 0.858072 0.000000
O O5 0.709413 0.839948 0.778013
O O6 0.714149 0.926372 0.717638
O O7 0.678726 0.897871 0.000000
O O8 0.294723 0.740400 0.217783
O O9 0.029115 0.724080 0.222566
O O10 0.185222 0.691427 0.000000
O O11 0.975952 0.939666 0.775313
O O12 0.192092 0.992228 0.728874
O O13 0.149158 0.957700 0.000000
O O14 0.378901 0.544331 0.000000
O O15 0.159839 0.267599 0.000000
#
# Coordination Sequence:
#
# PCOD8237564 Si02
#       6
#     8   8   8   8   8   8
#     4   9  20  37  58  81 106 138 178 223 268 316
#     4  10  20  37  58  80 107 140 178 220 267 317
#     4  10  21  37  56  80 109 140 178 221 264 314
#     4  10  20  37  58  80 107 141 180 223 269 316
#     4  11  22  36  54  80 111 143 179 219 265 317
#     4  10  21  36  56  81 109 142 178 218 266 318
#
# _framework density 19.161048999999998
#
# number of rings (size 3 to 8) (size 9 to 14) (size 15 to 20)
#    0.000    2.000    0.000    4.500    0.000    6.000 
#    0.000    5.000    0.000    0.000    0.000    0.000 
#    0.000    0.000    0.000    0.000    0.000    0.000 
#
# Total GULP energy -595465.104825 kJ/mol
# GULP energy per Si atom -12405.523017 kJ/mol
# Density = 1.911744 g / cm^3
# Si number density = 19.161049 Si / 1000 Ang^3
#
#
#
# Elastic Constant Matrix: (Units=GPa)
#
#
# Indices 1 2 3 4 5 6 
#
# 1 22.2732 3.2165 10.4493 0.0000 0.0000 0.0000
# 2 3.2165 32.8909 15.1343 0.0000 0.0000 0.0000
# 3 10.4493 15.1343 51.4646 0.0000 0.0000 0.0000
# 4 0.0000 0.0000 0.0000 36.1934 0.0000 0.0000
# 5 0.0000 0.0000 0.0000 0.0000 24.1827 0.0000
# 6 0.0000 0.0000 0.0000 0.0000 0.0000 39.6404
#
#
#
# Elastic Compliance Matrix: (Units=1/GPa)
#
#
# Indices 1 2 3 4 5 6 
#
# 1 0.049626 -0.000251 -0.010002 0.000000 0.000000 0.000000
# 2 -0.000251 0.035163 -0.010290 0.000000 0.000000 0.000000
# 3 -0.010002 -0.010290 0.024488 0.000000 0.000000 0.000000
# 4 0.000000 0.000000 0.000000 0.027629 0.000000 0.000000
# 5 0.000000 0.000000 0.000000 0.000000 0.041352 0.000000
# 6 0.000000 0.000000 0.000000 0.000000 0.000000 0.025227
#
#
# Mechanical properties :
#
#
# Convention : Reuss Voigt Hill
#
# Bulk Modulus (GPa) = 14.66465 18.24764 16.45615
# Shear Modulus (GPa) = 18.70565 25.19186 21.94875
#
# Velocity S-wave (km/s) = 3.12786 3.62987 3.38818
# Velocity P-wave (km/s) = 4.55134 5.20691 4.89012
#
# Compressibility (1/GPa) = 0.06819120
#
# Stress axis : x y z
#
# Youngs Moduli (GPa) = 20.15090 28.43923 40.83708
#
# Poissons Ratio (x) = 0.00713 0.40846
# Poissons Ratio (y) = 0.00505 0.42019
# Poissons Ratio (z) = 0.20155 0.29263
#
# Static dielectric constant tensor:
#      x y z
#    x 3.447490 0.000000 0.000000 
#    y 0.000000 3.479720 0.000000 
#    z 0.000000 0.000000 3.527950 
# 
# 
# High freq. dielectric constant tensor:
#      x y z
#    x 1.740080 0.000000 0.000000 
#    y 0.000000 1.748110 0.000000 
#    z 0.000000 0.000000 1.754740 
# 
# From -- ./inp_files/2920.got.cif
#   From: 2010.06.25/outbox.cif.g09.slc.cpg/sg58_2_cif.got.tgz:2920.got - 2010.06.26 21:38:00.
