data_PCOD8237616
_publ_section_title
;
Structure prediction by ZEFSAII (Michael W. Deem and Ramdas Pophale) SiO2 
 PCOD8237616
Probable space group: P N N M
;
_chemical_formula_sum "Si O2"
_cell_formula_units_Z 64
_cell_length_a 14.373242
_cell_length_b 25.158138
_cell_length_c 9.155515
_cell_angle_alpha 90.000000
_cell_angle_beta 90.000000
_cell_angle_gamma 90.000000
_cell_volume 3310.670899
_symmetry_space_group_name_H-M "P N N M"
_symmetry_group_IT_number 58
_symmetry_cell_setting 'orthorhombic'
loop_
_space_group_symop_operation_xyz
x,y,z
-x,-y,z
1/2+x,1/2-y,1/2-z
1/2-x,1/2+y,1/2-z
-x,-y,-z
x,y,-z
1/2-x,1/2+y,1/2+z
1/2+x,1/2-y,1/2+z
loop_
_atom_site_type_symbol
_atom_site_label
_atom_site_fract_x
_atom_site_fract_y
_atom_site_fract_z
Si Si1 0.646947 0.730031 0.327741
Si Si2 0.800298 0.811759 0.672988
Si Si3 0.603450 0.515196 0.827640
Si Si4 0.940933 0.744507 0.172602
Si Si5 0.600402 0.138174 0.830954
Si Si6 0.244258 0.570686 0.828388
Si Si7 0.551601 0.947008 0.171683
Si Si8 0.193523 0.886726 0.169795
O O1 0.657229 0.727364 0.500000
O O2 0.722091 0.771477 0.266744
O O3 0.547935 0.752866 0.279945
O O4 0.664217 0.670907 0.266374
O O5 0.815206 0.807818 0.500000
O O6 0.894563 0.796246 0.755392
O O7 0.773452 0.870733 0.721643
O O8 0.500000 0.500000 0.773358
O O9 0.674009 0.468886 0.779018
O O10 0.634868 0.569967 0.755974
O O11 0.604378 0.523510 0.000000
O O12 0.896101 0.690919 0.234663
O O13 0.927338 0.746006 0.000000
O O14 0.513137 0.102496 0.782622
O O15 0.695758 0.105369 0.805235
O O16 0.593423 0.155285 0.000000
O O17 0.149387 0.555083 0.751025
O O18 0.226461 0.568084 0.000000
O O19 0.500000 0.000000 0.223556
O O20 0.570016 0.947805 0.000000
O O21 0.167923 0.892141 0.000000
#
# Coordination Sequence:
#
# PCOD8237616 Si02
#       8
#     8   8   8   8   8   8   8   8
#     4   9  19  36  57  82 114 148 188 236 282 338
#     4  10  20  39  61  81 113 157 193 229 286 349
#     4  10  23  41  58  84 119 152 194 245 290 339
#     4  11  22  35  56  87 116 146 189 240 288 338
#     4  10  20  37  60  85 117 154 189 231 287 349
#     4  10  22  39  60  84 115 157 195 235 295 351
#     4  10  21  37  60  89 117 149 192 240 287 340
#     4  10  20  38  62  84 110 152 198 235 283 344
#
# _framework density 19.331430000000001
#
# number of rings (size 3 to 8) (size 9 to 14) (size 15 to 20)
#    0.000    2.000    1.250    1.875    1.750    4.500 
#    0.000    1.875    0.000    0.000    0.000    0.000 
#    0.000    0.000    0.000    0.000    0.000    0.000 
#
# Total GULP energy -793783.556941 kJ/mol
# GULP energy per Si atom -12402.868077 kJ/mol
# Density = 1.928743 g / cm^3
# Si number density = 19.331430 Si / 1000 Ang^3
#
#
#
# Elastic Constant Matrix: (Units=GPa)
#
#
# Indices 1 2 3 4 5 6 
#
# 1 88.8652 38.3985 26.3064 0.0000 0.0000 0.0000
# 2 38.3985 128.6474 27.5667 0.0000 0.0000 0.0000
# 3 26.3064 27.5667 34.7651 0.0000 0.0000 0.0000
# 4 0.0000 0.0000 0.0000 19.0271 0.0000 0.0000
# 5 0.0000 0.0000 0.0000 0.0000 30.5356 0.0000
# 6 0.0000 0.0000 0.0000 0.0000 0.0000 37.8696
#
#
#
# Elastic Compliance Matrix: (Units=1/GPa)
#
#
# Indices 1 2 3 4 5 6 
#
# 1 0.015133 -0.002486 -0.009480 0.000000 0.000000 0.000000
# 2 -0.002486 0.009773 -0.005868 0.000000 0.000000 0.000000
# 3 -0.009480 -0.005868 0.040591 0.000000 0.000000 0.000000
# 4 0.000000 0.000000 0.000000 0.052557 0.000000 0.000000
# 5 0.000000 0.000000 0.000000 0.000000 0.032749 0.000000
# 6 0.000000 0.000000 0.000000 0.000000 0.000000 0.026406
#
#
# Mechanical properties :
#
#
# Convention : Reuss Voigt Hill
#
# Bulk Modulus (GPa) = 33.52450 48.53567 41.03008
# Shear Modulus (GPa) = 22.43957 28.15353 25.29655
#
# Velocity S-wave (km/s) = 3.41072 3.82037 3.62134
# Velocity P-wave (km/s) = 5.73501 6.67996 6.22544
#
# Compressibility (1/GPa) = 0.02982893
#
# Stress axis : x y z
#
# Youngs Moduli (GPa) = 66.07878 102.32774 24.63571
#
# Poissons Ratio (x) = 0.25434 0.23356
# Poissons Ratio (y) = 0.16424 0.14457
# Poissons Ratio (z) = 0.62646 0.60049
#
# Static dielectric constant tensor:
#      x y z
#    x 3.702150 0.000000 0.000000 
#    y 0.000000 3.641480 0.000000 
#    z 0.000000 0.000000 3.263100 
# 
# 
# High freq. dielectric constant tensor:
#      x y z
#    x 1.766750 0.000000 0.000000 
#    y 0.000000 1.764070 0.000000 
#    z 0.000000 0.000000 1.729220 
# 
# From -- ./inp_files/6857.got.cif
#   From: 2010.06.25/outbox.cif.g09.slc.cpg/sg58_4_cif.got.tgz:6857.got - 2010.06.26 21:38:00.
