data_PCOD8237187
_publ_section_title
;
Structure prediction by ZEFSAII (Michael W. Deem and Ramdas Pophale) SiO2 
 PCOD8237187
Probable space group: P N N M
;
_chemical_formula_sum "Si O2"
_cell_formula_units_Z 64
_cell_length_a 18.864258
_cell_length_b 23.032335
_cell_length_c 8.623725
_cell_angle_alpha 90.000000
_cell_angle_beta 90.000000
_cell_angle_gamma 90.000000
_cell_volume 3746.904250
_symmetry_space_group_name_H-M "P N N M"
_symmetry_group_IT_number 58
_symmetry_cell_setting 'orthorhombic'
loop_
_space_group_symop_operation_xyz
x,y,z
-x,-y,z
1/2+x,1/2-y,1/2-z
1/2-x,1/2+y,1/2-z
-x,-y,-z
x,y,-z
1/2-x,1/2+y,1/2+z
1/2+x,1/2-y,1/2+z
loop_
_atom_site_type_symbol
_atom_site_label
_atom_site_fract_x
_atom_site_fract_y
_atom_site_fract_z
Si Si1 0.357505 0.439848 0.679649
Si Si2 0.994473 0.116276 0.680606
Si Si3 0.143988 0.063902 0.680745
Si Si4 0.350871 0.231254 0.680310
Si Si5 0.724864 0.659951 0.820618
Si Si6 0.005137 0.748553 0.321120
Si Si7 0.231900 0.162381 0.818452
Si Si8 0.138727 0.270732 0.179167
O O1 0.355163 0.456648 0.500000
O O2 0.431940 0.410026 0.717767
O O3 0.346465 0.496728 0.782051
O O4 0.293468 0.396089 0.718648
O O5 0.977896 0.105454 0.500000
O O6 0.002042 0.183748 0.720076
O O7 0.066062 0.084225 0.732869
O O8 0.155331 0.075660 0.500000
O O9 0.203629 0.099207 0.773786
O O10 0.341179 0.244485 0.500000
O O11 0.326380 0.286958 0.777984
O O12 0.432849 0.219283 0.720183
O O13 0.305209 0.174951 0.728519
O O14 0.806521 0.676759 0.789871
O O15 0.710846 0.645560 0.000000
O O16 0.022193 0.738155 0.500000
O O17 0.931310 0.717372 0.278952
O O18 0.174433 0.210473 0.766628
O O19 0.247479 0.166591 0.000000
O O20 0.117322 0.267060 0.000000
#
# Coordination Sequence:
#
# PCOD8237187 Si02
#       8
#     8   8   8   8   8   8   8   8
#     4  12  24  35  51  75 102 139 180 219 258 304
#     4  10  21  35  50  71 103 141 179 215 253 301
#     4  11  22  37  54  73 101 140 180 218 258 306
#     4  11  21  33  52  76 103 135 172 212 258 310
#     4  10  20  36  53  73 101 135 172 216 262 306
#     4  11  20  32  52  77 106 138 171 210 258 308
#     4  10  20  35  53  75 103 134 171 216 260 306
#     4   9  19  33  52  75 102 132 167 211 260 308
#
# _framework density 17.080767999999999
#
# number of rings (size 3 to 8) (size 9 to 14) (size 15 to 20)
#    0.000    1.500    2.500    4.875    0.000    5.500 
#    0.000    0.000    0.000    0.000    0.000    0.875 
#    0.000    7.000    0.000    0.000    0.000    0.000 
#
# Total GULP energy -793952.841518 kJ/mol
# GULP energy per Si atom -12405.513149 kJ/mol
# Density = 1.704189 g / cm^3
# Si number density = 17.080768 Si / 1000 Ang^3
#
#
#
# Elastic Constant Matrix: (Units=GPa)
#
#
# Indices 1 2 3 4 5 6 
#
# 1 103.6185 38.0472 30.2302 0.0000 0.0000 0.0000
# 2 38.0472 58.8190 13.5770 0.0000 0.0000 0.0000
# 3 30.2302 13.5770 63.4168 0.0000 0.0000 0.0000
# 4 0.0000 0.0000 0.0000 25.1101 0.0000 0.0000
# 5 0.0000 0.0000 0.0000 0.0000 28.8157 0.0000
# 6 0.0000 0.0000 0.0000 0.0000 0.0000 18.6296
#
#
#
# Elastic Compliance Matrix: (Units=1/GPa)
#
#
# Indices 1 2 3 4 5 6 
#
# 1 0.014010 -0.007912 -0.004985 0.000000 0.000000 0.000000
# 2 -0.007912 0.022353 -0.001014 0.000000 0.000000 0.000000
# 3 -0.004985 -0.001014 0.018362 0.000000 0.000000 0.000000
# 4 0.000000 0.000000 0.000000 0.039825 0.000000 0.000000
# 5 0.000000 0.000000 0.000000 0.000000 0.034703 0.000000
# 6 0.000000 0.000000 0.000000 0.000000 0.000000 0.053678
#
#
# Mechanical properties :
#
#
# Convention : Reuss Voigt Hill
#
# Bulk Modulus (GPa) = 37.16917 43.28478 40.22697
# Shear Modulus (GPa) = 22.75618 24.11107 23.43363
#
# Velocity S-wave (km/s) = 3.65399 3.76119 3.70798
# Velocity P-wave (km/s) = 6.29367 6.65269 6.47567
#
# Compressibility (1/GPa) = 0.02690402
#
# Stress axis : x y z
#
# Youngs Moduli (GPa) = 71.37669 44.73630 54.46046
#
# Poissons Ratio (x) = 0.35395 0.27147
# Poissons Ratio (y) = 0.56473 0.05523
# Poissons Ratio (z) = 0.35579 0.04537
#
# Static dielectric constant tensor:
#      x y z
#    x 3.234580 0.000000 0.000000 
#    y 0.000000 3.005130 0.000000 
#    z 0.000000 0.000000 3.167060 
# 
# 
# High freq. dielectric constant tensor:
#      x y z
#    x 1.655350 0.000000 0.000000 
#    y 0.000000 1.628530 0.000000 
#    z 0.000000 0.000000 1.670340 
# 
# From -- ./inp_files/8237.got.cif
#   From: 2010.06.25/outbox.cif.g09.slc.cpg/sg58_5_cif.got.tgz:8237.got - 2010.06.26 21:38:00.
