data_PCOD8237308
_publ_section_title
;
Structure prediction by ZEFSAII (Michael W. Deem and Ramdas Pophale) SiO2 
 PCOD8237308
Probable space group: P N N M
;
_chemical_formula_sum "Si O2"
_cell_formula_units_Z 28
_cell_length_a 5.179577
_cell_length_b 14.084227
_cell_length_c 21.902613
_cell_angle_alpha 90.000000
_cell_angle_beta 90.000000
_cell_angle_gamma 90.000000
_cell_volume 1597.803027
_symmetry_space_group_name_H-M "P N N M"
_symmetry_group_IT_number 58
_symmetry_cell_setting 'orthorhombic'
loop_
_space_group_symop_operation_xyz
x,y,z
-x,-y,z
1/2+x,1/2-y,1/2-z
1/2-x,1/2+y,1/2-z
-x,-y,-z
x,y,-z
1/2-x,1/2+y,1/2+z
1/2+x,1/2-y,1/2+z
loop_
_atom_site_type_symbol
_atom_site_label
_atom_site_fract_x
_atom_site_fract_y
_atom_site_fract_z
Si Si1 0.293761 0.180047 0.622777
Si Si2 0.751131 0.435220 0.000000
Si Si3 0.694310 0.755259 0.828151
Si Si4 0.912239 0.895537 0.261315
O O1 0.253089 0.130987 0.558587
O O2 0.573562 0.227706 0.626430
O O3 0.262851 0.101751 0.677093
O O4 0.068939 0.260062 0.631844
O O5 0.500000 0.500000 0.000000
O O6 0.000000 0.500000 0.000000
O O7 0.749532 0.855440 0.795858
O O8 0.656717 0.675113 0.774435
O O9 0.000000 0.000000 0.243273
#
# Coordination Sequence:
#
# PCOD8237308 Si02
#       4
#     8   4   8   8
#     4  10  21  36  51  76 117 143 176 234 261 337
#     4  12  24  36  54  84 109 154 199 212 278 356
#     4  10  20  37  51  82 112 140 190 223 280 338
#     4  10  20  35  58  78 115 145 180 231 287 325
#
# _framework density 17.524062000000001
#
# number of rings (size 3 to 8) (size 9 to 14) (size 15 to 20)
#    1.714    0.000    2.857    2.571    4.000    0.000 
#    0.000    0.000    0.000    0.000    0.000    6.000 
#    0.000    0.000    0.000    0.000    0.000    0.000 
#
# Total GULP energy -346964.886572 kJ/mol
# GULP energy per Si atom -12391.603092 kJ/mol
# Density = 1.748418 g / cm^3
# Si number density = 17.524062 Si / 1000 Ang^3
#
#
#
# Elastic Constant Matrix: (Units=GPa)
#
#
# Indices 1 2 3 4 5 6 
#
# 1 109.7113 11.0754 25.2853 0.0000 0.0000 0.0000
# 2 11.0754 74.7733 28.5809 0.0000 0.0000 0.0000
# 3 25.2853 28.5809 104.2276 0.0000 0.0000 0.0000
# 4 0.0000 0.0000 0.0000 21.9708 0.0000 0.0000
# 5 0.0000 0.0000 0.0000 0.0000 23.9920 0.0000
# 6 0.0000 0.0000 0.0000 0.0000 0.0000 23.4052
#
#
#
# Elastic Compliance Matrix: (Units=1/GPa)
#
#
# Indices 1 2 3 4 5 6 
#
# 1 0.009679 -0.000599 -0.002184 0.000000 0.000000 0.000000
# 2 -0.000599 0.014977 -0.003962 0.000000 0.000000 0.000000
# 3 -0.002184 -0.003962 0.011210 0.000000 0.000000 0.000000
# 4 0.000000 0.000000 0.000000 0.045515 0.000000 0.000000
# 5 0.000000 0.000000 0.000000 0.000000 0.041681 0.000000
# 6 0.000000 0.000000 0.000000 0.000000 0.000000 0.042726
#
#
# Mechanical properties :
#
#
# Convention : Reuss Voigt Hill
#
# Bulk Modulus (GPa) = 44.68805 46.51059 45.59932
# Shear Modulus (GPa) = 26.77599 28.79164 27.78381
#
# Velocity S-wave (km/s) = 3.91315 4.05776 3.98611
# Velocity P-wave (km/s) = 6.78036 6.96796 6.87480
#
# Compressibility (1/GPa) = 0.02237735
#
# Stress axis : x y z
#
# Youngs Moduli (GPa) = 103.32089 66.77030 89.20215
#
# Poissons Ratio (x) = 0.03999 0.19480
# Poissons Ratio (y) = 0.06188 0.35338
# Poissons Ratio (z) = 0.22563 0.26452
#
# Static dielectric constant tensor:
#      x y z
#    x 3.440980 0.000000 0.000000 
#    y 0.000000 2.851430 0.000000 
#    z 0.000000 0.000000 3.092610 
# 
# 
# High freq. dielectric constant tensor:
#      x y z
#    x 1.695950 0.000000 0.000000 
#    y 0.000000 1.638910 0.000000 
#    z 0.000000 0.000000 1.655370 
# 
# From -- ./inp_files/27921.got.cif
#   From: 2010.06.25/outbox.cif.g09.slc.cpg/sg58_14_cif.got.tgz:27921.got - 2010.06.26 21:38:00.
