data_PCOD8237782
_publ_section_title
;
Structure prediction by ZEFSAII (Michael W. Deem and Ramdas Pophale) SiO2 
 PCOD8237782
Probable space group: P N N M
;
_chemical_formula_sum "Si O2"
_cell_formula_units_Z 40
_cell_length_a 11.501705
_cell_length_b 11.366747
_cell_length_c 15.006238
_cell_angle_alpha 90.000000
_cell_angle_beta 90.000000
_cell_angle_gamma 90.000000
_cell_volume 1961.870099
_symmetry_space_group_name_H-M "P N N M"
_symmetry_group_IT_number 58
_symmetry_cell_setting 'orthorhombic'
loop_
_space_group_symop_operation_xyz
x,y,z
-x,-y,z
1/2+x,1/2-y,1/2-z
1/2-x,1/2+y,1/2-z
-x,-y,-z
x,y,-z
1/2-x,1/2+y,1/2+z
1/2+x,1/2-y,1/2+z
loop_
_atom_site_type_symbol
_atom_site_label
_atom_site_fract_x
_atom_site_fract_y
_atom_site_fract_z
Si Si1 0.196025 0.318066 0.397377
Si Si2 0.714182 0.981969 0.246369
Si Si3 0.919668 0.268089 0.192359
Si Si4 0.400035 0.903450 0.402211
Si Si5 0.555117 0.385951 0.813499
O O1 0.185875 0.356094 0.500000
O O2 0.183942 0.434607 0.337176
O O3 0.320598 0.259489 0.379583
O O4 0.098180 0.218766 0.377842
O O5 0.704616 0.055343 0.338814
O O6 0.616743 0.879612 0.246686
O O7 0.841838 0.924509 0.245535
O O8 0.040232 0.288848 0.140054
O O9 0.944680 0.158399 0.256083
O O10 0.347900 0.875754 0.500000
O O11 0.500000 0.000000 0.409833
O O12 0.500000 0.500000 0.864609
#
# Coordination Sequence:
#
# PCOD8237782 Si02
#       5
#     8   8   8   8   8
#     4  11  23  40  64  94 129 166 206 255 311 376
#     4  10  21  37  62  88 124 161 209 257 312 368
#     4  10  20  38  64  88 122 161 207 261 311 364
#     4   9  17  33  61  90 111 146 202 257 307 361
#     4  11  22  39  64  89 123 165 204 255 315 363
#
# _framework density 20.388708000000001
#
# number of rings (size 3 to 8) (size 9 to 14) (size 15 to 20)
#    0.000    1.800    4.000    0.600    0.000    5.200 
#    0.000    5.000    0.000    0.000    0.000    0.000 
#    0.000    0.000    0.000    0.000    0.000    0.000 
#
# Total GULP energy -495788.175489 kJ/mol
# GULP energy per Si atom -12394.704387 kJ/mol
# Density = 2.034230 g / cm^3
# Si number density = 20.388708 Si / 1000 Ang^3
#
#
#
# Elastic Constant Matrix: (Units=GPa)
#
#
# Indices 1 2 3 4 5 6 
#
# 1 60.8137 27.3047 33.6944 0.0000 0.0000 0.0000
# 2 27.3047 101.8997 68.6458 0.0000 0.0000 0.0000
# 3 33.6944 68.6458 131.2660 0.0000 0.0000 0.0000
# 4 0.0000 0.0000 0.0000 18.5789 0.0000 0.0000
# 5 0.0000 0.0000 0.0000 0.0000 18.6405 0.0000
# 6 0.0000 0.0000 0.0000 0.0000 0.0000 40.3747
#
#
#
# Elastic Compliance Matrix: (Units=1/GPa)
#
#
# Indices 1 2 3 4 5 6 
#
# 1 0.019707 -0.002892 -0.003546 0.000000 0.000000 0.000000
# 2 -0.002892 0.015575 -0.007403 0.000000 0.000000 0.000000
# 3 -0.003546 -0.007403 0.012400 0.000000 0.000000 0.000000
# 4 0.000000 0.000000 0.000000 0.053824 0.000000 0.000000
# 5 0.000000 0.000000 0.000000 0.000000 0.053647 0.000000
# 6 0.000000 0.000000 0.000000 0.000000 0.000000 0.024768
#
#
# Mechanical properties :
#
#
# Convention : Reuss Voigt Hill
#
# Bulk Modulus (GPa) = 49.99915 61.47436 55.73676
# Shear Modulus (GPa) = 23.33507 26.47446 24.90476
#
# Velocity S-wave (km/s) = 3.38673 3.60736 3.49879
# Velocity P-wave (km/s) = 6.31423 6.89691 6.61199
#
# Compressibility (1/GPa) = 0.02000034
#
# Stress axis : x y z
#
# Youngs Moduli (GPa) = 50.74381 64.20345 80.64614
#
# Poissons Ratio (x) = 0.18565 0.28600
# Poissons Ratio (y) = 0.14673 0.59702
# Poissons Ratio (z) = 0.17996 0.47530
#
# Static dielectric constant tensor:
#      x y z
#    x 3.583860 0.000000 0.000000 
#    y 0.000000 3.847240 0.000000 
#    z 0.000000 0.000000 3.474340 
# 
# 
# High freq. dielectric constant tensor:
#      x y z
#    x 1.795420 0.000000 0.000000 
#    y 0.000000 1.803890 0.000000 
#    z 0.000000 0.000000 1.761360 
# 
# From -- ./inp_files/20889.got.cif
#   From: 2010.06.25/outbox.cif.g09.slc.cpg/sg58_11_cif.got.tgz:20889.got - 2010.06.26 21:38:00.
