data_PCOD8237129
_publ_section_title
;
Structure prediction by ZEFSAII (Michael W. Deem and Ramdas Pophale) SiO2 
 PCOD8237129
Probable space group: P N N M
;
_chemical_formula_sum "Si O2"
_cell_formula_units_Z 40
_cell_length_a 20.124548
_cell_length_b 4.964732
_cell_length_c 21.983959
_cell_angle_alpha 90.000000
_cell_angle_beta 90.000000
_cell_angle_gamma 90.000000
_cell_volume 2196.483019
_symmetry_space_group_name_H-M "P N N M"
_symmetry_group_IT_number 58
_symmetry_cell_setting 'orthorhombic'
loop_
_space_group_symop_operation_xyz
x,y,z
-x,-y,z
1/2+x,1/2-y,1/2-z
1/2-x,1/2+y,1/2-z
-x,-y,-z
x,y,-z
1/2-x,1/2+y,1/2+z
1/2+x,1/2-y,1/2+z
loop_
_atom_site_type_symbol
_atom_site_label
_atom_site_fract_x
_atom_site_fract_y
_atom_site_fract_z
Si Si1 0.326374 0.446291 0.209903
Si Si2 0.543615 0.754128 0.740191
Si Si3 0.924481 0.449988 0.889475
Si Si4 0.754299 0.548056 0.668639
Si Si5 0.847227 0.968175 0.931139
O O1 0.403876 0.361687 0.210819
O O2 0.300438 0.427945 0.278722
O O3 0.313611 0.737231 0.179831
O O4 0.287076 0.243278 0.166968
O O5 0.500000 0.500000 0.718553
O O6 0.581090 0.874669 0.681592
O O7 0.500000 0.000000 0.768901
O O8 0.878135 0.709213 0.898182
O O9 0.000000 0.500000 0.909193
O O10 0.900738 0.206887 0.931777
O O11 0.717534 0.579972 0.604273
O O12 0.827177 0.895680 0.000000
#
# Coordination Sequence:
#
# PCOD8237129 Si02
#       5
#     8   8   8   8   8
#     4  10  20  34  56  77 103 136 174 223 269 334
#     4  11  21  34  56  81 110 140 176 224 274 323
#     4  11  23  36  53  73 106 149 189 227 258 299
#     4  10  21  34  53  77 103 137 180 221 270 316
#     4  12  24  38  54  75 108 144 192 231 259 306
#
# _framework density 18.210930999999999
#
# number of rings (size 3 to 8) (size 9 to 14) (size 15 to 20)
#    0.000    1.200    2.000    6.000    5.600    2.400 
#    0.000    0.000    0.000    0.000    0.000    0.000 
#    0.000   16.000    0.000    0.000    0.000    0.000 
#
# Total GULP energy -496032.493916 kJ/mol
# GULP energy per Si atom -12400.812348 kJ/mol
# Density = 1.816948 g / cm^3
# Si number density = 18.210931 Si / 1000 Ang^3
#
#
#
# Elastic Constant Matrix: (Units=GPa)
#
#
# Indices 1 2 3 4 5 6 
#
# 1 74.8612 27.4180 46.5277 0.0000 0.0000 0.0000
# 2 27.4180 105.2910 21.1325 0.0000 0.0000 0.0000
# 3 46.5277 21.1325 69.0332 0.0000 0.0000 0.0000
# 4 0.0000 0.0000 0.0000 153.3996 0.0000 0.0000
# 5 0.0000 0.0000 0.0000 0.0000 31.9107 0.0000
# 6 0.0000 0.0000 0.0000 0.0000 0.0000 29.2501
#
#
#
# Elastic Compliance Matrix: (Units=1/GPa)
#
#
# Indices 1 2 3 4 5 6 
#
# 1 0.023955 -0.003194 -0.015168 0.000000 0.000000 0.000000
# 2 -0.003194 0.010545 -0.001076 0.000000 0.000000 0.000000
# 3 -0.015168 -0.001076 0.025038 0.000000 0.000000 0.000000
# 4 0.000000 0.000000 0.000000 0.006519 0.000000 0.000000
# 5 0.000000 0.000000 0.000000 0.000000 0.031337 0.000000
# 6 0.000000 0.000000 0.000000 0.000000 0.000000 0.034188
#
#
# Mechanical properties :
#
#
# Convention : Reuss Voigt Hill
#
# Bulk Modulus (GPa) = 48.39344 48.81573 48.60459
# Shear Modulus (GPa) = 28.19389 53.18588 40.68989
#
# Velocity S-wave (km/s) = 3.93897 5.41007 4.73204
# Velocity P-wave (km/s) = 6.87887 8.11721 7.52356
#
# Compressibility (1/GPa) = 0.02066396
#
# Stress axis : x y z
#
# Youngs Moduli (GPa) = 41.74552 94.83174 39.93955
#
# Poissons Ratio (x) = 0.30286 0.60579
# Poissons Ratio (y) = 0.13332 0.04296
# Poissons Ratio (z) = 0.63318 0.10200
#
# Static dielectric constant tensor:
#      x y z
#    x 3.314830 0.000000 0.000000 
#    y 0.000000 3.659110 0.000000 
#    z 0.000000 0.000000 2.902400 
# 
# 
# High freq. dielectric constant tensor:
#      x y z
#    x 1.694890 0.000000 0.000000 
#    y 0.000000 1.734980 0.000000 
#    z 0.000000 0.000000 1.649830 
# 
# From -- ./inp_files/30183.got.cif
#   From: 2010.06.25/outbox.cif.g09.slc.cpg/sg58_16_cif.got.tgz:30183.got - 2010.06.26 21:38:00.
