data_PCOD8237714
_publ_section_title
;
Structure prediction by ZEFSAII (Michael W. Deem and Ramdas Pophale) SiO2 
 PCOD8237714
Probable space group: P N N M
;
_chemical_formula_sum "Si O2"
_cell_formula_units_Z 64
_cell_length_a 22.146069
_cell_length_b 16.558402
_cell_length_c 9.185703
_cell_angle_alpha 90.000000
_cell_angle_beta 90.000000
_cell_angle_gamma 90.000000
_cell_volume 3368.429562
_symmetry_space_group_name_H-M "P N N M"
_symmetry_group_IT_number 58
_symmetry_cell_setting 'orthorhombic'
loop_
_space_group_symop_operation_xyz
x,y,z
-x,-y,z
1/2+x,1/2-y,1/2-z
1/2-x,1/2+y,1/2-z
-x,-y,-z
x,y,-z
1/2-x,1/2+y,1/2+z
1/2+x,1/2-y,1/2+z
loop_
_atom_site_type_symbol
_atom_site_label
_atom_site_fract_x
_atom_site_fract_y
_atom_site_fract_z
Si Si1 0.359512 0.358455 0.332060
Si Si2 0.123980 0.673251 0.166839
Si Si3 0.002337 0.407812 0.830106
Si Si4 0.352000 0.645339 0.830251
Si Si5 0.568347 0.506145 0.171736
Si Si6 0.266175 0.096417 0.827300
Si Si7 0.769628 0.587253 0.327754
Si Si8 0.111872 0.324234 0.329394
O O1 0.362836 0.385060 0.500000
O O2 0.382523 0.268312 0.307980
O O3 0.402934 0.415292 0.241535
O O4 0.290687 0.366812 0.274649
O O5 0.173148 0.638810 0.275889
O O6 0.060963 0.632952 0.208291
O O7 0.142500 0.654361 0.000000
O O8 0.053677 0.359913 0.746842
O O9 0.000000 0.500000 0.775673
O O10 0.017278 0.403327 0.000000
O O11 0.396062 0.573867 0.778641
O O12 0.290327 0.642610 0.740929
O O13 0.385235 0.729178 0.795719
O O14 0.335541 0.638617 0.000000
O O15 0.500000 0.500000 0.228248
O O16 0.570635 0.517039 0.000000
O O17 0.267206 0.004360 0.770562
O O18 0.261490 0.101216 0.000000
O O19 0.773787 0.589709 0.500000
O O20 0.828263 0.632629 0.263974
O O21 0.106047 0.341113 0.500000
#
# Coordination Sequence:
#
# PCOD8237714 Si02
#       8
#     8   8   8   8   8   8   8   8
#     4  10  20  38  60  82 110 148 193 236 280 338
#     4  10  22  38  58  82 113 153 190 231 290 347
#     4  10  22  40  58  83 119 152 186 234 288 339
#     4  10  21  38  58  83 116 155 189 228 288 345
#     4  10  22  38  57  84 120 154 187 232 286 340
#     4  11  21  35  58  86 114 146 189 240 283 329
#     4   9  18  34  55  81 111 141 182 236 281 324
#     4  10  21  37  60  84 110 150 195 234 277 336
#
# _framework density 18.999950999999999
#
# number of rings (size 3 to 8) (size 9 to 14) (size 15 to 20)
#    0.000    2.000    1.250    1.875    1.750    4.000 
#    0.000    1.250    0.000    0.000    0.000    0.000 
#    0.000    0.000    0.000    0.000    0.000    0.000 
#
# Total GULP energy -793861.904093 kJ/mol
# GULP energy per Si atom -12404.092251 kJ/mol
# Density = 1.895671 g / cm^3
# Si number density = 18.999951 Si / 1000 Ang^3
#
#
#
# Elastic Constant Matrix: (Units=GPa)
#
#
# Indices 1 2 3 4 5 6 
#
# 1 151.9251 75.0581 45.1610 0.0000 0.0000 0.0000
# 2 75.0581 127.4177 38.7898 0.0000 0.0000 0.0000
# 3 45.1610 38.7898 37.9621 0.0000 0.0000 0.0000
# 4 0.0000 0.0000 0.0000 22.6748 0.0000 0.0000
# 5 0.0000 0.0000 0.0000 0.0000 31.0368 0.0000
# 6 0.0000 0.0000 0.0000 0.0000 0.0000 33.5919
#
#
#
# Elastic Compliance Matrix: (Units=1/GPa)
#
#
# Indices 1 2 3 4 5 6 
#
# 1 0.011277 -0.003714 -0.009620 0.000000 0.000000 0.000000
# 2 -0.003714 0.012615 -0.008472 0.000000 0.000000 0.000000
# 3 -0.009620 -0.008472 0.046443 0.000000 0.000000 0.000000
# 4 0.000000 0.000000 0.000000 0.044102 0.000000 0.000000
# 5 0.000000 0.000000 0.000000 0.000000 0.032220 0.000000
# 6 0.000000 0.000000 0.000000 0.000000 0.000000 0.029769
#
#
# Mechanical properties :
#
#
# Convention : Reuss Voigt Hill
#
# Bulk Modulus (GPa) = 37.42108 70.59142 54.00625
# Shear Modulus (GPa) = 21.83925 28.01375 24.92650
#
# Velocity S-wave (km/s) = 3.39401 3.84397 3.62598
# Velocity P-wave (km/s) = 5.92429 7.54557 6.78354
#
# Compressibility (1/GPa) = 0.02672291
#
# Stress axis : x y z
#
# Youngs Moduli (GPa) = 88.67712 79.26963 21.53177
#
# Poissons Ratio (x) = 0.29442 0.20714
# Poissons Ratio (y) = 0.32937 0.18241
# Poissons Ratio (z) = 0.85309 0.67155
#
# Static dielectric constant tensor:
#      x y z
#    x 3.660110 0.000000 0.000000 
#    y 0.000000 3.713760 0.000000 
#    z 0.000000 0.000000 3.286620 
# 
# 
# High freq. dielectric constant tensor:
#      x y z
#    x 1.750680 0.000000 0.000000 
#    y 0.000000 1.754070 0.000000 
#    z 0.000000 0.000000 1.718100 
# 
# From -- ./inp_files/10103.got.cif
#   From: 2010.06.25/outbox.cif.g09.slc.cpg/sg58_6_cif.got.tgz:10103.got - 2010.06.26 21:38:00.
