data_PCOD8237382
_publ_section_title
;
Structure prediction by ZEFSAII (Michael W. Deem and Ramdas Pophale) SiO2 
 PCOD8237382
Probable space group: P N N M
;
_chemical_formula_sum "Si O2"
_cell_formula_units_Z 64
_cell_length_a 25.920973
_cell_length_b 14.743501
_cell_length_c 8.880094
_cell_angle_alpha 90.000000
_cell_angle_beta 90.000000
_cell_angle_gamma 90.000000
_cell_volume 3393.669039
_symmetry_space_group_name_H-M "P N N M"
_symmetry_group_IT_number 58
_symmetry_cell_setting 'orthorhombic'
loop_
_space_group_symop_operation_xyz
x,y,z
-x,-y,z
1/2+x,1/2-y,1/2-z
1/2-x,1/2+y,1/2-z
-x,-y,-z
x,y,-z
1/2-x,1/2+y,1/2+z
1/2+x,1/2-y,1/2+z
loop_
_atom_site_type_symbol
_atom_site_label
_atom_site_fract_x
_atom_site_fract_y
_atom_site_fract_z
Si Si1 0.559751 0.508552 0.325398
Si Si2 0.368531 0.352391 0.178501
Si Si3 0.170933 0.495984 0.178230
Si Si4 0.110412 0.337616 0.673745
Si Si5 0.629013 0.367943 0.175074
Si Si6 0.503383 0.896018 0.175558
Si Si7 0.714517 0.504771 0.823411
Si Si8 0.105709 0.666454 0.178547
O O1 0.500000 0.500000 0.290831
O O2 0.571347 0.526588 0.500000
O O3 0.580847 0.593007 0.229704
O O4 0.585181 0.414298 0.274905
O O5 0.318199 0.408522 0.234480
O O6 0.366940 0.254832 0.255118
O O7 0.370029 0.341167 0.000000
O O8 0.143319 0.403987 0.224238
O O9 0.228553 0.497981 0.250020
O O10 0.138505 0.581182 0.239814
O O11 0.173545 0.500919 0.000000
O O12 0.119834 0.362624 0.500000
O O13 0.130404 0.237741 0.713450
O O14 0.050033 0.345769 0.712382
O O15 0.684432 0.411765 0.216587
O O16 0.615840 0.385354 0.000000
O O17 0.547084 0.842572 0.266051
O O18 0.500000 0.000000 0.230928
O O19 0.517480 0.892093 0.000000
O O20 0.720951 0.514640 0.000000
O O21 0.105826 0.672859 0.000000
#
# Coordination Sequence:
#
# PCOD8237382 Si02
#       8
#     8   8   8   8   8   8   8   8
#     4  10  21  36  54  81 114 144 179 228 278 328
#     4  10  21  38  60  81 109 149 189 231 275 329
#     4  10  21  37  57  80 110 148 186 228 284 338
#     4  10  21  36  56  84 111 144 190 233 275 327
#     4   9  19  36  57  80 108 144 186 226 270 329
#     4  10  20  36  56  78 112 151 189 234 277 328
#     4   8  17  37  59  79 107 144 185 232 279 327
#     4  11  23  36  55  85 117 149 186 230 285 341
#
# _framework density 18.858644999999999
#
# number of rings (size 3 to 8) (size 9 to 14) (size 15 to 20)
#    0.000    2.250    1.250    1.875    1.750    3.750 
#    0.000    4.375    0.000    0.000    0.000    0.000 
#    0.000    0.000    0.000    0.000    0.000    0.000 
#
# Total GULP energy -793719.829869 kJ/mol
# GULP energy per Si atom -12401.872342 kJ/mol
# Density = 1.881572 g / cm^3
# Si number density = 18.858645 Si / 1000 Ang^3
#
#
#
# Elastic Constant Matrix: (Units=GPa)
#
#
# Indices 1 2 3 4 5 6 
#
# 1 136.2000 64.1879 32.4688 0.0000 0.0000 0.0000
# 2 64.1879 136.0538 23.7708 0.0000 0.0000 0.0000
# 3 32.4688 23.7708 36.2043 0.0000 0.0000 0.0000
# 4 0.0000 0.0000 0.0000 30.9415 0.0000 0.0000
# 5 0.0000 0.0000 0.0000 0.0000 16.8028 0.0000
# 6 0.0000 0.0000 0.0000 0.0000 0.0000 13.1341
#
#
#
# Elastic Compliance Matrix: (Units=1/GPa)
#
#
# Indices 1 2 3 4 5 6 
#
# 1 0.010891 -0.003876 -0.007222 0.000000 0.000000 0.000000
# 2 -0.003876 0.009682 -0.002881 0.000000 0.000000 0.000000
# 3 -0.007222 -0.002881 0.035989 0.000000 0.000000 0.000000
# 4 0.000000 0.000000 0.000000 0.032319 0.000000 0.000000
# 5 0.000000 0.000000 0.000000 0.000000 0.059514 0.000000
# 6 0.000000 0.000000 0.000000 0.000000 0.000000 0.076138
#
#
# Mechanical properties :
#
#
# Convention : Reuss Voigt Hill
#
# Bulk Modulus (GPa) = 34.95995 61.03479 47.99737
# Shear Modulus (GPa) = 19.08218 24.71106 21.89662
#
# Velocity S-wave (km/s) = 3.18442 3.62378 3.41118
# Velocity P-wave (km/s) = 5.66558 7.06708 6.40478
#
# Compressibility (1/GPa) = 0.02860416
#
# Stress axis : x y z
#
# Youngs Moduli (GPa) = 91.82302 103.28368 27.78620
#
# Poissons Ratio (x) = 0.40035 0.20067
# Poissons Ratio (y) = 0.35592 0.08004
# Poissons Ratio (z) = 0.66313 0.29753
#
# Static dielectric constant tensor:
#      x y z
#    x 3.669590 0.000000 0.000000 
#    y 0.000000 3.552330 0.000000 
#    z 0.000000 0.000000 3.292270 
# 
# 
# High freq. dielectric constant tensor:
#      x y z
#    x 1.737320 0.000000 0.000000 
#    y 0.000000 1.739130 0.000000 
#    z 0.000000 0.000000 1.718380 
# 
# From -- ./inp_files/10065.got.cif
#   From: 2010.06.25/outbox.cif.g09.slc.cpg/sg58_6_cif.got.tgz:10065.got - 2010.06.26 21:38:00.
