data_PCOD8237649
_publ_section_title
;
Structure prediction by ZEFSAII (Michael W. Deem and Ramdas Pophale) SiO2 
 PCOD8237649
Probable space group: P N N M
;
_chemical_formula_sum "Si O2"
_cell_formula_units_Z 64
_cell_length_a 12.104824
_cell_length_b 8.540114
_cell_length_c 30.749462
_cell_angle_alpha 90.000000
_cell_angle_beta 90.000000
_cell_angle_gamma 90.000000
_cell_volume 3178.774123
_symmetry_space_group_name_H-M "P N N M"
_symmetry_group_IT_number 58
_symmetry_cell_setting 'orthorhombic'
loop_
_space_group_symop_operation_xyz
x,y,z
-x,-y,z
1/2+x,1/2-y,1/2-z
1/2-x,1/2+y,1/2-z
-x,-y,-z
x,y,-z
1/2-x,1/2+y,1/2+z
1/2+x,1/2-y,1/2+z
loop_
_atom_site_type_symbol
_atom_site_label
_atom_site_fract_x
_atom_site_fract_y
_atom_site_fract_z
Si Si1 0.526211 0.670524 0.589666
Si Si2 0.495649 0.324643 0.688091
Si Si3 0.387715 0.909144 0.251054
Si Si4 0.657155 0.149213 0.449559
Si Si5 0.850849 0.371979 0.449025
Si Si6 0.266552 0.138786 0.602320
Si Si7 0.089218 0.289014 0.551155
Si Si8 0.735716 0.824080 0.299070
O O1 0.500000 0.500000 0.570145
O O2 0.472494 0.681598 0.637471
O O3 0.467154 0.789653 0.556518
O O4 0.656394 0.708750 0.593245
O O5 0.500000 0.500000 0.707149
O O6 0.580144 0.202240 0.709000
O O7 0.371727 0.279754 0.698088
O O8 0.336558 0.789869 0.215401
O O9 0.500000 0.000000 0.234280
O O10 0.292049 0.031140 0.266398
O O11 0.677998 0.103668 0.500000
O O12 0.742541 0.282433 0.432662
O O13 0.667419 0.005714 0.417123
O O14 0.846628 0.395060 0.500000
O O15 0.862438 0.546843 0.430037
O O16 0.960170 0.272674 0.436983
O O17 0.152057 0.152346 0.576436
O O18 0.237857 0.110602 0.652832
O O19 0.109692 0.269145 0.500000
#
# Coordination Sequence:
#
# PCOD8237649 Si02
#       8
#     8   8   8   8   8   8   8   8
#     4  10  21  36  55  81 111 146 189 228 278 339
#     4   9  18  35  61  85 109 146 189 230 285 352
#     4  10  20  37  62  84 112 149 189 236 291 354
#     4  11  22  35  54  80 116 152 188 235 284 334
#     4   8  17  34  55  77 100 144 198 230 268 324
#     4  11  22  35  54  82 116 145 183 234 286 337
#     4   9  17  34  58  78 105 147 192 231 267 326
#     4  10  21  37  58  84 114 149 187 236 289 347
#
# _framework density 20.133547
#
# number of rings (size 3 to 8) (size 9 to 14) (size 15 to 20)
#    0.000    2.250    0.000    3.750    0.000    4.250 
#    2.250    3.125   13.750    0.000    0.000    0.000 
#    0.000    0.000    0.000    0.000    0.000    0.000 
#
# Total GULP energy -793233.349630 kJ/mol
# GULP energy per Si atom -12394.271088 kJ/mol
# Density = 2.008772 g / cm^3
# Si number density = 20.133547 Si / 1000 Ang^3
#
#
#
# Elastic Constant Matrix: (Units=GPa)
#
#
# Indices 1 2 3 4 5 6 
#
# 1 74.8465 15.8581 31.3198 0.0000 0.0000 0.0000
# 2 15.8581 73.6825 29.2786 0.0000 0.0000 0.0000
# 3 31.3198 29.2786 79.9605 0.0000 0.0000 0.0000
# 4 0.0000 0.0000 0.0000 27.4194 0.0000 0.0000
# 5 0.0000 0.0000 0.0000 0.0000 18.9773 0.0000
# 6 0.0000 0.0000 0.0000 0.0000 0.0000 36.2301
#
#
#
# Elastic Compliance Matrix: (Units=1/GPa)
#
#
# Indices 1 2 3 4 5 6 
#
# 1 0.016058 -0.001120 -0.005880 0.000000 0.000000 0.000000
# 2 -0.001120 0.015961 -0.005406 0.000000 0.000000 0.000000
# 3 -0.005880 -0.005406 0.016789 0.000000 0.000000 0.000000
# 4 0.000000 0.000000 0.000000 0.036471 0.000000 0.000000
# 5 0.000000 0.000000 0.000000 0.000000 0.052695 0.000000
# 6 0.000000 0.000000 0.000000 0.000000 0.000000 0.027601
#
#
# Mechanical properties :
#
#
# Convention : Reuss Voigt Hill
#
# Bulk Modulus (GPa) = 41.67150 42.37806 42.02478
# Shear Modulus (GPa) = 25.20365 26.66088 25.93226
#
# Velocity S-wave (km/s) = 3.54195 3.64291 3.59278
# Velocity P-wave (km/s) = 6.12125 6.22804 6.17488
#
# Compressibility (1/GPa) = 0.02399722
#
# Stress axis : x y z
#
# Youngs Moduli (GPa) = 62.27276 62.65374 59.56401
#
# Poissons Ratio (x) = 0.07015 0.35023
# Poissons Ratio (y) = 0.06972 0.32198
# Poissons Ratio (z) = 0.36616 0.33869
#
# Static dielectric constant tensor:
#      x y z
#    x 3.863470 0.000000 0.000000 
#    y 0.000000 4.001950 0.000000 
#    z 0.000000 0.000000 3.435480 
# 
# 
# High freq. dielectric constant tensor:
#      x y z
#    x 1.785870 0.000000 0.000000 
#    y 0.000000 1.791750 0.000000 
#    z 0.000000 0.000000 1.757710 
# 
# From -- ./inp_files/34933.got.cif
#   From: 2010.06.25/outbox.cif.g09.slc.cpg/sg58_18_cif.got.tgz:34933.got - 2010.06.26 21:38:00.
