data_PCOD8237789
_publ_section_title
;
Structure prediction by ZEFSAII (Michael W. Deem and Ramdas Pophale) SiO2 
 PCOD8237789
Probable space group: P N N M
;
_chemical_formula_sum "Si O2"
_cell_formula_units_Z 56
_cell_length_a 11.093475
_cell_length_b 17.476010
_cell_length_c 13.557259
_cell_angle_alpha 90.000000
_cell_angle_beta 90.000000
_cell_angle_gamma 90.000000
_cell_volume 2628.341464
_symmetry_space_group_name_H-M "P N N M"
_symmetry_group_IT_number 58
_symmetry_cell_setting 'orthorhombic'
loop_
_space_group_symop_operation_xyz
x,y,z
-x,-y,z
1/2+x,1/2-y,1/2-z
1/2-x,1/2+y,1/2-z
-x,-y,-z
x,y,-z
1/2-x,1/2+y,1/2+z
1/2+x,1/2-y,1/2+z
loop_
_atom_site_type_symbol
_atom_site_label
_atom_site_fract_x
_atom_site_fract_y
_atom_site_fract_z
Si Si1 0.939458 0.329084 0.224555
Si Si2 0.614973 0.946268 0.887280
Si Si3 0.935810 0.919190 0.387981
Si Si4 0.847131 0.627325 0.116195
Si Si5 0.865489 0.031935 0.884479
Si Si6 0.180501 0.542645 0.886249
Si Si7 0.377915 0.337729 0.232074
O O1 0.909743 0.369005 0.327609
O O2 0.904451 0.385760 0.134488
O O3 0.873803 0.247958 0.225530
O O4 0.078916 0.318594 0.192897
O O5 0.500000 0.000000 0.864739
O O6 0.747476 0.979776 0.858231
O O7 0.616328 0.921495 0.000000
O O8 0.928697 0.886745 0.500000
O O9 0.807855 0.936755 0.336902
O O10 0.992780 0.856241 0.315629
O O11 0.000000 0.000000 0.386314
O O12 0.872516 0.538745 0.149148
O O13 0.709832 0.648839 0.139239
O O14 0.873019 0.642147 0.000000
O O15 0.845628 0.109586 0.824838
O O16 0.862730 0.051367 0.000000
O O17 0.000000 0.000000 0.856232
O O18 0.206253 0.532143 0.000000
#
# Coordination Sequence:
#
# PCOD8237789 Si02
#       7
#     8   8   8   8   8   8   8
#     4  12  26  38  63  96 134 166 208 258 336 395
#     4  10  22  43  66  88 122 171 226 269 312 384
#     4  10  20  38  64  92 120 160 215 269 317 378
#     4  11  24  45  69  95 128 169 216 271 325 387
#     4  10  23  42  66  93 124 172 228 273 313 377
#     4  10  21  40  67  93 121 163 217 269 318 378
#     4  12  25  38  64  93 134 168 209 262 333 393
#
# _framework density 21.306211000000001
#
# number of rings (size 3 to 8) (size 9 to 14) (size 15 to 20)
#    0.000    1.286    1.429    4.286    4.000    3.429 
#    0.000    1.429    0.000    0.000    0.000    0.000 
#    0.000    0.000    0.000    0.000    0.000    0.000 
#
# Total GULP energy -693953.993294 kJ/mol
# GULP energy per Si atom -12392.035595 kJ/mol
# Density = 2.125772 g / cm^3
# Si number density = 21.306211 Si / 1000 Ang^3
#
#
#
# Elastic Constant Matrix: (Units=GPa)
#
#
# Indices 1 2 3 4 5 6 
#
# 1 92.8917 29.2468 39.1282 0.0000 0.0000 0.0000
# 2 29.2468 119.2286 51.7163 0.0000 0.0000 0.0000
# 3 39.1282 51.7163 98.0656 0.0000 0.0000 0.0000
# 4 0.0000 0.0000 0.0000 22.1713 0.0000 0.0000
# 5 0.0000 0.0000 0.0000 0.0000 38.5752 0.0000
# 6 0.0000 0.0000 0.0000 0.0000 0.0000 26.6239
#
#
#
# Elastic Compliance Matrix: (Units=1/GPa)
#
#
# Indices 1 2 3 4 5 6 
#
# 1 0.013077 -0.001225 -0.004572 0.000000 0.000000 0.000000
# 2 -0.001225 0.010990 -0.005307 0.000000 0.000000 0.000000
# 3 -0.004572 -0.005307 0.014820 0.000000 0.000000 0.000000
# 4 0.000000 0.000000 0.000000 0.045103 0.000000 0.000000
# 5 0.000000 0.000000 0.000000 0.000000 0.025923 0.000000
# 6 0.000000 0.000000 0.000000 0.000000 0.000000 0.037560
#
#
# Mechanical properties :
#
#
# Convention : Reuss Voigt Hill
#
# Bulk Modulus (GPa) = 59.95330 61.15207 60.55269
# Shear Modulus (GPa) = 28.53241 30.14706 29.33973
#
# Velocity S-wave (km/s) = 3.66342 3.76565 3.71489
# Velocity P-wave (km/s) = 6.78927 6.90440 6.84708
#
# Compressibility (1/GPa) = 0.01667965
#
# Stress axis : x y z
#
# Youngs Moduli (GPa) = 76.47301 90.99552 67.47632
#
# Poissons Ratio (x) = 0.11144 0.30848
# Poissons Ratio (y) = 0.09365 0.35809
# Poissons Ratio (z) = 0.34961 0.48290
#
# Static dielectric constant tensor:
#      x y z
#    x 1.654150 0.000000 0.000000 
#    y 0.000000 3.193050 0.000000 
#    z 0.000000 0.000000 3.887370 
# 
# 
# High freq. dielectric constant tensor:
#      x y z
#    x 1.858160 0.000000 0.000000 
#    y 0.000000 1.802370 0.000000 
#    z 0.000000 0.000000 1.849180 
# 
# From -- ./inp_files/21293.got.cif
#   From: 2010.06.25/outbox.cif.g09.slc.cpg/sg58_11_cif.got.tgz:21293.got - 2010.06.26 21:38:00.
