data_PCOD8237725
_publ_section_title
;
Structure prediction by ZEFSAII (Michael W. Deem and Ramdas Pophale) SiO2 
 PCOD8237725
Probable space group: P N N M
;
_chemical_formula_sum "Si O2"
_cell_formula_units_Z 48
_cell_length_a 14.844022
_cell_length_b 18.889152
_cell_length_c 8.772460
_cell_angle_alpha 90.000000
_cell_angle_beta 90.000000
_cell_angle_gamma 90.000000
_cell_volume 2459.718725
_symmetry_space_group_name_H-M "P N N M"
_symmetry_group_IT_number 58
_symmetry_cell_setting 'orthorhombic'
loop_
_space_group_symop_operation_xyz
x,y,z
-x,-y,z
1/2+x,1/2-y,1/2-z
1/2-x,1/2+y,1/2-z
-x,-y,-z
x,y,-z
1/2-x,1/2+y,1/2+z
1/2+x,1/2-y,1/2+z
loop_
_atom_site_type_symbol
_atom_site_label
_atom_site_fract_x
_atom_site_fract_y
_atom_site_fract_z
Si Si1 0.245638 0.582980 0.319560
Si Si2 0.786918 0.267171 0.819978
Si Si3 0.904206 0.526836 0.681639
Si Si4 0.115220 0.316069 0.679979
Si Si5 0.060295 0.066530 0.679000
Si Si6 0.461075 0.289781 0.178759
O O1 0.246803 0.587311 0.500000
O O2 0.208150 0.656540 0.256722
O O3 0.176403 0.523196 0.261040
O O4 0.344516 0.562947 0.262488
O O5 0.699710 0.226949 0.753860
O O6 0.871106 0.218590 0.775862
O O7 0.781359 0.277699 0.000000
O O8 0.907248 0.528804 0.500000
O O9 0.887214 0.605174 0.749408
O O10 0.000000 0.500000 0.745740
O O11 0.125523 0.320190 0.500000
O O12 0.024528 0.275436 0.724969
O O13 0.079943 0.066195 0.500000
O O14 0.008230 0.137312 0.727763
O O15 0.000000 0.000000 0.729635
O O16 0.438169 0.289598 0.000000
#
# Coordination Sequence:
#
# PCOD8237725 Si02
#       6
#     8   8   8   8   8   8
#     4  11  22  37  61  89 118 153 198 246 291 350
#     4  11  22  37  59  85 117 154 192 239 295 351
#     4   9  18  33  56  84 111 144 188 239 289 340
#     4   9  18  35  57  81 112 147 188 234 287 344
#     4  10  22  40  60  84 121 164 198 239 302 359
#     4  10  20  38  61  84 112 152 197 239 288 352
#
# _framework density 19.514424999999999
#
# number of rings (size 3 to 8) (size 9 to 14) (size 15 to 20)
#    0.000    2.000    1.667    2.000    2.333    3.667 
#    0.000    0.000    0.000    9.000    0.000    0.000 
#    0.000    0.000    0.000    0.000    0.000    0.000 
#
# Total GULP energy -595319.808463 kJ/mol
# GULP energy per Si atom -12402.496010 kJ/mol
# Density = 1.947001 g / cm^3
# Si number density = 19.514425 Si / 1000 Ang^3
#
#
#
# Elastic Constant Matrix: (Units=GPa)
#
#
# Indices 1 2 3 4 5 6 
#
# 1 103.9642 37.8646 27.5526 0.0000 0.0000 0.0000
# 2 37.8646 145.7326 21.7355 0.0000 0.0000 0.0000
# 3 27.5526 21.7355 36.9494 0.0000 0.0000 0.0000
# 4 0.0000 0.0000 0.0000 20.9293 0.0000 0.0000
# 5 0.0000 0.0000 0.0000 0.0000 31.6322 0.0000
# 6 0.0000 0.0000 0.0000 0.0000 0.0000 39.3068
#
#
#
# Elastic Compliance Matrix: (Units=1/GPa)
#
#
# Indices 1 2 3 4 5 6 
#
# 1 0.012517 -0.002039 -0.008134 0.000000 0.000000 0.000000
# 2 -0.002039 0.007854 -0.003100 0.000000 0.000000 0.000000
# 3 -0.008134 -0.003100 0.034953 0.000000 0.000000 0.000000
# 4 0.000000 0.000000 0.000000 0.047780 0.000000 0.000000
# 5 0.000000 0.000000 0.000000 0.000000 0.031613 0.000000
# 6 0.000000 0.000000 0.000000 0.000000 0.000000 0.025441
#
#
# Mechanical properties :
#
#
# Convention : Reuss Voigt Hill
#
# Bulk Modulus (GPa) = 34.74862 51.21683 42.98273
# Shear Modulus (GPa) = 25.47160 31.67322 28.57241
#
# Velocity S-wave (km/s) = 3.61677 4.03310 3.83060
# Velocity P-wave (km/s) = 5.94026 6.92752 6.45280
#
# Compressibility (1/GPa) = 0.02877812
#
# Stress axis : x y z
#
# Youngs Moduli (GPa) = 79.89075 127.32424 28.60977
#
# Poissons Ratio (x) = 0.25962 0.23272
# Poissons Ratio (y) = 0.16290 0.08868
# Poissons Ratio (z) = 0.64986 0.39466
#
# Static dielectric constant tensor:
#      x y z
#    x 3.682330 0.000000 0.000000 
#    y 0.000000 3.874530 0.000000 
#    z 0.000000 0.000000 3.182620 
# 
# 
# High freq. dielectric constant tensor:
#      x y z
#    x 1.775770 0.000000 0.000000 
#    y 0.000000 1.777620 0.000000 
#    z 0.000000 0.000000 1.723110 
# 
# From -- ./inp_files/5812.got.cif
#   From: 2010.06.25/outbox.cif.g09.slc.cpg/sg58_3_cif.got.tgz:5812.got - 2010.06.26 21:38:00.
