data_PCOD8237035
_publ_section_title
;
Structure prediction by ZEFSAII (Michael W. Deem and Ramdas Pophale) SiO2 
 PCOD8237035
Probable space group: P N N M
;
_chemical_formula_sum "Si O2"
_cell_formula_units_Z 48
_cell_length_a 29.423031
_cell_length_b 10.340106
_cell_length_c 8.820151
_cell_angle_alpha 90.000000
_cell_angle_beta 90.000000
_cell_angle_gamma 90.000000
_cell_volume 2683.418568
_symmetry_space_group_name_H-M "P N N M"
_symmetry_group_IT_number 58
_symmetry_cell_setting 'orthorhombic'
loop_
_space_group_symop_operation_xyz
x,y,z
-x,-y,z
1/2+x,1/2-y,1/2-z
1/2-x,1/2+y,1/2-z
-x,-y,-z
x,y,-z
1/2-x,1/2+y,1/2+z
1/2+x,1/2-y,1/2+z
loop_
_atom_site_type_symbol
_atom_site_label
_atom_site_fract_x
_atom_site_fract_y
_atom_site_fract_z
Si Si1 0.876022 0.017095 0.328019
Si Si2 0.478655 0.868033 0.181670
Si Si3 0.782072 0.991459 0.178320
Si Si4 0.615840 0.219430 0.828842
Si Si5 0.529869 0.617242 0.819470
Si Si6 0.715684 0.219021 0.180661
O O1 0.861807 0.052668 0.500000
O O2 0.917387 0.106098 0.268071
O O3 0.832625 0.036757 0.221592
O O4 0.894576 0.871354 0.322128
O O5 0.427169 0.853255 0.247837
O O6 0.510079 0.751867 0.242752
O O7 0.500000 0.000000 0.244387
O O8 0.477237 0.864870 0.000000
O O9 0.767379 0.856785 0.255333
O O10 0.748164 0.103956 0.235104
O O11 0.778626 0.973184 0.000000
O O12 0.664914 0.189559 0.752910
O O13 0.619006 0.169585 0.000000
O O14 0.500000 0.500000 0.751336
O O15 0.527976 0.610947 0.000000
O O16 0.714224 0.233769 0.000000
#
# Coordination Sequence:
#
# PCOD8237035 Si02
#       6
#     8   8   8   8   8   8
#     4   9  16  28  48  70  94 126 163 200 240 291
#     4   9  15  22  35  62  95 118 143 191 245 285
#     4  10  20  34  52  75 102 130 166 207 250 301
#     4   8  13  25  43  61  88 123 152 186 238 289
#     4   9  14  23  41  65  89 119 158 195 236 284
#     4   9  19  35  53  73  98 130 166 207 250 292
#
# _framework density 17.887630000000001
#
# number of rings (size 3 to 8) (size 9 to 14) (size 15 to 20)
#    0.000    3.000    1.667    1.500    0.000    1.333 
#    3.000    0.000    0.000    0.500    0.000    0.000 
#    0.000   11.333    0.000    0.000    0.000    0.000 
#
# Total GULP energy -594867.432259 kJ/mol
# GULP energy per Si atom -12393.071505 kJ/mol
# Density = 1.784692 g / cm^3
# Si number density = 17.887630 Si / 1000 Ang^3
#
#
#
# Elastic Constant Matrix: (Units=GPa)
#
#
# Indices 1 2 3 4 5 6 
#
# 1 143.6756 94.2454 18.7570 0.0000 0.0000 0.0000
# 2 94.2454 138.2642 19.0629 0.0000 0.0000 0.0000
# 3 18.7570 19.0629 19.4946 0.0000 0.0000 0.0000
# 4 0.0000 0.0000 0.0000 13.3290 0.0000 0.0000
# 5 0.0000 0.0000 0.0000 0.0000 17.3282 0.0000
# 6 0.0000 0.0000 0.0000 0.0000 0.0000 36.6951
#
#
#
# Elastic Compliance Matrix: (Units=1/GPa)
#
#
# Indices 1 2 3 4 5 6 
#
# 1 0.012909 -0.008191 -0.004411 0.000000 0.000000 0.000000
# 2 -0.008191 0.013557 -0.005376 0.000000 0.000000 0.000000
# 3 -0.004411 -0.005376 0.060797 0.000000 0.000000 0.000000
# 4 0.000000 0.000000 0.000000 0.075024 0.000000 0.000000
# 5 0.000000 0.000000 0.000000 0.000000 0.057709 0.000000
# 6 0.000000 0.000000 0.000000 0.000000 0.000000 0.027252
#
#
# Mechanical properties :
#
#
# Convention : Reuss Voigt Hill
#
# Bulk Modulus (GPa) = 19.49025 62.84055 41.16540
# Shear Modulus (GPa) = 16.64970 24.76174 20.70572
#
# Velocity S-wave (km/s) = 3.05420 3.72465 3.40596
# Velocity P-wave (km/s) = 4.83292 7.32832 6.20731
#
# Compressibility (1/GPa) = 0.05130770
#
# Stress axis : x y z
#
# Youngs Moduli (GPa) = 77.46577 73.76295 16.44821
#
# Poissons Ratio (x) = 0.60419 0.07255
# Poissons Ratio (y) = 0.63452 0.08842
# Poissons Ratio (z) = 0.34169 0.39653
#
# Static dielectric constant tensor:
#      x y z
#    x 3.603220 0.000000 0.000000 
#    y 0.000000 3.298140 0.000000 
#    z 0.000000 0.000000 2.742190 
# 
# 
# High freq. dielectric constant tensor:
#      x y z
#    x 1.708290 0.000000 0.000000 
#    y 0.000000 1.679520 0.000000 
#    z 0.000000 0.000000 1.631560 
# 
# From -- ./inp_files/10336.got.cif
#   From: 2010.06.25/outbox.cif.g09.slc.cpg/sg58_6_cif.got.tgz:10336.got - 2010.06.26 21:38:00.
