data_PCOD8237487
_publ_section_title
;
Structure prediction by ZEFSAII (Michael W. Deem and Ramdas Pophale) SiO2 
 PCOD8237487
Probable space group: P N N M
;
_chemical_formula_sum "Si O2"
_cell_formula_units_Z 48
_cell_length_a 9.350544
_cell_length_b 29.051325
_cell_length_c 9.289344
_cell_angle_alpha 90.000000
_cell_angle_beta 90.000000
_cell_angle_gamma 90.000000
_cell_volume 2523.410285
_symmetry_space_group_name_H-M "P N N M"
_symmetry_group_IT_number 58
_symmetry_cell_setting 'orthorhombic'
loop_
_space_group_symop_operation_xyz
x,y,z
-x,-y,z
1/2+x,1/2-y,1/2-z
1/2-x,1/2+y,1/2-z
-x,-y,-z
x,y,-z
1/2-x,1/2+y,1/2+z
1/2+x,1/2-y,1/2+z
loop_
_atom_site_type_symbol
_atom_site_label
_atom_site_fract_x
_atom_site_fract_y
_atom_site_fract_z
Si Si1 0.474785 0.205050 0.329192
Si Si2 0.804408 0.381559 0.167597
Si Si3 0.020476 0.874078 0.665873
Si Si4 0.840314 0.483314 0.161184
Si Si5 0.119304 0.962443 0.167389
Si Si6 0.196373 0.783197 0.667936
O O1 0.455962 0.208839 0.500000
O O2 0.417986 0.155521 0.271312
O O3 0.639213 0.211057 0.282903
O O4 0.375580 0.243271 0.258607
O O5 0.645022 0.363240 0.200216
O O6 0.828333 0.432498 0.234251
O O7 0.834286 0.386713 0.000000
O O8 0.040514 0.888854 0.500000
O O9 0.073265 0.914407 0.766881
O O10 0.113197 0.829769 0.703866
O O11 0.763788 0.520624 0.259739
O O12 0.000000 0.500000 0.151677
O O13 0.772274 0.482718 0.000000
O O14 0.147056 0.955303 0.000000
O O15 0.000000 0.000000 0.200631
O O16 0.185896 0.770871 0.500000
#
# Coordination Sequence:
#
# PCOD8237487 Si02
#       6
#     8   8   8   8   8   8
#     4  10  21  38  60  85 118 149 183 234 289 342
#     4   9  18  34  56  84 112 146 188 235 284 329
#     4  10  20  36  60  84 111 148 196 241 279 333
#     4  10  21  36  60  87 113 150 196 239 281 334
#     4  11  23  38  56  83 120 156 190 232 284 340
#     4  10  22  38  60  89 115 146 189 237 284 339
#
# _framework density 19.021875999999999
#
# number of rings (size 3 to 8) (size 9 to 14) (size 15 to 20)
#    0.000    2.000    1.667    1.500    2.333    3.667 
#    0.000    1.667    0.000    0.000    0.000    0.000 
#    0.000    0.000    0.000    0.000    0.000    0.000 
#
# Total GULP energy -595252.556306 kJ/mol
# GULP energy per Si atom -12401.094923 kJ/mol
# Density = 1.897858 g / cm^3
# Si number density = 19.021876 Si / 1000 Ang^3
#
#
#
# Elastic Constant Matrix: (Units=GPa)
#
#
# Indices 1 2 3 4 5 6 
#
# 1 109.2196 46.9276 26.7758 0.0000 0.0000 0.0000
# 2 46.9276 99.5218 32.9343 0.0000 0.0000 0.0000
# 3 26.7758 32.9343 41.2705 0.0000 0.0000 0.0000
# 4 0.0000 0.0000 0.0000 29.9706 0.0000 0.0000
# 5 0.0000 0.0000 0.0000 0.0000 20.6829 0.0000
# 6 0.0000 0.0000 0.0000 0.0000 0.0000 40.5305
#
#
#
# Elastic Compliance Matrix: (Units=1/GPa)
#
#
# Indices 1 2 3 4 5 6 
#
# 1 0.012059 -0.004208 -0.004465 0.000000 0.000000 0.000000
# 2 -0.004208 0.015122 -0.009338 0.000000 0.000000 0.000000
# 3 -0.004465 -0.009338 0.034579 0.000000 0.000000 0.000000
# 4 0.000000 0.000000 0.000000 0.033366 0.000000 0.000000
# 5 0.000000 0.000000 0.000000 0.000000 0.048349 0.000000
# 6 0.000000 0.000000 0.000000 0.000000 0.000000 0.024673
#
#
# Mechanical properties :
#
#
# Convention : Reuss Voigt Hill
#
# Bulk Modulus (GPa) = 38.85346 51.47635 45.16490
# Shear Modulus (GPa) = 23.50182 27.79507 25.64844
#
# Velocity S-wave (km/s) = 3.51880 3.82673 3.67599
# Velocity P-wave (km/s) = 6.08106 6.82976 6.46625
#
# Compressibility (1/GPa) = 0.02573773
#
# Stress axis : x y z
#
# Youngs Moduli (GPa) = 82.92740 66.12677 28.91943
#
# Poissons Ratio (x) = 0.27829 0.12913
# Poissons Ratio (y) = 0.34899 0.27004
# Poissons Ratio (z) = 0.37029 0.61746
#
# Static dielectric constant tensor:
#      x y z
#    x 3.597970 0.000000 0.000000 
#    y 0.000000 3.896720 0.000000 
#    z 0.000000 0.000000 3.294670 
# 
# 
# High freq. dielectric constant tensor:
#      x y z
#    x 1.750910 0.000000 0.000000 
#    y 0.000000 1.752750 0.000000 
#    z 0.000000 0.000000 1.713220 
# 
# From -- ./inp_files/2957.got.cif
#   From: 2010.06.25/outbox.cif.g09.slc.cpg/sg58_2_cif.got.tgz:2957.got - 2010.06.26 21:38:00.
