data_PCOD8237241
_publ_section_title
;
Structure prediction by ZEFSAII (Michael W. Deem and Ramdas Pophale) SiO2 
 PCOD8237241
Probable space group: P N N M
;
_chemical_formula_sum "Si O2"
_cell_formula_units_Z 56
_cell_length_a 20.295679
_cell_length_b 16.168573
_cell_length_c 8.914473
_cell_angle_alpha 90.000000
_cell_angle_beta 90.000000
_cell_angle_gamma 90.000000
_cell_volume 2925.303637
_symmetry_space_group_name_H-M "P N N M"
_symmetry_group_IT_number 58
_symmetry_cell_setting 'orthorhombic'
loop_
_space_group_symop_operation_xyz
x,y,z
-x,-y,z
1/2+x,1/2-y,1/2-z
1/2-x,1/2+y,1/2-z
-x,-y,-z
x,y,-z
1/2-x,1/2+y,1/2+z
1/2+x,1/2-y,1/2+z
loop_
_atom_site_type_symbol
_atom_site_label
_atom_site_fract_x
_atom_site_fract_y
_atom_site_fract_z
Si Si1 0.051599 0.070477 0.822748
Si Si2 0.182379 0.526006 0.323597
Si Si3 0.682604 0.494189 0.823291
Si Si4 0.105360 0.684179 0.322716
Si Si5 0.030778 0.243906 0.321659
Si Si6 0.793453 0.181287 0.676559
Si Si7 0.659513 0.159908 0.176023
O O1 0.122662 0.051902 0.754662
O O2 0.024846 0.155615 0.756121
O O3 0.058202 0.077603 0.000000
O O4 0.000000 0.000000 0.774784
O O5 0.197323 0.532091 0.500000
O O6 0.249745 0.545401 0.236269
O O7 0.128254 0.593109 0.271327
O O8 0.153507 0.436550 0.279320
O O9 0.680678 0.590625 0.778343
O O10 0.677564 0.480251 0.000000
O O11 0.107482 0.691230 0.500000
O O12 0.154818 0.753200 0.256508
O O13 0.031444 0.701586 0.266841
O O14 0.030992 0.231302 0.500000
O O15 0.095238 0.292457 0.265279
O O16 0.784952 0.189355 0.500000
O O17 0.722814 0.200974 0.747971
O O18 0.667396 0.170435 0.000000
#
# Coordination Sequence:
#
# PCOD8237241 Si02
#       7
#     8   8   8   8   8   8   8
#     4  11  24  39  56  80 111 145 183 228 284 339
#     4   9  18  34  55  81 112 145 184 226 274 323
#     4  10  20  35  56  81 109 143 184 227 274 327
#     4   9  18  33  55  80 106 143 187 227 270 323
#     4  10  21  37  56  81 112 146 188 228 274 331
#     4   9  18  33  54  78 106 143 183 224 272 327
#     4   9  19  34  53  80 111 143 180 229 276 320
#
# _framework density 19.143311000000001
#
# number of rings (size 3 to 8) (size 9 to 14) (size 15 to 20)
#    0.000    2.429    0.000    1.714    2.000    4.000 
#    0.000    4.286    0.000    0.000    0.000    5.000 
#    0.000    0.000    0.000    0.000    0.000    0.000 
#
# Total GULP energy -694508.712291 kJ/mol
# GULP energy per Si atom -12401.941291 kJ/mol
# Density = 1.909974 g / cm^3
# Si number density = 19.143311 Si / 1000 Ang^3
#
#
#
# Elastic Constant Matrix: (Units=GPa)
#
#
# Indices 1 2 3 4 5 6 
#
# 1 127.6091 47.6740 25.9670 0.0000 0.0000 0.0000
# 2 47.6740 80.3780 19.8367 0.0000 0.0000 0.0000
# 3 25.9670 19.8367 33.8355 0.0000 0.0000 0.0000
# 4 0.0000 0.0000 0.0000 21.7733 0.0000 0.0000
# 5 0.0000 0.0000 0.0000 0.0000 25.7489 0.0000
# 6 0.0000 0.0000 0.0000 0.0000 0.0000 39.7067
#
#
#
# Elastic Compliance Matrix: (Units=1/GPa)
#
#
# Indices 1 2 3 4 5 6 
#
# 1 0.010827 -0.005110 -0.005313 0.000000 0.000000 0.000000
# 2 -0.005110 0.016958 -0.006020 0.000000 0.000000 0.000000
# 3 -0.005313 -0.006020 0.037161 0.000000 0.000000 0.000000
# 4 0.000000 0.000000 0.000000 0.045928 0.000000 0.000000
# 5 0.000000 0.000000 0.000000 0.000000 0.038837 0.000000
# 6 0.000000 0.000000 0.000000 0.000000 0.000000 0.025185
#
#
# Mechanical properties :
#
#
# Convention : Reuss Voigt Hill
#
# Bulk Modulus (GPa) = 31.19185 47.64201 39.41693
# Shear Modulus (GPa) = 22.88658 27.33542 25.11100
#
# Velocity S-wave (km/s) = 3.46141 3.78290 3.62572
# Velocity P-wave (km/s) = 5.68369 6.63487 6.17762
#
# Compressibility (1/GPa) = 0.03205966
#
# Stress axis : x y z
#
# Youngs Moduli (GPa) = 92.36366 58.96918 26.90957
#
# Poissons Ratio (x) = 0.30136 0.14297
# Poissons Ratio (y) = 0.47202 0.16200
# Poissons Ratio (z) = 0.49072 0.35499
#
# Static dielectric constant tensor:
#      x y z
#    x 3.715470 0.000000 0.000000 
#    y 0.000000 3.670510 0.000000 
#    z 0.000000 0.000000 3.287050 
# 
# 
# High freq. dielectric constant tensor:
#      x y z
#    x 1.753150 0.000000 0.000000 
#    y 0.000000 1.751130 0.000000 
#    z 0.000000 0.000000 1.722720 
# 
# From -- ./inp_files/9023.got.cif
#   From: 2010.06.25/outbox.cif.g09.slc.cpg/sg58_5_cif.got.tgz:9023.got - 2010.06.26 21:38:00.
