data_PCOD8237161
_publ_section_title
;
Structure prediction by ZEFSAII (Michael W. Deem and Ramdas Pophale) SiO2 
 PCOD8237161
Probable space group: P N N M
;
_chemical_formula_sum "Si O2"
_cell_formula_units_Z 48
_cell_length_a 29.210218
_cell_length_b 9.796075
_cell_length_c 8.049541
_cell_angle_alpha 90.000000
_cell_angle_beta 90.000000
_cell_angle_gamma 90.000000
_cell_volume 2303.339824
_symmetry_space_group_name_H-M "P N N M"
_symmetry_group_IT_number 58
_symmetry_cell_setting 'orthorhombic'
loop_
_space_group_symop_operation_xyz
x,y,z
-x,-y,z
1/2+x,1/2-y,1/2-z
1/2-x,1/2+y,1/2-z
-x,-y,-z
x,y,-z
1/2-x,1/2+y,1/2+z
1/2+x,1/2-y,1/2+z
loop_
_atom_site_type_symbol
_atom_site_label
_atom_site_fract_x
_atom_site_fract_y
_atom_site_fract_z
Si Si1 0.723819 0.632706 0.811360
Si Si2 0.393477 0.092132 0.687784
Si Si3 0.702702 0.932346 0.190003
Si Si4 0.492791 0.664820 0.000000
Si Si5 0.627764 0.596959 0.310789
Si Si6 0.952604 0.421669 0.500000
Si Si7 0.955707 0.905745 0.181732
O O1 0.723366 0.788524 0.744560
O O2 0.759759 0.550001 0.701377
O O3 0.672895 0.568974 0.798251
O O4 0.740684 0.623616 0.000000
O O5 0.411389 0.059049 0.500000
O O6 0.342543 0.028979 0.705788
O O7 0.391909 0.253232 0.719656
O O8 0.426098 0.032821 0.832107
O O9 0.687425 0.911960 0.000000
O O10 0.500000 0.500000 0.000000
O O11 0.464542 0.702378 0.830877
O O12 0.538347 0.757252 0.000000
O O13 0.642941 0.577724 0.500000
O O14 0.588197 0.492081 0.261710
O O15 0.000000 0.500000 0.500000
O O16 0.947469 0.835407 0.000000
O O17 0.000000 0.000000 0.164074
#
# Coordination Sequence:
#
# PCOD8237161 Si02
#       7
#     8   8   8   4   8   4   8
#     4  10  21  34  57  89 120 157 201 252 302 366
#     4  10  20  38  64  86 115 162 204 244 294 364
#     4  10  20  38  61  89 123 156 201 251 306 362
#     4  10  20  34  58  82 108 148 194 244 296 343
#     4   9  18  32  56  88 118 152 200 247 300 355
#     4  12  26  42  60  90 122 156 208 252 297 359
#     4   9  17  30  50  81 114 145 186 238 295 343
#
# _framework density 20.839305
#
# number of rings (size 3 to 8) (size 9 to 14) (size 15 to 20)
#    0.000    2.167    0.833    3.000    2.333    4.333 
#    0.000    1.667    0.000    2.000    0.000    0.000 
#    0.000    0.000    0.000    0.000    0.000    0.000 
#
# Total GULP energy -594917.077584 kJ/mol
# GULP energy per Si atom -12394.105783 kJ/mol
# Density = 2.079187 g / cm^3
# Si number density = 20.839305 Si / 1000 Ang^3
#
#
#
# Elastic Constant Matrix: (Units=GPa)
#
#
# Indices 1 2 3 4 5 6 
#
# 1 106.3117 36.9497 50.7684 0.0000 0.0000 0.0000
# 2 36.9497 42.9886 18.3377 0.0000 0.0000 0.0000
# 3 50.7684 18.3377 134.1853 0.0000 0.0000 0.0000
# 4 0.0000 0.0000 0.0000 14.2415 0.0000 0.0000
# 5 0.0000 0.0000 0.0000 0.0000 35.5966 0.0000
# 6 0.0000 0.0000 0.0000 0.0000 0.0000 33.2741
#
#
#
# Elastic Compliance Matrix: (Units=1/GPa)
#
#
# Indices 1 2 3 4 5 6 
#
# 1 0.015419 -0.011431 -0.004272 0.000000 0.000000 0.000000
# 2 -0.011431 0.033176 -0.000209 0.000000 0.000000 0.000000
# 3 -0.004272 -0.000209 0.009097 0.000000 0.000000 0.000000
# 4 0.000000 0.000000 0.000000 0.070217 0.000000 0.000000
# 5 0.000000 0.000000 0.000000 0.000000 0.028093 0.000000
# 6 0.000000 0.000000 0.000000 0.000000 0.000000 0.030053
#
#
# Mechanical properties :
#
#
# Convention : Reuss Voigt Hill
#
# Bulk Modulus (GPa) = 38.65571 55.06635 46.86103
# Shear Modulus (GPa) = 22.07488 28.45112 25.26300
#
# Velocity S-wave (km/s) = 3.25821 3.69895 3.48555
# Velocity P-wave (km/s) = 5.72226 6.68765 6.22370
#
# Compressibility (1/GPa) = 0.02586940
#
# Stress axis : x y z
#
# Youngs Moduli (GPa) = 64.85456 30.14197 109.92536
#
# Poissons Ratio (x) = 0.34455 0.46956
# Poissons Ratio (y) = 0.74135 0.02297
# Poissons Ratio (z) = 0.27703 0.00630
#
# Static dielectric constant tensor:
#      x y z
#    x 4.385150 0.000000 0.000000 
#    y 0.000000 2.309290 0.000000 
#    z 0.000000 0.000000 4.556190 
# 
# 
# High freq. dielectric constant tensor:
#      x y z
#    x 1.811980 0.000000 0.000000 
#    y 0.000000 1.765180 0.000000 
#    z 0.000000 0.000000 1.837200 
# 
# From -- ./inp_files/10794.got.cif
#   From: 2010.06.25/outbox.cif.g09.slc.cpg/sg58_6_cif.got.tgz:10794.got - 2010.06.26 21:38:00.
