data_PCOD8237850
_publ_section_title
;
Structure prediction by ZEFSAII (Michael W. Deem and Ramdas Pophale) SiO2 
 PCOD8237850
Probable space group: P N N M
;
_chemical_formula_sum "Si O2"
_cell_formula_units_Z 28
_cell_length_a 13.679973
_cell_length_b 4.904935
_cell_length_c 18.314879
_cell_angle_alpha 90.000000
_cell_angle_beta 90.000000
_cell_angle_gamma 90.000000
_cell_volume 1228.916996
_symmetry_space_group_name_H-M "P N N M"
_symmetry_group_IT_number 58
_symmetry_cell_setting 'orthorhombic'
loop_
_space_group_symop_operation_xyz
x,y,z
-x,-y,z
1/2+x,1/2-y,1/2-z
1/2-x,1/2+y,1/2-z
-x,-y,-z
x,y,-z
1/2-x,1/2+y,1/2+z
1/2+x,1/2-y,1/2+z
loop_
_atom_site_type_symbol
_atom_site_label
_atom_site_fract_x
_atom_site_fract_y
_atom_site_fract_z
Si Si1 0.116354 0.285811 0.418420
Si Si2 0.752540 0.216856 0.419272
Si Si3 0.807032 0.936471 0.224963
Si Si4 0.500000 0.500000 0.806692
O O1 0.076894 0.221919 0.500000
O O2 0.151801 0.594991 0.414844
O O3 0.208220 0.084278 0.400687
O O4 0.028703 0.250090 0.360244
O O5 0.703191 0.230771 0.500000
O O6 0.676927 0.321318 0.357504
O O7 0.773026 0.678404 0.274186
O O8 0.907520 0.065979 0.255105
#
# Coordination Sequence:
#
# PCOD8237850 Si02
#       4
#     8   8   8   4
#     4  10  21  36  60  90 120 151 195 248 309 364
#     4  10  20  40  60  84 121 160 195 246 299 353
#     4  12  24  41  60  90 125 158 202 248 298 360
#     4  12  23  38  65  88 128 156 204 240 315 350
#
# _framework density 22.784288
#
# number of rings (size 3 to 8) (size 9 to 14) (size 15 to 20)
#    0.000    1.143    5.714    0.429    0.000    4.571 
#    0.000    5.000    0.000    0.000    0.000   10.000 
#    0.000    0.000    0.000    0.000    0.000    0.000 
#
# Total GULP energy -347029.889786 kJ/mol
# GULP energy per Si atom -12393.924635 kJ/mol
# Density = 2.273243 g / cm^3
# Si number density = 22.784288 Si / 1000 Ang^3
#
#
#
# Elastic Constant Matrix: (Units=GPa)
#
#
# Indices 1 2 3 4 5 6 
#
# 1 72.2537 -5.7780 40.9465 0.0000 0.0000 0.0000
# 2 -5.7780 59.2663 2.8920 0.0000 0.0000 0.0000
# 3 40.9465 2.8920 165.5433 0.0000 0.0000 0.0000
# 4 0.0000 0.0000 0.0000 24.9584 0.0000 0.0000
# 5 0.0000 0.0000 0.0000 0.0000 50.3463 0.0000
# 6 0.0000 0.0000 0.0000 0.0000 0.0000 20.9260
#
#
#
# Elastic Compliance Matrix: (Units=1/GPa)
#
#
# Indices 1 2 3 4 5 6 
#
# 1 0.016283 0.001786 -0.004059 0.000000 0.000000 0.000000
# 2 0.001786 0.017083 -0.000740 0.000000 0.000000 0.000000
# 3 -0.004059 -0.000740 0.007058 0.000000 0.000000 0.000000
# 4 0.000000 0.000000 0.000000 0.040067 0.000000 0.000000
# 5 0.000000 0.000000 0.000000 0.000000 0.019862 0.000000
# 6 0.000000 0.000000 0.000000 0.000000 0.000000 0.047787
#
#
# Mechanical properties :
#
#
# Convention : Reuss Voigt Hill
#
# Bulk Modulus (GPa) = 29.07219 41.46495 35.26857
# Shear Modulus (GPa) = 30.18729 36.51299 33.35014
#
# Velocity S-wave (km/s) = 3.64389 4.00753 3.83003
# Velocity P-wave (km/s) = 5.52190 6.29700 5.92214
#
# Compressibility (1/GPa) = 0.03439714
#
# Stress axis : x y z
#
# Youngs Moduli (GPa) = 61.41369 58.53712 141.69210
#
# Poissons Ratio (x) = -0.10452 0.57509
# Poissons Ratio (y) = -0.10965 0.10486
# Poissons Ratio (z) = 0.24926 0.04332
#
# Static dielectric constant tensor:
#      x y z
#    x 3.436030 0.000000 0.000000 
#    y 0.000000 4.116590 0.000000 
#    z 0.000000 0.000000 4.646630 
# 
# 
# High freq. dielectric constant tensor:
#      x y z
#    x 1.829460 0.000000 0.000000 
#    y 0.000000 1.913400 0.000000 
#    z 0.000000 0.000000 1.929230 
# 
# From -- ./inp_files/11452.got.cif
#   From: 2010.06.25/outbox.cif.g09.slc.cpg/sg58_6_cif.got.tgz:11452.got - 2010.06.26 21:38:00.
