data_PCOD8237998
_publ_section_title
;
Structure prediction by ZEFSAII (Michael W. Deem and Ramdas Pophale) SiO2 
 PCOD8237998
Probable space group: P N N M
;
_chemical_formula_sum "Si O2"
_cell_formula_units_Z 64
_cell_length_a 10.863339
_cell_length_b 32.335285
_cell_length_c 9.711942
_cell_angle_alpha 90.000000
_cell_angle_beta 90.000000
_cell_angle_gamma 90.000000
_cell_volume 3411.505734
_symmetry_space_group_name_H-M "P N N M"
_symmetry_group_IT_number 58
_symmetry_cell_setting 'orthorhombic'
loop_
_space_group_symop_operation_xyz
x,y,z
-x,-y,z
1/2+x,1/2-y,1/2-z
1/2-x,1/2+y,1/2-z
-x,-y,-z
x,y,-z
1/2-x,1/2+y,1/2+z
1/2+x,1/2-y,1/2+z
loop_
_atom_site_type_symbol
_atom_site_label
_atom_site_fract_x
_atom_site_fract_y
_atom_site_fract_z
Si Si1 0.546924 0.724594 0.661758
Si Si2 0.213795 0.818727 0.351137
Si Si3 0.001938 0.315991 0.848846
Si Si4 0.099272 0.143882 0.156823
Si Si5 0.922779 0.100573 0.656642
Si Si6 0.871764 0.476401 0.662491
Si Si7 0.858447 0.010402 0.339638
Si Si8 0.376717 0.119853 0.843527
O O1 0.567398 0.724546 0.500000
O O2 0.674633 0.714085 0.736319
O O3 0.515765 0.770363 0.715438
O O4 0.444008 0.690092 0.704087
O O5 0.154189 0.807007 0.500000
O O6 0.355965 0.820747 0.369330
O O7 0.172113 0.863881 0.304353
O O8 0.963409 0.352959 0.751053
O O9 0.937698 0.319876 0.000000
O O10 0.243593 0.139952 0.176138
O O11 0.041481 0.106910 0.246958
O O12 0.058941 0.136130 0.000000
O O13 0.970977 0.101656 0.500000
O O14 0.847294 0.059128 0.684961
O O15 0.845001 0.482767 0.500000
O O16 0.750652 0.491067 0.746913
O O17 0.885958 0.428075 0.699588
O O18 0.000000 0.500000 0.703788
O O19 0.837829 0.997688 0.500000
O O20 0.000000 0.000000 0.295006
O O21 0.421523 0.124556 0.000000
#
# Coordination Sequence:
#
# PCOD8237998 Si02
#       8
#     8   8   8   8   8   8   8   8
#     4   9  19  35  53  78 107 136 173 221 270 316
#     4   9  19  35  54  76 105 141 178 218 265 319
#     4  10  22  36  54  79 108 141 179 224 271 324
#     4   9  18  34  56  80 108 142 180 221 269 328
#     4   9  18  33  54  81 111 140 178 224 271 326
#     4  10  23  41  58  83 119 154 194 242 289 345
#     4  10  21  36  58  88 116 146 189 240 290 343
#     4  10  22  38  57  80 108 147 188 225 275 333
#
# _framework density 18.760044000000001
#
# number of rings (size 3 to 8) (size 9 to 14) (size 15 to 20)
#    0.000    2.500    0.000    0.750    3.500    3.000 
#    0.000    0.000    0.000    0.000    0.000    0.000 
#    0.000    0.000    0.000    0.000    0.000    0.000 
#
# Total GULP energy -793078.673125 kJ/mol
# GULP energy per Si atom -12391.854268 kJ/mol
# Density = 1.871734 g / cm^3
# Si number density = 18.760044 Si / 1000 Ang^3
#
#
#
# Elastic Constant Matrix: (Units=GPa)
#
#
# Indices 1 2 3 4 5 6 
#
# 1 85.2544 51.7265 41.4766 0.0000 0.0000 0.0000
# 2 51.7265 115.2086 59.2110 0.0000 0.0000 0.0000
# 3 41.4766 59.2110 55.4621 0.0000 0.0000 0.0000
# 4 0.0000 0.0000 0.0000 24.2207 0.0000 0.0000
# 5 0.0000 0.0000 0.0000 0.0000 31.5993 0.0000
# 6 0.0000 0.0000 0.0000 0.0000 0.0000 -19.4284
#
#
#
# Elastic Compliance Matrix: (Units=1/GPa)
#
#
# Indices 1 2 3 4 5 6 
#
# 1 0.018808 -0.002693 -0.011189 0.000000 0.000000 0.000000
# 2 -0.002693 0.019618 -0.018930 0.000000 0.000000 0.000000
# 3 -0.011189 -0.018930 0.046608 0.000000 0.000000 0.000000
# 4 0.000000 0.000000 0.000000 0.041287 0.000000 0.000000
# 5 0.000000 0.000000 0.000000 0.000000 0.031646 0.000000
# 6 0.000000 0.000000 0.000000 0.000000 0.000000 -0.051471
#
#
# Mechanical properties :
#
#
# Convention : Reuss Voigt Hill
#
# Bulk Modulus (GPa) = 51.52600 62.30593 56.91596
# Shear Modulus (GPa) = 27.99699 14.17905 21.08802
#
# Velocity S-wave (km/s) = 3.86732 2.75218 3.35639
# Velocity P-wave (km/s) = 6.88963 6.58662 6.73982
#
# Compressibility (1/GPa) = 0.01940768
#
# Stress axis : x y z
#
# Youngs Moduli (GPa) = 53.17028 50.97304 21.45567
#
# Poissons Ratio (x) = 0.13729 0.24008
# Poissons Ratio (y) = 0.14321 0.40616
# Poissons Ratio (z) = 0.59494 0.96492
#
# Static dielectric constant tensor:
#      x y z
#    x 3.385850 0.000000 0.000000 
#    y 0.000000 3.603430 0.000000 
#    z 0.000000 0.000000 3.594340 
# 
# 
# High freq. dielectric constant tensor:
#      x y z
#    x 1.718410 0.000000 0.000000 
#    y 0.000000 1.740710 0.000000 
#    z 0.000000 0.000000 1.727120 
# 
# From -- ./inp_files/4798.got.cif
#   From: 2010.06.25/outbox.cif.g09.slc.cpg/sg58_3_cif.got.tgz:4798.got - 2010.06.26 21:38:00.
