data_PCOD8237200
_publ_section_title
;
Structure prediction by ZEFSAII (Michael W. Deem and Ramdas Pophale) SiO2 
 PCOD8237200
Probable space group: P N N M
;
_chemical_formula_sum "Si O2"
_cell_formula_units_Z 64
_cell_length_a 22.509194
_cell_length_b 16.883169
_cell_length_c 8.584355
_cell_angle_alpha 90.000000
_cell_angle_beta 90.000000
_cell_angle_gamma 90.000000
_cell_volume 3262.282612
_symmetry_space_group_name_H-M "P N N M"
_symmetry_group_IT_number 58
_symmetry_cell_setting 'orthorhombic'
loop_
_space_group_symop_operation_xyz
x,y,z
-x,-y,z
1/2+x,1/2-y,1/2-z
1/2-x,1/2+y,1/2-z
-x,-y,-z
x,y,-z
1/2-x,1/2+y,1/2+z
1/2+x,1/2-y,1/2+z
loop_
_atom_site_type_symbol
_atom_site_label
_atom_site_fract_x
_atom_site_fract_y
_atom_site_fract_z
Si Si1 0.873163 0.920441 0.318220
Si Si2 0.129142 0.324359 0.318842
Si Si3 0.467483 0.703372 0.816047
Si Si4 0.824039 0.084895 0.317470
Si Si5 0.673183 0.858735 0.316124
Si Si6 0.711124 0.300044 0.320133
Si Si7 0.599200 0.730716 0.186281
Si Si8 0.805321 0.536334 0.183538
O O1 0.860011 0.903411 0.500000
O O2 0.935652 0.879859 0.268057
O O3 0.820043 0.883033 0.218625
O O4 0.871098 0.013919 0.282828
O O5 0.122901 0.342136 0.500000
O O6 0.070838 0.278525 0.252585
O O7 0.185591 0.269106 0.287298
O O8 0.140221 0.407396 0.233004
O O9 0.534071 0.705278 0.750851
O O10 0.468421 0.709743 0.000000
O O11 0.815762 0.095765 0.500000
O O12 0.853797 0.164881 0.250834
O O13 0.758552 0.065552 0.245728
O O14 0.683778 0.853823 0.500000
O O15 0.720297 0.806702 0.221148
O O16 0.611916 0.816154 0.265303
O O17 0.676873 0.949025 0.256221
O O18 0.703171 0.276602 0.500000
O O19 0.599764 0.737536 0.000000
O O20 0.799755 0.534553 0.000000
#
# Coordination Sequence:
#
# PCOD8237200 Si02
#       8
#     8   8   8   8   8   8   8   8
#     4   9  16  32  54  78 110 147 178 217 272 325
#     4  10  20  35  56  80 108 144 182 222 274 328
#     4   8  17  33  54  79 109 143 185 226 265 321
#     4   9  17  31  54  81 110 139 172 223 276 322
#     4  11  22  37  55  76 108 146 179 225 282 332
#     4  11  20  32  53  81 109 140 180 222 269 326
#     4  10  20  35  55  81 109 142 185 230 271 323
#     4  10  20  35  54  80 110 138 178 231 281 328
#
# _framework density 19.618165000000001
#
# number of rings (size 3 to 8) (size 9 to 14) (size 15 to 20)
#    0.000    2.250    1.250    3.375    0.000    2.500 
#    0.000    6.875    0.000    3.750    0.000    4.375 
#    0.000    0.000    0.000    0.000    0.000    0.000 
#
# Total GULP energy -793277.645063 kJ/mol
# GULP energy per Si atom -12394.963204 kJ/mol
# Density = 1.957351 g / cm^3
# Si number density = 19.618165 Si / 1000 Ang^3
#
#
#
# Elastic Constant Matrix: (Units=GPa)
#
#
# Indices 1 2 3 4 5 6 
#
# 1 86.6896 63.3143 15.9687 0.0000 0.0000 0.0000
# 2 63.3143 130.8058 10.6969 0.0000 0.0000 0.0000
# 3 15.9687 10.6969 22.4269 0.0000 0.0000 0.0000
# 4 0.0000 0.0000 0.0000 27.1618 0.0000 0.0000
# 5 0.0000 0.0000 0.0000 0.0000 21.1638 0.0000
# 6 0.0000 0.0000 0.0000 0.0000 0.0000 26.4098
#
#
#
# Elastic Compliance Matrix: (Units=1/GPa)
#
#
# Indices 1 2 3 4 5 6 
#
# 1 0.019747 -0.008750 -0.009887 0.000000 0.000000 0.000000
# 2 -0.008750 0.011832 0.000587 0.000000 0.000000 0.000000
# 3 -0.009887 0.000587 0.051350 0.000000 0.000000 0.000000
# 4 0.000000 0.000000 0.000000 0.036816 0.000000 0.000000
# 5 0.000000 0.000000 0.000000 0.000000 0.047251 0.000000
# 6 0.000000 0.000000 0.000000 0.000000 0.000000 0.037865
#
#
# Mechanical properties :
#
#
# Convention : Reuss Voigt Hill
#
# Bulk Modulus (GPa) = 21.35480 46.65359 34.00419
# Shear Modulus (GPa) = 19.48783 24.94324 22.21553
#
# Velocity S-wave (km/s) = 3.15517 3.56959 3.36876
# Velocity P-wave (km/s) = 4.91756 6.38919 5.70106
#
# Compressibility (1/GPa) = 0.04682788
#
# Stress axis : x y z
#
# Youngs Moduli (GPa) = 50.64038 84.51591 19.47439
#
# Poissons Ratio (x) = 0.73949 0.19255
# Poissons Ratio (y) = 0.44309 -0.01142
# Poissons Ratio (z) = 0.50069 -0.04957
#
# Static dielectric constant tensor:
#      x y z
#    x 3.781810 0.000000 0.000000 
#    y 0.000000 3.774930 0.000000 
#    z 0.000000 0.000000 3.229300 
# 
# 
# High freq. dielectric constant tensor:
#      x y z
#    x 1.751150 0.000000 0.000000 
#    y 0.000000 1.770960 0.000000 
#    z 0.000000 0.000000 1.729160 
# 
# From -- ./inp_files/10153.got.cif
#   From: 2010.06.25/outbox.cif.g09.slc.cpg/sg58_6_cif.got.tgz:10153.got - 2010.06.26 21:38:00.
