data_PCOD8237463
_publ_section_title
;
Structure prediction by ZEFSAII (Michael W. Deem and Ramdas Pophale) SiO2 
 PCOD8237463
Probable space group: P N N M
;
_chemical_formula_sum "Si O2"
_cell_formula_units_Z 56
_cell_length_a 15.859040
_cell_length_b 19.260749
_cell_length_c 8.365927
_cell_angle_alpha 90.000000
_cell_angle_beta 90.000000
_cell_angle_gamma 90.000000
_cell_volume 2555.430870
_symmetry_space_group_name_H-M "P N N M"
_symmetry_group_IT_number 58
_symmetry_cell_setting 'orthorhombic'
loop_
_space_group_symop_operation_xyz
x,y,z
-x,-y,z
1/2+x,1/2-y,1/2-z
1/2-x,1/2+y,1/2-z
-x,-y,-z
x,y,-z
1/2-x,1/2+y,1/2+z
1/2+x,1/2-y,1/2+z
loop_
_atom_site_type_symbol
_atom_site_label
_atom_site_fract_x
_atom_site_fract_y
_atom_site_fract_z
Si Si1 0.775490 0.264429 0.685682
Si Si2 0.509532 0.597750 0.815773
Si Si3 0.591745 0.014412 0.690126
Si Si4 0.125930 0.333106 0.188542
Si Si5 0.628699 0.497513 0.684261
Si Si6 0.034462 0.744499 0.314985
Si Si7 0.770831 0.410584 0.183669
O O1 0.781862 0.247072 0.500000
O O2 0.704417 0.212342 0.761945
O O3 0.745956 0.343561 0.712647
O O4 0.870408 0.258452 0.760268
O O5 0.602017 0.571709 0.759872
O O6 0.445316 0.558981 0.699317
O O7 0.499298 0.678718 0.789680
O O8 0.493090 0.577363 0.000000
O O9 0.589003 0.019715 0.500000
O O10 0.630566 0.087552 0.754284
O O11 0.500000 0.000000 0.763101
O O12 0.643050 0.946183 0.743616
O O13 0.032591 0.305055 0.229882
O O14 0.134465 0.330391 0.000000
O O15 0.655164 0.505542 0.500000
O O16 0.704161 0.471440 0.793245
O O17 0.038733 0.723610 0.500000
O O18 0.774841 0.387351 0.000000
#
# Coordination Sequence:
#
# PCOD8237463 Si02
#       7
#     8   8   8   8   8   8   8
#     4  10  22  39  59  86 120 159 199 244 307 369
#     4  10  20  36  59  85 114 151 196 238 286 352
#     4   9  19  36  60  88 114 148 200 253 299 351
#     4  10  21  38  62  87 117 158 202 247 300 364
#     4  11  22  36  55  83 119 153 190 236 297 356
#     4  10  22  38  59  85 119 155 194 245 302 359
#     4  11  22  37  61  86 114 152 200 251 295 352
#
# _framework density 21.914113
#
# number of rings (size 3 to 8) (size 9 to 14) (size 15 to 20)
#    0.000    1.857    0.000    4.714    2.000    5.714 
#    0.000    1.429    0.000    3.857    0.000    0.000 
#    0.000    0.000    0.000    0.000    0.000    0.000 
#
# Total GULP energy -694135.056647 kJ/mol
# GULP energy per Si atom -12395.268869 kJ/mol
# Density = 2.186424 g / cm^3
# Si number density = 21.914113 Si / 1000 Ang^3
#
#
#
# Elastic Constant Matrix: (Units=GPa)
#
#
# Indices 1 2 3 4 5 6 
#
# 1 111.3268 21.9993 8.0193 0.0000 0.0000 0.0000
# 2 21.9993 95.8255 21.2930 0.0000 0.0000 0.0000
# 3 8.0193 21.2930 31.0284 0.0000 0.0000 0.0000
# 4 0.0000 0.0000 0.0000 23.0326 0.0000 0.0000
# 5 0.0000 0.0000 0.0000 0.0000 25.6099 0.0000
# 6 0.0000 0.0000 0.0000 0.0000 0.0000 36.6910
#
#
#
# Elastic Compliance Matrix: (Units=1/GPa)
#
#
# Indices 1 2 3 4 5 6 
#
# 1 0.009443 -0.001918 -0.001124 0.000000 0.000000 0.000000
# 2 -0.001918 0.012703 -0.008222 0.000000 0.000000 0.000000
# 3 -0.001124 -0.008222 0.038161 0.000000 0.000000 0.000000
# 4 0.000000 0.000000 0.000000 0.043417 0.000000 0.000000
# 5 0.000000 0.000000 0.000000 0.000000 0.039047 0.000000
# 6 0.000000 0.000000 0.000000 0.000000 0.000000 0.027255
#
#
# Mechanical properties :
#
#
# Convention : Reuss Voigt Hill
#
# Bulk Modulus (GPa) = 26.46972 37.86710 32.16841
# Shear Modulus (GPa) = 24.37293 29.52464 26.94879
#
# Velocity S-wave (km/s) = 3.33859 3.67453 3.51058
# Velocity P-wave (km/s) = 5.19294 5.94308 5.58063
#
# Compressibility (1/GPa) = 0.03777901
#
# Stress axis : x y z
#
# Youngs Moduli (GPa) = 105.90353 78.72264 26.20472
#
# Poissons Ratio (x) = 0.15099 0.02946
# Poissons Ratio (y) = 0.20312 0.21544
# Poissons Ratio (z) = 0.11906 0.64722
#
# Static dielectric constant tensor:
#      x y z
#    x 4.610410 0.000000 0.000000 
#    y 0.000000 4.040760 0.000000 
#    z 0.000000 0.000000 3.520870 
# 
# 
# High freq. dielectric constant tensor:
#      x y z
#    x 1.871190 0.000000 0.000000 
#    y 0.000000 1.870150 0.000000 
#    z 0.000000 0.000000 1.827140 
# 
# From -- ./inp_files/6402.got.cif
#   From: 2010.06.25/outbox.cif.g09.slc.cpg/sg58_4_cif.got.tgz:6402.got - 2010.06.26 21:38:00.
