data_PCOD8237011
_publ_section_title
;
Structure prediction by ZEFSAII (Michael W. Deem and Ramdas Pophale) SiO2 
 PCOD8237011
Probable space group: P N N M
;
_chemical_formula_sum "Si O2"
_cell_formula_units_Z 56
_cell_length_a 14.382621
_cell_length_b 22.066895
_cell_length_c 9.623672
_cell_angle_alpha 90.000000
_cell_angle_beta 90.000000
_cell_angle_gamma 90.000000
_cell_volume 3054.358974
_symmetry_space_group_name_H-M "P N N M"
_symmetry_group_IT_number 58
_symmetry_cell_setting 'orthorhombic'
loop_
_space_group_symop_operation_xyz
x,y,z
-x,-y,z
1/2+x,1/2-y,1/2-z
1/2-x,1/2+y,1/2-z
-x,-y,-z
x,y,-z
1/2-x,1/2+y,1/2+z
1/2+x,1/2-y,1/2+z
loop_
_atom_site_type_symbol
_atom_site_label
_atom_site_fract_x
_atom_site_fract_y
_atom_site_fract_z
Si Si1 0.407950 0.213606 0.162691
Si Si2 0.278392 0.107912 0.835411
Si Si3 0.794572 0.607898 0.157921
Si Si4 0.094351 0.852324 0.661221
Si Si5 0.921582 0.717404 0.156027
Si Si6 0.607513 0.007612 0.164298
Si Si7 0.419757 0.643274 0.338776
O O1 0.325892 0.170060 0.217296
O O2 0.384177 0.282718 0.201632
O O3 0.501462 0.192464 0.238829
O O4 0.425470 0.204927 0.000000
O O5 0.170745 0.105820 0.786770
O O6 0.334829 0.050094 0.778934
O O7 0.281095 0.108031 0.000000
O O8 0.685286 0.608005 0.196093
O O9 0.829588 0.676988 0.172694
O O10 0.851415 0.566332 0.262192
O O11 0.809072 0.584870 0.000000
O O12 0.067272 0.857247 0.500000
O O13 0.008777 0.878268 0.750768
O O14 0.895247 0.786585 0.189197
O O15 0.961785 0.712437 0.000000
O O16 0.500000 0.000000 0.205857
O O17 0.618689 0.016140 0.000000
O O18 0.441636 0.630850 0.500000
#
# Coordination Sequence:
#
# PCOD8237011 Si02
#       7
#     8   8   8   8   8   8   8
#     4   9  16  29  51  75  99 128 159 195 243 292
#     4   9  17  31  51  72  95 126 162 198 239 286
#     4  10  20  34  51  71  99 134 165 195 239 292
#     4   9  18  32  50  74 101 127 159 199 241 287
#     4   9  17  29  47  73 101 126 156 195 238 288
#     4  10  21  36  53  74  98 124 161 206 242 279
#     4   9  17  31  51  73  97 126 159 196 240 288
#
# _framework density 18.334453
#
# number of rings (size 3 to 8) (size 9 to 14) (size 15 to 20)
#    0.000    2.714    0.000    1.714    0.000    6.000 
#    0.000    2.857    0.000   11.143    0.000    0.000 
#    0.000    0.000    0.000    0.000    0.000    0.000 
#
# Total GULP energy -694313.287766 kJ/mol
# GULP energy per Si atom -12398.451567 kJ/mol
# Density = 1.829272 g / cm^3
# Si number density = 18.334453 Si / 1000 Ang^3
#
#
#
# Elastic Constant Matrix: (Units=GPa)
#
#
# Indices 1 2 3 4 5 6 
#
# 1 148.6730 49.4769 52.6991 0.0000 0.0000 0.0000
# 2 49.4769 58.5745 26.6466 0.0000 0.0000 0.0000
# 3 52.6991 26.6466 48.1301 0.0000 0.0000 0.0000
# 4 0.0000 0.0000 0.0000 19.5232 0.0000 0.0000
# 5 0.0000 0.0000 0.0000 0.0000 29.8242 0.0000
# 6 0.0000 0.0000 0.0000 0.0000 0.0000 30.7682
#
#
#
# Elastic Compliance Matrix: (Units=1/GPa)
#
#
# Indices 1 2 3 4 5 6 
#
# 1 0.012260 -0.005679 -0.010279 0.000000 0.000000 0.000000
# 2 -0.005679 0.025451 -0.007872 0.000000 0.000000 0.000000
# 3 -0.010279 -0.007872 0.036390 0.000000 0.000000 0.000000
# 4 0.000000 0.000000 0.000000 0.051221 0.000000 0.000000
# 5 0.000000 0.000000 0.000000 0.000000 0.033530 0.000000
# 6 0.000000 0.000000 0.000000 0.000000 0.000000 0.032501
#
#
# Mechanical properties :
#
#
# Convention : Reuss Voigt Hill
#
# Bulk Modulus (GPa) = 37.82204 57.00250 47.41227
# Shear Modulus (GPa) = 20.17533 24.46011 22.31772
#
# Velocity S-wave (km/s) = 3.32083 3.65650 3.49270
# Velocity P-wave (km/s) = 5.94791 6.99890 6.49470
#
# Compressibility (1/GPa) = 0.02643961
#
# Stress axis : x y z
#
# Youngs Moduli (GPa) = 81.56682 39.29173 27.47986
#
# Poissons Ratio (x) = 0.22316 0.28248
# Poissons Ratio (y) = 0.46326 0.21632
# Poissons Ratio (z) = 0.83845 0.30930
#
# Static dielectric constant tensor:
#      x y z
#    x 3.564560 0.000000 0.000000 
#    y 0.000000 3.269660 0.000000 
#    z 0.000000 0.000000 3.222990 
# 
# 
# High freq. dielectric constant tensor:
#      x y z
#    x 1.718820 0.000000 0.000000 
#    y 0.000000 1.693820 0.000000 
#    z 0.000000 0.000000 1.689080 
# 
# From -- ./inp_files/6304.got.cif
#   From: 2010.06.25/outbox.cif.g09.slc.cpg/sg58_4_cif.got.tgz:6304.got - 2010.06.26 21:38:00.
