data_PCOD8237336
_publ_section_title
;
Structure prediction by ZEFSAII (Michael W. Deem and Ramdas Pophale) SiO2 
 PCOD8237336
Probable space group: P N N M
;
_chemical_formula_sum "Si O2"
_cell_formula_units_Z 56
_cell_length_a 16.548156
_cell_length_b 19.840933
_cell_length_c 8.839503
_cell_angle_alpha 90.000000
_cell_angle_beta 90.000000
_cell_angle_gamma 90.000000
_cell_volume 2902.281573
_symmetry_space_group_name_H-M "P N N M"
_symmetry_group_IT_number 58
_symmetry_cell_setting 'orthorhombic'
loop_
_space_group_symop_operation_xyz
x,y,z
-x,-y,z
1/2+x,1/2-y,1/2-z
1/2-x,1/2+y,1/2-z
-x,-y,-z
x,y,-z
1/2-x,1/2+y,1/2+z
1/2+x,1/2-y,1/2+z
loop_
_atom_site_type_symbol
_atom_site_label
_atom_site_fract_x
_atom_site_fract_y
_atom_site_fract_z
Si Si1 0.068404 0.195520 0.176865
Si Si2 0.064554 0.056152 0.321334
Si Si3 0.258403 0.519337 0.820676
Si Si4 0.977909 0.668818 0.678683
Si Si5 0.817612 0.619046 0.176986
Si Si6 0.859057 0.362585 0.177877
Si Si7 0.752148 0.761716 0.826645
O O1 0.036955 0.125174 0.242628
O O2 0.019814 0.255704 0.255705
O O3 0.163181 0.202760 0.212763
O O4 0.050552 0.200099 0.000000
O O5 0.066798 0.068278 0.500000
O O6 0.151861 0.033237 0.257610
O O7 0.000000 0.000000 0.275156
O O8 0.227595 0.447110 0.761485
O O9 0.197779 0.576976 0.762908
O O10 0.261676 0.518725 0.000000
O O11 0.978254 0.672846 0.500000
O O12 0.900500 0.627080 0.732801
O O13 0.056343 0.629291 0.737110
O O14 0.758509 0.682140 0.206529
O O15 0.839743 0.614341 0.000000
O O16 0.816611 0.291841 0.219075
O O17 0.874130 0.366170 0.000000
O O18 0.727771 0.775135 0.000000
#
# Coordination Sequence:
#
# PCOD8237336 Si02
#       7
#     8   8   8   8   8   8   8
#     4  10  20  37  59  82 112 149 192 238 290 344
#     4  10  20  35  58  89 122 157 196 237 287 346
#     4   9  19  36  58  84 115 156 195 234 284 347
#     4  11  23  38  57  83 114 147 193 247 300 346
#     4   9  19  38  59  81 116 156 198 237 285 345
#     4  11  21  35  58  84 114 151 197 238 286 353
#     4   9  18  33  56  82 109 147 191 240 287 335
#
# _framework density 19.295162999999999
#
# number of rings (size 3 to 8) (size 9 to 14) (size 15 to 20)
#    0.000    2.143    1.429    3.000    0.000    4.286 
#    0.000    7.857    0.000    0.000    0.000    0.000 
#    0.000    0.000    0.000    0.000    0.000    0.000 
#
# Total GULP energy -694599.065148 kJ/mol
# GULP energy per Si atom -12403.554735 kJ/mol
# Density = 1.925125 g / cm^3
# Si number density = 19.295163 Si / 1000 Ang^3
#
#
#
# Elastic Constant Matrix: (Units=GPa)
#
#
# Indices 1 2 3 4 5 6 
#
# 1 88.4456 58.5882 31.6266 0.0000 0.0000 0.0000
# 2 58.5882 130.4138 33.3665 0.0000 0.0000 0.0000
# 3 31.6266 33.3665 72.0717 0.0000 0.0000 0.0000
# 4 0.0000 0.0000 0.0000 28.9554 0.0000 0.0000
# 5 0.0000 0.0000 0.0000 0.0000 28.5832 0.0000
# 6 0.0000 0.0000 0.0000 0.0000 0.0000 28.7793
#
#
#
# Elastic Compliance Matrix: (Units=1/GPa)
#
#
# Indices 1 2 3 4 5 6 
#
# 1 0.017310 -0.006617 -0.004533 0.000000 0.000000 0.000000
# 2 -0.006617 0.011228 -0.002294 0.000000 0.000000 0.000000
# 3 -0.004533 -0.002294 0.016926 0.000000 0.000000 0.000000
# 4 0.000000 0.000000 0.000000 0.034536 0.000000 0.000000
# 5 0.000000 0.000000 0.000000 0.000000 0.034986 0.000000
# 6 0.000000 0.000000 0.000000 0.000000 0.000000 0.034747
#
#
# Mechanical properties :
#
#
# Convention : Reuss Voigt Hill
#
# Bulk Modulus (GPa) = 53.83211 59.78818 56.81014
# Shear Modulus (GPa) = 27.35033 28.42023 27.88528
#
# Velocity S-wave (km/s) = 3.76902 3.84203 3.80570
# Velocity P-wave (km/s) = 6.84839 7.12285 6.98697
#
# Compressibility (1/GPa) = 0.01857627
#
# Stress axis : x y z
#
# Youngs Moduli (GPa) = 57.76863 89.06659 59.07959
#
# Poissons Ratio (x) = 0.58935 0.26779
# Poissons Ratio (y) = 0.38225 0.13554
# Poissons Ratio (z) = 0.26185 0.20434
#
# Static dielectric constant tensor:
#      x y z
#    x 3.512490 0.000000 0.000000 
#    y 0.000000 3.630860 0.000000 
#    z 0.000000 0.000000 3.301390 
# 
# 
# High freq. dielectric constant tensor:
#      x y z
#    x 1.748220 0.000000 0.000000 
#    y 0.000000 1.756410 0.000000 
#    z 0.000000 0.000000 1.735330 
# 
# From -- ./inp_files/6479.got.cif
#   From: 2010.06.25/outbox.cif.g09.slc.cpg/sg58_4_cif.got.tgz:6479.got - 2010.06.26 21:38:00.
