data_PCOD8237249
_publ_section_title
;
Structure prediction by ZEFSAII (Michael W. Deem and Ramdas Pophale) SiO2 
 PCOD8237249
Probable space group: P N N M
;
_chemical_formula_sum "Si O2"
_cell_formula_units_Z 56
_cell_length_a 16.207053
_cell_length_b 20.265458
_cell_length_c 8.753002
_cell_angle_alpha 90.000000
_cell_angle_beta 90.000000
_cell_angle_gamma 90.000000
_cell_volume 2874.865316
_symmetry_space_group_name_H-M "P N N M"
_symmetry_group_IT_number 58
_symmetry_cell_setting 'orthorhombic'
loop_
_space_group_symop_operation_xyz
x,y,z
-x,-y,z
1/2+x,1/2-y,1/2-z
1/2-x,1/2+y,1/2-z
-x,-y,-z
x,y,-z
1/2-x,1/2+y,1/2+z
1/2+x,1/2-y,1/2+z
loop_
_atom_site_type_symbol
_atom_site_label
_atom_site_fract_x
_atom_site_fract_y
_atom_site_fract_z
Si Si1 0.028411 0.171535 0.679736
Si Si2 0.318903 0.201386 0.182178
Si Si3 0.999129 0.681441 0.680600
Si Si4 0.749073 0.026443 0.318953
Si Si5 0.841617 0.154210 0.319277
Si Si6 0.924296 0.547109 0.679741
Si Si7 0.180546 0.102510 0.819646
O O1 0.044095 0.161605 0.500000
O O2 0.040822 0.248458 0.726676
O O3 0.090136 0.127232 0.776562
O O4 0.937298 0.147884 0.728113
O O5 0.407373 0.175883 0.244456
O O6 0.304534 0.276350 0.241768
O O7 0.247320 0.154511 0.246704
O O8 0.318865 0.200820 0.000000
O O9 0.005046 0.675790 0.500000
O O10 0.944358 0.620758 0.742922
O O11 0.751362 0.025563 0.500000
O O12 0.788458 0.093983 0.251530
O O13 0.655738 0.019011 0.262942
O O14 0.804887 0.967531 0.257444
O O15 0.836233 0.153616 0.500000
O O16 0.906982 0.546767 0.500000
O O17 0.000000 0.500000 0.721992
O O18 0.188802 0.094899 0.000000
#
# Coordination Sequence:
#
# PCOD8237249 Si02
#       7
#     8   8   8   8   8   8   8
#     4   9  18  35  57  79 104 137 184 230 275 326
#     4   8  15  31  55  79 104 139 182 221 263 322
#     4   8  15  30  54  80 104 136 178 224 267 320
#     4  11  23  37  55  80 111 146 187 232 278 326
#     4   8  17  35  57  79 104 142 186 227 271 327
#     4  10  20  35  56  82 114 150 185 220 273 339
#     4  11  22  35  55  81 111 144 182 227 279 334
#
# _framework density 19.479175000000001
#
# number of rings (size 3 to 8) (size 9 to 14) (size 15 to 20)
#    0.000    2.714    0.000    3.429    2.000    3.143 
#    0.000    4.286    0.000    8.571    0.000    0.000 
#    0.000    0.000    0.000    0.000    0.000    0.000 
#
# Total GULP energy -694279.866365 kJ/mol
# GULP energy per Si atom -12397.854757 kJ/mol
# Density = 1.943484 g / cm^3
# Si number density = 19.479175 Si / 1000 Ang^3
#
#
#
# Elastic Constant Matrix: (Units=GPa)
#
#
# Indices 1 2 3 4 5 6 
#
# 1 72.9639 41.2932 18.8501 0.0000 0.0000 0.0000
# 2 41.2932 121.5396 23.7540 0.0000 0.0000 0.0000
# 3 18.8501 23.7540 31.6855 0.0000 0.0000 0.0000
# 4 0.0000 0.0000 0.0000 21.8758 0.0000 0.0000
# 5 0.0000 0.0000 0.0000 0.0000 27.0060 0.0000
# 6 0.0000 0.0000 0.0000 0.0000 0.0000 34.6950
#
#
#
# Elastic Compliance Matrix: (Units=1/GPa)
#
#
# Indices 1 2 3 4 5 6 
#
# 1 0.018302 -0.004792 -0.007296 0.000000 0.000000 0.000000
# 2 -0.004792 0.010895 -0.005317 0.000000 0.000000 0.000000
# 3 -0.007296 -0.005317 0.039886 0.000000 0.000000 0.000000
# 4 0.000000 0.000000 0.000000 0.045713 0.000000 0.000000
# 5 0.000000 0.000000 0.000000 0.000000 0.037029 0.000000
# 6 0.000000 0.000000 0.000000 0.000000 0.000000 0.028823
#
#
# Mechanical properties :
#
#
# Convention : Reuss Voigt Hill
#
# Bulk Modulus (GPa) = 29.17635 43.77597 36.47616
# Shear Modulus (GPa) = 22.03784 26.20146 24.11965
#
# Velocity S-wave (km/s) = 3.36721 3.67154 3.52266
# Velocity P-wave (km/s) = 5.48892 6.36362 5.94238
#
# Compressibility (1/GPa) = 0.03427433
#
# Stress axis : x y z
#
# Youngs Moduli (GPa) = 54.63757 91.78414 25.07120
#
# Poissons Ratio (x) = 0.43987 0.18291
# Poissons Ratio (y) = 0.26185 0.13330
# Poissons Ratio (z) = 0.39861 0.48800
#
# Static dielectric constant tensor:
#      x y z
#    x 3.624490 0.000000 0.000000 
#    y 0.000000 4.029530 0.000000 
#    z 0.000000 0.000000 3.047970 
# 
# 
# High freq. dielectric constant tensor:
#      x y z
#    x 1.762270 0.000000 0.000000 
#    y 0.000000 1.773330 0.000000 
#    z 0.000000 0.000000 1.711430 
# 
# From -- ./inp_files/6266.got.cif
#   From: 2010.06.25/outbox.cif.g09.slc.cpg/sg58_4_cif.got.tgz:6266.got - 2010.06.26 21:38:00.
