data_PCOD8237443
_publ_section_title
;
Structure prediction by ZEFSAII (Michael W. Deem and Ramdas Pophale) SiO2 
 PCOD8237443
Probable space group: P N N M
;
_chemical_formula_sum "Si O2"
_cell_formula_units_Z 36
_cell_length_a 11.112000
_cell_length_b 22.469189
_cell_length_c 7.692718
_cell_angle_alpha 90.000000
_cell_angle_beta 90.000000
_cell_angle_gamma 90.000000
_cell_volume 1920.699584
_symmetry_space_group_name_H-M "P N N M"
_symmetry_group_IT_number 58
_symmetry_cell_setting 'orthorhombic'
loop_
_space_group_symop_operation_xyz
x,y,z
-x,-y,z
1/2+x,1/2-y,1/2-z
1/2-x,1/2+y,1/2-z
-x,-y,-z
x,y,-z
1/2-x,1/2+y,1/2+z
1/2+x,1/2-y,1/2+z
loop_
_atom_site_type_symbol
_atom_site_label
_atom_site_fract_x
_atom_site_fract_y
_atom_site_fract_z
Si Si1 0.106034 0.169900 0.309152
Si Si2 0.278029 0.455283 0.000000
Si Si3 0.147829 0.302797 0.701405
Si Si4 0.773811 0.407922 0.000000
Si Si5 0.869732 0.117404 0.808445
Si Si6 0.454552 0.877286 0.500000
O O1 0.045481 0.178021 0.500000
O O2 0.149529 0.233951 0.240035
O O3 0.222196 0.126226 0.328252
O O4 0.005927 0.141400 0.185974
O O5 0.275657 0.525719 0.000000
O O6 0.351604 0.434978 0.829927
O O7 0.143657 0.429462 0.000000
O O8 0.109261 0.311360 0.500000
O O9 0.281897 0.327417 0.735047
O O10 0.055614 0.337677 0.825898
O O11 0.916886 0.408593 0.000000
O O12 0.840671 0.091586 0.000000
#
# Coordination Sequence:
#
# PCOD8237443 Si02
#       6
#     8   4   8   4   8   4
#     4   9  20  34  53  83 114 149 178 233 294 323
#     4  10  20  42  59  81 114 154 198 234 277 345
#     4   9  20  35  54  85 117 142 187 234 285 348
#     4  10  22  38  59  83 120 149 194 240 276 330
#     4  10  20  36  59  81 111 153 190 231 289 339
#     4  10  21  36  64  84 106 166 187 231 295 327
#
# _framework density 18.743172999999999
#
# number of rings (size 3 to 8) (size 9 to 14) (size 15 to 20)
#    0.667    1.778    1.111    0.333    4.667    1.778 
#    0.000    4.444    0.000    5.333    0.000    0.000 
#    0.000    0.000    0.000    0.000    0.000    0.000 
#
# Total GULP energy -446243.499193 kJ/mol
# GULP energy per Si atom -12395.652755 kJ/mol
# Density = 1.870051 g / cm^3
# Si number density = 18.743173 Si / 1000 Ang^3
#
#
#
# Elastic Constant Matrix: (Units=GPa)
#
#
# Indices 1 2 3 4 5 6 
#
# 1 69.5872 10.9850 17.6981 0.0000 0.0000 0.0000
# 2 10.9850 107.3863 27.2637 0.0000 0.0000 0.0000
# 3 17.6981 27.2637 82.6688 0.0000 0.0000 0.0000
# 4 0.0000 0.0000 0.0000 16.3166 0.0000 0.0000
# 5 0.0000 0.0000 0.0000 0.0000 19.7061 0.0000
# 6 0.0000 0.0000 0.0000 0.0000 0.0000 20.0399
#
#
#
# Elastic Compliance Matrix: (Units=1/GPa)
#
#
# Indices 1 2 3 4 5 6 
#
# 1 0.015260 -0.000798 -0.003004 0.000000 0.000000 0.000000
# 2 -0.000798 0.010205 -0.003195 0.000000 0.000000 0.000000
# 3 -0.003004 -0.003195 0.013793 0.000000 0.000000 0.000000
# 4 0.000000 0.000000 0.000000 0.061287 0.000000 0.000000
# 5 0.000000 0.000000 0.000000 0.000000 0.050746 0.000000
# 6 0.000000 0.000000 0.000000 0.000000 0.000000 0.049901
#
#
# Mechanical properties :
#
#
# Convention : Reuss Voigt Hill
#
# Bulk Modulus (GPa) = 39.58057 41.28177 40.43117
# Shear Modulus (GPa) = 22.36068 24.79222 23.57645
#
# Velocity S-wave (km/s) = 3.45774 3.64089 3.55049
# Velocity P-wave (km/s) = 6.09134 6.30456 6.19887
#
# Compressibility (1/GPa) = 0.02526492
#
# Stress axis : x y z
#
# Youngs Moduli (GPa) = 65.52891 97.99201 72.50017
#
# Poissons Ratio (x) = 0.07824 0.21777
# Poissons Ratio (y) = 0.05232 0.23161
# Poissons Ratio (z) = 0.19683 0.31304
#
# Static dielectric constant tensor:
#      x y z
#    x 3.207050 0.000000 0.000000 
#    y 0.000000 3.279330 0.000000 
#    z 0.000000 0.000000 3.431350 
# 
# 
# High freq. dielectric constant tensor:
#      x y z
#    x 1.717280 0.000000 0.000000 
#    y 0.000000 1.719550 0.000000 
#    z 0.000000 0.000000 1.721040 
# 
# From -- ./inp_files/4091.got.cif
#   From: 2010.06.25/outbox.cif.g09.slc.cpg/sg58_3_cif.got.tgz:4091.got - 2010.06.26 21:38:00.
