data_PCOD8237986
_publ_section_title
;
Structure prediction by ZEFSAII (Michael W. Deem and Ramdas Pophale) SiO2 
 PCOD8237986
Probable space group: P N N M
;
_chemical_formula_sum "Si O2"
_cell_formula_units_Z 32
_cell_length_a 21.138526
_cell_length_b 9.947614
_cell_length_c 7.794633
_cell_angle_alpha 90.000000
_cell_angle_beta 90.000000
_cell_angle_gamma 90.000000
_cell_volume 1639.039037
_symmetry_space_group_name_H-M "P N N M"
_symmetry_group_IT_number 58
_symmetry_cell_setting 'orthorhombic'
loop_
_space_group_symop_operation_xyz
x,y,z
-x,-y,z
1/2+x,1/2-y,1/2-z
1/2-x,1/2+y,1/2-z
-x,-y,-z
x,y,-z
1/2-x,1/2+y,1/2+z
1/2+x,1/2-y,1/2+z
loop_
_atom_site_type_symbol
_atom_site_label
_atom_site_fract_x
_atom_site_fract_y
_atom_site_fract_z
Si Si1 0.559800 0.906819 0.700607
Si Si2 0.691800 0.021051 0.695373
Si Si3 0.290893 0.684811 0.810530
Si Si4 0.960856 0.203659 0.500000
Si Si5 0.402769 0.584274 0.000000
O O1 0.562991 0.862423 0.500000
O O2 0.555496 0.779000 0.823682
O O3 0.500000 0.000000 0.734889
O O4 0.621389 0.990247 0.762674
O O5 0.695769 0.979926 0.500000
O O6 0.707603 0.177712 0.706202
O O7 0.744214 0.922854 0.783809
O O8 0.265843 0.724607 0.000000
O O9 0.361180 0.619077 0.829603
O O10 0.034970 0.173811 0.500000
O O11 0.918147 0.072005 0.500000
#
# Coordination Sequence:
#
# PCOD8237986 Si02
#       5
#     8   8   8   4   4
#     4  10  22  37  59  92 121 156 212 251 296 373
#     4  10  21  36  56  85 118 153 198 254 297 357
#     4   9  21  37  56  80 119 151 201 245 296 362
#     4  11  21  38  68  84 125 166 194 255 321 345
#     4   9  22  40  56  92 117 155 206 256 291 382
#
# _framework density 19.523636
#
# number of rings (size 3 to 8) (size 9 to 14) (size 15 to 20)
#    0.750    1.500    0.000    1.875    5.250    1.000 
#    0.000    3.750    0.000    0.000    0.000    0.000 
#    0.000    0.000    0.000    0.000    0.000    0.000 
#
# Total GULP energy -396496.652090 kJ/mol
# GULP energy per Si atom -12390.520378 kJ/mol
# Density = 1.947920 g / cm^3
# Si number density = 19.523636 Si / 1000 Ang^3
#
#
#
# Elastic Constant Matrix: (Units=GPa)
#
#
# Indices 1 2 3 4 5 6 
#
# 1 160.9358 94.3731 18.1891 0.0000 0.0000 0.0000
# 2 94.3731 157.0205 31.2238 0.0000 0.0000 0.0000
# 3 18.1891 31.2238 48.8318 0.0000 0.0000 0.0000
# 4 0.0000 0.0000 0.0000 30.0811 0.0000 0.0000
# 5 0.0000 0.0000 0.0000 0.0000 7.6950 0.0000
# 6 0.0000 0.0000 0.0000 0.0000 0.0000 36.3274
#
#
#
# Elastic Compliance Matrix: (Units=1/GPa)
#
#
# Indices 1 2 3 4 5 6 
#
# 1 0.009596 -0.005793 0.000130 0.000000 0.000000 0.000000
# 2 -0.005793 0.010794 -0.004744 0.000000 0.000000 0.000000
# 3 0.000130 -0.004744 0.023463 0.000000 0.000000 0.000000
# 4 0.000000 0.000000 0.000000 0.033243 0.000000 0.000000
# 5 0.000000 0.000000 0.000000 0.000000 0.129954 0.000000
# 6 0.000000 0.000000 0.000000 0.000000 0.000000 0.027527
#
#
# Mechanical properties :
#
#
# Convention : Reuss Voigt Hill
#
# Bulk Modulus (GPa) = 43.40488 72.70667 58.05577
# Shear Modulus (GPa) = 19.00617 29.68752 24.34684
#
# Velocity S-wave (km/s) = 3.12347 3.90371 3.53518
# Velocity P-wave (km/s) = 5.94040 7.59209 6.81646
#
# Compressibility (1/GPa) = 0.02303889
#
# Stress axis : x y z
#
# Youngs Moduli (GPa) = 104.20749 92.64497 42.61968
#
# Poissons Ratio (x) = 0.53673 -0.00554
# Poissons Ratio (y) = 0.60372 0.20218
# Poissons Ratio (z) = -0.01354 0.43949
#
# Static dielectric constant tensor:
#      x y z
#    x 3.963600 0.000000 0.000000 
#    y 0.000000 3.382180 0.000000 
#    z 0.000000 0.000000 3.259560 
# 
# 
# High freq. dielectric constant tensor:
#      x y z
#    x 1.776830 0.000000 0.000000 
#    y 0.000000 1.762530 0.000000 
#    z 0.000000 0.000000 1.734300 
# 
# From -- ./inp_files/9575.got.cif
#   From: 2010.06.25/outbox.cif.g09.slc.cpg/sg58_5_cif.got.tgz:9575.got - 2010.06.26 21:38:00.
