data_PCOD8237974
_publ_section_title
;
Structure prediction by ZEFSAII (Michael W. Deem and Ramdas Pophale) SiO2 
 PCOD8237974
Probable space group: P N N M
;
_chemical_formula_sum "Si O2"
_cell_formula_units_Z 48
_cell_length_a 18.745348
_cell_length_b 15.094519
_cell_length_c 8.920163
_cell_angle_alpha 90.000000
_cell_angle_beta 90.000000
_cell_angle_gamma 90.000000
_cell_volume 2523.978064
_symmetry_space_group_name_H-M "P N N M"
_symmetry_group_IT_number 58
_symmetry_cell_setting 'orthorhombic'
loop_
_space_group_symop_operation_xyz
x,y,z
-x,-y,z
1/2+x,1/2-y,1/2-z
1/2-x,1/2+y,1/2-z
-x,-y,-z
x,y,-z
1/2-x,1/2+y,1/2+z
1/2+x,1/2-y,1/2+z
loop_
_atom_site_type_symbol
_atom_site_label
_atom_site_fract_x
_atom_site_fract_y
_atom_site_fract_z
Si Si1 0.831845 0.854195 0.327383
Si Si2 0.680681 0.154002 0.172794
Si Si3 0.828003 0.156825 0.323006
Si Si4 0.917837 0.492028 0.327049
Si Si5 0.331140 0.158318 0.325923
Si Si6 0.583112 0.505235 0.325602
O O1 0.849474 0.876343 0.500000
O O2 0.848439 0.751774 0.289081
O O3 0.749068 0.873933 0.291461
O O4 0.880497 0.913115 0.220802
O O5 0.749290 0.128466 0.270235
O O6 0.617821 0.086144 0.209355
O O7 0.705170 0.150666 0.000000
O O8 0.829384 0.158589 0.500000
O O9 0.850016 0.252798 0.262783
O O10 0.885038 0.086060 0.267225
O O11 0.906457 0.465357 0.500000
O O12 0.884913 0.417507 0.222651
O O13 0.000000 0.500000 0.285010
O O14 0.340687 0.179592 0.500000
O O15 0.500000 0.500000 0.288012
O O16 0.597410 0.521746 0.500000
#
# Coordination Sequence:
#
# PCOD8237974 Si02
#       6
#     8   8   8   8   8   8
#     4   9  19  36  58  83 109 143 187 232 276 324
#     4   9  19  37  59  82 112 146 183 231 278 323
#     4  11  22  37  60  85 108 141 187 233 277 329
#     4  10  21  36  55  83 117 152 188 225 271 326
#     4  10  21  38  59  84 113 144 183 230 279 329
#     4  11  24  39  55  80 115 151 184 224 277 332
#
# _framework density 19.017596999999999
#
# number of rings (size 3 to 8) (size 9 to 14) (size 15 to 20)
#    0.000    2.000    0.000    4.500    0.000    9.667 
#    0.000    1.667    0.000    0.000    0.000    0.000 
#    0.000    0.000    0.000    0.000    0.000    0.000 
#
# Total GULP energy -595435.986656 kJ/mol
# GULP energy per Si atom -12404.916389 kJ/mol
# Density = 1.897431 g / cm^3
# Si number density = 19.017597 Si / 1000 Ang^3
#
#
#
# Elastic Constant Matrix: (Units=GPa)
#
#
# Indices 1 2 3 4 5 6 
#
# 1 125.3438 85.2621 71.2899 0.0000 0.0000 0.0000
# 2 85.2621 128.4225 67.7575 0.0000 0.0000 0.0000
# 3 71.2899 67.7575 118.4265 0.0000 0.0000 0.0000
# 4 0.0000 0.0000 0.0000 35.5206 0.0000 0.0000
# 5 0.0000 0.0000 0.0000 0.0000 23.7751 0.0000
# 6 0.0000 0.0000 0.0000 0.0000 0.0000 -1.5683
#
#
#
# Elastic Compliance Matrix: (Units=1/GPa)
#
#
# Indices 1 2 3 4 5 6 
#
# 1 0.016565 -0.008217 -0.005270 0.000000 0.000000 0.000000
# 2 -0.008217 0.015230 -0.003767 0.000000 0.000000 0.000000
# 3 -0.005270 -0.003767 0.013772 0.000000 0.000000 0.000000
# 4 0.000000 0.000000 0.000000 0.028153 0.000000 0.000000
# 5 0.000000 0.000000 0.000000 0.000000 0.042061 0.000000
# 6 0.000000 0.000000 0.000000 0.000000 0.000000 -0.637649
#
#
# Mechanical properties :
#
#
# Convention : Reuss Voigt Hill
#
# Bulk Modulus (GPa) = 90.43533 91.20130 90.81831
# Shear Modulus (GPa) = -10.33757 21.40438 5.53341
#
# Velocity S-wave (km/s) = -2.33401 3.35849 1.70761
# Velocity P-wave (km/s) = 6.35557 7.94353 7.19350
#
# Compressibility (1/GPa) = 0.01105763
#
# Stress axis : x y z
#
# Youngs Moduli (GPa) = 60.36762 65.65978 72.61041
#
# Poissons Ratio (x) = 0.53954 0.38268
# Poissons Ratio (y) = 0.49605 0.27354
# Poissons Ratio (z) = 0.31816 0.24736
#
# Static dielectric constant tensor:
#      x y z
#    x 3.378090 0.000000 0.000000 
#    y 0.000000 3.574710 0.000000 
#    z 0.000000 0.000000 3.476510 
# 
# 
# High freq. dielectric constant tensor:
#      x y z
#    x 1.733820 0.000000 0.000000 
#    y 0.000000 1.752400 0.000000 
#    z 0.000000 0.000000 1.742100 
# 
# From -- ./inp_files/5799.got.cif
#   From: 2010.06.25/outbox.cif.g09.slc.cpg/sg58_3_cif.got.tgz:5799.got - 2010.06.26 21:38:00.
