data_PCOD8237863
_publ_section_title
;
Structure prediction by ZEFSAII (Michael W. Deem and Ramdas Pophale) SiO2 
 PCOD8237863
Probable space group: P N N M
;
_chemical_formula_sum "Si O2"
_cell_formula_units_Z 56
_cell_length_a 16.488573
_cell_length_b 12.295097
_cell_length_c 13.560731
_cell_angle_alpha 90.000000
_cell_angle_beta 90.000000
_cell_angle_gamma 90.000000
_cell_volume 2749.148071
_symmetry_space_group_name_H-M "P N N M"
_symmetry_group_IT_number 58
_symmetry_cell_setting 'orthorhombic'
loop_
_space_group_symop_operation_xyz
x,y,z
-x,-y,z
1/2+x,1/2-y,1/2-z
1/2-x,1/2+y,1/2-z
-x,-y,-z
x,y,-z
1/2-x,1/2+y,1/2+z
1/2+x,1/2-y,1/2+z
loop_
_atom_site_type_symbol
_atom_site_label
_atom_site_fract_x
_atom_site_fract_y
_atom_site_fract_z
Si Si1 0.419465 0.798460 0.812040
Si Si2 0.310890 0.608905 0.112367
Si Si3 0.358840 0.849593 0.609771
Si Si4 0.877201 0.404454 0.106330
Si Si5 0.902742 0.298095 0.706549
Si Si6 0.675669 0.005381 0.883652
Si Si7 0.296704 0.408437 0.775361
O O1 0.357516 0.719806 0.867616
O O2 0.406726 0.782265 0.693744
O O3 0.511487 0.772496 0.846486
O O4 0.399820 0.920731 0.848576
O O5 0.215744 0.621560 0.137437
O O6 0.345382 0.511287 0.179726
O O7 0.322225 0.574102 0.000000
O O8 0.362443 0.794149 0.500000
O O9 0.266177 0.863585 0.643615
O O10 0.397320 0.968723 0.601668
O O11 0.931981 0.353638 0.191242
O O12 0.897106 0.351372 0.000000
O O13 0.845591 0.379890 0.643598
O O14 0.859874 0.187618 0.739857
O O15 0.754485 0.051930 0.826285
O O16 0.692295 0.013703 0.000000
#
# Coordination Sequence:
#
# PCOD8237863 Si02
#       7
#     8   8   8   8   8   8   8
#     4  11  23  37  58  88 130 158 193 241 306 368
#     4  10  20  40  64  85 114 159 203 245 294 354
#     4   9  18  35  60  86 113 149 192 244 297 341
#     4   9  17  34  62  87 109 147 199 247 290 345
#     4  12  23  38  59  92 123 157 198 249 301 366
#     4  11  24  41  63  89 124 161 199 250 309 362
#     4  10  22  40  63  86 117 155 213 252 290 345
#
# _framework density 20.369948000000001
#
# number of rings (size 3 to 8) (size 9 to 14) (size 15 to 20)
#    0.000    1.714    4.286    3.857    0.000    5.714 
#    0.000    2.143    0.000    0.000    0.000    3.000 
#    0.000    0.000    0.000    0.000    0.000    0.000 
#
# Total GULP energy -694055.468290 kJ/mol
# GULP energy per Si atom -12393.847648 kJ/mol
# Density = 2.032359 g / cm^3
# Si number density = 20.369948 Si / 1000 Ang^3
#
#
#
# Elastic Constant Matrix: (Units=GPa)
#
#
# Indices 1 2 3 4 5 6 
#
# 1 50.5536 20.4923 8.9924 0.0000 0.0000 0.0000
# 2 20.4923 59.4003 16.2160 0.0000 0.0000 0.0000
# 3 8.9924 16.2160 131.7811 0.0000 0.0000 0.0000
# 4 0.0000 0.0000 0.0000 20.9606 0.0000 0.0000
# 5 0.0000 0.0000 0.0000 0.0000 9.4297 0.0000
# 6 0.0000 0.0000 0.0000 0.0000 0.0000 11.9399
#
#
#
# Elastic Compliance Matrix: (Units=1/GPa)
#
#
# Indices 1 2 3 4 5 6 
#
# 1 0.023045 -0.007782 -0.000615 0.000000 0.000000 0.000000
# 2 -0.007782 0.020048 -0.001936 0.000000 0.000000 0.000000
# 3 -0.000615 -0.001936 0.007869 0.000000 0.000000 0.000000
# 4 0.000000 0.000000 0.000000 0.047708 0.000000 0.000000
# 5 0.000000 0.000000 0.000000 0.000000 0.106048 0.000000
# 6 0.000000 0.000000 0.000000 0.000000 0.000000 0.083753
#
#
# Mechanical properties :
#
#
# Convention : Reuss Voigt Hill
#
# Bulk Modulus (GPa) = 33.00831 37.01515 35.01173
# Shear Modulus (GPa) = 15.66243 21.53501 18.59872
#
# Velocity S-wave (km/s) = 2.77591 3.25498 3.02495
# Velocity P-wave (km/s) = 5.14916 5.68660 5.42454
#
# Compressibility (1/GPa) = 0.03029540
#
# Stress axis : x y z
#
# Youngs Moduli (GPa) = 43.39335 49.87973 127.08864
#
# Poissons Ratio (x) = 0.38818 0.07815
# Poissons Ratio (y) = 0.33770 0.24604
# Poissons Ratio (z) = 0.02668 0.09656
#
# Static dielectric constant tensor:
#      x y z
#    x 3.394040 0.000000 0.000000 
#    y 0.000000 3.588770 0.000000 
#    z 0.000000 0.000000 3.933430 
# 
# 
# High freq. dielectric constant tensor:
#      x y z
#    x 1.769080 0.000000 0.000000 
#    y 0.000000 1.775600 0.000000 
#    z 0.000000 0.000000 1.805900 
# 
# From -- ./inp_files/22225.got.cif
#   From: 2010.06.25/outbox.cif.g09.slc.cpg/sg58_12_cif.got.tgz:22225.got - 2010.06.26 21:38:00.
