data_PCOD8237593
_publ_section_title
;
Structure prediction by ZEFSAII (Michael W. Deem and Ramdas Pophale) SiO2 
 PCOD8237593
Probable space group: P N N M
;
_chemical_formula_sum "Si O2"
_cell_formula_units_Z 64
_cell_length_a 30.342767
_cell_length_b 11.763403
_cell_length_c 9.227507
_cell_angle_alpha 90.000000
_cell_angle_beta 90.000000
_cell_angle_gamma 90.000000
_cell_volume 3293.612795
_symmetry_space_group_name_H-M "P N N M"
_symmetry_group_IT_number 58
_symmetry_cell_setting 'orthorhombic'
loop_
_space_group_symop_operation_xyz
x,y,z
-x,-y,z
1/2+x,1/2-y,1/2-z
1/2-x,1/2+y,1/2-z
-x,-y,-z
x,y,-z
1/2-x,1/2+y,1/2+z
1/2+x,1/2-y,1/2+z
loop_
_atom_site_type_symbol
_atom_site_label
_atom_site_fract_x
_atom_site_fract_y
_atom_site_fract_z
Si Si1 0.628987 0.609886 0.330638
Si Si2 0.880254 0.848817 0.169741
Si Si3 0.046853 0.735418 0.829057
Si Si4 0.703668 0.204990 0.331741
Si Si5 0.067968 0.512783 0.663158
Si Si6 0.331272 0.002227 0.834198
Si Si7 0.039326 0.264770 0.667824
Si Si8 0.697473 0.753055 0.169815
O O1 0.638085 0.622080 0.500000
O O2 0.619615 0.480532 0.286951
O O3 0.587218 0.684801 0.282050
O O4 0.672766 0.650568 0.249435
O O5 0.833098 0.796544 0.214627
O O6 0.917437 0.786198 0.260531
O O7 0.890023 0.831506 0.000000
O O8 0.056189 0.606829 0.780680
O O9 0.003577 0.783989 0.749130
O O10 0.038669 0.737944 0.000000
O O11 0.700197 0.177998 0.500000
O O12 0.698178 0.085848 0.252291
O O13 0.751122 0.254549 0.289462
O O14 0.061881 0.562719 0.500000
O O15 0.117799 0.470814 0.686037
O O16 0.037737 0.401868 0.684864
O O17 0.322779 0.128556 0.773725
O O18 0.316019 0.995607 0.000000
O O19 0.038302 0.229218 0.500000
O O20 0.689552 0.736664 0.000000
#
# Coordination Sequence:
#
# PCOD8237593 Si02
#       8
#     8   8   8   8   8   8   8   8
#     4  10  23  41  61  85 115 155 197 239 288 345
#     4  10  22  41  61  82 115 155 194 240 290 341
#     4  11  23  38  59  88 118 151 194 239 290 348
#     4  10  22  38  59  88 118 150 192 238 285 340
#     4  10  20  37  59  86 118 152 190 236 289 345
#     4  10  20  37  62  87 118 156 191 236 292 342
#     4  11  23  39  60  87 117 151 194 239 291 349
#     4  10  22  39  60  88 119 153 193 237 287 343
#
# _framework density 19.431550000000001
#
# number of rings (size 3 to 8) (size 9 to 14) (size 15 to 20)
#    0.000    1.750    2.500    1.125    1.750    5.500 
#    0.000    2.500    0.000    0.000    0.000    0.000 
#    0.000    0.000    0.000    0.000    0.000    0.000 
#
# Total GULP energy -793919.193071 kJ/mol
# GULP energy per Si atom -12404.987392 kJ/mol
# Density = 1.938732 g / cm^3
# Si number density = 19.431550 Si / 1000 Ang^3
#
#
#
# Elastic Constant Matrix: (Units=GPa)
#
#
# Indices 1 2 3 4 5 6 
#
# 1 114.3246 38.4456 55.7414 0.0000 0.0000 0.0000
# 2 38.4456 91.4899 41.6819 0.0000 0.0000 0.0000
# 3 55.7414 41.6819 68.9850 0.0000 0.0000 0.0000
# 4 0.0000 0.0000 0.0000 28.0067 0.0000 0.0000
# 5 0.0000 0.0000 0.0000 0.0000 33.8305 0.0000
# 6 0.0000 0.0000 0.0000 0.0000 0.0000 25.1231
#
#
#
# Elastic Compliance Matrix: (Units=1/GPa)
#
#
# Indices 1 2 3 4 5 6 
#
# 1 0.014505 -0.001043 -0.011090 0.000000 0.000000 0.000000
# 2 -0.001043 0.015157 -0.008316 0.000000 0.000000 0.000000
# 3 -0.011090 -0.008316 0.028482 0.000000 0.000000 0.000000
# 4 0.000000 0.000000 0.000000 0.035706 0.000000 0.000000
# 5 0.000000 0.000000 0.000000 0.000000 0.029559 0.000000
# 6 0.000000 0.000000 0.000000 0.000000 0.000000 0.039804
#
#
# Mechanical properties :
#
#
# Convention : Reuss Voigt Hill
#
# Bulk Modulus (GPa) = 57.98350 60.72637 59.35493
# Shear Modulus (GPa) = 23.82562 26.65409 25.23985
#
# Velocity S-wave (km/s) = 3.50541 3.70765 3.60795
# Velocity P-wave (km/s) = 6.80357 7.04615 6.92592
#
# Compressibility (1/GPa) = 0.01724629
#
# Stress axis : x y z
#
# Youngs Moduli (GPa) = 68.94180 65.97710 35.11035
#
# Poissons Ratio (x) = 0.06879 0.38939
# Poissons Ratio (y) = 0.07188 0.29196
# Poissons Ratio (z) = 0.76459 0.54864
#
# Static dielectric constant tensor:
#      x y z
#    x 3.682460 0.000000 0.000000 
#    y 0.000000 3.487030 0.000000 
#    z 0.000000 0.000000 3.456200 
# 
# 
# High freq. dielectric constant tensor:
#      x y z
#    x 1.771350 0.000000 0.000000 
#    y 0.000000 1.753700 0.000000 
#    z 0.000000 0.000000 1.751020 
# 
# From -- ./inp_files/4765.got.cif
#   From: 2010.06.25/outbox.cif.g09.slc.cpg/sg58_3_cif.got.tgz:4765.got - 2010.06.26 21:38:00.
