data_PCOD8237097
_publ_section_title
;
Structure prediction by ZEFSAII (Michael W. Deem and Ramdas Pophale) SiO2 
 PCOD8237097
Probable space group: P N N M
;
_chemical_formula_sum "Si O2"
_cell_formula_units_Z 28
_cell_length_a 11.062967
_cell_length_b 4.809895
_cell_length_c 24.927864
_cell_angle_alpha 90.000000
_cell_angle_beta 90.000000
_cell_angle_gamma 90.000000
_cell_volume 1326.454262
_symmetry_space_group_name_H-M "P N N M"
_symmetry_group_IT_number 58
_symmetry_cell_setting 'orthorhombic'
loop_
_space_group_symop_operation_xyz
x,y,z
-x,-y,z
1/2+x,1/2-y,1/2-z
1/2-x,1/2+y,1/2-z
-x,-y,-z
x,y,-z
1/2-x,1/2+y,1/2+z
1/2+x,1/2-y,1/2+z
loop_
_atom_site_type_symbol
_atom_site_label
_atom_site_fract_x
_atom_site_fract_y
_atom_site_fract_z
Si Si1 0.863961 0.899214 0.112772
Si Si2 0.908780 0.756296 0.000000
Si Si3 0.274105 0.089440 0.673398
Si Si4 0.419689 0.263929 0.773253
O O1 0.824901 0.788040 0.053306
O O2 0.868239 0.631886 0.150674
O O3 0.771932 0.136534 0.135263
O O4 0.000000 0.000000 0.111399
O O5 0.000000 0.500000 0.000000
O O6 0.000000 0.000000 0.000000
O O7 0.315752 0.166306 0.733151
O O8 0.143632 0.932392 0.677073
O O9 0.500000 0.500000 0.743538
O O10 0.500000 0.000000 0.793207
#
# Coordination Sequence:
#
# PCOD8237097 Si02
#       4
#     8   4   8   8
#     4  11  21  35  56  84 116 148 183 230 286 350
#     4  10  20  34  54  84 118 148 182 232 294 350
#     4  12  23  36  57  82 110 153 192 223 287 347
#     4  12  24  38  55  81 116 150 190 239 278 334
#
# _framework density 21.108908
#
# number of rings (size 3 to 8) (size 9 to 14) (size 15 to 20)
#    0.000    0.571    0.000   13.714    0.000    0.000 
#    0.000    0.000    0.000    0.000    0.000   20.000 
#    0.000    0.000    0.000    0.000    0.000    0.000 
#
# Total GULP energy -346908.431665 kJ/mol
# GULP energy per Si atom -12389.586845 kJ/mol
# Density = 2.106086 g / cm^3
# Si number density = 21.108908 Si / 1000 Ang^3
#
#
#
# Elastic Constant Matrix: (Units=GPa)
#
#
# Indices 1 2 3 4 5 6 
#
# 1 59.3636 36.4874 31.4421 0.0000 0.0000 0.0000
# 2 36.4874 171.9285 54.5487 0.0000 0.0000 0.0000
# 3 31.4421 54.5487 108.1073 0.0000 0.0000 0.0000
# 4 0.0000 0.0000 0.0000 26.3836 0.0000 0.0000
# 5 0.0000 0.0000 0.0000 0.0000 17.3326 0.0000
# 6 0.0000 0.0000 0.0000 0.0000 0.0000 51.5571
#
#
#
# Elastic Compliance Matrix: (Units=1/GPa)
#
#
# Indices 1 2 3 4 5 6 
#
# 1 0.021153 -0.003021 -0.004628 0.000000 0.000000 0.000000
# 2 -0.003021 0.007356 -0.002833 0.000000 0.000000 0.000000
# 3 -0.004628 -0.002833 0.012026 0.000000 0.000000 0.000000
# 4 0.000000 0.000000 0.000000 0.037902 0.000000 0.000000
# 5 0.000000 0.000000 0.000000 0.000000 0.057695 0.000000
# 6 0.000000 0.000000 0.000000 0.000000 0.000000 0.019396
#
#
# Mechanical properties :
#
#
# Convention : Reuss Voigt Hill
#
# Bulk Modulus (GPa) = 51.09575 64.92843 58.01209
# Shear Modulus (GPa) = 27.31994 33.51607 30.41800
#
# Velocity S-wave (km/s) = 3.60145 3.98900 3.80017
# Velocity P-wave (km/s) = 6.44611 7.21400 6.84084
#
# Compressibility (1/GPa) = 0.01957110
#
# Stress axis : x y z
#
# Youngs Moduli (GPa) = 47.27384 135.93574 83.15524
#
# Poissons Ratio (x) = 0.41065 0.38484
# Poissons Ratio (y) = 0.14281 0.23560
# Poissons Ratio (z) = 0.21878 0.38515
#
# Static dielectric constant tensor:
#      x y z
#    x 3.584530 0.000000 0.000000 
#    y 0.000000 4.406660 0.000000 
#    z 0.000000 0.000000 1.770320 
# 
# 
# High freq. dielectric constant tensor:
#      x y z
#    x 1.784230 0.000000 0.000000 
#    y 0.000000 1.871850 0.000000 
#    z 0.000000 0.000000 1.802530 
# 
# From -- ./inp_files/31727.got.cif
#   From: 2010.06.25/outbox.cif.g09.slc.cpg/sg58_16_cif.got.tgz:31727.got - 2010.06.26 21:38:00.
