data_PCOD8237731
_publ_section_title
;
Structure prediction by ZEFSAII (Michael W. Deem and Ramdas Pophale) SiO2 
 PCOD8237731
Probable space group: P N N M
;
_chemical_formula_sum "Si O2"
_cell_formula_units_Z 64
_cell_length_a 30.651629
_cell_length_b 11.911835
_cell_length_c 8.939929
_cell_angle_alpha 90.000000
_cell_angle_beta 90.000000
_cell_angle_gamma 90.000000
_cell_volume 3264.121372
_symmetry_space_group_name_H-M "P N N M"
_symmetry_group_IT_number 58
_symmetry_cell_setting 'orthorhombic'
loop_
_space_group_symop_operation_xyz
x,y,z
-x,-y,z
1/2+x,1/2-y,1/2-z
1/2-x,1/2+y,1/2-z
-x,-y,-z
x,y,-z
1/2-x,1/2+y,1/2+z
1/2+x,1/2-y,1/2+z
loop_
_atom_site_type_symbol
_atom_site_label
_atom_site_fract_x
_atom_site_fract_y
_atom_site_fract_z
Si Si1 0.047798 0.750919 0.176698
Si Si2 0.299542 0.259387 0.175119
Si Si3 0.161966 0.991709 0.671689
Si Si4 0.573101 0.497930 0.324260
Si Si5 0.624912 0.153035 0.822745
Si Si6 0.208791 0.216996 0.670740
Si Si7 0.121503 0.603900 0.323760
Si Si8 0.039918 0.214455 0.677891
O O1 0.083236 0.663250 0.233732
O O2 0.002214 0.722006 0.256761
O O3 0.062140 0.875722 0.224494
O O4 0.042567 0.738969 0.000000
O O5 0.319257 0.375760 0.236449
O O6 0.252588 0.240586 0.242539
O O7 0.332197 0.159172 0.219275
O O8 0.293185 0.268450 0.000000
O O9 0.145826 0.979370 0.500000
O O10 0.121823 0.030764 0.772526
O O11 0.199266 0.084997 0.684561
O O12 0.567972 0.480146 0.500000
O O13 0.540445 0.412006 0.242615
O O14 0.668761 0.211296 0.759127
O O15 0.582231 0.217838 0.763333
O O16 0.623385 0.024466 0.770230
O O17 0.625756 0.162982 0.000000
O O18 0.216063 0.253023 0.500000
O O19 0.112085 0.615456 0.500000
O O20 0.037370 0.210882 0.500000
#
# Coordination Sequence:
#
# PCOD8237731 Si02
#       8
#     8   8   8   8   8   8   8   8
#     4  11  24  40  58  87 122 151 191 242 295 348
#     4  10  22  37  58  88 117 148 195 243 283 342
#     4  10  20  38  61  85 115 154 199 242 285 347
#     4  11  22  37  59  88 121 152 189 243 297 346
#     4   9  20  39  61  86 114 150 197 242 282 342
#     4  10  21  38  60  84 117 154 190 237 292 343
#     4  10  21  40  63  84 113 154 198 239 284 344
#     4  11  22  39  63  87 117 155 196 238 290 351
#
# _framework density 19.607112999999998
#
# number of rings (size 3 to 8) (size 9 to 14) (size 15 to 20)
#    0.000    1.750    2.500    1.500    1.750    5.000 
#    0.000    4.375    0.000    0.000    0.000    0.000 
#    0.000    0.000    0.000    0.000    0.000    0.000 
#
# Total GULP energy -793841.474453 kJ/mol
# GULP energy per Si atom -12403.773038 kJ/mol
# Density = 1.956249 g / cm^3
# Si number density = 19.607113 Si / 1000 Ang^3
#
#
#
# Elastic Constant Matrix: (Units=GPa)
#
#
# Indices 1 2 3 4 5 6 
#
# 1 131.4023 40.4028 37.8526 0.0000 0.0000 0.0000
# 2 40.4028 120.5201 31.0621 0.0000 0.0000 0.0000
# 3 37.8526 31.0621 48.2273 0.0000 0.0000 0.0000
# 4 0.0000 0.0000 0.0000 11.2097 0.0000 0.0000
# 5 0.0000 0.0000 0.0000 0.0000 38.3801 0.0000
# 6 0.0000 0.0000 0.0000 0.0000 0.0000 27.6455
#
#
#
# Elastic Compliance Matrix: (Units=1/GPa)
#
#
# Indices 1 2 3 4 5 6 
#
# 1 0.010087 -0.001608 -0.006881 0.000000 0.000000 0.000000
# 2 -0.001608 0.010205 -0.005311 0.000000 0.000000 0.000000
# 3 -0.006881 -0.005311 0.029557 0.000000 0.000000 0.000000
# 4 0.000000 0.000000 0.000000 0.089208 0.000000 0.000000
# 5 0.000000 0.000000 0.000000 0.000000 0.026055 0.000000
# 6 0.000000 0.000000 0.000000 0.000000 0.000000 0.036172
#
#
# Mechanical properties :
#
#
# Convention : Reuss Voigt Hill
#
# Bulk Modulus (GPa) = 44.94684 57.64274 51.29479
# Shear Modulus (GPa) = 21.15945 28.16924 24.66434
#
# Velocity S-wave (km/s) = 3.28864 3.79447 3.55058
# Velocity P-wave (km/s) = 6.11504 6.97568 6.55949
#
# Compressibility (1/GPa) = 0.02224851
#
# Stress axis : x y z
#
# Youngs Moduli (GPa) = 99.13842 97.98925 33.83321
#
# Poissons Ratio (x) = 0.15756 0.23282
# Poissons Ratio (y) = 0.15941 0.17968
# Poissons Ratio (z) = 0.68221 0.52041
#
# Static dielectric constant tensor:
#      x y z
#    x 3.649260 0.000000 0.000000 
#    y 0.000000 3.777040 0.000000 
#    z 0.000000 0.000000 3.355580 
# 
# 
# High freq. dielectric constant tensor:
#      x y z
#    x 1.774590 0.000000 0.000000 
#    y 0.000000 1.770760 0.000000 
#    z 0.000000 0.000000 1.744930 
# 
# From -- ./inp_files/10947.got.cif
#   From: 2010.06.25/outbox.cif.g09.slc.cpg/sg58_6_cif.got.tgz:10947.got - 2010.06.26 21:38:00.
