data_PCOD8237427
_publ_section_title
;
Structure prediction by ZEFSAII (Michael W. Deem and Ramdas Pophale) SiO2 
 PCOD8237427
Probable space group: P N N M
;
_chemical_formula_sum "Si O2"
_cell_formula_units_Z 40
_cell_length_a 14.959229
_cell_length_b 10.953109
_cell_length_c 12.982870
_cell_angle_alpha 90.000000
_cell_angle_beta 90.000000
_cell_angle_gamma 90.000000
_cell_volume 2127.244104
_symmetry_space_group_name_H-M "P N N M"
_symmetry_group_IT_number 58
_symmetry_cell_setting 'orthorhombic'
loop_
_space_group_symop_operation_xyz
x,y,z
-x,-y,z
1/2+x,1/2-y,1/2-z
1/2-x,1/2+y,1/2-z
-x,-y,-z
x,y,-z
1/2-x,1/2+y,1/2+z
1/2+x,1/2-y,1/2+z
loop_
_atom_site_type_symbol
_atom_site_label
_atom_site_fract_x
_atom_site_fract_y
_atom_site_fract_z
Si Si1 0.028807 0.828278 0.617730
Si Si2 0.638580 0.456926 0.805449
Si Si3 0.416356 0.082597 0.792968
Si Si4 0.257015 0.461288 0.380851
Si Si5 0.698946 0.815542 0.615718
O O1 0.002602 0.855801 0.500000
O O2 0.052521 0.686955 0.628241
O O3 0.944739 0.864323 0.689267
O O4 0.113338 0.910086 0.650685
O O5 0.669557 0.465799 0.686284
O O6 0.719667 0.409463 0.874653
O O7 0.381866 0.146919 0.689497
O O8 0.500000 0.000000 0.762147
O O9 0.342292 0.001130 0.849266
O O10 0.275072 0.492135 0.500000
O O11 0.264754 0.318321 0.356517
O O12 0.661332 0.819459 0.500000
#
# Coordination Sequence:
#
# PCOD8237427 Si02
#       5
#     8   8   8   8   8
#     4  11  21  36  58  86 115 146 187 236 286 336
#     4  10  20  36  58  85 112 146 191 233 279 342
#     4  11  23  37  58  88 118 147 192 241 281 339
#     4  10  21  39  61  84 114 151 190 234 292 342
#     4  10  20  38  60  81 114 154 188 231 289 342
#
# _framework density 18.803673
#
# number of rings (size 3 to 8) (size 9 to 14) (size 15 to 20)
#    0.000    1.600    2.000    4.200    0.000    3.600 
#    0.000    3.000    0.000    0.000    0.000    0.000 
#    0.000    0.000    0.000    0.000    0.000    0.000 
#
# Total GULP energy -496150.031046 kJ/mol
# GULP energy per Si atom -12403.750776 kJ/mol
# Density = 1.876087 g / cm^3
# Si number density = 18.803673 Si / 1000 Ang^3
#
#
#
# Elastic Constant Matrix: (Units=GPa)
#
#
# Indices 1 2 3 4 5 6 
#
# 1 110.1171 56.9700 61.8715 0.0000 0.0000 0.0000
# 2 56.9700 109.9085 52.4343 0.0000 0.0000 0.0000
# 3 61.8715 52.4343 128.0251 0.0000 0.0000 0.0000
# 4 0.0000 0.0000 0.0000 28.8913 0.0000 0.0000
# 5 0.0000 0.0000 0.0000 0.0000 19.6125 0.0000
# 6 0.0000 0.0000 0.0000 0.0000 0.0000 35.6260
#
#
#
# Elastic Compliance Matrix: (Units=1/GPa)
#
#
# Indices 1 2 3 4 5 6 
#
# 1 0.014513 -0.005191 -0.004888 0.000000 0.000000 0.000000
# 2 -0.005191 0.013165 -0.002883 0.000000 0.000000 0.000000
# 3 -0.004888 -0.002883 0.011354 0.000000 0.000000 0.000000
# 4 0.000000 0.000000 0.000000 0.034612 0.000000 0.000000
# 5 0.000000 0.000000 0.000000 0.000000 0.050988 0.000000
# 6 0.000000 0.000000 0.000000 0.000000 0.000000 0.028069
#
#
# Mechanical properties :
#
#
# Convention : Reuss Voigt Hill
#
# Bulk Modulus (GPa) = 76.28928 76.73359 76.51144
# Shear Modulus (GPa) = 27.32327 28.61097 27.96712
#
# Velocity S-wave (km/s) = 3.81607 3.90495 3.86077
# Velocity P-wave (km/s) = 7.75087 7.82483 7.78794
#
# Compressibility (1/GPa) = 0.01310800
#
# Stress axis : x y z
#
# Youngs Moduli (GPa) = 68.90311 75.96148 88.07500
#
# Poissons Ratio (x) = 0.39431 0.43050
# Poissons Ratio (y) = 0.35767 0.25393
# Poissons Ratio (z) = 0.33679 0.21900
#
# Static dielectric constant tensor:
#      x y z
#    x 3.377600 0.000000 0.000000 
#    y 0.000000 3.540610 0.000000 
#    z 0.000000 0.000000 3.420770 
# 
# 
# High freq. dielectric constant tensor:
#      x y z
#    x 1.727330 0.000000 0.000000 
#    y 0.000000 1.740590 0.000000 
#    z 0.000000 0.000000 1.730200 
# 
# From -- ./inp_files/14103.got.cif
#   From: 2010.06.25/outbox.cif.g09.slc.cpg/sg58_8_cif.got.tgz:14103.got - 2010.06.26 21:38:00.
