data_PCOD8237038
_publ_section_title
;
Structure prediction by ZEFSAII (Michael W. Deem and Ramdas Pophale) SiO2 
 PCOD8237038
Probable space group: P N N M
;
_chemical_formula_sum "Si O2"
_cell_formula_units_Z 48
_cell_length_a 16.615264
_cell_length_b 18.083312
_cell_length_c 8.705380
_cell_angle_alpha 90.000000
_cell_angle_beta 90.000000
_cell_angle_gamma 90.000000
_cell_volume 2615.609794
_symmetry_space_group_name_H-M "P N N M"
_symmetry_group_IT_number 58
_symmetry_cell_setting 'orthorhombic'
loop_
_space_group_symop_operation_xyz
x,y,z
-x,-y,z
1/2+x,1/2-y,1/2-z
1/2-x,1/2+y,1/2-z
-x,-y,-z
x,y,-z
1/2-x,1/2+y,1/2+z
1/2+x,1/2-y,1/2+z
loop_
_atom_site_type_symbol
_atom_site_label
_atom_site_fract_x
_atom_site_fract_y
_atom_site_fract_z
Si Si1 0.672807 0.801811 0.169238
Si Si2 0.081437 0.837723 0.318540
Si Si3 0.764729 0.924475 0.679067
Si Si4 0.326714 0.801327 0.668485
Si Si5 0.412347 0.660494 0.318920
Si Si6 0.730283 0.580604 0.321529
O O1 0.602283 0.747225 0.229441
O O2 0.690474 0.868764 0.285699
O O3 0.750960 0.751860 0.154229
O O4 0.651613 0.833813 0.000000
O O5 0.068557 0.843755 0.500000
O O6 0.152343 0.893381 0.272318
O O7 0.001406 0.862836 0.230939
O O8 0.766345 0.942304 0.500000
O O9 0.850112 0.891148 0.728996
O O10 0.747124 0.998242 0.773645
O O11 0.345950 0.835204 0.500000
O O12 0.399014 0.747471 0.724800
O O13 0.308059 0.867785 0.785635
O O14 0.399942 0.647743 0.500000
O O15 0.710250 0.585238 0.500000
#
# Coordination Sequence:
#
# PCOD8237038 Si02
#       6
#     8   8   8   8   8   8
#     4   8  16  32  51  71  97 128 163 203 243 287
#     4  10  20  34  52  75 103 132 164 202 245 293
#     4  11  21  33  51  74 101 132 167 204 246 294
#     4   8  16  32  51  71  97 128 163 203 243 287
#     4  10  20  34  52  75 103 132 164 202 245 293
#     4  11  21  33  51  74 101 132 167 204 246 294
#
# _framework density 18.351361000000001
#
# number of rings (size 3 to 8) (size 9 to 14) (size 15 to 20)
#    0.000    2.333    0.000    6.000    0.000    8.000 
#    0.000    3.333    0.000    1.000    0.000    7.000 
#    0.000    0.000    0.000    0.000    0.000    0.000 
#
# Total GULP energy -595001.715497 kJ/mol
# GULP energy per Si atom -12395.869073 kJ/mol
# Density = 1.830959 g / cm^3
# Si number density = 18.351361 Si / 1000 Ang^3
#
#
#
# Elastic Constant Matrix: (Units=GPa)
#
#
# Indices 1 2 3 4 5 6 
#
# 1 8.2339 7.5287 10.8712 0.0000 0.0000 0.0000
# 2 7.5287 87.5944 23.0579 0.0000 0.0000 0.0000
# 3 10.8712 23.0579 68.7975 0.0000 0.0000 0.0000
# 4 0.0000 0.0000 0.0000 31.0637 0.0000 0.0000
# 5 0.0000 0.0000 0.0000 0.0000 6.6579 0.0000
# 6 0.0000 0.0000 0.0000 0.0000 0.0000 18.1554
#
#
#
# Elastic Compliance Matrix: (Units=1/GPa)
#
#
# Indices 1 2 3 4 5 6 
#
# 1 0.158051 -0.007688 -0.022398 0.000000 0.000000 0.000000
# 2 -0.007688 0.012895 -0.003107 0.000000 0.000000 0.000000
# 3 -0.022398 -0.003107 0.019116 0.000000 0.000000 0.000000
# 4 0.000000 0.000000 0.000000 0.032192 0.000000 0.000000
# 5 0.000000 0.000000 0.000000 0.000000 0.150197 0.000000
# 6 0.000000 0.000000 0.000000 0.000000 0.000000 0.055080
#
#
# Mechanical properties :
#
#
# Convention : Reuss Voigt Hill
#
# Bulk Modulus (GPa) = 8.08572 27.50461 17.79516
# Shear Modulus (GPa) = 9.34331 19.38658 14.36495
#
# Velocity S-wave (km/s) = 2.25885 3.25377 2.80084
# Velocity P-wave (km/s) = 3.34945 5.39781 4.49195
#
# Compressibility (1/GPa) = 0.12367483
#
# Stress axis : x y z
#
# Youngs Moduli (GPa) = 6.32709 77.54988 52.31226
#
# Poissons Ratio (x) = 0.59624 1.17169
# Poissons Ratio (y) = 0.04865 0.16253
# Poissons Ratio (z) = 0.14171 0.24094
#
# Static dielectric constant tensor:
#      x y z
#    x 3.405600 0.000000 0.000000 
#    y 0.000000 3.479440 0.000000 
#    z 0.000000 0.000000 3.371640 
# 
# 
# High freq. dielectric constant tensor:
#      x y z
#    x 1.679940 0.000000 0.000000 
#    y 0.000000 1.703720 0.000000 
#    z 0.000000 0.000000 1.717810 
# 
# From -- ./inp_files/7842.got.cif
#   From: 2010.06.25/outbox.cif.g09.slc.cpg/sg58_4_cif.got.tgz:7842.got - 2010.06.26 21:38:00.
