data_PCOD8237819
_publ_section_title
;
Structure prediction by ZEFSAII (Michael W. Deem and Ramdas Pophale) SiO2 
 PCOD8237819
Probable space group: P N N M
;
_chemical_formula_sum "Si O2"
_cell_formula_units_Z 56
_cell_length_a 17.101373
_cell_length_b 18.542338
_cell_length_c 8.995779
_cell_angle_alpha 90.000000
_cell_angle_beta 90.000000
_cell_angle_gamma 90.000000
_cell_volume 2852.556469
_symmetry_space_group_name_H-M "P N N M"
_symmetry_group_IT_number 58
_symmetry_cell_setting 'orthorhombic'
loop_
_space_group_symop_operation_xyz
x,y,z
-x,-y,z
1/2+x,1/2-y,1/2-z
1/2-x,1/2+y,1/2-z
-x,-y,-z
x,y,-z
1/2-x,1/2+y,1/2+z
1/2+x,1/2-y,1/2+z
loop_
_atom_site_type_symbol
_atom_site_label
_atom_site_fract_x
_atom_site_fract_y
_atom_site_fract_z
Si Si1 0.230352 0.272879 0.324185
Si Si2 0.832320 0.467478 0.669212
Si Si3 0.595725 0.702546 0.675853
Si Si4 0.448360 0.139339 0.327644
Si Si5 0.687174 0.370961 0.669632
Si Si6 0.627263 0.111515 0.672024
Si Si7 0.017631 0.079521 0.177119
O O1 0.223738 0.276638 0.500000
O O2 0.314670 0.302273 0.269265
O O3 0.221525 0.190798 0.273871
O O4 0.161825 0.319453 0.253786
O O5 0.855368 0.485570 0.500000
O O6 0.891006 0.407655 0.729117
O O7 0.743797 0.439608 0.678900
O O8 0.835198 0.539250 0.765442
O O9 0.592342 0.698022 0.500000
O O10 0.557210 0.778011 0.727069
O O11 0.546076 0.635953 0.742696
O O12 0.423463 0.132398 0.500000
O O13 0.534876 0.109713 0.301444
O O14 0.681243 0.342354 0.500000
O O15 0.602978 0.395372 0.730422
O O16 0.648153 0.117954 0.500000
O O17 0.014104 0.077571 0.000000
O O18 0.000000 0.000000 0.241919
#
# Coordination Sequence:
#
# PCOD8237819 Si02
#       7
#     8   8   8   8   8   8   8
#     4  11  22  37  61  88 118 154 196 246 299 349
#     4  11  23  37  58  90 124 152 188 244 300 352
#     4   9  18  33  56  84 113 148 194 244 290 344
#     4  10  20  39  61  82 113 157 201 238 289 358
#     4  10  21  38  60  87 119 155 198 242 292 353
#     4  11  24  39  60  86 117 155 197 240 289 356
#     4   9  18  33  58  87 115 151 199 249 287 336
#
# _framework density 19.631513000000002
#
# number of rings (size 3 to 8) (size 9 to 14) (size 15 to 20)
#    0.000    1.857    1.429    2.571    2.000    5.714 
#    0.000    0.000    0.000    1.286    0.000    0.000 
#    0.000    0.000    0.000    0.000    0.000    0.000 
#
# Total GULP energy -694586.861494 kJ/mol
# GULP energy per Si atom -12403.336812 kJ/mol
# Density = 1.958683 g / cm^3
# Si number density = 19.631513 Si / 1000 Ang^3
#
#
#
# Elastic Constant Matrix: (Units=GPa)
#
#
# Indices 1 2 3 4 5 6 
#
# 1 95.6788 19.8508 47.8377 0.0000 0.0000 0.0000
# 2 19.8508 86.4649 30.3763 0.0000 0.0000 0.0000
# 3 47.8377 30.3763 56.2460 0.0000 0.0000 0.0000
# 4 0.0000 0.0000 0.0000 29.3860 0.0000 0.0000
# 5 0.0000 0.0000 0.0000 0.0000 21.0621 0.0000
# 6 0.0000 0.0000 0.0000 0.0000 0.0000 33.5555
#
#
#
# Elastic Compliance Matrix: (Units=1/GPa)
#
#
# Indices 1 2 3 4 5 6 
#
# 1 0.018355 0.001568 -0.016458 0.000000 0.000000 0.000000
# 2 0.001568 0.014407 -0.009114 0.000000 0.000000 0.000000
# 3 -0.016458 -0.009114 0.036699 0.000000 0.000000 0.000000
# 4 0.000000 0.000000 0.000000 0.034030 0.000000 0.000000
# 5 0.000000 0.000000 0.000000 0.000000 0.047479 0.000000
# 6 0.000000 0.000000 0.000000 0.000000 0.000000 0.029801
#
#
# Mechanical properties :
#
#
# Convention : Reuss Voigt Hill
#
# Bulk Modulus (GPa) = 46.61431 48.27993 47.44712
# Shear Modulus (GPa) = 21.19267 26.15572 23.67420
#
# Velocity S-wave (km/s) = 3.28917 3.65407 3.47642
# Velocity P-wave (km/s) = 6.18232 6.51533 6.35101
#
# Compressibility (1/GPa) = 0.02145264
#
# Stress axis : x y z
#
# Youngs Moduli (GPa) = 54.48122 69.40854 27.24876
#
# Poissons Ratio (x) = -0.10882 0.44845
# Poissons Ratio (y) = -0.08542 0.24836
# Poissons Ratio (z) = 0.89664 0.63262
#
# Static dielectric constant tensor:
#      x y z
#    x 3.767630 0.000000 0.000000 
#    y 0.000000 3.814620 0.000000 
#    z 0.000000 0.000000 3.337110 
# 
# 
# High freq. dielectric constant tensor:
#      x y z
#    x 1.778810 0.000000 0.000000 
#    y 0.000000 1.775920 0.000000 
#    z 0.000000 0.000000 1.735430 
# 
# From -- ./inp_files/6427.got.cif
#   From: 2010.06.25/outbox.cif.g09.slc.cpg/sg58_4_cif.got.tgz:6427.got - 2010.06.26 21:38:00.
