data_PCOD8237956
_publ_section_title
;
Structure prediction by ZEFSAII (Michael W. Deem and Ramdas Pophale) SiO2 
 PCOD8237956
Probable space group: P N N M
;
_chemical_formula_sum "Si O2"
_cell_formula_units_Z 40
_cell_length_a 9.789974
_cell_length_b 8.427456
_cell_length_c 25.568041
_cell_angle_alpha 90.000000
_cell_angle_beta 90.000000
_cell_angle_gamma 90.000000
_cell_volume 2109.480360
_symmetry_space_group_name_H-M "P N N M"
_symmetry_group_IT_number 58
_symmetry_cell_setting 'orthorhombic'
loop_
_space_group_symop_operation_xyz
x,y,z
-x,-y,z
1/2+x,1/2-y,1/2-z
1/2-x,1/2+y,1/2-z
-x,-y,-z
x,y,-z
1/2-x,1/2+y,1/2+z
1/2+x,1/2-y,1/2+z
loop_
_atom_site_type_symbol
_atom_site_label
_atom_site_fract_x
_atom_site_fract_y
_atom_site_fract_z
Si Si1 0.637656 0.096863 0.939487
Si Si2 0.642212 0.087240 0.665053
Si Si3 0.380749 0.626175 0.861826
Si Si4 0.360011 0.905554 0.785129
Si Si5 0.345315 0.558116 0.363543
O O1 0.612978 0.267640 0.913688
O O2 0.500000 0.000000 0.929553
O O3 0.766504 0.005253 0.914638
O O4 0.670101 0.121673 0.000000
O O5 0.682783 0.116807 0.725259
O O6 0.648361 0.252436 0.634541
O O7 0.500000 0.000000 0.661170
O O8 0.741580 0.969187 0.635593
O O9 0.500000 0.500000 0.860176
O O10 0.384485 0.732986 0.809765
O O11 0.500000 0.000000 0.792494
O O12 0.234935 0.996002 0.812635
O O13 0.500000 0.500000 0.362231
#
# Coordination Sequence:
#
# PCOD8237956 Si02
#       5
#     8   8   8   8   8
#     4  10  22  42  64  83 108 146 188 232 290 352
#     4  11  22  35  54  83 117 152 189 231 275 325
#     4  11  21  35  58  86 115 144 188 243 281 323
#     4  10  21  36  54  80 117 158 192 221 270 338
#     4  11  22  38  58  81 114 151 188 229 281 342
#
# _framework density 18.962016999999999
#
# number of rings (size 3 to 8) (size 9 to 14) (size 15 to 20)
#    0.000    1.400    0.000    8.400    0.000    7.200 
#    0.000    1.000    0.000    2.400    0.000    0.000 
#    0.000    0.000    0.000    0.000    0.000    0.000 
#
# Total GULP energy -496106.428630 kJ/mol
# GULP energy per Si atom -12402.660716 kJ/mol
# Density = 1.891886 g / cm^3
# Si number density = 18.962017 Si / 1000 Ang^3
#
#
#
# Elastic Constant Matrix: (Units=GPa)
#
#
# Indices 1 2 3 4 5 6 
#
# 1 131.2376 50.7240 34.7914 0.0000 0.0000 0.0000
# 2 50.7240 157.0886 39.9501 0.0000 0.0000 0.0000
# 3 34.7914 39.9501 53.7503 0.0000 0.0000 0.0000
# 4 0.0000 0.0000 0.0000 18.2508 0.0000 0.0000
# 5 0.0000 0.0000 0.0000 0.0000 9.0067 0.0000
# 6 0.0000 0.0000 0.0000 0.0000 0.0000 43.6915
#
#
#
# Elastic Compliance Matrix: (Units=1/GPa)
#
#
# Indices 1 2 3 4 5 6 
#
# 1 0.009628 -0.001879 -0.004835 0.000000 0.000000 0.000000
# 2 -0.001879 0.008216 -0.004890 0.000000 0.000000 0.000000
# 3 -0.004835 -0.004890 0.025369 0.000000 0.000000 0.000000
# 4 0.000000 0.000000 0.000000 0.054792 0.000000 0.000000
# 5 0.000000 0.000000 0.000000 0.000000 0.111028 0.000000
# 6 0.000000 0.000000 0.000000 0.000000 0.000000 0.022888
#
#
# Mechanical properties :
#
#
# Convention : Reuss Voigt Hill
#
# Bulk Modulus (GPa) = 49.99093 65.88972 57.94032
# Shear Modulus (GPa) = 19.09863 28.63054 23.86459
#
# Velocity S-wave (km/s) = 3.17709 3.88994 3.55145
# Velocity P-wave (km/s) = 6.31502 7.41615 6.88763
#
# Compressibility (1/GPa) = 0.02000363
#
# Stress axis : x y z
#
# Youngs Moduli (GPa) = 103.86476 121.70854 39.41798
#
# Poissons Ratio (x) = 0.22871 0.19059
# Poissons Ratio (y) = 0.19518 0.19277
# Poissons Ratio (z) = 0.50221 0.59521
#
# Static dielectric constant tensor:
#      x y z
#    x 3.590540 0.000000 0.000000 
#    y 0.000000 3.873700 0.000000 
#    z 0.000000 0.000000 3.448070 
# 
# 
# High freq. dielectric constant tensor:
#      x y z
#    x 1.753450 0.000000 0.000000 
#    y 0.000000 1.756020 0.000000 
#    z 0.000000 0.000000 1.720360 
# 
# From -- ./inp_files/31279.got.cif
#   From: 2010.06.25/outbox.cif.g09.slc.cpg/sg58_16_cif.got.tgz:31279.got - 2010.06.26 21:38:00.
