data_PCOD8237785
_publ_section_title
;
Structure prediction by ZEFSAII (Michael W. Deem and Ramdas Pophale) SiO2 
 PCOD8237785
Probable space group: P N N M
;
_chemical_formula_sum "Si O2"
_cell_formula_units_Z 32
_cell_length_a 9.729842
_cell_length_b 18.082851
_cell_length_c 9.072520
_cell_angle_alpha 90.000000
_cell_angle_beta 90.000000
_cell_angle_gamma 90.000000
_cell_volume 1596.248955
_symmetry_space_group_name_H-M "P N N M"
_symmetry_group_IT_number 58
_symmetry_cell_setting 'orthorhombic'
loop_
_space_group_symop_operation_xyz
x,y,z
-x,-y,z
1/2+x,1/2-y,1/2-z
1/2-x,1/2+y,1/2-z
-x,-y,-z
x,y,-z
1/2-x,1/2+y,1/2+z
1/2+x,1/2-y,1/2+z
loop_
_atom_site_type_symbol
_atom_site_label
_atom_site_fract_x
_atom_site_fract_y
_atom_site_fract_z
Si Si1 0.696799 0.324778 0.827762
Si Si2 0.146899 0.026438 0.831326
Si Si3 0.094483 0.432622 0.668134
Si Si4 0.495637 0.787786 0.327987
O O1 0.705254 0.407559 0.766815
O O2 0.572709 0.281785 0.751187
O O3 0.841851 0.285118 0.794460
O O4 0.666511 0.327755 0.000000
O O5 0.247237 0.956312 0.818736
O O6 0.136198 0.054176 0.000000
O O7 0.000000 0.000000 0.771086
O O8 0.056169 0.411157 0.500000
O O9 0.071700 0.363055 0.771391
O O10 0.000000 0.500000 0.722651
O O11 0.465439 0.781904 0.500000
#
# Coordination Sequence:
#
# PCOD8237785 Si02
#       4
#     8   8   8   8
#     4  11  25  43  63  90 124 163 207 253 305 365
#     4  10  22  40  63  91 125 161 201 251 304 361
#     4  10  20  38  64  90 119 159 201 246 302 362
#     4  11  25  42  63  90 124 163 205 255 307 363
#
# _framework density 20.046997000000001
#
# number of rings (size 3 to 8) (size 9 to 14) (size 15 to 20)
#    0.000    1.500    2.500    1.500    3.500    5.000 
#    0.000    0.000    0.000    0.000    0.000    0.000 
#    0.000    0.000    0.000    0.000    0.000    0.000 
#
# Total GULP energy -397002.767548 kJ/mol
# GULP energy per Si atom -12406.336486 kJ/mol
# Density = 2.000137 g / cm^3
# Si number density = 20.046997 Si / 1000 Ang^3
#
#
#
# Elastic Constant Matrix: (Units=GPa)
#
#
# Indices 1 2 3 4 5 6 
#
# 1 89.4620 7.7736 43.2533 0.0000 0.0000 0.0000
# 2 7.7736 55.7204 40.0931 0.0000 0.0000 0.0000
# 3 43.2533 40.0931 99.9762 0.0000 0.0000 0.0000
# 4 0.0000 0.0000 0.0000 32.6068 0.0000 0.0000
# 5 0.0000 0.0000 0.0000 0.0000 200.3652 0.0000
# 6 0.0000 0.0000 0.0000 0.0000 0.0000 36.1542
#
#
#
# Elastic Compliance Matrix: (Units=1/GPa)
#
#
# Indices 1 2 3 4 5 6 
#
# 1 0.014612 0.003528 -0.007736 0.000000 0.000000 0.000000
# 2 0.003528 0.026078 -0.011984 0.000000 0.000000 0.000000
# 3 -0.007736 -0.011984 0.018155 0.000000 0.000000 0.000000
# 4 0.000000 0.000000 0.000000 0.030668 0.000000 0.000000
# 5 0.000000 0.000000 0.000000 0.000000 0.004991 0.000000
# 6 0.000000 0.000000 0.000000 0.000000 0.000000 0.027659
#
#
# Mechanical properties :
#
#
# Convention : Reuss Voigt Hill
#
# Bulk Modulus (GPa) = 37.79310 47.48875 42.64092
# Shear Modulus (GPa) = 30.60559 64.09447 47.35003
#
# Velocity S-wave (km/s) = 3.91153 5.66052 4.86526
# Velocity P-wave (km/s) = 6.26843 8.15243 7.27171
#
# Compressibility (1/GPa) = 0.02645986
#
# Stress axis : x y z
#
# Youngs Moduli (GPa) = 68.43782 38.34691 55.07976
#
# Poissons Ratio (x) = -0.13530 0.42612
# Poissons Ratio (y) = -0.24146 0.66009
# Poissons Ratio (z) = 0.52947 0.45956
#
# Static dielectric constant tensor:
#      x y z
#    x 3.823800 0.000000 0.000000 
#    y 0.000000 3.522280 0.000000 
#    z 0.000000 0.000000 3.632530 
# 
# 
# High freq. dielectric constant tensor:
#      x y z
#    x 1.798180 0.000000 0.000000 
#    y 0.000000 1.780050 0.000000 
#    z 0.000000 0.000000 1.780460 
# 
# From -- ./inp_files/2161.got.cif
#   From: 2010.06.25/outbox.cif.g09.slc.cpg/sg58_2_cif.got.tgz:2161.got - 2010.06.26 21:38:00.
