data_PCOD8237393
_publ_section_title
;
Structure prediction by ZEFSAII (Michael W. Deem and Ramdas Pophale) SiO2 
 PCOD8237393
Probable space group: P N N M
;
_chemical_formula_sum "Si O2"
_cell_formula_units_Z 64
_cell_length_a 15.441166
_cell_length_b 24.184175
_cell_length_c 9.055321
_cell_angle_alpha 90.000000
_cell_angle_beta 90.000000
_cell_angle_gamma 90.000000
_cell_volume 3381.545371
_symmetry_space_group_name_H-M "P N N M"
_symmetry_group_IT_number 58
_symmetry_cell_setting 'orthorhombic'
loop_
_space_group_symop_operation_xyz
x,y,z
-x,-y,z
1/2+x,1/2-y,1/2-z
1/2-x,1/2+y,1/2-z
-x,-y,-z
x,y,-z
1/2-x,1/2+y,1/2+z
1/2+x,1/2-y,1/2+z
loop_
_atom_site_type_symbol
_atom_site_label
_atom_site_fract_x
_atom_site_fract_y
_atom_site_fract_z
Si Si1 0.595986 0.017626 0.826239
Si Si2 0.409948 0.484209 0.666483
Si Si3 0.254137 0.556484 0.674673
Si Si4 0.324964 0.766147 0.171617
Si Si5 0.465659 0.366159 0.333375
Si Si6 0.361748 0.641363 0.827517
Si Si7 0.177430 0.811132 0.666611
Si Si8 0.344681 0.871387 0.332923
O O1 0.623522 0.073864 0.747463
O O2 0.500000 0.000000 0.776440
O O3 0.660286 0.967595 0.780767
O O4 0.601292 0.029053 0.000000
O O5 0.500000 0.500000 0.749558
O O6 0.416018 0.507881 0.500000
O O7 0.325002 0.512226 0.736178
O O8 0.400660 0.418225 0.666867
O O9 0.258518 0.566497 0.500000
O O10 0.274652 0.614061 0.758802
O O11 0.366768 0.706810 0.201353
O O12 0.227796 0.763985 0.240485
O O13 0.380346 0.815464 0.250575
O O14 0.318422 0.780176 0.000000
O O15 0.483225 0.345464 0.500000
O O16 0.555626 0.383798 0.257162
O O17 0.416355 0.319702 0.239412
O O18 0.366094 0.627422 0.000000
O O19 0.161760 0.790529 0.500000
O O20 0.239176 0.866289 0.668530
O O21 0.380304 0.871973 0.500000
#
# Coordination Sequence:
#
# PCOD8237393 Si02
#       8
#     8   8   8   8   8   8   8   8
#     4  10  21  37  59  87 116 152 200 244 289 354
#     4   9  16  29  49  79 109 141 185 219 257 329
#     4  10  20  36  57  80 113 155 191 232 287 349
#     4   9  19  37  58  77 103 147 193 234 287 349
#     4  11  20  32  55  81 111 151 189 224 272 340
#     4  11  23  37  54  81 118 152 189 238 292 343
#     4   9  19  34  54  82 110 136 181 237 284 329
#     4   9  19  35  59  86 110 143 187 243 298 337
#
# _framework density 18.926259999999999
#
# number of rings (size 3 to 8) (size 9 to 14) (size 15 to 20)
#    0.750    1.500    1.250    2.250    0.000    3.750 
#    0.000    3.125    0.000    4.500    0.000    0.000 
#    0.000    0.000    0.000    0.000    0.000    0.000 
#
# Total GULP energy -793028.542236 kJ/mol
# GULP energy per Si atom -12391.070972 kJ/mol
# Density = 1.888318 g / cm^3
# Si number density = 18.926260 Si / 1000 Ang^3
#
#
#
# Elastic Constant Matrix: (Units=GPa)
#
#
# Indices 1 2 3 4 5 6 
#
# 1 92.5018 23.1639 37.4251 0.0000 0.0000 0.0000
# 2 23.1639 78.8687 50.9547 0.0000 0.0000 0.0000
# 3 37.4251 50.9547 105.3624 0.0000 0.0000 0.0000
# 4 0.0000 0.0000 0.0000 28.5430 0.0000 0.0000
# 5 0.0000 0.0000 0.0000 0.0000 15.1084 0.0000
# 6 0.0000 0.0000 0.0000 0.0000 0.0000 20.6221
#
#
#
# Elastic Compliance Matrix: (Units=1/GPa)
#
#
# Indices 1 2 3 4 5 6 
#
# 1 0.012701 -0.001186 -0.003938 0.000000 0.000000 0.000000
# 2 -0.001186 0.018552 -0.008551 0.000000 0.000000 0.000000
# 3 -0.003938 -0.008551 0.015025 0.000000 0.000000 0.000000
# 4 0.000000 0.000000 0.000000 0.035035 0.000000 0.000000
# 5 0.000000 0.000000 0.000000 0.000000 0.066188 0.000000
# 6 0.000000 0.000000 0.000000 0.000000 0.000000 0.048492
#
#
# Mechanical properties :
#
#
# Convention : Reuss Voigt Hill
#
# Bulk Modulus (GPa) = 52.83008 55.53559 54.18283
# Shear Modulus (GPa) = 21.77213 23.86732 22.81973
#
# Velocity S-wave (km/s) = 3.39538 3.55501 3.47611
# Velocity P-wave (km/s) = 6.58375 6.80129 6.69341
#
# Compressibility (1/GPa) = 0.01892861
#
# Stress axis : x y z
#
# Youngs Moduli (GPa) = 78.73528 53.90253 66.55593
#
# Poissons Ratio (x) = 0.06394 0.26208
# Poissons Ratio (y) = 0.09340 0.56910
# Poissons Ratio (z) = 0.31004 0.46090
#
# Static dielectric constant tensor:
#      x y z
#    x 3.373370 0.000000 0.000000 
#    y 0.000000 3.223920 0.000000 
#    z 0.000000 0.000000 3.373240 
# 
# 
# High freq. dielectric constant tensor:
#      x y z
#    x 1.715380 0.000000 0.000000 
#    y 0.000000 1.719320 0.000000 
#    z 0.000000 0.000000 1.731450 
# 
# From -- ./inp_files/6932.got.cif
#   From: 2010.06.25/outbox.cif.g09.slc.cpg/sg58_4_cif.got.tgz:6932.got - 2010.06.26 21:38:00.
