data_PCOD8237540
_publ_section_title
;
Structure prediction by ZEFSAII (Michael W. Deem and Ramdas Pophale) SiO2 
 PCOD8237540
Probable space group: P N N M
;
_chemical_formula_sum "Si O2"
_cell_formula_units_Z 48
_cell_length_a 21.850814
_cell_length_b 12.654666
_cell_length_c 8.877615
_cell_angle_alpha 90.000000
_cell_angle_beta 90.000000
_cell_angle_gamma 90.000000
_cell_volume 2454.791519
_symmetry_space_group_name_H-M "P N N M"
_symmetry_group_IT_number 58
_symmetry_cell_setting 'orthorhombic'
loop_
_space_group_symop_operation_xyz
x,y,z
-x,-y,z
1/2+x,1/2-y,1/2-z
1/2-x,1/2+y,1/2-z
-x,-y,-z
x,y,-z
1/2-x,1/2+y,1/2+z
1/2+x,1/2-y,1/2+z
loop_
_atom_site_type_symbol
_atom_site_label
_atom_site_fract_x
_atom_site_fract_y
_atom_site_fract_z
Si Si1 0.137616 0.166767 0.329687
Si Si2 0.351179 0.873423 0.322954
Si Si3 0.434465 0.044319 0.177703
Si Si4 0.107879 0.752659 0.177575
Si Si5 0.068912 0.962657 0.327267
Si Si6 0.245000 0.776480 0.829618
O O1 0.112579 0.181128 0.500000
O O2 0.112849 0.267238 0.232992
O O3 0.113182 0.056047 0.265758
O O4 0.212265 0.170385 0.326071
O O5 0.355034 0.883146 0.500000
O O6 0.279850 0.866030 0.269709
O O7 0.380681 0.976626 0.251459
O O8 0.429803 0.163602 0.235767
O O9 0.500000 0.000000 0.228851
O O10 0.426524 0.040920 0.000000
O O11 0.178284 0.750529 0.235339
O O12 0.078194 0.864102 0.218686
O O13 0.103599 0.732523 0.000000
O O14 0.085043 0.933087 0.500000
O O15 0.000000 0.000000 0.312358
O O16 0.239047 0.819713 0.000000
#
# Coordination Sequence:
#
# PCOD8237540 Si02
#       6
#     8   8   8   8   8   8
#     4   8  17  37  60  82 117 160 199 237 288 355
#     4  10  20  36  62  92 119 152 198 248 297 347
#     4  11  25  43  63  85 119 165 205 244 298 367
#     4  11  24  40  60  92 124 151 197 255 302 348
#     4  10  22  39  61  87 118 161 204 240 290 361
#     4   8  18  38  60  87 122 159 195 238 296 361
#
# _framework density 19.553595999999999
#
# number of rings (size 3 to 8) (size 9 to 14) (size 15 to 20)
#    1.000    1.333    0.000    2.000    2.333    5.000 
#    0.000    1.667    0.000    0.000    0.000    0.000 
#    0.000    0.000    0.000    0.000    0.000    0.000 
#
# Total GULP energy -594962.017294 kJ/mol
# GULP energy per Si atom -12395.042027 kJ/mol
# Density = 1.950909 g / cm^3
# Si number density = 19.553596 Si / 1000 Ang^3
#
#
#
# Elastic Constant Matrix: (Units=GPa)
#
#
# Indices 1 2 3 4 5 6 
#
# 1 89.1603 32.5437 31.2563 0.0000 0.0000 0.0000
# 2 32.5437 105.3002 31.7841 0.0000 0.0000 0.0000
# 3 31.2563 31.7841 76.2709 0.0000 0.0000 0.0000
# 4 0.0000 0.0000 0.0000 24.2192 0.0000 0.0000
# 5 0.0000 0.0000 0.0000 0.0000 20.2701 0.0000
# 6 0.0000 0.0000 0.0000 0.0000 0.0000 31.9160
#
#
#
# Elastic Compliance Matrix: (Units=1/GPa)
#
#
# Indices 1 2 3 4 5 6 
#
# 1 0.013848 -0.002936 -0.004451 0.000000 0.000000 0.000000
# 2 -0.002936 0.011486 -0.003583 0.000000 0.000000 0.000000
# 3 -0.004451 -0.003583 0.016429 0.000000 0.000000 0.000000
# 4 0.000000 0.000000 0.000000 0.041290 0.000000 0.000000
# 5 0.000000 0.000000 0.000000 0.000000 0.049334 0.000000
# 6 0.000000 0.000000 0.000000 0.000000 0.000000 0.031332
#
#
# Mechanical properties :
#
#
# Convention : Reuss Voigt Hill
#
# Bulk Modulus (GPa) = 50.45208 51.32216 50.88712
# Shear Modulus (GPa) = 26.00565 26.95755 26.48160
#
# Velocity S-wave (km/s) = 3.65083 3.71705 3.68409
# Velocity P-wave (km/s) = 6.60525 6.68773 6.64662
#
# Compressibility (1/GPa) = 0.01982079
#
# Stress axis : x y z
#
# Youngs Moduli (GPa) = 72.21286 87.06526 60.86963
#
# Poissons Ratio (x) = 0.25564 0.27095
# Poissons Ratio (y) = 0.21203 0.21810
# Poissons Ratio (z) = 0.32145 0.31196
#
# Static dielectric constant tensor:
#      x y z
#    x 3.576950 0.000000 0.000000 
#    y 0.000000 3.438460 0.000000 
#    z 0.000000 0.000000 3.497640 
# 
# 
# High freq. dielectric constant tensor:
#      x y z
#    x 1.757900 0.000000 0.000000 
#    y 0.000000 1.753170 0.000000 
#    z 0.000000 0.000000 1.757030 
# 
# From -- ./inp_files/9724.got.cif
#   From: 2010.06.25/outbox.cif.g09.slc.cpg/sg58_5_cif.got.tgz:9724.got - 2010.06.26 21:38:00.
