data_PCOD8237401
_publ_section_title
;
Structure prediction by ZEFSAII (Michael W. Deem and Ramdas Pophale) SiO2 
 PCOD8237401
Probable space group: P N N M
;
_chemical_formula_sum "Si O2"
_cell_formula_units_Z 32
_cell_length_a 13.291628
_cell_length_b 14.895853
_cell_length_c 8.794292
_cell_angle_alpha 90.000000
_cell_angle_beta 90.000000
_cell_angle_gamma 90.000000
_cell_volume 1741.183076
_symmetry_space_group_name_H-M "P N N M"
_symmetry_group_IT_number 58
_symmetry_cell_setting 'orthorhombic'
loop_
_space_group_symop_operation_xyz
x,y,z
-x,-y,z
1/2+x,1/2-y,1/2-z
1/2-x,1/2+y,1/2-z
-x,-y,-z
x,y,-z
1/2-x,1/2+y,1/2+z
1/2+x,1/2-y,1/2+z
loop_
_atom_site_type_symbol
_atom_site_label
_atom_site_fract_x
_atom_site_fract_y
_atom_site_fract_z
Si Si1 0.531008 0.600918 0.324040
Si Si2 0.110637 0.238142 0.327908
Si Si3 0.760489 0.144853 0.678286
Si Si4 0.415927 0.934279 0.172531
O O1 0.500000 0.500000 0.287776
O O2 0.557939 0.614741 0.500000
O O3 0.438349 0.663806 0.278658
O O4 0.625677 0.626304 0.222211
O O5 0.121298 0.201649 0.500000
O O6 0.221097 0.263831 0.260927
O O7 0.044450 0.330666 0.324941
O O8 0.752432 0.158170 0.500000
O O9 0.688455 0.061447 0.731325
O O10 0.500000 0.000000 0.244869
O O11 0.392080 0.965084 0.000000
#
# Coordination Sequence:
#
# PCOD8237401 Si02
#       4
#     8   8   8   8
#     4  11  23  40  60  84 117 156 196 242 295 347
#     4   9  19  37  59  84 114 151 192 237 283 340
#     4  10  20  36  57  83 115 148 190 237 285 341
#     4   8  16  34  57  82 114 149 187 234 286 340
#
# _framework density 18.378308000000001
#
# number of rings (size 3 to 8) (size 9 to 14) (size 15 to 20)
#    1.500    1.000    0.000    3.000    0.000    2.500 
#    4.500    0.000    0.000    0.000    0.000    0.000 
#    0.000    0.000    0.000    0.000    0.000    0.000 
#
# Total GULP energy -396502.917410 kJ/mol
# GULP energy per Si atom -12390.716169 kJ/mol
# Density = 1.833648 g / cm^3
# Si number density = 18.378308 Si / 1000 Ang^3
#
#
#
# Elastic Constant Matrix: (Units=GPa)
#
#
# Indices 1 2 3 4 5 6 
#
# 1 84.7167 29.5197 30.3598 0.0000 0.0000 0.0000
# 2 29.5197 72.0408 29.2887 0.0000 0.0000 0.0000
# 3 30.3598 29.2887 82.8071 0.0000 0.0000 0.0000
# 4 0.0000 0.0000 0.0000 20.0328 0.0000 0.0000
# 5 0.0000 0.0000 0.0000 0.0000 30.8610 0.0000
# 6 0.0000 0.0000 0.0000 0.0000 0.0000 27.0943
#
#
#
# Elastic Compliance Matrix: (Units=1/GPa)
#
#
# Indices 1 2 3 4 5 6 
#
# 1 0.014735 -0.004487 -0.003815 0.000000 0.000000 0.000000
# 2 -0.004487 0.017578 -0.004573 0.000000 0.000000 0.000000
# 3 -0.003815 -0.004573 0.015092 0.000000 0.000000 0.000000
# 4 0.000000 0.000000 0.000000 0.049918 0.000000 0.000000
# 5 0.000000 0.000000 0.000000 0.000000 0.032403 0.000000
# 6 0.000000 0.000000 0.000000 0.000000 0.000000 0.036908
#
#
# Mechanical properties :
#
#
# Convention : Reuss Voigt Hill
#
# Bulk Modulus (GPa) = 46.17524 46.43346 46.30435
# Shear Modulus (GPa) = 25.04974 25.62406 25.33690
#
# Velocity S-wave (km/s) = 3.69590 3.73802 3.71702
# Velocity P-wave (km/s) = 6.58728 6.62953 6.60844
#
# Compressibility (1/GPa) = 0.02165663
#
# Stress axis : x y z
#
# Youngs Moduli (GPa) = 67.86696 56.88785 66.25867
#
# Poissons Ratio (x) = 0.25523 0.25280
# Poissons Ratio (y) = 0.30449 0.30297
# Poissons Ratio (z) = 0.25893 0.26012
#
# Static dielectric constant tensor:
#      x y z
#    x 3.150920 0.000000 0.000000 
#    y 0.000000 3.313080 0.000000 
#    z 0.000000 0.000000 3.326060 
# 
# 
# High freq. dielectric constant tensor:
#      x y z
#    x 1.696030 0.000000 0.000000 
#    y 0.000000 1.691890 0.000000 
#    z 0.000000 0.000000 1.721580 
# 
# From -- ./inp_files/3506.got.cif
#   From: 2010.06.25/outbox.cif.g09.slc.cpg/sg58_2_cif.got.tgz:3506.got - 2010.06.26 21:38:00.
