data_PCOD8237314
_publ_section_title
;
Structure prediction by ZEFSAII (Michael W. Deem and Ramdas Pophale) SiO2 
 PCOD8237314
Probable space group: P N N M
;
_chemical_formula_sum "Si O2"
_cell_formula_units_Z 48
_cell_length_a 28.920973
_cell_length_b 10.125967
_cell_length_c 9.172334
_cell_angle_alpha 90.000000
_cell_angle_beta 90.000000
_cell_angle_gamma 90.000000
_cell_volume 2686.143861
_symmetry_space_group_name_H-M "P N N M"
_symmetry_group_IT_number 58
_symmetry_cell_setting 'orthorhombic'
loop_
_space_group_symop_operation_xyz
x,y,z
-x,-y,z
1/2+x,1/2-y,1/2-z
1/2-x,1/2+y,1/2-z
-x,-y,-z
x,y,-z
1/2-x,1/2+y,1/2+z
1/2+x,1/2-y,1/2+z
loop_
_atom_site_type_symbol
_atom_site_label
_atom_site_fract_x
_atom_site_fract_y
_atom_site_fract_z
Si Si1 0.880871 0.271546 0.665522
Si Si2 0.218459 0.005282 0.329210
Si Si3 0.520138 0.858039 0.167822
Si Si4 0.470778 0.625548 0.327867
Si Si5 0.211503 0.734687 0.172151
Si Si6 0.885655 0.968020 0.665678
O O1 0.863281 0.292312 0.500000
O O2 0.924971 0.362510 0.701691
O O3 0.839265 0.307486 0.773413
O O4 0.897312 0.121589 0.688162
O O5 0.221316 0.971958 0.500000
O O6 0.254291 0.117249 0.281388
O O7 0.167417 0.058332 0.289273
O O8 0.229269 0.870146 0.244122
O O9 0.494548 0.757081 0.271907
O O10 0.500000 0.000000 0.203983
O O11 0.511818 0.816898 0.000000
O O12 0.500000 0.500000 0.272103
O O13 0.468399 0.630604 0.500000
O O14 0.418616 0.618210 0.267906
O O15 0.210416 0.754931 0.000000
O O16 0.894663 0.923838 0.500000
#
# Coordination Sequence:
#
# PCOD8237314 Si02
#       6
#     8   8   8   8   8   8
#     4   9  18  34  56  80 107 141 181 221 265 317
#     4   9  20  38  56  80 111 142 180 223 266 319
#     4  10  21  38  58  79 106 145 186 221 262 320
#     4  11  22  34  53  82 112 139 174 223 271 317
#     4  10  20  35  58  83 108 141 178 220 272 321
#     4   9  17  33  57  78 102 140 184 225 261 310
#
# _framework density 17.869482000000001
#
# number of rings (size 3 to 8) (size 9 to 14) (size 15 to 20)
#    0.000    2.333    1.667    2.000    0.000    5.667 
#    3.000    0.000    0.000    0.000    0.000    0.000 
#    0.000    0.000    0.000    0.000    0.000    0.000 
#
# Total GULP energy -595297.400357 kJ/mol
# GULP energy per Si atom -12402.029174 kJ/mol
# Density = 1.782881 g / cm^3
# Si number density = 17.869482 Si / 1000 Ang^3
#
#
#
# Elastic Constant Matrix: (Units=GPa)
#
#
# Indices 1 2 3 4 5 6 
#
# 1 122.9669 76.6338 53.9559 0.0000 0.0000 0.0000
# 2 76.6338 98.9720 53.6427 0.0000 0.0000 0.0000
# 3 53.9559 53.6427 70.5994 0.0000 0.0000 0.0000
# 4 0.0000 0.0000 0.0000 18.5304 0.0000 0.0000
# 5 0.0000 0.0000 0.0000 0.0000 30.9447 0.0000
# 6 0.0000 0.0000 0.0000 0.0000 0.0000 35.9603
#
#
#
# Elastic Compliance Matrix: (Units=1/GPa)
#
#
# Indices 1 2 3 4 5 6 
#
# 1 0.016690 -0.010218 -0.004992 0.000000 0.000000 0.000000
# 2 -0.010218 0.023433 -0.009996 0.000000 0.000000 0.000000
# 3 -0.004992 -0.009996 0.025575 0.000000 0.000000 0.000000
# 4 0.000000 0.000000 0.000000 0.053965 0.000000 0.000000
# 5 0.000000 0.000000 0.000000 0.000000 0.032316 0.000000
# 6 0.000000 0.000000 0.000000 0.000000 0.000000 0.027808
#
#
# Mechanical properties :
#
#
# Convention : Reuss Voigt Hill
#
# Bulk Modulus (GPa) = 65.41620 73.44480 69.43050
# Shear Modulus (GPa) = 21.24987 24.30748 22.77867
#
# Velocity S-wave (km/s) = 3.45218 3.69220 3.57420
# Velocity P-wave (km/s) = 7.25102 7.70496 7.48143
#
# Compressibility (1/GPa) = 0.01528673
#
# Stress axis : x y z
#
# Youngs Moduli (GPa) = 59.91446 42.67453 39.10072
#
# Poissons Ratio (x) = 0.43603 0.19520
# Poissons Ratio (y) = 0.61218 0.39085
# Poissons Ratio (z) = 0.29911 0.42658
#
# Static dielectric constant tensor:
#      x y z
#    x 3.479320 0.000000 0.000000 
#    y 0.000000 3.196640 0.000000 
#    z 0.000000 0.000000 3.239470 
# 
# 
# High freq. dielectric constant tensor:
#      x y z
#    x 1.700550 0.000000 0.000000 
#    y 0.000000 1.674090 0.000000 
#    z 0.000000 0.000000 1.690450 
# 
# From -- ./inp_files/2941.got.cif
#   From: 2010.06.25/outbox.cif.g09.slc.cpg/sg58_2_cif.got.tgz:2941.got - 2010.06.26 21:38:00.
