data_PCOD8237140
_publ_section_title
;
Structure prediction by ZEFSAII (Michael W. Deem and Ramdas Pophale) SiO2 
 PCOD8237140
Probable space group: P N N M
;
_chemical_formula_sum "Si O2"
_cell_formula_units_Z 60
_cell_length_a 11.924818
_cell_length_b 22.376620
_cell_length_c 12.796471
_cell_angle_alpha 90.000000
_cell_angle_beta 90.000000
_cell_angle_gamma 90.000000
_cell_volume 3414.573480
_symmetry_space_group_name_H-M "P N N M"
_symmetry_group_IT_number 58
_symmetry_cell_setting 'orthorhombic'
loop_
_space_group_symop_operation_xyz
x,y,z
-x,-y,z
1/2+x,1/2-y,1/2-z
1/2-x,1/2+y,1/2-z
-x,-y,-z
x,y,-z
1/2-x,1/2+y,1/2+z
1/2+x,1/2-y,1/2+z
loop_
_atom_site_type_symbol
_atom_site_label
_atom_site_fract_x
_atom_site_fract_y
_atom_site_fract_z
Si Si1 0.784995 0.479583 0.881236
Si Si2 0.082167 0.279699 0.379013
Si Si3 0.073581 0.943891 0.619817
Si Si4 0.747617 0.362646 0.235556
Si Si5 0.329052 0.253814 0.375076
Si Si6 0.943713 0.388049 0.623656
Si Si7 0.500000 0.000000 0.756750
Si Si8 0.498260 0.671935 0.239297
O O1 0.701962 0.535754 0.871967
O O2 0.726818 0.418216 0.842498
O O3 0.892444 0.495998 0.815186
O O4 0.821872 0.469344 0.000000
O O5 0.076698 0.289747 0.500000
O O6 0.211221 0.284289 0.343152
O O7 0.011473 0.332477 0.327065
O O8 0.021180 0.217282 0.355826
O O9 0.041441 0.927017 0.500000
O O10 0.058085 0.887359 0.695989
O O11 0.000000 0.000000 0.658403
O O12 0.820639 0.312447 0.174284
O O13 0.816536 0.384992 0.335675
O O14 0.627217 0.342046 0.281204
O O15 0.346150 0.248718 0.500000
O O16 0.428416 0.295174 0.328647
O O17 0.939486 0.390405 0.500000
O O18 0.010897 0.444206 0.666902
#
# Coordination Sequence:
#
# PCOD8237140 Si02
#       8
#     8   8   8   8   8   8   4   8
#     4  10  20  36  57  83 115 145 180 226 279 333
#     4   9  19  35  55  76 104 141 181 225 272 326
#     4  10  20  34  56  85 111 141 181 228 276 327
#     4  10  20  36  57  81 107 148 180 224 278 334
#     4  10  21  35  54  80 108 142 182 223 273 330
#     4  10  20  37  56  78 105 142 188 229 269 323
#     4  10  22  34  56  80 110 148 184 222 274 322
#     4  11  20  34  58  80 113 141 182 227 279 329
#
# _framework density 17.571742
#
# number of rings (size 3 to 8) (size 9 to 14) (size 15 to 20)
#    0.000    2.000    2.667    1.200    1.867    1.600 
#    0.000    0.000    0.000    0.400    0.000    0.000 
#    0.000    0.000    0.000    0.000    0.000    0.000 
#
# Total GULP energy -743705.366480 kJ/mol
# GULP energy per Si atom -12395.089441 kJ/mol
# Density = 1.753175 g / cm^3
# Si number density = 17.571742 Si / 1000 Ang^3
#
#
#
# Elastic Constant Matrix: (Units=GPa)
#
#
# Indices 1 2 3 4 5 6 
#
# 1 82.2612 49.4141 38.5215 0.0000 0.0000 0.0000
# 2 49.4141 110.5058 39.8802 0.0000 0.0000 0.0000
# 3 38.5215 39.8802 75.5033 0.0000 0.0000 0.0000
# 4 0.0000 0.0000 0.0000 21.7494 0.0000 0.0000
# 5 0.0000 0.0000 0.0000 0.0000 22.2362 0.0000
# 6 0.0000 0.0000 0.0000 0.0000 0.0000 32.3419
#
#
#
# Elastic Compliance Matrix: (Units=1/GPa)
#
#
# Indices 1 2 3 4 5 6 
#
# 1 0.018811 -0.006113 -0.006368 0.000000 0.000000 0.000000
# 2 -0.006113 0.013167 -0.003836 0.000000 0.000000 0.000000
# 3 -0.006368 -0.003836 0.018520 0.000000 0.000000 0.000000
# 4 0.000000 0.000000 0.000000 0.045978 0.000000 0.000000
# 5 0.000000 0.000000 0.000000 0.000000 0.044972 0.000000
# 6 0.000000 0.000000 0.000000 0.000000 0.000000 0.030920
#
#
# Mechanical properties :
#
#
# Convention : Reuss Voigt Hill
#
# Bulk Modulus (GPa) = 55.98196 58.21132 57.09664
# Shear Modulus (GPa) = 23.70160 24.62913 24.16536
#
# Velocity S-wave (km/s) = 3.67665 3.74790 3.71245
# Velocity P-wave (km/s) = 7.06767 7.20616 7.13725
#
# Compressibility (1/GPa) = 0.01786290
#
# Stress axis : x y z
#
# Youngs Moduli (GPa) = 53.16106 75.94602 53.99693
#
# Poissons Ratio (x) = 0.46428 0.34386
# Poissons Ratio (y) = 0.32499 0.20712
# Poissons Ratio (z) = 0.33854 0.29132
#
# Static dielectric constant tensor:
#      x y z
#    x 3.374270 0.000000 0.000000 
#    y 0.000000 3.500630 0.000000 
#    z 0.000000 0.000000 3.057190 
# 
# 
# High freq. dielectric constant tensor:
#      x y z
#    x 1.685900 0.000000 0.000000 
#    y 0.000000 1.689250 0.000000 
#    z 0.000000 0.000000 1.663940 
# 
# From -- ./inp_files/21479.got.cif
#   From: 2010.06.25/outbox.cif.g09.slc.cpg/sg58_11_cif.got.tgz:21479.got - 2010.06.26 21:38:00.
