data_PCOD8237477
_publ_section_title
;
Structure prediction by ZEFSAII (Michael W. Deem and Ramdas Pophale) SiO2 
 PCOD8237477
Probable space group: P N N M
;
_chemical_formula_sum "Si O2"
_cell_formula_units_Z 64
_cell_length_a 23.838633
_cell_length_b 14.158250
_cell_length_c 9.060800
_cell_angle_alpha 90.000000
_cell_angle_beta 90.000000
_cell_angle_gamma 90.000000
_cell_volume 3058.140741
_symmetry_space_group_name_H-M "P N N M"
_symmetry_group_IT_number 58
_symmetry_cell_setting 'orthorhombic'
loop_
_space_group_symop_operation_xyz
x,y,z
-x,-y,z
1/2+x,1/2-y,1/2-z
1/2-x,1/2+y,1/2-z
-x,-y,-z
x,y,-z
1/2-x,1/2+y,1/2+z
1/2+x,1/2-y,1/2+z
loop_
_atom_site_type_symbol
_atom_site_label
_atom_site_fract_x
_atom_site_fract_y
_atom_site_fract_z
Si Si1 0.652621 0.236450 0.659851
Si Si2 0.338609 0.082416 0.329127
Si Si3 0.953120 0.925093 0.661056
Si Si4 0.457744 0.083800 0.825253
Si Si5 0.734871 0.734002 0.673580
Si Si6 0.353722 0.548278 0.659202
Si Si7 0.736949 0.543317 0.170019
Si Si8 0.030565 0.263776 0.826251
O O1 0.674895 0.194400 0.500000
O O2 0.699195 0.236415 0.785833
O O3 0.634581 0.342763 0.630038
O O4 0.592753 0.189784 0.706206
O O5 0.354708 0.095696 0.500000
O O6 0.394643 0.069122 0.234886
O O7 0.301198 0.173921 0.277982
O O8 0.302642 0.984803 0.308171
O O9 0.933333 0.885864 0.500000
O O10 0.904000 0.986840 0.737717
O O11 0.975184 0.840867 0.762431
O O12 0.000000 0.000000 0.633832
O O13 0.482390 0.177788 0.754444
O O14 0.500000 0.000000 0.779330
O O15 0.453751 0.094523 0.000000
O O16 0.729929 0.718074 0.500000
O O17 0.714552 0.641511 0.761469
O O18 0.352881 0.495408 0.500000
O O19 0.295218 0.538623 0.743670
O O20 0.719984 0.540389 0.000000
O O21 0.018216 0.262783 0.000000
#
# Coordination Sequence:
#
# PCOD8237477 Si02
#       8
#     8   8   8   8   8   8   8   8
#     4   9  19  36  59  88 118 152 198 249 309 371
#     4  10  24  45  66  92 129 172 215 262 319 383
#     4  10  21  37  60  90 124 164 207 256 314 375
#     4  11  26  45  66  95 127 168 219 271 327 382
#     4  11  23  39  62  93 125 162 206 256 315 376
#     4  10  20  36  59  87 120 159 202 250 308 370
#     4  11  23  40  62  92 126 166 212 258 317 385
#     4  10  22  40  63  90 121 162 209 261 315 378
#
# _framework density 20.927748999999999
#
# number of rings (size 3 to 8) (size 9 to 14) (size 15 to 20)
#    0.000    1.750    1.250    3.000    1.750    7.500 
#    0.000    0.000    0.000    0.000    0.000    0.000 
#    0.000    0.000    0.000    0.000    0.000    0.000 
#
# Total GULP energy -793006.428256 kJ/mol
# GULP energy per Si atom -12390.725441 kJ/mol
# Density = 2.088012 g / cm^3
# Si number density = 20.927749 Si / 1000 Ang^3
#
#
#
# Elastic Constant Matrix: (Units=GPa)
#
#
# Indices 1 2 3 4 5 6 
#
# 1 105.2016 21.9032 62.4320 0.0000 0.0000 0.0000
# 2 21.9032 60.6460 34.6468 0.0000 0.0000 0.0000
# 3 62.4320 34.6468 131.9098 0.0000 0.0000 0.0000
# 4 0.0000 0.0000 0.0000 2.6778 0.0000 0.0000
# 5 0.0000 0.0000 0.0000 0.0000 37.0330 0.0000
# 6 0.0000 0.0000 0.0000 0.0000 0.0000 30.1071
#
#
#
# Elastic Compliance Matrix: (Units=1/GPa)
#
#
# Indices 1 2 3 4 5 6 
#
# 1 0.013322 -0.001423 -0.005931 0.000000 0.000000 0.000000
# 2 -0.001423 0.019552 -0.004462 0.000000 0.000000 0.000000
# 3 -0.005931 -0.004462 0.011560 0.000000 0.000000 0.000000
# 4 0.000000 0.000000 0.000000 0.373447 0.000000 0.000000
# 5 0.000000 0.000000 0.000000 0.000000 0.027003 0.000000
# 6 0.000000 0.000000 0.000000 0.000000 0.000000 0.033215
#
#
# Mechanical properties :
#
#
# Convention : Reuss Voigt Hill
#
# Bulk Modulus (GPa) = 48.07316 59.52461 53.79888
# Shear Modulus (GPa) = 9.82965 25.88193 17.85579
#
# Velocity S-wave (km/s) = 2.16960 3.52053 2.92415
# Velocity P-wave (km/s) = 5.41268 6.71045 6.09620
#
# Compressibility (1/GPa) = 0.02080163
#
# Stress axis : x y z
#
# Youngs Moduli (GPa) = 75.06506 51.14523 86.50351
#
# Poissons Ratio (x) = 0.07277 0.51309
# Poissons Ratio (y) = 0.10680 0.38599
# Poissons Ratio (z) = 0.44524 0.22822
#
# Static dielectric constant tensor:
#      x y z
#    x 3.877650 0.000000 0.000000 
#    y 0.000000 3.734570 0.000000 
#    z 0.000000 0.000000 4.125840 
# 
# 
# High freq. dielectric constant tensor:
#      x y z
#    x 1.820820 0.000000 0.000000 
#    y 0.000000 1.809280 0.000000 
#    z 0.000000 0.000000 1.831290 
# 
# From -- ./inp_files/10035.got.cif
#   From: 2010.06.25/outbox.cif.g09.slc.cpg/sg58_6_cif.got.tgz:10035.got - 2010.06.26 21:38:00.
