data_PCOD8237718
_publ_section_title
;
Structure prediction by ZEFSAII (Michael W. Deem and Ramdas Pophale) SiO2 
 PCOD8237718
Probable space group: P N N M
;
_chemical_formula_sum "Si O2"
_cell_formula_units_Z 32
_cell_length_a 11.838528
_cell_length_b 4.885864
_cell_length_c 25.323675
_cell_angle_alpha 90.000000
_cell_angle_beta 90.000000
_cell_angle_gamma 90.000000
_cell_volume 1464.757772
_symmetry_space_group_name_H-M "P N N M"
_symmetry_group_IT_number 58
_symmetry_cell_setting 'orthorhombic'
loop_
_space_group_symop_operation_xyz
x,y,z
-x,-y,z
1/2+x,1/2-y,1/2-z
1/2-x,1/2+y,1/2-z
-x,-y,-z
x,y,-z
1/2-x,1/2+y,1/2+z
1/2+x,1/2-y,1/2+z
loop_
_atom_site_type_symbol
_atom_site_label
_atom_site_fract_x
_atom_site_fract_y
_atom_site_fract_z
Si Si1 0.500000 0.000000 0.615466
Si Si2 0.254694 0.926386 0.399539
Si Si3 0.125442 0.435163 0.560172
Si Si4 0.283927 0.777971 0.720773
Si Si5 0.000000 0.000000 0.811784
O O1 0.386832 0.938087 0.581750
O O2 0.541857 0.747541 0.651237
O O3 0.196538 0.712619 0.438324
O O4 0.246654 0.823244 0.339384
O O5 0.188373 0.211626 0.403994
O O6 0.118477 0.329020 0.500000
O O7 0.000000 0.500000 0.582213
O O8 0.198153 0.570177 0.750349
O O9 0.401072 0.612326 0.725237
#
# Coordination Sequence:
#
# PCOD8237718 Si02
#       5
#     4   8   8   8   4
#     4  10  20  38  67  90 120 170 202 254 323 382
#     4  11  22  42  67  94 126 168 220 260 321 389
#     4  11  24  44  68  94 130 174 212 263 333 384
#     4  11  22  39  62  92 127 169 210 262 317 374
#     4  10  20  38  60  84 123 174 205 238 322 388
#
# _framework density 21.846616000000001
#
# number of rings (size 3 to 8) (size 9 to 14) (size 15 to 20)
#    0.000    1.250    0.000    9.000    0.000    2.000 
#    9.000    3.750    2.750    0.000    0.000    0.000 
#    0.000    0.000    0.000    0.000    0.000    0.000 
#
# Total GULP energy -396773.449232 kJ/mol
# GULP energy per Si atom -12399.170288 kJ/mol
# Density = 2.179689 g / cm^3
# Si number density = 21.846616 Si / 1000 Ang^3
#
#
#
# Elastic Constant Matrix: (Units=GPa)
#
#
# Indices 1 2 3 4 5 6 
#
# 1 167.1485 52.5098 38.0072 0.0000 0.0000 0.0000
# 2 52.5098 122.7444 18.4500 0.0000 0.0000 0.0000
# 3 38.0072 18.4500 61.9855 0.0000 0.0000 0.0000
# 4 0.0000 0.0000 0.0000 36.2152 0.0000 0.0000
# 5 0.0000 0.0000 0.0000 0.0000 20.2136 0.0000
# 6 0.0000 0.0000 0.0000 0.0000 0.0000 44.2680
#
#
#
# Elastic Compliance Matrix: (Units=1/GPa)
#
#
# Indices 1 2 3 4 5 6 
#
# 1 0.007730 -0.002716 -0.003931 0.000000 0.000000 0.000000
# 2 -0.002716 0.009483 -0.001157 0.000000 0.000000 0.000000
# 3 -0.003931 -0.001157 0.018888 0.000000 0.000000 0.000000
# 4 0.000000 0.000000 0.000000 0.027613 0.000000 0.000000
# 5 0.000000 0.000000 0.000000 0.000000 0.049472 0.000000
# 6 0.000000 0.000000 0.000000 0.000000 0.000000 0.022590
#
#
# Mechanical properties :
#
#
# Convention : Reuss Voigt Hill
#
# Bulk Modulus (GPa) = 48.80055 63.31248 56.05651
# Shear Modulus (GPa) = 31.60281 36.33346 33.96814
#
# Velocity S-wave (km/s) = 3.80752 4.08256 3.94743
# Velocity P-wave (km/s) = 6.45878 7.16005 6.81844
#
# Compressibility (1/GPa) = 0.02049157
#
# Stress axis : x y z
#
# Youngs Moduli (GPa) = 129.36932 105.45397 52.94427
#
# Poissons Ratio (x) = 0.28640 0.20814
# Poissons Ratio (y) = 0.35135 0.06127
# Poissons Ratio (z) = 0.50858 0.12204
#
# Static dielectric constant tensor:
#      x y z
#    x 4.097880 0.000000 0.000000 
#    y 0.000000 4.156670 0.000000 
#    z 0.000000 0.000000 3.509620 
# 
# 
# High freq. dielectric constant tensor:
#      x y z
#    x 1.865820 0.000000 0.000000 
#    y 0.000000 1.887820 0.000000 
#    z 0.000000 0.000000 1.825480 
# 
# From -- ./inp_files/31754.got.cif
#   From: 2010.06.25/outbox.cif.g09.slc.cpg/sg58_16_cif.got.tgz:31754.got - 2010.06.26 21:38:00.
