data_PCOD8237446
_publ_section_title
;
Structure prediction by ZEFSAII (Michael W. Deem and Ramdas Pophale) SiO2 
 PCOD8237446
Probable space group: P N N M
;
_chemical_formula_sum "Si O2"
_cell_formula_units_Z 48
_cell_length_a 12.266314
_cell_length_b 21.675703
_cell_length_c 9.429711
_cell_angle_alpha 90.000000
_cell_angle_beta 90.000000
_cell_angle_gamma 90.000000
_cell_volume 2507.180794
_symmetry_space_group_name_H-M "P N N M"
_symmetry_group_IT_number 58
_symmetry_cell_setting 'orthorhombic'
loop_
_space_group_symop_operation_xyz
x,y,z
-x,-y,z
1/2+x,1/2-y,1/2-z
1/2-x,1/2+y,1/2-z
-x,-y,-z
x,y,-z
1/2-x,1/2+y,1/2+z
1/2+x,1/2-y,1/2+z
loop_
_atom_site_type_symbol
_atom_site_label
_atom_site_fract_x
_atom_site_fract_y
_atom_site_fract_z
Si Si1 0.368601 0.179277 0.336837
Si Si2 0.373761 0.511008 0.335439
Si Si3 0.863619 0.868797 0.337563
Si Si4 0.258551 0.406347 0.162523
Si Si5 0.987631 0.568386 0.164938
Si Si6 0.419745 0.298835 0.836069
O O1 0.403653 0.187905 0.500000
O O2 0.238174 0.177259 0.321403
O O3 0.423108 0.116480 0.274280
O O4 0.414032 0.236829 0.251947
O O5 0.500000 0.500000 0.308296
O O6 0.344364 0.515788 0.500000
O O7 0.337275 0.573199 0.259723
O O8 0.308401 0.455056 0.269077
O O9 0.876949 0.891171 0.500000
O O10 0.973025 0.835459 0.284639
O O11 0.130471 0.402133 0.193851
O O12 0.312566 0.339981 0.192291
O O13 0.281258 0.426931 0.000000
O O14 0.000000 0.500000 0.235951
O O15 0.011907 0.560167 0.000000
O O16 0.430669 0.280880 0.000000
#
# Coordination Sequence:
#
# PCOD8237446 Si02
#       6
#     8   8   8   8   8   8
#     4  10  22  38  60  85 111 149 194 236 280 333
#     4  11  22  35  55  87 118 145 183 236 290 332
#     4  10  21  39  60  82 111 151 193 230 277 339
#     4  10  20  36  59  82 112 153 190 230 283 343
#     4   9  18  35  59  86 111 142 190 238 280 336
#     4  10  22  37  55  83 115 150 191 232 282 338
#
# _framework density 19.145009000000002
#
# number of rings (size 3 to 8) (size 9 to 14) (size 15 to 20)
#    0.000    2.000    1.667    1.500    2.333    5.333 
#    0.000    0.833    0.000    2.000    0.000    0.000 
#    0.000    0.000    0.000    0.000    0.000    0.000 
#
# Total GULP energy -595296.850691 kJ/mol
# GULP energy per Si atom -12402.017723 kJ/mol
# Density = 1.910143 g / cm^3
# Si number density = 19.145009 Si / 1000 Ang^3
#
#
#
# Elastic Constant Matrix: (Units=GPa)
#
#
# Indices 1 2 3 4 5 6 
#
# 1 101.4581 41.3678 21.4621 0.0000 0.0000 0.0000
# 2 41.3678 125.0071 40.4236 0.0000 0.0000 0.0000
# 3 21.4621 40.4236 54.1434 0.0000 0.0000 0.0000
# 4 0.0000 0.0000 0.0000 39.6711 0.0000 0.0000
# 5 0.0000 0.0000 0.0000 0.0000 15.7233 0.0000
# 6 0.0000 0.0000 0.0000 0.0000 0.0000 26.1326
#
#
#
# Elastic Compliance Matrix: (Units=1/GPa)
#
#
# Indices 1 2 3 4 5 6 
#
# 1 0.011604 -0.003101 -0.002284 0.000000 0.000000 0.000000
# 2 -0.003101 0.011374 -0.007263 0.000000 0.000000 0.000000
# 3 -0.002284 -0.007263 0.024797 0.000000 0.000000 0.000000
# 4 0.000000 0.000000 0.000000 0.025207 0.000000 0.000000
# 5 0.000000 0.000000 0.000000 0.000000 0.063600 0.000000
# 6 0.000000 0.000000 0.000000 0.000000 0.000000 0.038266
#
#
# Mechanical properties :
#
#
# Convention : Reuss Voigt Hill
#
# Bulk Modulus (GPa) = 44.48613 54.12397 49.30505
# Shear Modulus (GPa) = 24.08020 28.12906 26.10463
#
# Velocity S-wave (km/s) = 3.55037 3.83726 3.69659
# Velocity P-wave (km/s) = 6.33195 6.92565 6.63545
#
# Compressibility (1/GPa) = 0.02247892
#
# Stress axis : x y z
#
# Youngs Moduli (GPa) = 86.17695 87.91623 40.32685
#
# Poissons Ratio (x) = 0.27266 0.09212
# Poissons Ratio (y) = 0.26727 0.29289
# Poissons Ratio (z) = 0.19685 0.63852
#
# Static dielectric constant tensor:
#      x y z
#    x 3.340370 0.000000 0.000000 
#    y 0.000000 3.524890 0.000000 
#    z 0.000000 0.000000 3.297840 
# 
# 
# High freq. dielectric constant tensor:
#      x y z
#    x 1.758110 0.000000 0.000000 
#    y 0.000000 1.745930 0.000000 
#    z 0.000000 0.000000 1.718730 
# 
# From -- ./inp_files/4198.got.cif
#   From: 2010.06.25/outbox.cif.g09.slc.cpg/sg58_3_cif.got.tgz:4198.got - 2010.06.26 21:38:00.
