data_PCOD8237173
_publ_section_title
;
Structure prediction by ZEFSAII (Michael W. Deem and Ramdas Pophale) SiO2 
 PCOD8237173
Probable space group: P N N M
;
_chemical_formula_sum "Si O2"
_cell_formula_units_Z 28
_cell_length_a 4.940268
_cell_length_b 9.775289
_cell_length_c 28.208898
_cell_angle_alpha 90.000000
_cell_angle_beta 90.000000
_cell_angle_gamma 90.000000
_cell_volume 1362.279545
_symmetry_space_group_name_H-M "P N N M"
_symmetry_group_IT_number 58
_symmetry_cell_setting 'orthorhombic'
loop_
_space_group_symop_operation_xyz
x,y,z
-x,-y,z
1/2+x,1/2-y,1/2-z
1/2-x,1/2+y,1/2-z
-x,-y,-z
x,y,-z
1/2-x,1/2+y,1/2+z
1/2+x,1/2-y,1/2+z
loop_
_atom_site_type_symbol
_atom_site_label
_atom_site_fract_x
_atom_site_fract_y
_atom_site_fract_z
Si Si1 0.500000 0.500000 0.267947
Si Si2 0.096037 0.347243 0.598926
Si Si3 0.409941 0.722780 0.342546
Si Si4 0.000000 0.500000 0.203429
Si Si5 0.240582 0.398181 0.500000
O O1 0.368737 0.627349 0.296489
O O2 0.255785 0.453286 0.234518
O O3 0.361075 0.357332 0.629888
O O4 0.200078 0.299469 0.546390
O O5 0.000000 0.500000 0.593958
O O6 0.860477 0.258520 0.624930
O O7 0.541335 0.869178 0.330114
O O8 0.500000 0.500000 0.500000
O O9 0.000000 0.500000 0.500000
#
# Coordination Sequence:
#
# PCOD8237173 Si02
#       5
#     4   8   8   4   4
#     4  12  22  42  60  85 118 155 214 250 294 346
#     4  11  20  38  61  91 119 153 196 247 302 354
#     4  12  23  39  63  85 123 156 200 248 299 359
#     4  12  26  40  58  89 118 163 202 248 302 354
#     4  10  20  34  60  95 124 149 196 255 302 353
#
# _framework density 20.553784
#
# number of rings (size 3 to 8) (size 9 to 14) (size 15 to 20)
#    0.000    0.571    2.857    8.571    0.000    0.000 
#    0.000    0.000    0.000    5.143    0.000    0.000 
#    0.000    0.000    0.000    0.000    0.000    0.000 
#
# Total GULP energy -346885.498191 kJ/mol
# GULP energy per Si atom -12388.767793 kJ/mol
# Density = 2.050700 g / cm^3
# Si number density = 20.553784 Si / 1000 Ang^3
#
#
#
# Elastic Constant Matrix: (Units=GPa)
#
#
# Indices 1 2 3 4 5 6 
#
# 1 131.6075 -4.4273 43.7736 0.0000 0.0000 0.0000
# 2 -4.4273 72.3701 27.1038 0.0000 0.0000 0.0000
# 3 43.7736 27.1038 113.6138 0.0000 0.0000 0.0000
# 4 0.0000 0.0000 0.0000 51.9129 0.0000 0.0000
# 5 0.0000 0.0000 0.0000 0.0000 22.9421 0.0000
# 6 0.0000 0.0000 0.0000 0.0000 0.0000 22.1179
#
#
#
# Elastic Compliance Matrix: (Units=1/GPa)
#
#
# Indices 1 2 3 4 5 6 
#
# 1 0.008978 0.002026 -0.003942 0.000000 0.000000 0.000000
# 2 0.002026 0.015631 -0.004509 0.000000 0.000000 0.000000
# 3 -0.003942 -0.004509 0.011396 0.000000 0.000000 0.000000
# 4 0.000000 0.000000 0.000000 0.019263 0.000000 0.000000
# 5 0.000000 0.000000 0.000000 0.000000 0.043588 0.000000
# 6 0.000000 0.000000 0.000000 0.000000 0.000000 0.045212
#
#
# Mechanical properties :
#
#
# Convention : Reuss Voigt Hill
#
# Bulk Modulus (GPa) = 43.19109 50.05463 46.62286
# Shear Modulus (GPa) = 30.36980 36.13734 33.25357
#
# Velocity S-wave (km/s) = 3.84810 4.19762 4.02665
# Velocity P-wave (km/s) = 6.38773 6.92093 6.65967
#
# Compressibility (1/GPa) = 0.02315292
#
# Stress axis : x y z
#
# Youngs Moduli (GPa) = 111.38711 63.97715 87.74733
#
# Poissons Ratio (x) = -0.12959 0.34592
# Poissons Ratio (y) = -0.22563 0.39568
# Poissons Ratio (z) = 0.43911 0.28849
#
# Static dielectric constant tensor:
#      x y z
#    x 3.819900 0.000000 0.000000 
#    y 0.000000 4.479640 0.000000 
#    z 0.000000 0.000000 7.697210 
# 
# 
# High freq. dielectric constant tensor:
#      x y z
#    x 1.823860 0.000000 0.000000 
#    y 0.000000 1.756870 0.000000 
#    z 0.000000 0.000000 1.821400 
# 
# From -- ./inp_files/30752.got.cif
#   From: 2010.06.25/outbox.cif.g09.slc.cpg/sg58_16_cif.got.tgz:30752.got - 2010.06.26 21:38:00.
