data_PCOD8237855
_publ_section_title
;
Structure prediction by ZEFSAII (Michael W. Deem and Ramdas Pophale) SiO2 
 PCOD8237855
Probable space group: P N N M
;
_chemical_formula_sum "Si O2"
_cell_formula_units_Z 48
_cell_length_a 9.420868
_cell_length_b 23.421275
_cell_length_c 10.964156
_cell_angle_alpha 90.000000
_cell_angle_beta 90.000000
_cell_angle_gamma 90.000000
_cell_volume 2419.227208
_symmetry_space_group_name_H-M "P N N M"
_symmetry_group_IT_number 58
_symmetry_cell_setting 'orthorhombic'
loop_
_space_group_symop_operation_xyz
x,y,z
-x,-y,z
1/2+x,1/2-y,1/2-z
1/2-x,1/2+y,1/2-z
-x,-y,-z
x,y,-z
1/2-x,1/2+y,1/2+z
1/2+x,1/2-y,1/2+z
loop_
_atom_site_type_symbol
_atom_site_label
_atom_site_fract_x
_atom_site_fract_y
_atom_site_fract_z
Si Si1 0.425224 0.557018 0.641872
Si Si2 0.411479 0.833786 0.856984
Si Si3 0.591742 0.296887 0.139820
Si Si4 0.858266 0.123110 0.282017
Si Si5 0.679846 0.883430 0.265300
Si Si6 0.611890 0.949285 0.500000
Si Si7 0.858235 0.034711 0.500000
O O1 0.500000 0.500000 0.691039
O O2 0.393332 0.554460 0.500000
O O3 0.535828 0.606904 0.672148
O O4 0.274138 0.565543 0.708196
O O5 0.414201 0.768083 0.815154
O O6 0.293473 0.864086 0.775105
O O7 0.562710 0.862670 0.830725
O O8 0.377058 0.840663 0.000000
O O9 0.433371 0.322355 0.156064
O O10 0.715282 0.330577 0.209781
O O11 0.635504 0.300524 0.000000
O O12 0.838839 0.073249 0.380647
O O13 0.598609 0.907803 0.383372
O O14 0.500000 0.000000 0.500000
O O15 0.760065 0.980001 0.500000
O O16 0.000000 0.000000 0.500000
#
# Coordination Sequence:
#
# PCOD8237855 Si02
#       7
#     8   8   8   8   8   4   4
#     4  10  21  37  60  86 117 159 207 248 298 369
#     4  11  24  39  60  87 124 166 205 251 311 367
#     4  10  20  40  62  89 118 159 207 259 308 368
#     4  11  21  38  62  89 123 153 205 259 307 366
#     4  11  22  40  62  87 125 161 204 258 310 372
#     4  12  24  38  60  90 126 156 198 248 319 370
#     4  12  22  38  66  94 116 156 204 262 312 360
#
# _framework density 19.841047
#
# number of rings (size 3 to 8) (size 9 to 14) (size 15 to 20)
#    0.000    1.167    1.667    6.500    0.000    0.000 
#    0.000    0.000    7.333    5.000    0.000    0.000 
#    0.000    0.000    0.000    0.000    0.000    0.000 
#
# Total GULP energy -595180.032135 kJ/mol
# GULP energy per Si atom -12399.584003 kJ/mol
# Density = 1.979589 g / cm^3
# Si number density = 19.841047 Si / 1000 Ang^3
#
#
#
# Elastic Constant Matrix: (Units=GPa)
#
#
# Indices 1 2 3 4 5 6 
#
# 1 112.1317 38.9625 30.6762 0.0000 0.0000 0.0000
# 2 38.9625 103.3019 42.4654 0.0000 0.0000 0.0000
# 3 30.6762 42.4654 85.9996 0.0000 0.0000 0.0000
# 4 0.0000 0.0000 0.0000 33.4069 0.0000 0.0000
# 5 0.0000 0.0000 0.0000 0.0000 30.2046 0.0000
# 6 0.0000 0.0000 0.0000 0.0000 0.0000 36.1691
#
#
#
# Elastic Compliance Matrix: (Units=1/GPa)
#
#
# Indices 1 2 3 4 5 6 
#
# 1 0.010604 -0.003067 -0.002268 0.000000 0.000000 0.000000
# 2 -0.003067 0.013033 -0.005341 0.000000 0.000000 0.000000
# 3 -0.002268 -0.005341 0.015074 0.000000 0.000000 0.000000
# 4 0.000000 0.000000 0.000000 0.029934 0.000000 0.000000
# 5 0.000000 0.000000 0.000000 0.000000 0.033108 0.000000
# 6 0.000000 0.000000 0.000000 0.000000 0.000000 0.027648
#
#
# Mechanical properties :
#
#
# Convention : Reuss Voigt Hill
#
# Bulk Modulus (GPa) = 57.60898 58.40459 58.00679
# Shear Modulus (GPa) = 31.94056 32.57806 32.25931
#
# Velocity S-wave (km/s) = 4.01661 4.05650 4.03660
# Velocity P-wave (km/s) = 7.11401 7.17219 7.14316
#
# Compressibility (1/GPa) = 0.01735840
#
# Stress axis : x y z
#
# Youngs Moduli (GPa) = 94.30092 76.72823 66.33741
#
# Poissons Ratio (x) = 0.23535 0.15045
# Poissons Ratio (y) = 0.28925 0.35433
# Poissons Ratio (z) = 0.21387 0.40984
#
# Static dielectric constant tensor:
#      x y z
#    x 3.540970 0.000000 0.000000 
#    y 0.000000 3.771560 0.000000 
#    z 0.000000 0.000000 3.584710 
# 
# 
# High freq. dielectric constant tensor:
#      x y z
#    x 1.777860 0.000000 0.000000 
#    y 0.000000 1.780100 0.000000 
#    z 0.000000 0.000000 1.778790 
# 
# From -- ./inp_files/13105.got.cif
#   From: 2010.06.25/outbox.cif.g09.slc.cpg/sg58_7_cif.got.tgz:13105.got - 2010.06.26 21:38:00.
