data_PCOD8237202
_publ_section_title
;
Structure prediction by ZEFSAII (Michael W. Deem and Ramdas Pophale) SiO2 
 PCOD8237202
Probable space group: P N N M
;
_chemical_formula_sum "Si O2"
_cell_formula_units_Z 64
_cell_length_a 18.195253
_cell_length_b 20.772898
_cell_length_c 8.988122
_cell_angle_alpha 90.000000
_cell_angle_beta 90.000000
_cell_angle_gamma 90.000000
_cell_volume 3397.223706
_symmetry_space_group_name_H-M "P N N M"
_symmetry_group_IT_number 58
_symmetry_cell_setting 'orthorhombic'
loop_
_space_group_symop_operation_xyz
x,y,z
-x,-y,z
1/2+x,1/2-y,1/2-z
1/2-x,1/2+y,1/2-z
-x,-y,-z
x,y,-z
1/2-x,1/2+y,1/2+z
1/2+x,1/2-y,1/2+z
loop_
_atom_site_type_symbol
_atom_site_label
_atom_site_fract_x
_atom_site_fract_y
_atom_site_fract_z
Si Si1 0.912660 0.748944 0.167777
Si Si2 0.090585 0.378846 0.671363
Si Si3 0.583336 0.882290 0.828742
Si Si4 0.582332 0.377114 0.825841
Si Si5 0.587380 0.754392 0.332468
Si Si6 0.411553 0.373926 0.825895
Si Si7 0.670118 0.500183 0.176267
Si Si8 0.337757 0.999630 0.323577
O O1 0.882263 0.689329 0.263513
O O2 0.885150 0.815024 0.241767
O O3 0.000057 0.747637 0.169575
O O4 0.882162 0.744163 0.000000
O O5 0.114336 0.383467 0.500000
O O6 0.129943 0.433370 0.765185
O O7 0.003761 0.386953 0.689531
O O8 0.614827 0.816374 0.759123
O O9 0.617282 0.941644 0.742385
O O10 0.607048 0.885046 0.000000
O O11 0.496693 0.387512 0.791381
O O12 0.625356 0.438919 0.762374
O O13 0.596116 0.366546 0.000000
O O14 0.617938 0.759200 0.500000
O O15 0.618034 0.689684 0.256757
O O16 0.365720 0.434148 0.761851
O O17 0.398514 0.363016 0.000000
O O18 0.753735 0.494946 0.229689
O O19 0.663241 0.501237 0.000000
O O20 0.344837 0.001165 0.500000
#
# Coordination Sequence:
#
# PCOD8237202 Si02
#       8
#     8   8   8   8   8   8   8   8
#     4   9  17  30  50  78 107 130 159 205 257 302
#     4  10  20  35  55  77 100 129 168 210 250 298
#     4  10  20  35  55  77 100 129 168 210 250 298
#     4   9  16  30  54  79 102 132 170 208 246 292
#     4   9  17  30  50  78 107 130 159 205 257 302
#     4   9  16  30  54  79 102 132 170 208 246 292
#     4   9  19  34  51  74 104 137 172 208 246 293
#     4  11  22  35  51  73 104 137 168 206 252 299
#
# _framework density 18.838913000000002
#
# number of rings (size 3 to 8) (size 9 to 14) (size 15 to 20)
#    0.000    2.500    0.000    2.625    0.000    7.500 
#    0.000    4.375    0.000    3.000    0.000    0.000 
#    0.000    0.000    0.000    0.000    0.000    0.000 
#
# Total GULP energy -793680.699437 kJ/mol
# GULP energy per Si atom -12401.260929 kJ/mol
# Density = 1.879603 g / cm^3
# Si number density = 18.838913 Si / 1000 Ang^3
#
#
#
# Elastic Constant Matrix: (Units=GPa)
#
#
# Indices 1 2 3 4 5 6 
#
# 1 27.0449 12.2339 23.6316 0.0000 0.0000 0.0000
# 2 12.2339 113.5700 40.9460 0.0000 0.0000 0.0000
# 3 23.6316 40.9460 92.6113 0.0000 0.0000 0.0000
# 4 0.0000 0.0000 0.0000 24.2893 0.0000 0.0000
# 5 0.0000 0.0000 0.0000 0.0000 14.2474 0.0000
# 6 0.0000 0.0000 0.0000 0.0000 0.0000 246.1408
#
#
#
# Elastic Compliance Matrix: (Units=1/GPa)
#
#
# Indices 1 2 3 4 5 6 
#
# 1 0.047661 -0.000892 -0.011768 0.000000 0.000000 0.000000
# 2 -0.000892 0.010492 -0.004411 0.000000 0.000000 0.000000
# 3 -0.011768 -0.004411 0.015751 0.000000 0.000000 0.000000
# 4 0.000000 0.000000 0.000000 0.041170 0.000000 0.000000
# 5 0.000000 0.000000 0.000000 0.000000 0.070188 0.000000
# 6 0.000000 0.000000 0.000000 0.000000 0.000000 0.004063
#
#
# Mechanical properties :
#
#
# Convention : Reuss Voigt Hill
#
# Bulk Modulus (GPa) = 25.14888 42.98326 34.06607
# Shear Modulus (GPa) = 21.12205 67.36315 44.24260
#
# Velocity S-wave (km/s) = 3.35205 5.98624 4.85136
# Velocity P-wave (km/s) = 5.32542 8.40511 7.03584
#
# Compressibility (1/GPa) = 0.03976319
#
# Stress axis : x y z
#
# Youngs Moduli (GPa) = 20.98146 95.31490 63.48886
#
# Poissons Ratio (x) = 0.08498 0.74711
# Poissons Ratio (y) = 0.01871 0.28006
# Poissons Ratio (z) = 0.24690 0.42044
#
# Static dielectric constant tensor:
#      x y z
#    x 3.195150 0.000000 0.000000 
#    y 0.000000 3.757200 0.000000 
#    z 0.000000 0.000000 3.458100 
# 
# 
# High freq. dielectric constant tensor:
#      x y z
#    x 1.695440 0.000000 0.000000 
#    y 0.000000 1.752620 0.000000 
#    z 0.000000 0.000000 1.727200 
# 
# From -- ./inp_files/8289.got.cif
#   From: 2010.06.25/outbox.cif.g09.slc.cpg/sg58_5_cif.got.tgz:8289.got - 2010.06.26 21:38:00.
