data_PCOD8237838
_publ_section_title
;
Structure prediction by ZEFSAII (Michael W. Deem and Ramdas Pophale) SiO2 
 PCOD8237838
Probable space group: P N N M
;
_chemical_formula_sum "Si O2"
_cell_formula_units_Z 64
_cell_length_a 16.740190
_cell_length_b 21.281001
_cell_length_c 9.125948
_cell_angle_alpha 90.000000
_cell_angle_beta 90.000000
_cell_angle_gamma 90.000000
_cell_volume 3251.100724
_symmetry_space_group_name_H-M "P N N M"
_symmetry_group_IT_number 58
_symmetry_cell_setting 'orthorhombic'
loop_
_space_group_symop_operation_xyz
x,y,z
-x,-y,z
1/2+x,1/2-y,1/2-z
1/2-x,1/2+y,1/2-z
-x,-y,-z
x,y,-z
1/2-x,1/2+y,1/2+z
1/2+x,1/2-y,1/2+z
loop_
_atom_site_type_symbol
_atom_site_label
_atom_site_fract_x
_atom_site_fract_y
_atom_site_fract_z
Si Si1 0.789859 0.834419 0.335156
Si Si2 0.918621 0.764868 0.171327
Si Si3 0.041999 0.376958 0.170088
Si Si4 0.897452 0.955082 0.662831
Si Si5 0.660960 0.571433 0.329180
Si Si6 0.638001 0.905201 0.329519
Si Si7 0.836734 0.534257 0.327755
Si Si8 0.966651 0.140337 0.331099
O O1 0.799234 0.807651 0.500000
O O2 0.830336 0.785048 0.224925
O O3 0.832173 0.901230 0.321773
O O4 0.697107 0.846471 0.295276
O O5 0.928034 0.692142 0.209876
O O6 0.987687 0.802935 0.253262
O O7 0.926996 0.778376 0.000000
O O8 0.089816 0.427546 0.262780
O O9 0.949722 0.382587 0.214833
O O10 0.054927 0.392440 0.000000
O O11 0.892187 0.985685 0.500000
O O12 0.984842 0.924996 0.686502
O O13 0.880628 0.006116 0.786040
O O14 0.647510 0.582436 0.500000
O O15 0.754376 0.569717 0.287692
O O16 0.619758 0.629305 0.242885
O O17 0.643560 0.923791 0.500000
O O18 0.664972 0.964751 0.236628
O O19 0.848050 0.528614 0.500000
O O20 0.956004 0.158965 0.500000
#
# Coordination Sequence:
#
# PCOD8237838 Si02
#       8
#     8   8   8   8   8   8   8   8
#     4   9  18  34  59  87 115 152 195 237 287 349
#     4  10  21  39  60  84 119 153 193 243 289 341
#     4  10  23  42  63  86 115 156 199 240 292 350
#     4   9  17  31  52  80 112 147 188 232 282 345
#     4  11  22  34  51  81 118 152 188 234 292 345
#     4  10  20  39  65  89 114 151 197 241 290 353
#     4  11  24  39  58  89 123 153 190 244 300 346
#     4  10  21  36  56  82 112 152 197 236 284 347
#
# _framework density 19.685639999999999
#
# number of rings (size 3 to 8) (size 9 to 14) (size 15 to 20)
#    0.000    2.000    1.250    3.000    0.000    9.000 
#    2.250    0.000    0.000    0.000    0.000    0.000 
#    0.000    0.000    0.000    0.000    0.000    0.000 
#
# Total GULP energy -793742.779430 kJ/mol
# GULP energy per Si atom -12402.230929 kJ/mol
# Density = 1.964083 g / cm^3
# Si number density = 19.685640 Si / 1000 Ang^3
#
#
#
# Elastic Constant Matrix: (Units=GPa)
#
#
# Indices 1 2 3 4 5 6 
#
# 1 113.6429 28.5299 43.7509 0.0000 0.0000 0.0000
# 2 28.5299 52.6197 38.0410 0.0000 0.0000 0.0000
# 3 43.7509 38.0410 87.1565 0.0000 0.0000 0.0000
# 4 0.0000 0.0000 0.0000 23.7762 0.0000 0.0000
# 5 0.0000 0.0000 0.0000 0.0000 26.5789 0.0000
# 6 0.0000 0.0000 0.0000 0.0000 0.0000 13.8871
#
#
#
# Elastic Compliance Matrix: (Units=1/GPa)
#
#
# Indices 1 2 3 4 5 6 
#
# 1 0.011210 -0.002936 -0.004345 0.000000 0.000000 0.000000
# 2 -0.002936 0.028534 -0.010980 0.000000 0.000000 0.000000
# 3 -0.004345 -0.010980 0.018448 0.000000 0.000000 0.000000
# 4 0.000000 0.000000 0.000000 0.042059 0.000000 0.000000
# 5 0.000000 0.000000 0.000000 0.000000 0.037624 0.000000
# 6 0.000000 0.000000 0.000000 0.000000 0.000000 0.072009
#
#
# Mechanical properties :
#
#
# Convention : Reuss Voigt Hill
#
# Bulk Modulus (GPa) = 46.15230 52.67366 49.41298
# Shear Modulus (GPa) = 19.71373 22.38826 21.05100
#
# Velocity S-wave (km/s) = 3.16797 3.37603 3.27365
# Velocity P-wave (km/s) = 6.07263 6.48169 6.28049
#
# Compressibility (1/GPa) = 0.02166739
#
# Stress axis : x y z
#
# Youngs Moduli (GPa) = 89.20961 35.04530 54.20776
#
# Poissons Ratio (x) = 0.10290 0.23556
# Poissons Ratio (y) = 0.26194 0.59523
# Poissons Ratio (z) = 0.38765 0.38481
#
# Static dielectric constant tensor:
#      x y z
#    x 3.849750 0.000000 0.000000 
#    y 0.000000 3.343790 0.000000 
#    z 0.000000 0.000000 3.590620 
# 
# 
# High freq. dielectric constant tensor:
#      x y z
#    x 1.778890 0.000000 0.000000 
#    y 0.000000 1.747740 0.000000 
#    z 0.000000 0.000000 1.767730 
# 
# From -- ./inp_files/8340.got.cif
#   From: 2010.06.25/outbox.cif.g09.slc.cpg/sg58_5_cif.got.tgz:8340.got - 2010.06.26 21:38:00.
