data_PCOD8237900
_publ_section_title
;
Structure prediction by ZEFSAII (Michael W. Deem and Ramdas Pophale) SiO2 
 PCOD8237900
Probable space group: P N N M
;
_chemical_formula_sum "Si O2"
_cell_formula_units_Z 48
_cell_length_a 11.697461
_cell_length_b 8.503207
_cell_length_c 25.506961
_cell_angle_alpha 90.000000
_cell_angle_beta 90.000000
_cell_angle_gamma 90.000000
_cell_volume 2537.073655
_symmetry_space_group_name_H-M "P N N M"
_symmetry_group_IT_number 58
_symmetry_cell_setting 'orthorhombic'
loop_
_space_group_symop_operation_xyz
x,y,z
-x,-y,z
1/2+x,1/2-y,1/2-z
1/2-x,1/2+y,1/2-z
-x,-y,-z
x,y,-z
1/2-x,1/2+y,1/2+z
1/2+x,1/2-y,1/2+z
loop_
_atom_site_type_symbol
_atom_site_label
_atom_site_fract_x
_atom_site_fract_y
_atom_site_fract_z
Si Si1 0.804955 0.396190 0.869114
Si Si2 0.857248 0.330491 0.650237
Si Si3 0.885495 0.681904 0.322968
Si Si4 0.485755 0.681166 0.612687
Si Si5 0.650819 0.179932 0.299078
Si Si6 0.225900 0.322472 0.939544
O O1 0.693739 0.319580 0.843707
O O2 0.891914 0.264799 0.889266
O O3 0.863586 0.507560 0.825209
O O4 0.765974 0.498527 0.919090
O O5 0.841332 0.516917 0.654891
O O6 0.781140 0.240296 0.693872
O O7 0.816380 0.284235 0.592024
O O8 0.987291 0.278726 0.658243
O O9 0.885186 0.672796 0.260485
O O10 0.500000 0.500000 0.598355
O O11 0.431595 0.697992 0.670685
O O12 0.402732 0.759715 0.569663
O O13 0.259249 0.315830 0.000000
#
# Coordination Sequence:
#
# PCOD8237900 Si02
#       6
#     8   8   8   8   8   8
#     4  10  21  36  58  88 118 148 198 238 281 354
#     4   9  22  39  54  88 115 152 201 235 281 349
#     4  11  21  36  59  81 124 156 191 234 288 339
#     4  10  21  37  58  91 125 145 195 237 282 355
#     4  10  21  34  56  85 121 164 187 229 281 344
#     4  10  22  43  62  80 112 153 196 254 301 334
#
# _framework density 18.919436000000001
#
# number of rings (size 3 to 8) (size 9 to 14) (size 15 to 20)
#    0.000    2.333    0.000    5.000    7.000    4.333 
#    3.000    5.833    0.000    0.000    0.000    0.000 
#    0.000    0.000    0.000    0.000    0.000    0.000 
#
# Total GULP energy -595284.576621 kJ/mol
# GULP energy per Si atom -12401.762013 kJ/mol
# Density = 1.887637 g / cm^3
# Si number density = 18.919436 Si / 1000 Ang^3
#
#
#
# Elastic Constant Matrix: (Units=GPa)
#
#
# Indices 1 2 3 4 5 6 
#
# 1 52.9696 7.5802 29.8447 0.0000 0.0000 0.0000
# 2 7.5802 80.6559 26.0945 0.0000 0.0000 0.0000
# 3 29.8447 26.0945 141.7449 0.0000 0.0000 0.0000
# 4 0.0000 0.0000 0.0000 10.3086 0.0000 0.0000
# 5 0.0000 0.0000 0.0000 0.0000 14.2505 0.0000
# 6 0.0000 0.0000 0.0000 0.0000 0.0000 32.6743
#
#
#
# Elastic Compliance Matrix: (Units=1/GPa)
#
#
# Indices 1 2 3 4 5 6 
#
# 1 0.021446 -0.000590 -0.004407 0.000000 0.000000 0.000000
# 2 -0.000590 0.013200 -0.002306 0.000000 0.000000 0.000000
# 3 -0.004407 -0.002306 0.008407 0.000000 0.000000 0.000000
# 4 0.000000 0.000000 0.000000 0.097006 0.000000 0.000000
# 5 0.000000 0.000000 0.000000 0.000000 0.070173 0.000000
# 6 0.000000 0.000000 0.000000 0.000000 0.000000 0.030605
#
#
# Mechanical properties :
#
#
# Convention : Reuss Voigt Hill
#
# Bulk Modulus (GPa) = 35.15171 44.71215 39.93193
# Shear Modulus (GPa) = 18.87326 25.57008 22.22167
#
# Velocity S-wave (km/s) = 3.16184 3.68030 3.43088
# Velocity P-wave (km/s) = 5.65240 6.46093 6.07015
#
# Compressibility (1/GPa) = 0.02844812
#
# Stress axis : x y z
#
# Youngs Moduli (GPa) = 46.62837 75.75883 118.94405
#
# Poissons Ratio (x) = 0.04468 0.52418
# Poissons Ratio (y) = 0.02750 0.27427
# Poissons Ratio (z) = 0.20549 0.17469
#
# Static dielectric constant tensor:
#      x y z
#    x 3.491390 0.000000 0.000000 
#    y 0.000000 3.566640 0.000000 
#    z 0.000000 0.000000 3.218330 
# 
# 
# High freq. dielectric constant tensor:
#      x y z
#    x 1.741470 0.000000 0.000000 
#    y 0.000000 1.745440 0.000000 
#    z 0.000000 0.000000 1.712430 
# 
# From -- ./inp_files/31907.got.cif
#   From: 2010.06.25/outbox.cif.g09.slc.cpg/sg58_16_cif.got.tgz:31907.got - 2010.06.26 21:38:00.
