data_PCOD8237359
_publ_section_title
;
Structure prediction by ZEFSAII (Michael W. Deem and Ramdas Pophale) SiO2 
 PCOD8237359
Probable space group: P N N M
;
_chemical_formula_sum "Si O2"
_cell_formula_units_Z 44
_cell_length_a 11.321003
_cell_length_b 8.147474
_cell_length_c 25.303162
_cell_angle_alpha 90.000000
_cell_angle_beta 90.000000
_cell_angle_gamma 90.000000
_cell_volume 2333.902368
_symmetry_space_group_name_H-M "P N N M"
_symmetry_group_IT_number 58
_symmetry_cell_setting 'orthorhombic'
loop_
_space_group_symop_operation_xyz
x,y,z
-x,-y,z
1/2+x,1/2-y,1/2-z
1/2-x,1/2+y,1/2-z
-x,-y,-z
x,y,-z
1/2-x,1/2+y,1/2+z
1/2+x,1/2-y,1/2+z
loop_
_atom_site_type_symbol
_atom_site_label
_atom_site_fract_x
_atom_site_fract_y
_atom_site_fract_z
Si Si1 0.627131 0.544255 0.392884
Si Si2 0.500000 0.000000 0.659943
Si Si3 0.927343 0.232984 0.000000
Si Si4 0.325716 0.909285 0.500000
Si Si5 0.211716 0.312691 0.889814
Si Si6 0.182256 0.739872 0.200890
Si Si7 0.364082 0.469951 0.201023
O O1 0.500000 0.500000 0.367627
O O2 0.607323 0.622060 0.450223
O O3 0.708732 0.383502 0.392715
O O4 0.692863 0.674559 0.355972
O O5 0.581247 0.112991 0.622234
O O6 0.422935 0.108392 0.699559
O O7 0.856562 0.400500 0.000000
O O8 0.065496 0.279133 0.000000
O O9 0.248870 0.876648 0.552477
O O10 0.307127 0.371812 0.847570
O O11 0.305291 0.647134 0.210809
O O12 0.154891 0.868511 0.246033
O O13 0.500000 0.500000 0.188350
#
# Coordination Sequence:
#
# PCOD8237359 Si02
#       7
#     8   4   4   4   8   8   8
#     4  12  20  34  58  93 129 156 193 247 312 369
#     4  10  20  35  60  90 124 151 200 246 310 368
#     4  11  20  31  56  97 131 155 192 254 319 368
#     4  11  19  34  58  87 127 166 196 248 309 366
#     4  11  22  38  58  90 122 166 202 249 304 360
#     4  11  23  39  63  86 119 160 198 251 306 357
#     4  11  26  43  60  88 121 160 209 248 300 363
#
# _framework density 18.852546
#
# number of rings (size 3 to 8) (size 9 to 14) (size 15 to 20)
#    0.000    0.909    3.636    5.727    5.091    0.000 
#    0.000    0.455    0.000    0.000    0.000    3.818 
#    0.000    0.000    0.000    0.000    0.000    0.000 
#
# Total GULP energy -545733.851931 kJ/mol
# GULP energy per Si atom -12403.042089 kJ/mol
# Density = 1.880964 g / cm^3
# Si number density = 18.852546 Si / 1000 Ang^3
#
#
#
# Elastic Constant Matrix: (Units=GPa)
#
#
# Indices 1 2 3 4 5 6 
#
# 1 86.6387 42.8163 36.7113 0.0000 0.0000 0.0000
# 2 42.8163 127.1982 47.3726 0.0000 0.0000 0.0000
# 3 36.7113 47.3726 126.8951 0.0000 0.0000 0.0000
# 4 0.0000 0.0000 0.0000 36.8354 0.0000 0.0000
# 5 0.0000 0.0000 0.0000 0.0000 20.5918 0.0000
# 6 0.0000 0.0000 0.0000 0.0000 0.0000 23.1219
#
#
#
# Elastic Compliance Matrix: (Units=1/GPa)
#
#
# Indices 1 2 3 4 5 6 
#
# 1 0.014646 -0.003893 -0.002784 0.000000 0.000000 0.000000
# 2 -0.003893 0.010166 -0.002669 0.000000 0.000000 0.000000
# 3 -0.002784 -0.002669 0.009682 0.000000 0.000000 0.000000
# 4 0.000000 0.000000 0.000000 0.027148 0.000000 0.000000
# 5 0.000000 0.000000 0.000000 0.000000 0.048563 0.000000
# 6 0.000000 0.000000 0.000000 0.000000 0.000000 0.043249
#
#
# Mechanical properties :
#
#
# Convention : Reuss Voigt Hill
#
# Bulk Modulus (GPa) = 63.28087 66.05917 64.67002
# Shear Modulus (GPa) = 28.18282 30.36528 29.27405
#
# Velocity S-wave (km/s) = 3.87060 4.01767 3.94482
# Velocity P-wave (km/s) = 7.32219 7.52584 7.42471
#
# Compressibility (1/GPa) = 0.01580256
#
# Stress axis : x y z
#
# Youngs Moduli (GPa) = 68.27952 98.36489 103.28207
#
# Poissons Ratio (x) = 0.38295 0.28750
# Poissons Ratio (y) = 0.26582 0.27565
# Poissons Ratio (z) = 0.19007 0.26253
#
# Static dielectric constant tensor:
#      x y z
#    x 3.184420 0.000000 0.000000 
#    y 0.000000 3.790400 0.000000 
#    z 0.000000 0.000000 3.544110 
# 
# 
# High freq. dielectric constant tensor:
#      x y z
#    x 1.684770 0.000000 0.000000 
#    y 0.000000 1.760720 0.000000 
#    z 0.000000 0.000000 1.746900 
# 
# From -- ./inp_files/31428.got.cif
#   From: 2010.06.25/outbox.cif.g09.slc.cpg/sg58_16_cif.got.tgz:31428.got - 2010.06.26 21:38:00.
