data_PCOD8237633
_publ_section_title
;
Structure prediction by ZEFSAII (Michael W. Deem and Ramdas Pophale) SiO2 
 PCOD8237633
Probable space group: P N N M
;
_chemical_formula_sum "Si O2"
_cell_formula_units_Z 64
_cell_length_a 30.918898
_cell_length_b 12.048383
_cell_length_c 8.464395
_cell_angle_alpha 90.000000
_cell_angle_beta 90.000000
_cell_angle_gamma 90.000000
_cell_volume 3153.179491
_symmetry_space_group_name_H-M "P N N M"
_symmetry_group_IT_number 58
_symmetry_cell_setting 'orthorhombic'
loop_
_space_group_symop_operation_xyz
x,y,z
-x,-y,z
1/2+x,1/2-y,1/2-z
1/2-x,1/2+y,1/2-z
-x,-y,-z
x,y,-z
1/2-x,1/2+y,1/2+z
1/2+x,1/2-y,1/2+z
loop_
_atom_site_type_symbol
_atom_site_label
_atom_site_fract_x
_atom_site_fract_y
_atom_site_fract_z
Si Si1 0.625825 0.619313 0.314049
Si Si2 0.875152 0.870769 0.188271
Si Si3 0.050339 0.722648 0.816977
Si Si4 0.703745 0.224838 0.312812
Si Si5 0.078069 0.496938 0.681908
Si Si6 0.330312 0.009577 0.317589
Si Si7 0.046045 0.278922 0.182469
Si Si8 0.700557 0.765611 0.816403
O O1 0.621232 0.610726 0.500000
O O2 0.624842 0.495415 0.241283
O O3 0.585244 0.690075 0.247341
O O4 0.670920 0.677230 0.272947
O O5 0.833286 0.805831 0.257481
O O6 0.918841 0.809474 0.245695
O O7 0.873375 0.873791 0.000000
O O8 0.052558 0.609233 0.719477
O O9 0.002041 0.772312 0.796573
O O10 0.060625 0.697040 0.000000
O O11 0.701876 0.234303 0.500000
O O12 0.695623 0.098491 0.260410
O O13 0.750771 0.258968 0.247796
O O14 0.092387 0.496938 0.500000
O O15 0.119294 0.486378 0.795225
O O16 0.047811 0.391903 0.717419
O O17 0.321168 0.038519 0.500000
O O18 0.316226 0.110680 0.208334
O O19 0.055255 0.307769 0.000000
O O20 0.699429 0.735518 0.000000
#
# Coordination Sequence:
#
# PCOD8237633 Si02
#       8
#     8   8   8   8   8   8   8   8
#     4  10  21  37  59  84 115 154 196 236 282 342
#     4   9  18  36  60  84 111 149 194 242 287 333
#     4  10  21  36  57  87 117 151 194 239 288 347
#     4   9  20  37  59  85 116 149 186 238 290 336
#     4  12  23  36  57  87 120 152 190 241 293 345
#     4  11  21  39  64  86 115 155 196 237 286 342
#     4  10  20  37  61  84 114 153 194 241 291 345
#     4  11  23  38  58  88 121 151 189 237 291 343
#
# _framework density 20.296973000000001
#
# number of rings (size 3 to 8) (size 9 to 14) (size 15 to 20)
#    0.000    1.750    2.500    2.250    1.750    2.500 
#    0.000    5.000    0.000    0.000    0.000    2.625 
#    0.000    0.000    0.000    0.000    0.000    0.000 
#
# Total GULP energy -793732.376825 kJ/mol
# GULP energy per Si atom -12402.068388 kJ/mol
# Density = 2.025078 g / cm^3
# Si number density = 20.296973 Si / 1000 Ang^3
#
#
#
# Elastic Constant Matrix: (Units=GPa)
#
#
# Indices 1 2 3 4 5 6 
#
# 1 141.9218 53.5452 15.2273 0.0000 0.0000 0.0000
# 2 53.5452 140.6279 23.1498 0.0000 0.0000 0.0000
# 3 15.2273 23.1498 21.9619 0.0000 0.0000 0.0000
# 4 0.0000 0.0000 0.0000 5.5622 0.0000 0.0000
# 5 0.0000 0.0000 0.0000 0.0000 19.8593 0.0000
# 6 0.0000 0.0000 0.0000 0.0000 0.0000 10.6476
#
#
#
# Elastic Compliance Matrix: (Units=1/GPa)
#
#
# Indices 1 2 3 4 5 6 
#
# 1 0.008384 -0.002705 -0.002962 0.000000 0.000000 0.000000
# 2 -0.002705 0.009476 -0.008114 0.000000 0.000000 0.000000
# 3 -0.002962 -0.008114 0.056140 0.000000 0.000000 0.000000
# 4 0.000000 0.000000 0.000000 0.179786 0.000000 0.000000
# 5 0.000000 0.000000 0.000000 0.000000 0.050354 0.000000
# 6 0.000000 0.000000 0.000000 0.000000 0.000000 0.093918
#
#
# Mechanical properties :
#
#
# Convention : Reuss Voigt Hill
#
# Bulk Modulus (GPa) = 21.53346 54.26176 37.89761
# Shear Modulus (GPa) = 11.33530 21.38644 16.36087
#
# Velocity S-wave (km/s) = 2.36577 3.24956 2.84223
# Velocity P-wave (km/s) = 4.25379 6.39308 5.42983
#
# Compressibility (1/GPa) = 0.04643935
#
# Stress axis : x y z
#
# Youngs Moduli (GPa) = 119.26840 105.52424 17.81264
#
# Poissons Ratio (x) = 0.28542 0.05277
# Poissons Ratio (y) = 0.32260 0.14453
# Poissons Ratio (z) = 0.35330 0.85619
#
# Static dielectric constant tensor:
#      x y z
#    x 3.885200 0.000000 0.000000 
#    y 0.000000 3.825860 0.000000 
#    z 0.000000 0.000000 3.250090 
# 
# 
# High freq. dielectric constant tensor:
#      x y z
#    x 1.805600 0.000000 0.000000 
#    y 0.000000 1.794810 0.000000 
#    z 0.000000 0.000000 1.757000 
# 
# From -- ./inp_files/10941.got.cif
#   From: 2010.06.25/outbox.cif.g09.slc.cpg/sg58_6_cif.got.tgz:10941.got - 2010.06.26 21:38:00.
