data_PCOD8238602
_publ_section_title
;
Structure prediction by ZEFSAII (Michael W. Deem and Ramdas Pophale) SiO2 
 PCOD8238602
Probable space group: P N N M
;
_chemical_formula_sum "Si O2"
_cell_formula_units_Z 60
_cell_length_a 13.841130
_cell_length_b 11.070621
_cell_length_c 17.258221
_cell_angle_alpha 90.000000
_cell_angle_beta 90.000000
_cell_angle_gamma 90.000000
_cell_volume 2644.475555
_symmetry_space_group_name_H-M "P N N M"
_symmetry_group_IT_number 58
_symmetry_cell_setting 'orthorhombic'
loop_
_space_group_symop_operation_xyz
x,y,z
-x,-y,z
1/2+x,1/2-y,1/2-z
1/2-x,1/2+y,1/2-z
-x,-y,-z
x,y,-z
1/2-x,1/2+y,1/2+z
1/2+x,1/2-y,1/2+z
loop_
_atom_site_type_symbol
_atom_site_label
_atom_site_fract_x
_atom_site_fract_y
_atom_site_fract_z
Si Si1 0.000000 0.500000 0.316864
Si Si2 0.067597 0.710853 0.408668
Si Si3 0.272267 0.165978 0.190565
Si Si4 0.355341 0.717283 0.909075
Si Si5 0.606786 0.163523 0.694685
Si Si6 0.946502 0.237233 0.913191
Si Si7 0.809391 0.426813 0.851250
Si Si8 0.721755 0.561438 0.409859
O O1 0.930565 0.428120 0.376679
O O2 0.945571 0.598922 0.265464
O O3 0.085761 0.713084 0.500000
O O4 0.161189 0.758726 0.361424
O O5 0.968716 0.779529 0.385775
O O6 0.186747 0.245457 0.228199
O O7 0.333513 0.111602 0.262224
O O8 0.226964 0.059409 0.139592
O O9 0.303443 0.600863 0.869895
O O10 0.304637 0.843026 0.884240
O O11 0.345313 0.699741 0.000000
O O12 0.534071 0.245495 0.645431
O O13 0.660641 0.066209 0.639329
O O14 0.875328 0.352126 0.910131
O O15 0.883784 0.118714 0.892630
O O16 0.988147 0.227344 0.000000
O O17 0.733224 0.528523 0.500000
#
# Coordination Sequence:
#
# PCOD8238602 Si02
#       8
#     4   8   8   8   8   8   8   8
#     4  12  21  44  63  96 126 162 214 262 319 380
#     4  11  22  39  66  96 126 165 216 272 311 366
#     4  12  25  38  61  94 139 167 213 263 321 394
#     4   9  20  39  68  96 123 167 217 260 318 378
#     4  12  25  41  65  98 127 173 209 265 325 387
#     4  10  22  42  69  95 125 167 221 270 320 383
#     4  11  22  40  64  93 130 170 209 263 322 380
#     4   9  20  40  64  94 129 167 212 269 325 373
#
# _framework density 22.688808999999999
#
# number of rings (size 3 to 8) (size 9 to 14) (size 15 to 20)
#    0.000    1.333    2.667    3.400    3.733    4.267 
#    0.000    2.000    2.933    1.600    0.000    0.000 
#    0.000    0.000    0.000    0.000    0.000    0.000 
#
# Total GULP energy -743836.062008 kJ/mol
# GULP energy per Si atom -12397.267700 kJ/mol
# Density = 2.263717 g / cm^3
# Si number density = 22.688809 Si / 1000 Ang^3
#
#
#
# Elastic Constant Matrix: (Units=GPa)
#
#
# Indices 1 2 3 4 5 6 
#
# 1 113.6337 26.9515 37.0227 0.0000 0.0000 0.0000
# 2 26.9515 53.2754 4.0447 0.0000 0.0000 0.0000
# 3 37.0227 4.0447 70.0240 0.0000 0.0000 0.0000
# 4 0.0000 0.0000 0.0000 24.3737 0.0000 0.0000
# 5 0.0000 0.0000 0.0000 0.0000 32.0468 0.0000
# 6 0.0000 0.0000 0.0000 0.0000 0.0000 30.5834
#
#
#
# Elastic Compliance Matrix: (Units=1/GPa)
#
#
# Indices 1 2 3 4 5 6 
#
# 1 0.012128 -0.005674 -0.006085 0.000000 0.000000 0.000000
# 2 -0.005674 0.021507 0.001757 0.000000 0.000000 0.000000
# 3 -0.006085 0.001757 0.017396 0.000000 0.000000 0.000000
# 4 0.000000 0.000000 0.000000 0.041028 0.000000 0.000000
# 5 0.000000 0.000000 0.000000 0.000000 0.031204 0.000000
# 6 0.000000 0.000000 0.000000 0.000000 0.000000 0.032697
#
#
# Mechanical properties :
#
#
# Convention : Reuss Voigt Hill
#
# Bulk Modulus (GPa) = 32.22676 41.44119 36.83398
# Shear Modulus (GPa) = 26.83747 28.66173 27.74960
#
# Velocity S-wave (km/s) = 3.44299 3.55808 3.50101
# Velocity P-wave (km/s) = 5.48090 5.93166 5.71073
#
# Compressibility (1/GPa) = 0.03103011
#
# Stress axis : x y z
#
# Youngs Moduli (GPa) = 82.45173 46.49606 57.48324
#
# Poissons Ratio (x) = 0.26380 0.34977
# Poissons Ratio (y) = 0.46780 -0.10102
# Poissons Ratio (z) = 0.50169 -0.08171
#
# Static dielectric constant tensor:
#      x y z
#    x 4.349240 0.000000 0.000000 
#    y 0.000000 3.817430 0.000000 
#    z 0.000000 0.000000 4.058370 
# 
# 
# High freq. dielectric constant tensor:
#      x y z
#    x 1.903720 0.000000 0.000000 
#    y 0.000000 1.862620 0.000000 
#    z 0.000000 0.000000 1.903160 
# 
# From -- ./inp_files/26979.got.cif
#   From: 2010.06.25/outbox.cif.g09.slc.cpg/sg58_14_cif.got.tgz:26979.got - 2010.06.26 21:38:00.
