data_PCOD8238494
_publ_section_title
;
Structure prediction by ZEFSAII (Michael W. Deem and Ramdas Pophale) SiO2 
 PCOD8238494
Probable space group: P N N M
;
_chemical_formula_sum "Si O2"
_cell_formula_units_Z 56
_cell_length_a 8.104121
_cell_length_b 22.449011
_cell_length_c 14.822294
_cell_angle_alpha 90.000000
_cell_angle_beta 90.000000
_cell_angle_gamma 90.000000
_cell_volume 2696.612558
_symmetry_space_group_name_H-M "P N N M"
_symmetry_group_IT_number 58
_symmetry_cell_setting 'orthorhombic'
loop_
_space_group_symop_operation_xyz
x,y,z
-x,-y,z
1/2+x,1/2-y,1/2-z
1/2-x,1/2+y,1/2-z
-x,-y,-z
x,y,-z
1/2-x,1/2+y,1/2+z
1/2+x,1/2-y,1/2+z
loop_
_atom_site_type_symbol
_atom_site_label
_atom_site_fract_x
_atom_site_fract_y
_atom_site_fract_z
Si Si1 0.346188 0.897081 0.772241
Si Si2 0.348251 0.111770 0.100733
Si Si3 0.184289 0.020868 0.233321
Si Si4 0.563724 0.677683 0.217082
Si Si5 0.000761 0.339890 0.901015
Si Si6 0.312707 0.727466 0.349017
Si Si7 0.659400 0.395281 0.102673
O O1 0.477038 0.879845 0.848838
O O2 0.177809 0.859690 0.787267
O O3 0.407829 0.879379 0.672897
O O4 0.313783 0.967238 0.774000
O O5 0.231062 0.068120 0.156812
O O6 0.257049 0.175222 0.087978
O O7 0.379107 0.086288 0.000000
O O8 0.199415 0.048571 0.333226
O O9 0.000000 0.000000 0.212969
O O10 0.394244 0.696278 0.263228
O O11 0.654331 0.735683 0.181738
O O12 0.511952 0.635241 0.133511
O O13 0.804522 0.346180 0.888915
O O14 0.051692 0.270139 0.895540
O O15 0.052756 0.363691 0.000000
O O16 0.639940 0.418210 0.000000
#
# Coordination Sequence:
#
# PCOD8238494 Si02
#       7
#     8   8   8   8   8   8   8
#     4  11  23  42  68  90 132 172 220 277 330 392
#     4  12  26  44  68  98 130 173 227 277 333 394
#     4  12  24  46  66  94 131 175 221 276 331 385
#     4  11  21  40  66  95 131 178 216 268 331 390
#     4  10  22  39  64  99 132 170 215 264 326 395
#     4  11  21  40  66  97 136 176 216 269 323 395
#     4  11  23  41  65 100 136 172 220 268 328 399
#
# _framework density 20.766794000000001
#
# number of rings (size 3 to 8) (size 9 to 14) (size 15 to 20)
#    0.000    0.857    4.286    3.429    0.000    5.143 
#    0.000    5.714    0.000    0.000    0.000    0.000 
#    0.000    0.000    0.000    0.000    0.000    0.000 
#
# Total GULP energy -694390.768186 kJ/mol
# GULP energy per Si atom -12399.835146 kJ/mol
# Density = 2.071953 g / cm^3
# Si number density = 20.766794 Si / 1000 Ang^3
#
#
#
# Elastic Constant Matrix: (Units=GPa)
#
#
# Indices 1 2 3 4 5 6 
#
# 1 72.4669 39.5310 27.3308 0.0000 0.0000 0.0000
# 2 39.5310 119.0856 41.1818 0.0000 0.0000 0.0000
# 3 27.3308 41.1818 125.4831 0.0000 0.0000 0.0000
# 4 0.0000 0.0000 0.0000 15.3950 0.0000 0.0000
# 5 0.0000 0.0000 0.0000 0.0000 22.7229 0.0000
# 6 0.0000 0.0000 0.0000 0.0000 0.0000 47.9275
#
#
#
# Elastic Compliance Matrix: (Units=1/GPa)
#
#
# Indices 1 2 3 4 5 6 
#
# 1 0.017341 -0.005020 -0.002129 0.000000 0.000000 0.000000
# 2 -0.005020 0.010926 -0.002492 0.000000 0.000000 0.000000
# 3 -0.002129 -0.002492 0.009251 0.000000 0.000000 0.000000
# 4 0.000000 0.000000 0.000000 0.064956 0.000000 0.000000
# 5 0.000000 0.000000 0.000000 0.000000 0.044008 0.000000
# 6 0.000000 0.000000 0.000000 0.000000 0.000000 0.020865
#
#
# Mechanical properties :
#
#
# Convention : Reuss Voigt Hill
#
# Bulk Modulus (GPa) = 54.84239 59.23587 57.03913
# Shear Modulus (GPa) = 25.94596 31.14189 28.54393
#
# Velocity S-wave (km/s) = 3.53851 3.87667 3.71144
# Velocity P-wave (km/s) = 6.56969 6.97311 6.77441
#
# Compressibility (1/GPa) = 0.01823407
#
# Stress axis : x y z
#
# Youngs Moduli (GPa) = 57.66698 91.52819 108.09738
#
# Poissons Ratio (x) = 0.45947 0.23019
# Poissons Ratio (y) = 0.28949 0.26940
# Poissons Ratio (z) = 0.12280 0.22811
#
# Static dielectric constant tensor:
#      x y z
#    x 3.960290 0.000000 0.000000 
#    y 0.000000 3.883070 0.000000 
#    z 0.000000 0.000000 3.660810 
# 
# 
# High freq. dielectric constant tensor:
#      x y z
#    x 1.827060 0.000000 0.000000 
#    y 0.000000 1.817190 0.000000 
#    z 0.000000 0.000000 1.800570 
# 
# From -- ./inp_files/20147.got.cif
#   From: 2010.06.25/outbox.cif.g09.slc.cpg/sg58_11_cif.got.tgz:20147.got - 2010.06.26 21:38:00.
