data_PCOD8238281
_publ_section_title
;
Structure prediction by ZEFSAII (Michael W. Deem and Ramdas Pophale) SiO2 
 PCOD8238281
Probable space group: P N N M
;
_chemical_formula_sum "Si O2"
_cell_formula_units_Z 56
_cell_length_a 16.134884
_cell_length_b 19.781293
_cell_length_c 8.615668
_cell_angle_alpha 90.000000
_cell_angle_beta 90.000000
_cell_angle_gamma 90.000000
_cell_volume 2749.853002
_symmetry_space_group_name_H-M "P N N M"
_symmetry_group_IT_number 58
_symmetry_cell_setting 'orthorhombic'
loop_
_space_group_symop_operation_xyz
x,y,z
-x,-y,z
1/2+x,1/2-y,1/2-z
1/2-x,1/2+y,1/2-z
-x,-y,-z
x,y,-z
1/2-x,1/2+y,1/2+z
1/2+x,1/2-y,1/2+z
loop_
_atom_site_type_symbol
_atom_site_label
_atom_site_fract_x
_atom_site_fract_y
_atom_site_fract_z
Si Si1 0.750862 0.467186 0.820728
Si Si2 0.001207 0.323264 0.178917
Si Si3 0.811227 0.114271 0.678537
Si Si4 0.925126 0.451430 0.319518
Si Si5 0.529543 0.669125 0.321590
Si Si6 0.673702 0.203808 0.820544
Si Si7 0.342527 0.655954 0.320030
O O1 0.704397 0.536405 0.780852
O O2 0.847106 0.475313 0.780293
O O3 0.711096 0.409569 0.715103
O O4 0.740653 0.447356 0.000000
O O5 0.948304 0.374215 0.283102
O O6 0.964959 0.249094 0.210885
O O7 0.097970 0.326265 0.221857
O O8 0.992132 0.344048 0.000000
O O9 0.790178 0.129577 0.500000
O O10 0.907067 0.129934 0.711727
O O11 0.755547 0.161057 0.787428
O O12 0.903533 0.458561 0.500000
O O13 0.000000 0.500000 0.270228
O O14 0.550665 0.653242 0.500000
O O15 0.438316 0.642214 0.277399
O O16 0.692580 0.281430 0.778284
O O17 0.650239 0.197934 0.000000
O O18 0.334981 0.675668 0.500000
#
# Coordination Sequence:
#
# PCOD8238281 Si02
#       7
#     8   8   8   8   8   8   8
#     4  11  25  42  61  89 124 164 207 254 311 370
#     4  10  21  39  62  89 122 158 202 252 307 367
#     4  11  24  40  61  89 123 163 206 252 307 368
#     4  11  24  40  61  90 124 164 208 254 309 370
#     4   9  21  40  62  89 119 156 202 253 307 363
#     4  11  22  38  63  91 124 161 203 254 308 366
#     4  10  22  42  65  90 122 160 205 256 311 370
#
# _framework density 20.364723999999999
#
# number of rings (size 3 to 8) (size 9 to 14) (size 15 to 20)
#    0.000    1.571    0.000    5.143    2.000    9.714 
#    0.000    2.857    0.000    0.000    0.000    0.000 
#    0.000    0.000    0.000    0.000    0.000    0.000 
#
# Total GULP energy -694839.827421 kJ/mol
# GULP energy per Si atom -12407.854061 kJ/mol
# Density = 2.031837 g / cm^3
# Si number density = 20.364724 Si / 1000 Ang^3
#
#
#
# Elastic Constant Matrix: (Units=GPa)
#
#
# Indices 1 2 3 4 5 6 
#
# 1 63.1756 28.7916 20.8316 0.0000 0.0000 0.0000
# 2 28.7916 79.2287 32.4086 0.0000 0.0000 0.0000
# 3 20.8316 32.4086 55.2843 0.0000 0.0000 0.0000
# 4 0.0000 0.0000 0.0000 25.4198 0.0000 0.0000
# 5 0.0000 0.0000 0.0000 0.0000 36.2756 0.0000
# 6 0.0000 0.0000 0.0000 0.0000 0.0000 36.4983
#
#
#
# Elastic Compliance Matrix: (Units=1/GPa)
#
#
# Indices 1 2 3 4 5 6 
#
# 1 0.019700 -0.005423 -0.004244 0.000000 0.000000 0.000000
# 2 -0.005423 0.018096 -0.008565 0.000000 0.000000 0.000000
# 3 -0.004244 -0.008565 0.024708 0.000000 0.000000 0.000000
# 4 0.000000 0.000000 0.000000 0.039339 0.000000 0.000000
# 5 0.000000 0.000000 0.000000 0.000000 0.027567 0.000000
# 6 0.000000 0.000000 0.000000 0.000000 0.000000 0.027399
#
#
# Mechanical properties :
#
#
# Convention : Reuss Voigt Hill
#
# Bulk Modulus (GPa) = 38.40155 40.19470 39.29812
# Shear Modulus (GPa) = 24.75840 27.34920 26.05380
#
# Velocity S-wave (km/s) = 3.49054 3.66863 3.58069
# Velocity P-wave (km/s) = 5.92815 6.14210 6.03608
#
# Compressibility (1/GPa) = 0.02604062
#
# Stress axis : x y z
#
# Youngs Moduli (GPa) = 50.76215 55.26170 40.47231
#
# Poissons Ratio (x) = 0.29967 0.17177
# Poissons Ratio (y) = 0.27527 0.34663
# Poissons Ratio (z) = 0.21544 0.47330
#
# Static dielectric constant tensor:
#      x y z
#    x 3.642330 0.000000 0.000000 
#    y 0.000000 3.670000 0.000000 
#    z 0.000000 0.000000 3.645210 
# 
# 
# High freq. dielectric constant tensor:
#      x y z
#    x 1.799310 0.000000 0.000000 
#    y 0.000000 1.798000 0.000000 
#    z 0.000000 0.000000 1.802960 
# 
# From -- ./inp_files/6406.got.cif
#   From: 2010.06.25/outbox.cif.g09.slc.cpg/sg58_4_cif.got.tgz:6406.got - 2010.06.26 21:38:00.
