data_PCOD8238289
_publ_section_title
;
Structure prediction by ZEFSAII (Michael W. Deem and Ramdas Pophale) SiO2 
 PCOD8238289
Probable space group: P N N M
;
_chemical_formula_sum "Si O2"
_cell_formula_units_Z 40
_cell_length_a 10.164484
_cell_length_b 22.729932
_cell_length_c 8.551461
_cell_angle_alpha 90.000000
_cell_angle_beta 90.000000
_cell_angle_gamma 90.000000
_cell_volume 1975.712704
_symmetry_space_group_name_H-M "P N N M"
_symmetry_group_IT_number 58
_symmetry_cell_setting 'orthorhombic'
loop_
_space_group_symop_operation_xyz
x,y,z
-x,-y,z
1/2+x,1/2-y,1/2-z
1/2-x,1/2+y,1/2-z
-x,-y,-z
x,y,-z
1/2-x,1/2+y,1/2+z
1/2+x,1/2-y,1/2+z
loop_
_atom_site_type_symbol
_atom_site_label
_atom_site_fract_x
_atom_site_fract_y
_atom_site_fract_z
Si Si1 0.223260 0.382912 0.684005
Si Si2 0.233063 0.124969 0.683629
Si Si3 0.147220 0.502731 0.815296
Si Si4 0.471808 0.191074 0.816901
Si Si5 0.984715 0.183110 0.816928
O O1 0.224964 0.391201 0.500000
O O2 0.231264 0.446891 0.761494
O O3 0.348809 0.345883 0.739966
O O4 0.092345 0.349429 0.740358
O O5 0.202598 0.125302 0.500000
O O6 0.282601 0.061751 0.745148
O O7 0.342887 0.173876 0.719853
O O8 0.101509 0.138224 0.779076
O O9 0.000000 0.500000 0.743299
O O10 0.139002 0.503845 0.000000
O O11 0.508968 0.258010 0.781077
O O12 0.444843 0.183052 0.000000
O O13 0.981746 0.197920 0.000000
#
# Coordination Sequence:
#
# PCOD8238289 Si02
#       5
#     8   8   8   8   8
#     4  10  23  40  61  89 121 156 199 249 301 360
#     4  11  23  40  62  90 123 159 202 250 299 360
#     4  10  21  39  63  89 117 155 202 249 299 357
#     4  11  22  39  64  92 120 159 204 248 303 361
#     4  11  24  41  60  89 126 162 201 249 304 360
#
# _framework density 20.245858999999999
#
# number of rings (size 3 to 8) (size 9 to 14) (size 15 to 20)
#    0.000    1.400    2.000    3.000    0.000    6.800 
#    0.000    4.000    0.000    0.000    0.000    0.000 
#    0.000    0.000    0.000    0.000    0.000    0.000 
#
# Total GULP energy -496298.726263 kJ/mol
# GULP energy per Si atom -12407.468157 kJ/mol
# Density = 2.019978 g / cm^3
# Si number density = 20.245859 Si / 1000 Ang^3
#
#
#
# Elastic Constant Matrix: (Units=GPa)
#
#
# Indices 1 2 3 4 5 6 
#
# 1 99.9203 23.7636 19.3486 0.0000 0.0000 0.0000
# 2 23.7636 119.6016 18.5661 0.0000 0.0000 0.0000
# 3 19.3486 18.5661 26.3575 0.0000 0.0000 0.0000
# 4 0.0000 0.0000 0.0000 36.1926 0.0000 0.0000
# 5 0.0000 0.0000 0.0000 0.0000 29.6911 0.0000
# 6 0.0000 0.0000 0.0000 0.0000 0.0000 26.8429
#
#
#
# Elastic Compliance Matrix: (Units=1/GPa)
#
#
# Indices 1 2 3 4 5 6 
#
# 1 0.011799 -0.001123 -0.007871 0.000000 0.000000 0.000000
# 2 -0.001123 0.009494 -0.005864 0.000000 0.000000 0.000000
# 3 -0.007871 -0.005864 0.047848 0.000000 0.000000 0.000000
# 4 0.000000 0.000000 0.000000 0.027630 0.000000 0.000000
# 5 0.000000 0.000000 0.000000 0.000000 0.033680 0.000000
# 6 0.000000 0.000000 0.000000 0.000000 0.000000 0.037254
#
#
# Mechanical properties :
#
#
# Convention : Reuss Voigt Hill
#
# Bulk Modulus (GPa) = 25.36308 41.02622 33.19465
# Shear Modulus (GPa) = 23.74595 30.82538 27.28567
#
# Velocity S-wave (km/s) = 3.42845 3.90622 3.67511
# Velocity P-wave (km/s) = 5.31292 6.37595 5.86855
#
# Compressibility (1/GPa) = 0.03942739
#
# Stress axis : x y z
#
# Youngs Moduli (GPa) = 84.75262 105.32550 20.89945
#
# Poissons Ratio (x) = 0.11823 0.16450
# Poissons Ratio (y) = 0.09514 0.12255
# Poissons Ratio (z) = 0.66707 0.61760
#
# Static dielectric constant tensor:
#      x y z
#    x 3.790980 0.000000 0.000000 
#    y 0.000000 3.770920 0.000000 
#    z 0.000000 0.000000 3.477040 
# 
# 
# High freq. dielectric constant tensor:
#      x y z
#    x 1.796180 0.000000 0.000000 
#    y 0.000000 1.802420 0.000000 
#    z 0.000000 0.000000 1.785410 
# 
# From -- ./inp_files/2431.got.cif
#   From: 2010.06.25/outbox.cif.g09.slc.cpg/sg58_2_cif.got.tgz:2431.got - 2010.06.26 21:38:00.
