data_PCOD8238802
_publ_section_title
;
Structure prediction by ZEFSAII (Michael W. Deem and Ramdas Pophale) SiO2 
 PCOD8238802
Probable space group: P N N M
;
_chemical_formula_sum "Si O2"
_cell_formula_units_Z 48
_cell_length_a 14.948407
_cell_length_b 20.101587
_cell_length_c 8.886994
_cell_angle_alpha 90.000000
_cell_angle_beta 90.000000
_cell_angle_gamma 90.000000
_cell_volume 2670.423534
_symmetry_space_group_name_H-M "P N N M"
_symmetry_group_IT_number 58
_symmetry_cell_setting 'orthorhombic'
loop_
_space_group_symop_operation_xyz
x,y,z
-x,-y,z
1/2+x,1/2-y,1/2-z
1/2-x,1/2+y,1/2-z
-x,-y,-z
x,y,-z
1/2-x,1/2+y,1/2+z
1/2+x,1/2-y,1/2+z
loop_
_atom_site_type_symbol
_atom_site_label
_atom_site_fract_x
_atom_site_fract_y
_atom_site_fract_z
Si Si1 0.888212 0.309370 0.821631
Si Si2 0.081375 0.541638 0.177233
Si Si3 0.499946 0.306842 0.177687
Si Si4 0.720953 0.485542 0.822745
Si Si5 0.694374 0.337933 0.822986
Si Si6 0.933208 0.058371 0.177350
O O1 0.919669 0.382229 0.766295
O O2 0.948520 0.256821 0.736599
O O3 0.784314 0.299795 0.769318
O O4 0.899198 0.299735 0.000000
O O5 0.174432 0.505227 0.217105
O O6 0.000000 0.500000 0.251888
O O7 0.069454 0.544102 0.000000
O O8 0.604636 0.299016 0.225036
O O9 0.460509 0.372996 0.248230
O O10 0.489977 0.312031 0.000000
O O11 0.690110 0.413289 0.760751
O O12 0.666473 0.541213 0.732626
O O13 0.702876 0.493793 0.000000
O O14 0.703312 0.345917 0.000000
O O15 0.934162 0.067778 0.000000
O O16 0.000000 0.000000 0.230507
#
# Coordination Sequence:
#
# PCOD8238802 Si02
#       6
#     8   8   8   8   8   8
#     4   9  18  35  55  76 106 141 174 215 266 313
#     4   8  15  31  57  83 106 135 174 217 262 314
#     4  11  21  35  55  77 104 140 180 219 259 313
#     4   9  16  31  55  78 102 137 176 212 255 312
#     4   8  16  32  54  73  97 140 177 207 258 315
#     4  11  22  34  51  79 110 138 171 217 270 312
#
# _framework density 17.974677
#
# number of rings (size 3 to 8) (size 9 to 14) (size 15 to 20)
#    0.000    2.667    1.667    3.000    0.000    0.667 
#    3.000    5.000    0.000    1.000    0.000    0.000 
#    0.000    0.000    0.000    0.000    0.000    0.000 
#
# Total GULP energy -594978.704862 kJ/mol
# GULP energy per Si atom -12395.389685 kJ/mol
# Density = 1.793377 g / cm^3
# Si number density = 17.974677 Si / 1000 Ang^3
#
#
#
# Elastic Constant Matrix: (Units=GPa)
#
#
# Indices 1 2 3 4 5 6 
#
# 1 164.0438 86.3648 43.4849 0.0000 0.0000 0.0000
# 2 86.3648 105.4670 34.6478 0.0000 0.0000 0.0000
# 3 43.4849 34.6478 44.7966 0.0000 0.0000 0.0000
# 4 0.0000 0.0000 0.0000 21.8523 0.0000 0.0000
# 5 0.0000 0.0000 0.0000 0.0000 19.0658 0.0000
# 6 0.0000 0.0000 0.0000 0.0000 0.0000 34.6710
#
#
#
# Elastic Compliance Matrix: (Units=1/GPa)
#
#
# Indices 1 2 3 4 5 6 
#
# 1 0.011563 -0.007750 -0.005229 0.000000 0.000000 0.000000
# 2 -0.007750 0.017907 -0.006326 0.000000 0.000000 0.000000
# 3 -0.005229 -0.006326 0.032293 0.000000 0.000000 0.000000
# 4 0.000000 0.000000 0.000000 0.045762 0.000000 0.000000
# 5 0.000000 0.000000 0.000000 0.000000 0.052450 0.000000
# 6 0.000000 0.000000 0.000000 0.000000 0.000000 0.028843
#
#
# Mechanical properties :
#
#
# Convention : Reuss Voigt Hill
#
# Bulk Modulus (GPa) = 43.19789 71.47807 57.33798
# Shear Modulus (GPa) = 21.26349 25.10514 23.18432
#
# Velocity S-wave (km/s) = 3.44316 3.74129 3.59532
# Velocity P-wave (km/s) = 6.31601 7.64953 7.01453
#
# Compressibility (1/GPa) = 0.02314928
#
# Stress axis : x y z
#
# Youngs Moduli (GPa) = 86.48637 55.84547 30.96682
#
# Poissons Ratio (x) = 0.43282 0.16194
# Poissons Ratio (y) = 0.67030 0.19591
# Poissons Ratio (z) = 0.45228 0.35330
#
# Static dielectric constant tensor:
#      x y z
#    x 3.865150 0.000000 0.000000 
#    y 0.000000 3.299140 0.000000 
#    z 0.000000 0.000000 2.985800 
# 
# 
# High freq. dielectric constant tensor:
#      x y z
#    x 1.711340 0.000000 0.000000 
#    y 0.000000 1.682000 0.000000 
#    z 0.000000 0.000000 1.664680 
# 
# From -- ./inp_files/5807.got.cif
#   From: 2010.06.25/outbox.cif.g09.slc.cpg/sg58_3_cif.got.tgz:5807.got - 2010.06.26 21:38:00.
