data_PCOD8238610
_publ_section_title
;
Structure prediction by ZEFSAII (Michael W. Deem and Ramdas Pophale) SiO2 
 PCOD8238610
Probable space group: P N N M
;
_chemical_formula_sum "Si O2"
_cell_formula_units_Z 44
_cell_length_a 9.365826
_cell_length_b 9.474229
_cell_length_c 26.076109
_cell_angle_alpha 90.000000
_cell_angle_beta 90.000000
_cell_angle_gamma 90.000000
_cell_volume 2313.836942
_symmetry_space_group_name_H-M "P N N M"
_symmetry_group_IT_number 58
_symmetry_cell_setting 'orthorhombic'
loop_
_space_group_symop_operation_xyz
x,y,z
-x,-y,z
1/2+x,1/2-y,1/2-z
1/2-x,1/2+y,1/2-z
-x,-y,-z
x,y,-z
1/2-x,1/2+y,1/2+z
1/2+x,1/2-y,1/2+z
loop_
_atom_site_type_symbol
_atom_site_label
_atom_site_fract_x
_atom_site_fract_y
_atom_site_fract_z
Si Si1 0.020631 0.347482 0.634887
Si Si2 0.277200 0.721933 0.678936
Si Si3 0.611348 0.376182 0.057023
Si Si4 0.223396 0.774356 0.792071
Si Si5 0.156775 0.523702 0.865126
Si Si6 0.500000 0.500000 0.311210
O O1 0.884705 0.321962 0.670465
O O2 0.000000 0.500000 0.610094
O O3 0.029138 0.246795 0.586315
O O4 0.160348 0.340039 0.670027
O O5 0.301690 0.727778 0.740153
O O6 0.393939 0.606928 0.656822
O O7 0.288268 0.874571 0.654346
O O8 0.500000 0.500000 0.052757
O O9 0.751014 0.422404 0.087558
O O10 0.657358 0.326533 0.000000
O O11 0.153361 0.636782 0.818675
O O12 0.103737 0.894372 0.779244
O O13 0.000000 0.500000 0.887266
#
# Coordination Sequence:
#
# PCOD8238610 Si02
#       6
#     8   8   8   8   8   4
#     4  11  23  39  60  91 121 162 207 252 308 368
#     4  12  23  38  58  85 129 168 205 245 298 362
#     4  10  22  43  66  89 115 155 211 267 313 367
#     4  11  24  36  59  86 126 168 208 240 294 367
#     4  11  23  39  60  91 121 162 207 252 308 368
#     4  12  22  38  56  84 115 168 201 250 286 352
#
# _framework density 19.016034000000001
#
# number of rings (size 3 to 8) (size 9 to 14) (size 15 to 20)
#    0.000    0.909    5.455    2.182    0.000    2.182 
#    0.000    0.000    0.000    0.000    0.000    5.091 
#    0.000    0.000    0.000    0.000    0.000    0.000 
#
# Total GULP energy -545379.902225 kJ/mol
# GULP energy per Si atom -12394.997778 kJ/mol
# Density = 1.897275 g / cm^3
# Si number density = 19.016034 Si / 1000 Ang^3
#
#
#
# Elastic Constant Matrix: (Units=GPa)
#
#
# Indices 1 2 3 4 5 6 
#
# 1 93.2138 33.7621 15.2926 0.0000 0.0000 0.0000
# 2 33.7621 128.0089 31.8546 0.0000 0.0000 0.0000
# 3 15.2926 31.8546 103.1954 0.0000 0.0000 0.0000
# 4 0.0000 0.0000 0.0000 4.1959 0.0000 0.0000
# 5 0.0000 0.0000 0.0000 0.0000 17.8627 0.0000
# 6 0.0000 0.0000 0.0000 0.0000 0.0000 40.1538
#
#
#
# Elastic Compliance Matrix: (Units=1/GPa)
#
#
# Indices 1 2 3 4 5 6 
#
# 1 0.011932 -0.002932 -0.000863 0.000000 0.000000 0.000000
# 2 -0.002932 0.009183 -0.002400 0.000000 0.000000 0.000000
# 3 -0.000863 -0.002400 0.010559 0.000000 0.000000 0.000000
# 4 0.000000 0.000000 0.000000 0.238330 0.000000 0.000000
# 5 0.000000 0.000000 0.000000 0.000000 0.055983 0.000000
# 6 0.000000 0.000000 0.000000 0.000000 0.000000 0.024904
#
#
# Mechanical properties :
#
#
# Convention : Reuss Voigt Hill
#
# Bulk Modulus (GPa) = 51.85947 54.02628 52.94287
# Shear Modulus (GPa) = 13.52418 28.67639 21.10029
#
# Velocity S-wave (km/s) = 2.66972 3.88752 3.33469
# Velocity P-wave (km/s) = 6.06909 6.97302 6.53670
#
# Compressibility (1/GPa) = 0.01928288
#
# Stress axis : x y z
#
# Youngs Moduli (GPa) = 83.81069 108.90235 94.70521
#
# Poissons Ratio (x) = 0.31932 0.08174
# Poissons Ratio (y) = 0.24575 0.22729
# Poissons Ratio (z) = 0.07233 0.26136
#
# Static dielectric constant tensor:
#      x y z
#    x 3.662840 0.000000 0.000000 
#    y 0.000000 3.936680 0.000000 
#    z 0.000000 0.000000 3.231680 
# 
# 
# High freq. dielectric constant tensor:
#      x y z
#    x 1.759310 0.000000 0.000000 
#    y 0.000000 1.763750 0.000000 
#    z 0.000000 0.000000 1.694770 
# 
# From -- ./inp_files/34482.got.cif
#   From: 2010.06.25/outbox.cif.g09.slc.cpg/sg58_18_cif.got.tgz:34482.got - 2010.06.26 21:38:00.
