data_PCOD8238222
_publ_section_title
;
Structure prediction by ZEFSAII (Michael W. Deem and Ramdas Pophale) SiO2 
 PCOD8238222
Probable space group: P N N M
;
_chemical_formula_sum "Si O2"
_cell_formula_units_Z 48
_cell_length_a 18.034380
_cell_length_b 9.373065
_cell_length_c 13.631828
_cell_angle_alpha 90.000000
_cell_angle_beta 90.000000
_cell_angle_gamma 90.000000
_cell_volume 2304.288980
_symmetry_space_group_name_H-M "P N N M"
_symmetry_group_IT_number 58
_symmetry_cell_setting 'orthorhombic'
loop_
_space_group_symop_operation_xyz
x,y,z
-x,-y,z
1/2+x,1/2-y,1/2-z
1/2-x,1/2+y,1/2-z
-x,-y,-z
x,y,-z
1/2-x,1/2+y,1/2+z
1/2+x,1/2-y,1/2+z
loop_
_atom_site_type_symbol
_atom_site_label
_atom_site_fract_x
_atom_site_fract_y
_atom_site_fract_z
Si Si1 0.314171 0.212679 0.106459
Si Si2 0.684972 0.505057 0.390058
Si Si3 0.669099 0.797371 0.316511
Si Si4 0.435451 0.603919 0.735917
Si Si5 0.809845 0.949319 0.609501
Si Si6 0.988956 0.335660 0.889080
O O1 0.235169 0.135331 0.123202
O O2 0.360120 0.172765 0.204292
O O3 0.307770 0.381366 0.104028
O O4 0.347927 0.162040 0.000000
O O5 0.685779 0.561466 0.500000
O O6 0.708571 0.640483 0.322767
O O7 0.601525 0.465961 0.359749
O O8 0.729629 0.911793 0.347960
O O9 0.598432 0.801489 0.386660
O O10 0.500000 0.500000 0.775166
O O11 0.374953 0.617583 0.822991
O O12 0.467365 0.753885 0.697565
O O13 0.821108 0.885980 0.500000
O O14 0.000000 0.500000 0.865016
O O15 0.016978 0.298929 0.000000
#
# Coordination Sequence:
#
# PCOD8238222 Si02
#       6
#     8   8   8   8   8   8
#     4  10  21  38  62  93 123 158 207 256 312 377
#     4  11  22  36  61  92 124 163 204 258 317 379
#     4  12  21  42  62  93 128 162 210 269 320 378
#     4  12  23  41  63  91 130 170 210 266 321 388
#     4  11  24  41  65  94 126 170 216 263 319 384
#     4  11  26  42  62  93 129 170 213 266 328 386
#
# _framework density 20.830719999999999
#
# number of rings (size 3 to 8) (size 9 to 14) (size 15 to 20)
#    0.000    0.833    5.000    2.000    2.333    2.333 
#    0.000    0.833    0.000    1.000    0.000    0.000 
#    0.000    0.000    0.000    0.000    0.000    0.000 
#
# Total GULP energy -594734.981029 kJ/mol
# GULP energy per Si atom -12390.312105 kJ/mol
# Density = 2.078331 g / cm^3
# Si number density = 20.830720 Si / 1000 Ang^3
#
#
#
# Elastic Constant Matrix: (Units=GPa)
#
#
# Indices 1 2 3 4 5 6 
#
# 1 61.4093 24.6645 24.7440 0.0000 0.0000 0.0000
# 2 24.6645 73.3160 32.4290 0.0000 0.0000 0.0000
# 3 24.7440 32.4290 156.4226 0.0000 0.0000 0.0000
# 4 0.0000 0.0000 0.0000 24.5975 0.0000 0.0000
# 5 0.0000 0.0000 0.0000 0.0000 29.6795 0.0000
# 6 0.0000 0.0000 0.0000 0.0000 0.0000 30.8761
#
#
#
# Elastic Compliance Matrix: (Units=1/GPa)
#
#
# Indices 1 2 3 4 5 6 
#
# 1 0.019318 -0.005667 -0.001881 0.000000 0.000000 0.000000
# 2 -0.005667 0.016679 -0.002561 0.000000 0.000000 0.000000
# 3 -0.001881 -0.002561 0.007222 0.000000 0.000000 0.000000
# 4 0.000000 0.000000 0.000000 0.040655 0.000000 0.000000
# 5 0.000000 0.000000 0.000000 0.000000 0.033693 0.000000
# 6 0.000000 0.000000 0.000000 0.000000 0.000000 0.032388
#
#
# Mechanical properties :
#
#
# Convention : Reuss Voigt Hill
#
# Bulk Modulus (GPa) = 43.47825 50.53588 47.00706
# Shear Modulus (GPa) = 28.11526 30.98464 29.54995
#
# Velocity S-wave (km/s) = 3.67781 3.86093 3.77048
# Velocity P-wave (km/s) = 6.24120 6.64745 6.44753
#
# Compressibility (1/GPa) = 0.02300001
#
# Stress axis : x y z
#
# Youngs Moduli (GPa) = 51.76473 59.95579 138.47512
#
# Poissons Ratio (x) = 0.33976 0.26048
# Poissons Ratio (y) = 0.29334 0.35469
# Poissons Ratio (z) = 0.09737 0.15357
#
# Static dielectric constant tensor:
#      x y z
#    x 3.544320 0.000000 0.000000 
#    y 0.000000 3.878970 0.000000 
#    z 0.000000 0.000000 4.394760 
# 
# 
# High freq. dielectric constant tensor:
#      x y z
#    x 1.785570 0.000000 0.000000 
#    y 0.000000 1.817480 0.000000 
#    z 0.000000 0.000000 1.838110 
# 
# From -- ./inp_files/19844.got.cif
#   From: 2010.06.25/outbox.cif.g09.slc.cpg/sg58_10_cif.got.tgz:19844.got - 2010.06.26 21:38:00.
