data_PCOD8238005
_publ_section_title
;
Structure prediction by ZEFSAII (Michael W. Deem and Ramdas Pophale) SiO2 
 PCOD8238005
Probable space group: P N N M
;
_chemical_formula_sum "Si O2"
_cell_formula_units_Z 48
_cell_length_a 8.645691
_cell_length_b 19.177443
_cell_length_c 13.900585
_cell_angle_alpha 90.000000
_cell_angle_beta 90.000000
_cell_angle_gamma 90.000000
_cell_volume 2304.748219
_symmetry_space_group_name_H-M "P N N M"
_symmetry_group_IT_number 58
_symmetry_cell_setting 'orthorhombic'
loop_
_space_group_symop_operation_xyz
x,y,z
-x,-y,z
1/2+x,1/2-y,1/2-z
1/2-x,1/2+y,1/2-z
-x,-y,-z
x,y,-z
1/2-x,1/2+y,1/2+z
1/2+x,1/2-y,1/2+z
loop_
_atom_site_type_symbol
_atom_site_label
_atom_site_fract_x
_atom_site_fract_y
_atom_site_fract_z
Si Si1 0.388123 0.303202 0.213591
Si Si2 0.261751 0.945438 0.893721
Si Si3 0.929375 0.671371 0.296167
Si Si4 0.297155 0.076406 0.228259
Si Si5 0.440267 0.577761 0.107904
Si Si6 0.968585 0.862581 0.890792
O O1 0.201194 0.300088 0.221057
O O2 0.465061 0.235189 0.163932
O O3 0.430605 0.372288 0.154389
O O4 0.459519 0.303691 0.321548
O O5 0.344777 0.869967 0.882463
O O6 0.077755 0.931618 0.884162
O O7 0.321868 0.998011 0.811565
O O8 0.300777 0.975001 0.000000
O O9 0.042747 0.614734 0.248110
O O10 0.214671 0.078996 0.330595
O O11 0.200962 0.116145 0.145359
O O12 0.500000 0.500000 0.107605
O O13 0.403208 0.603322 0.000000
O O14 0.958695 0.834206 0.000000
#
# Coordination Sequence:
#
# PCOD8238005 Si02
#       6
#     8   8   8   8   8   8
#     4  10  21  40  58  80 114 151 194 243 291 339
#     4  10  21  36  59  93 126 154 188 233 288 350
#     4  11  23  38  58  82 116 157 195 238 293 348
#     4  11  20  35  60  88 123 155 188 238 293 349
#     4  10  21  39  63  87 112 150 198 242 288 346
#     4   9  18  34  59  88 118 152 188 229 284 351
#
# _framework density 20.826571000000001
#
# number of rings (size 3 to 8) (size 9 to 14) (size 15 to 20)
#    0.000    1.833    0.000    6.500    0.000    4.000 
#    0.000    7.500    0.000    5.000    0.000    0.000 
#    0.000    0.000    0.000    0.000    0.000    0.000 
#
# Total GULP energy -594922.318425 kJ/mol
# GULP energy per Si atom -12394.214967 kJ/mol
# Density = 2.077917 g / cm^3
# Si number density = 20.826571 Si / 1000 Ang^3
#
#
#
# Elastic Constant Matrix: (Units=GPa)
#
#
# Indices 1 2 3 4 5 6 
#
# 1 118.7884 42.3860 33.3425 0.0000 0.0000 0.0000
# 2 42.3860 79.2125 12.4135 0.0000 0.0000 0.0000
# 3 33.3425 12.4135 113.0862 0.0000 0.0000 0.0000
# 4 0.0000 0.0000 0.0000 17.3250 0.0000 0.0000
# 5 0.0000 0.0000 0.0000 0.0000 2.3185 0.0000
# 6 0.0000 0.0000 0.0000 0.0000 0.0000 43.3978
#
#
#
# Elastic Compliance Matrix: (Units=1/GPa)
#
#
# Indices 1 2 3 4 5 6 
#
# 1 0.011149 -0.005546 -0.002678 0.000000 0.000000 0.000000
# 2 -0.005546 0.015604 -0.000078 0.000000 0.000000 0.000000
# 3 -0.002678 -0.000078 0.009641 0.000000 0.000000 0.000000
# 4 0.000000 0.000000 0.000000 0.057720 0.000000 0.000000
# 5 0.000000 0.000000 0.000000 0.000000 0.431315 0.000000
# 6 0.000000 0.000000 0.000000 0.000000 0.000000 0.023043
#
#
# Mechanical properties :
#
#
# Convention : Reuss Voigt Hill
#
# Bulk Modulus (GPa) = 50.53068 54.15234 52.34151
# Shear Modulus (GPa) = 8.74626 27.47127 18.10877
#
# Velocity S-wave (km/s) = 2.05151 3.63581 2.95193
# Velocity P-wave (km/s) = 5.47054 6.60935 6.06673
#
# Compressibility (1/GPa) = 0.01978996
#
# Stress axis : x y z
#
# Youngs Moduli (GPa) = 89.69371 64.08584 103.72323
#
# Poissons Ratio (x) = 0.35542 0.27781
# Poissons Ratio (y) = 0.49744 0.00806
# Poissons Ratio (z) = 0.24024 0.00498
#
# Static dielectric constant tensor:
#      x y z
#    x 3.891220 0.000000 0.000000 
#    y 0.000000 3.748690 0.000000 
#    z 0.000000 0.000000 3.717590 
# 
# 
# High freq. dielectric constant tensor:
#      x y z
#    x 1.822940 0.000000 0.000000 
#    y 0.000000 1.813070 0.000000 
#    z 0.000000 0.000000 1.787950 
# 
# From -- ./inp_files/19991.got.cif
#   From: 2010.06.25/outbox.cif.g09.slc.cpg/sg58_10_cif.got.tgz:19991.got - 2010.06.26 21:38:00.
