data_PCOD8238205
_publ_section_title
;
Structure prediction by ZEFSAII (Michael W. Deem and Ramdas Pophale) SiO2 
 PCOD8238205
Probable space group: P N N M
;
_chemical_formula_sum "Si O2"
_cell_formula_units_Z 56
_cell_length_a 11.110582
_cell_length_b 15.969808
_cell_length_c 15.225053
_cell_angle_alpha 90.000000
_cell_angle_beta 90.000000
_cell_angle_gamma 90.000000
_cell_volume 2701.439942
_symmetry_space_group_name_H-M "P N N M"
_symmetry_group_IT_number 58
_symmetry_cell_setting 'orthorhombic'
loop_
_space_group_symop_operation_xyz
x,y,z
-x,-y,z
1/2+x,1/2-y,1/2-z
1/2-x,1/2+y,1/2-z
-x,-y,-z
x,y,-z
1/2-x,1/2+y,1/2+z
1/2+x,1/2-y,1/2+z
loop_
_atom_site_type_symbol
_atom_site_label
_atom_site_fract_x
_atom_site_fract_y
_atom_site_fract_z
Si Si1 0.613802 0.289874 0.787136
Si Si2 0.777639 0.433647 0.738691
Si Si3 0.540057 0.590835 0.901054
Si Si4 0.698879 0.046530 0.400619
Si Si5 0.184265 0.775545 0.099724
Si Si6 0.486357 0.150452 0.683806
Si Si7 0.629486 0.537442 0.397160
O O1 0.691010 0.354576 0.730095
O O2 0.513189 0.335603 0.843749
O O3 0.693631 0.229256 0.846267
O O4 0.552047 0.230923 0.718437
O O5 0.766202 0.470240 0.837241
O O6 0.917223 0.400968 0.737703
O O7 0.738998 0.498009 0.661498
O O8 0.500000 0.500000 0.862781
O O9 0.684059 0.606076 0.899040
O O10 0.489480 0.597601 0.000000
O O11 0.676472 0.013754 0.500000
O O12 0.578525 0.090918 0.366874
O O13 0.107090 0.691442 0.115385
O O14 0.119767 0.863706 0.124056
O O15 0.223463 0.777873 0.000000
O O16 0.500000 0.500000 0.369798
O O17 0.657431 0.519399 0.500000
#
# Coordination Sequence:
#
# PCOD8238205 Si02
#       7
#     8   8   8   8   8   8   8
#     4  11  23  38  62  88 126 164 205 259 313 376
#     4  11  24  39  66  93 121 170 212 258 311 381
#     4  10  21  38  61  91 122 163 215 261 314 377
#     4  11  24  41  65  95 131 168 211 266 319 384
#     4  10  22  40  62  87 120 162 206 253 312 372
#     4  11  25  39  60  94 130 164 203 259 321 376
#     4  10  22  42  68  93 122 165 219 269 312 376
#
# _framework density 20.729685
#
# number of rings (size 3 to 8) (size 9 to 14) (size 15 to 20)
#    0.000    1.429    1.429    3.000    8.000    3.429 
#    0.000    2.143    0.000    3.429    0.000    0.000 
#    0.000    0.000    0.000    0.000    0.000    0.000 
#
# Total GULP energy -694159.571343 kJ/mol
# GULP energy per Si atom -12395.706631 kJ/mol
# Density = 2.068250 g / cm^3
# Si number density = 20.729685 Si / 1000 Ang^3
#
#
#
# Elastic Constant Matrix: (Units=GPa)
#
#
# Indices 1 2 3 4 5 6 
#
# 1 86.9189 23.9001 25.6925 0.0000 0.0000 0.0000
# 2 23.9001 74.9331 32.5583 0.0000 0.0000 0.0000
# 3 25.6925 32.5583 80.9328 0.0000 0.0000 0.0000
# 4 0.0000 0.0000 0.0000 30.9245 0.0000 0.0000
# 5 0.0000 0.0000 0.0000 0.0000 5.4046 0.0000
# 6 0.0000 0.0000 0.0000 0.0000 0.0000 46.3117
#
#
#
# Elastic Compliance Matrix: (Units=1/GPa)
#
#
# Indices 1 2 3 4 5 6 
#
# 1 0.013195 -0.002894 -0.003024 0.000000 0.000000 0.000000
# 2 -0.002894 0.016807 -0.005842 0.000000 0.000000 0.000000
# 3 -0.003024 -0.005842 0.015666 0.000000 0.000000 0.000000
# 4 0.000000 0.000000 0.000000 0.032337 0.000000 0.000000
# 5 0.000000 0.000000 0.000000 0.000000 0.185027 0.000000
# 6 0.000000 0.000000 0.000000 0.000000 0.000000 0.021593
#
#
# Mechanical properties :
#
#
# Convention : Reuss Voigt Hill
#
# Bulk Modulus (GPa) = 45.15538 45.23184 45.19361
# Shear Modulus (GPa) = 15.84642 27.23709 21.54175
#
# Velocity S-wave (km/s) = 2.76783 3.62873 3.22712
# Velocity P-wave (km/s) = 5.66081 6.27886 5.97783
#
# Compressibility (1/GPa) = 0.02214576
#
# Stress axis : x y z
#
# Youngs Moduli (GPa) = 75.78722 59.49921 63.83111
#
# Poissons Ratio (x) = 0.17222 0.19305
# Poissons Ratio (y) = 0.21936 0.37293
# Poissons Ratio (z) = 0.22921 0.34762
#
# Static dielectric constant tensor:
#      x y z
#    x 3.753080 0.000000 0.000000 
#    y 0.000000 4.035800 0.000000 
#    z 0.000000 0.000000 3.634210 
# 
# 
# High freq. dielectric constant tensor:
#      x y z
#    x 1.820880 0.000000 0.000000 
#    y 0.000000 1.814800 0.000000 
#    z 0.000000 0.000000 1.800860 
# 
# From -- ./inp_files/21238.got.cif
#   From: 2010.06.25/outbox.cif.g09.slc.cpg/sg58_11_cif.got.tgz:21238.got - 2010.06.26 21:38:00.
