data_PCOD8238628
_publ_section_title
;
Structure prediction by ZEFSAII (Michael W. Deem and Ramdas Pophale) SiO2 
 PCOD8238628
Probable space group: P N N M
;
_chemical_formula_sum "Si O2"
_cell_formula_units_Z 40
_cell_length_a 9.557718
_cell_length_b 9.203513
_cell_length_c 21.756995
_cell_angle_alpha 90.000000
_cell_angle_beta 90.000000
_cell_angle_gamma 90.000000
_cell_volume 1913.844968
_symmetry_space_group_name_H-M "P N N M"
_symmetry_group_IT_number 58
_symmetry_cell_setting 'orthorhombic'
loop_
_space_group_symop_operation_xyz
x,y,z
-x,-y,z
1/2+x,1/2-y,1/2-z
1/2-x,1/2+y,1/2-z
-x,-y,-z
x,y,-z
1/2-x,1/2+y,1/2+z
1/2+x,1/2-y,1/2+z
loop_
_atom_site_type_symbol
_atom_site_label
_atom_site_fract_x
_atom_site_fract_y
_atom_site_fract_z
Si Si1 0.631475 0.594795 0.609650
Si Si2 0.398504 0.191892 0.800913
Si Si3 0.701216 0.122072 0.772741
Si Si4 0.957474 0.650282 0.930702
Si Si5 0.800123 0.335042 0.430237
O O1 0.500000 0.500000 0.633318
O O2 0.713021 0.662298 0.666694
O O3 0.582028 0.733033 0.570720
O O4 0.730993 0.494913 0.567369
O O5 0.553820 0.209613 0.773188
O O6 0.298217 0.327556 0.784318
O O7 0.415267 0.172848 0.875632
O O8 0.325999 0.050178 0.770810
O O9 0.814261 0.719104 0.905562
O O10 0.000000 0.500000 0.895324
O O11 0.923966 0.608284 0.000000
O O12 0.857725 0.303445 0.500000
#
# Coordination Sequence:
#
# PCOD8238628 Si02
#       5
#     8   8   8   8   8
#     4   9  18  33  56  80 113 147 191 234 289 345
#     4  10  23  40  59  88 116 155 195 244 293 352
#     4  10  23  39  58  86 119 149 198 240 293 352
#     4   9  17  29  50  81 114 148 189 234 282 342
#     4   9  18  35  57  80 113 153 191 236 292 346
#
# _framework density 20.900334999999998
#
# number of rings (size 3 to 8) (size 9 to 14) (size 15 to 20)
#    0.000    2.600    0.000    0.600    8.400    4.000 
#    0.000    9.000    0.000    0.000    0.000    7.000 
#    0.000    0.000    0.000    0.000    0.000    0.000 
#
# Total GULP energy -495592.985870 kJ/mol
# GULP energy per Si atom -12389.824647 kJ/mol
# Density = 2.085276 g / cm^3
# Si number density = 20.900335 Si / 1000 Ang^3
#
#
#
# Elastic Constant Matrix: (Units=GPa)
#
#
# Indices 1 2 3 4 5 6 
#
# 1 62.7062 11.8345 22.5745 0.0000 0.0000 0.0000
# 2 11.8345 87.8358 14.0478 0.0000 0.0000 0.0000
# 3 22.5745 14.0478 88.1282 0.0000 0.0000 0.0000
# 4 0.0000 0.0000 0.0000 26.8911 0.0000 0.0000
# 5 0.0000 0.0000 0.0000 0.0000 27.6292 0.0000
# 6 0.0000 0.0000 0.0000 0.0000 0.0000 23.2600
#
#
#
# Elastic Compliance Matrix: (Units=1/GPa)
#
#
# Indices 1 2 3 4 5 6 
#
# 1 0.017815 -0.001714 -0.004290 0.000000 0.000000 0.000000
# 2 -0.001714 0.011848 -0.001449 0.000000 0.000000 0.000000
# 3 -0.004290 -0.001449 0.012677 0.000000 0.000000 0.000000
# 4 0.000000 0.000000 0.000000 0.037187 0.000000 0.000000
# 5 0.000000 0.000000 0.000000 0.000000 0.036194 0.000000
# 6 0.000000 0.000000 0.000000 0.000000 0.000000 0.042992
#
#
# Mechanical properties :
#
#
# Convention : Reuss Voigt Hill
#
# Bulk Modulus (GPa) = 36.45327 37.28710 36.87019
# Shear Modulus (GPa) = 27.35751 28.23693 27.79722
#
# Velocity S-wave (km/s) = 3.62187 3.67962 3.65086
# Velocity P-wave (km/s) = 5.91354 5.99433 5.95407
#
# Compressibility (1/GPa) = 0.02743238
#
# Stress axis : x y z
#
# Youngs Moduli (GPa) = 56.13118 84.40485 78.88224
#
# Poissons Ratio (x) = 0.14469 0.33843
# Poissons Ratio (y) = 0.09622 0.11434
# Poissons Ratio (z) = 0.24082 0.12234
#
# Static dielectric constant tensor:
#      x y z
#    x 3.719320 0.000000 0.000000 
#    y 0.000000 3.977450 0.000000 
#    z 0.000000 0.000000 3.572550 
# 
# 
# High freq. dielectric constant tensor:
#      x y z
#    x 1.800790 0.000000 0.000000 
#    y 0.000000 1.809710 0.000000 
#    z 0.000000 0.000000 1.807970 
# 
# From -- ./inp_files/31265.got.cif
#   From: 2010.06.25/outbox.cif.g09.slc.cpg/sg58_16_cif.got.tgz:31265.got - 2010.06.26 21:38:00.
