data_PCOD8238465
_publ_section_title
;
Structure prediction by ZEFSAII (Michael W. Deem and Ramdas Pophale) SiO2 
 PCOD8238465
Probable space group: P N N M
;
_chemical_formula_sum "Si O2"
_cell_formula_units_Z 48
_cell_length_a 8.918078
_cell_length_b 22.059059
_cell_length_c 12.432310
_cell_angle_alpha 90.000000
_cell_angle_beta 90.000000
_cell_angle_gamma 90.000000
_cell_volume 2445.738834
_symmetry_space_group_name_H-M "P N N M"
_symmetry_group_IT_number 58
_symmetry_cell_setting 'orthorhombic'
loop_
_space_group_symop_operation_xyz
x,y,z
-x,-y,z
1/2+x,1/2-y,1/2-z
1/2-x,1/2+y,1/2-z
-x,-y,-z
x,y,-z
1/2-x,1/2+y,1/2+z
1/2+x,1/2-y,1/2+z
loop_
_atom_site_type_symbol
_atom_site_label
_atom_site_fract_x
_atom_site_fract_y
_atom_site_fract_z
Si Si1 0.640872 0.627500 0.619420
Si Si2 0.150994 0.257372 0.380330
Si Si3 0.171100 0.017293 0.626229
Si Si4 0.151013 0.136904 0.249596
Si Si5 0.377132 0.952247 0.207949
Si Si6 0.068148 0.644906 0.622364
O O1 0.571580 0.629368 0.500000
O O2 0.733242 0.688452 0.643226
O O3 0.515329 0.623609 0.710075
O O4 0.742473 0.566267 0.626811
O O5 0.175255 0.231553 0.500000
O O6 0.171585 0.202773 0.299464
O O7 0.983053 0.284955 0.368622
O O8 0.201043 0.011969 0.500000
O O9 0.198242 0.085893 0.664833
O O10 0.296918 0.974278 0.682109
O O11 0.000000 0.000000 0.655193
O O12 0.256898 0.136308 0.145123
O O13 0.476116 0.891094 0.215656
O O14 0.500000 0.000000 0.162147
O O15 0.033126 0.621785 0.500000
#
# Coordination Sequence:
#
# PCOD8238465 Si02
#       6
#     8   8   8   8   8   8
#     4  10  22  38  59  88 121 152 194 246 290 346
#     4   9  20  38  59  84 115 155 196 242 296 344
#     4  11  24  42  60  85 119 151 194 244 288 343
#     4  12  20  38  61  88 114 159 198 240 293 349
#     4  11  21  41  60  85 116 156 192 233 298 346
#     4  10  22  38  59  88 121 154 192 243 296 347
#
# _framework density 19.625972999999998
#
# number of rings (size 3 to 8) (size 9 to 14) (size 15 to 20)
#    0.000    1.500    3.333    3.500    0.000    1.667 
#    0.000    0.833    0.000    4.000    0.000    0.000 
#    0.000    0.000    0.000    0.000    0.000    0.000 
#
# Total GULP energy -594641.276462 kJ/mol
# GULP energy per Si atom -12388.359926 kJ/mol
# Density = 1.958130 g / cm^3
# Si number density = 19.625973 Si / 1000 Ang^3
#
#
#
# Elastic Constant Matrix: (Units=GPa)
#
#
# Indices 1 2 3 4 5 6 
#
# 1 103.2455 39.3263 49.9696 0.0000 0.0000 0.0000
# 2 39.3263 100.6808 66.2430 0.0000 0.0000 0.0000
# 3 49.9696 66.2430 95.1733 0.0000 0.0000 0.0000
# 4 0.0000 0.0000 0.0000 26.8958 0.0000 0.0000
# 5 0.0000 0.0000 0.0000 0.0000 31.0870 0.0000
# 6 0.0000 0.0000 0.0000 0.0000 0.0000 24.9510
#
#
#
# Elastic Compliance Matrix: (Units=1/GPa)
#
#
# Indices 1 2 3 4 5 6 
#
# 1 0.013050 -0.001087 -0.006095 0.000000 0.000000 0.000000
# 2 -0.001087 0.018414 -0.012246 0.000000 0.000000 0.000000
# 3 -0.006095 -0.012246 0.022231 0.000000 0.000000 0.000000
# 4 0.000000 0.000000 0.000000 0.037181 0.000000 0.000000
# 5 0.000000 0.000000 0.000000 0.000000 0.032168 0.000000
# 6 0.000000 0.000000 0.000000 0.000000 0.000000 0.040079
#
#
# Mechanical properties :
#
#
# Convention : Reuss Voigt Hill
#
# Bulk Modulus (GPa) = 67.39187 67.79749 67.59468
# Shear Modulus (GPa) = 24.16348 26.15745 25.16047
#
# Velocity S-wave (km/s) = 3.51265 3.65471 3.58438
# Velocity P-wave (km/s) = 7.13192 7.24079 7.18656
#
# Compressibility (1/GPa) = 0.01483859
#
# Stress axis : x y z
#
# Youngs Moduli (GPa) = 76.63082 54.30568 44.98273
#
# Poissons Ratio (x) = 0.05903 0.27417
# Poissons Ratio (y) = 0.08330 0.55086
# Poissons Ratio (z) = 0.46706 0.66503
#
# Static dielectric constant tensor:
#      x y z
#    x 3.748610 0.000000 0.000000 
#    y 0.000000 3.561210 0.000000 
#    z 0.000000 0.000000 3.332600 
# 
# 
# High freq. dielectric constant tensor:
#      x y z
#    x 1.774050 0.000000 0.000000 
#    y 0.000000 1.764100 0.000000 
#    z 0.000000 0.000000 1.747760 
# 
# From -- ./inp_files/13036.got.cif
#   From: 2010.06.25/outbox.cif.g09.slc.cpg/sg58_7_cif.got.tgz:13036.got - 2010.06.26 21:38:00.
