data_PCOD8238266
_publ_section_title
;
Structure prediction by ZEFSAII (Michael W. Deem and Ramdas Pophale) SiO2 
 PCOD8238266
Probable space group: P N N M
;
_chemical_formula_sum "Si O2"
_cell_formula_units_Z 48
_cell_length_a 9.339720
_cell_length_b 28.552425
_cell_length_c 8.712932
_cell_angle_alpha 90.000000
_cell_angle_beta 90.000000
_cell_angle_gamma 90.000000
_cell_volume 2323.491995
_symmetry_space_group_name_H-M "P N N M"
_symmetry_group_IT_number 58
_symmetry_cell_setting 'orthorhombic'
loop_
_space_group_symop_operation_xyz
x,y,z
-x,-y,z
1/2+x,1/2-y,1/2-z
1/2-x,1/2+y,1/2-z
-x,-y,-z
x,y,-z
1/2-x,1/2+y,1/2+z
1/2+x,1/2-y,1/2+z
loop_
_atom_site_type_symbol
_atom_site_label
_atom_site_fract_x
_atom_site_fract_y
_atom_site_fract_z
Si Si1 0.853541 0.981003 0.820378
Si Si2 0.996920 0.800724 0.321831
Si Si3 0.302638 0.787811 0.177800
Si Si4 0.695891 0.376598 0.317855
Si Si5 0.619422 0.038731 0.330008
Si Si6 0.994566 0.363658 0.180644
O O1 0.811949 0.929956 0.753795
O O2 0.738232 0.020716 0.786072
O O3 0.871122 0.975116 0.000000
O O4 0.000000 0.000000 0.745951
O O5 0.034292 0.807213 0.500000
O O6 0.139610 0.785096 0.233764
O O7 0.873823 0.762474 0.295429
O O8 0.938474 0.849329 0.254053
O O9 0.389106 0.825192 0.276899
O O10 0.307057 0.802463 0.000000
O O11 0.685138 0.373627 0.500000
O O12 0.844926 0.353413 0.264923
O O13 0.684747 0.047461 0.500000
O O14 0.554498 0.086422 0.262539
O O15 0.500000 0.000000 0.341070
O O16 0.965276 0.363285 0.000000
#
# Coordination Sequence:
#
# PCOD8238266 Si02
#       6
#     8   8   8   8   8   8
#     4  10  23  40  59  88 125 165 208 256 308 364
#     4  11  25  44  67  94 126 163 204 253 310 369
#     4  11  25  44  67  95 126 162 203 253 309 370
#     4  11  23  40  63  92 126 167 210 257 312 367
#     4  10  21  39  61  89 123 163 208 254 304 363
#     4  11  23  40  64  93 126 164 209 258 311 369
#
# _framework density 20.658560000000001
#
# number of rings (size 3 to 8) (size 9 to 14) (size 15 to 20)
#    0.000    1.333    1.667    3.000    2.333    8.000 
#    0.000    0.000    0.000    0.000    0.000    0.000 
#    0.000    0.000    0.000    0.000    0.000    0.000 
#
# Total GULP energy -595413.273286 kJ/mol
# GULP energy per Si atom -12404.443193 kJ/mol
# Density = 2.061154 g / cm^3
# Si number density = 20.658560 Si / 1000 Ang^3
#
#
#
# Elastic Constant Matrix: (Units=GPa)
#
#
# Indices 1 2 3 4 5 6 
#
# 1 118.5392 24.0517 25.9671 0.0000 0.0000 0.0000
# 2 24.0517 75.0104 28.9040 0.0000 0.0000 0.0000
# 3 25.9671 28.9040 56.6485 0.0000 0.0000 0.0000
# 4 0.0000 0.0000 0.0000 31.1063 0.0000 0.0000
# 5 0.0000 0.0000 0.0000 0.0000 34.3458 0.0000
# 6 0.0000 0.0000 0.0000 0.0000 0.0000 39.3271
#
#
#
# Elastic Compliance Matrix: (Units=1/GPa)
#
#
# Indices 1 2 3 4 5 6 
#
# 1 0.009551 -0.001712 -0.003505 0.000000 0.000000 0.000000
# 2 -0.001712 0.016901 -0.007839 0.000000 0.000000 0.000000
# 3 -0.003505 -0.007839 0.023259 0.000000 0.000000 0.000000
# 4 0.000000 0.000000 0.000000 0.032148 0.000000 0.000000
# 5 0.000000 0.000000 0.000000 0.000000 0.029116 0.000000
# 6 0.000000 0.000000 0.000000 0.000000 0.000000 0.025428
#
#
# Mechanical properties :
#
#
# Convention : Reuss Voigt Hill
#
# Bulk Modulus (GPa) = 42.37252 45.33817 43.85534
# Shear Modulus (GPa) = 29.34629 32.37420 30.86024
#
# Velocity S-wave (km/s) = 3.77309 3.96297 3.86919
# Velocity P-wave (km/s) = 6.28785 6.55242 6.42150
#
# Compressibility (1/GPa) = 0.02360020
#
# Stress axis : x y z
#
# Youngs Moduli (GPa) = 104.69983 59.16828 42.99462
#
# Poissons Ratio (x) = 0.10130 0.15068
# Poissons Ratio (y) = 0.17926 0.33702
# Poissons Ratio (z) = 0.36693 0.46380
#
# Static dielectric constant tensor:
#      x y z
#    x 3.585970 0.000000 0.000000 
#    y 0.000000 3.684890 0.000000 
#    z 0.000000 0.000000 3.709810 
# 
# 
# High freq. dielectric constant tensor:
#      x y z
#    x 1.816380 0.000000 0.000000 
#    y 0.000000 1.819470 0.000000 
#    z 0.000000 0.000000 1.806990 
# 
# From -- ./inp_files/2865.got.cif
#   From: 2010.06.25/outbox.cif.g09.slc.cpg/sg58_2_cif.got.tgz:2865.got - 2010.06.26 21:38:00.
