data_PCOD8238144
_publ_section_title
;
Structure prediction by ZEFSAII (Michael W. Deem and Ramdas Pophale) SiO2 
 PCOD8238144
Probable space group: P N N M
;
_chemical_formula_sum "Si O2"
_cell_formula_units_Z 40
_cell_length_a 9.651782
_cell_length_b 14.262875
_cell_length_c 14.429802
_cell_angle_alpha 90.000000
_cell_angle_beta 90.000000
_cell_angle_gamma 90.000000
_cell_volume 1986.437714
_symmetry_space_group_name_H-M "P N N M"
_symmetry_group_IT_number 58
_symmetry_cell_setting 'orthorhombic'
loop_
_space_group_symop_operation_xyz
x,y,z
-x,-y,z
1/2+x,1/2-y,1/2-z
1/2-x,1/2+y,1/2-z
-x,-y,-z
x,y,-z
1/2-x,1/2+y,1/2+z
1/2+x,1/2-y,1/2+z
loop_
_atom_site_type_symbol
_atom_site_label
_atom_site_fract_x
_atom_site_fract_y
_atom_site_fract_z
Si Si1 0.497571 0.606877 0.291401
Si Si2 0.200098 0.763322 0.894067
Si Si3 0.703435 0.262773 0.393378
Si Si4 0.502211 0.304003 0.895385
Si Si5 0.002243 0.396576 0.891604
O O1 0.500000 0.500000 0.322613
O O2 0.635479 0.656731 0.329819
O O3 0.358814 0.653867 0.332057
O O4 0.496458 0.612771 0.179437
O O5 0.364872 0.762311 0.879663
O O6 0.136542 0.661731 0.866052
O O7 0.160354 0.786229 0.000000
O O8 0.662902 0.281446 0.500000
O O9 0.636440 0.163815 0.359839
O O10 0.868173 0.261138 0.379361
O O11 0.502335 0.346752 0.000000
O O12 0.000000 0.500000 0.843200
O O13 0.011939 0.413274 0.000000
#
# Coordination Sequence:
#
# PCOD8238144 Si02
#       5
#     8   8   8   8   8
#     4  11  22  36  57  84 115 151 187 224 272 337
#     4   9  19  36  57  81 111 147 187 232 278 328
#     4   9  19  36  57  81 111 147 187 232 278 328
#     4  10  21  38  58  80 111 148 186 234 285 324
#     4   8  14  27  49  76 106 142 181 219 265 323
#
# _framework density 20.136548999999999
#
# number of rings (size 3 to 8) (size 9 to 14) (size 15 to 20)
#    0.000    2.600    0.000    3.000    0.000    3.600 
#    0.000    5.000    0.000    3.600    0.000    0.000 
#    0.000    0.000    0.000    0.000    0.000    0.000 
#
# Total GULP energy -495840.730564 kJ/mol
# GULP energy per Si atom -12396.018264 kJ/mol
# Density = 2.009072 g / cm^3
# Si number density = 20.136549 Si / 1000 Ang^3
#
#
#
# Elastic Constant Matrix: (Units=GPa)
#
#
# Indices 1 2 3 4 5 6 
#
# 1 161.3543 48.2735 33.9389 0.0000 0.0000 0.0000
# 2 48.2735 145.7660 49.1004 0.0000 0.0000 0.0000
# 3 33.9389 49.1004 99.0092 0.0000 0.0000 0.0000
# 4 0.0000 0.0000 0.0000 18.4470 0.0000 0.0000
# 5 0.0000 0.0000 0.0000 0.0000 15.1868 0.0000
# 6 0.0000 0.0000 0.0000 0.0000 0.0000 -1.9626
#
#
#
# Elastic Compliance Matrix: (Units=1/GPa)
#
#
# Indices 1 2 3 4 5 6 
#
# 1 0.007063 -0.001829 -0.001514 0.000000 0.000000 0.000000
# 2 -0.001829 0.008710 -0.003692 0.000000 0.000000 0.000000
# 3 -0.001514 -0.003692 0.012450 0.000000 0.000000 0.000000
# 4 0.000000 0.000000 0.000000 0.054209 0.000000 0.000000
# 5 0.000000 0.000000 0.000000 0.000000 0.065847 0.000000
# 6 0.000000 0.000000 0.000000 0.000000 0.000000 -0.509524
#
#
# Mechanical properties :
#
#
# Convention : Reuss Voigt Hill
#
# Bulk Modulus (GPa) = 70.66082 74.30612 72.48347
# Shear Modulus (GPa) = -14.60041 24.65534 5.02747
#
# Velocity S-wave (km/s) = -2.69563 3.50295 1.58181
# Velocity P-wave (km/s) = 5.04762 7.30357 6.27776
#
# Compressibility (1/GPa) = 0.01415211
#
# Stress axis : x y z
#
# Youngs Moduli (GPa) = 141.57806 114.81295 80.32009
#
# Poissons Ratio (x) = 0.21001 0.12161
# Poissons Ratio (y) = 0.25897 0.29657
# Poissons Ratio (z) = 0.21436 0.42393
#
# Static dielectric constant tensor:
#      x y z
#    x 3.747930 0.000000 0.000000 
#    y 0.000000 3.412460 0.000000 
#    z 0.000000 0.000000 3.730470 
# 
# 
# High freq. dielectric constant tensor:
#      x y z
#    x 1.797020 0.000000 0.000000 
#    y 0.000000 1.746900 0.000000 
#    z 0.000000 0.000000 1.784910 
# 
# From -- ./inp_files/19457.got.cif
#   From: 2010.06.25/outbox.cif.g09.slc.cpg/sg58_10_cif.got.tgz:19457.got - 2010.06.26 21:38:00.
