data_PCOD8238048
_publ_section_title
;
Structure prediction by ZEFSAII (Michael W. Deem and Ramdas Pophale) SiO2 
 PCOD8238048
Probable space group: P N N M
;
_chemical_formula_sum "Si O2"
_cell_formula_units_Z 48
_cell_length_a 23.627361
_cell_length_b 11.968563
_cell_length_c 9.019595
_cell_angle_alpha 90.000000
_cell_angle_beta 90.000000
_cell_angle_gamma 90.000000
_cell_volume 2550.611211
_symmetry_space_group_name_H-M "P N N M"
_symmetry_group_IT_number 58
_symmetry_cell_setting 'orthorhombic'
loop_
_space_group_symop_operation_xyz
x,y,z
-x,-y,z
1/2+x,1/2-y,1/2-z
1/2-x,1/2+y,1/2-z
-x,-y,-z
x,y,-z
1/2-x,1/2+y,1/2+z
1/2+x,1/2-y,1/2+z
loop_
_atom_site_type_symbol
_atom_site_label
_atom_site_fract_x
_atom_site_fract_y
_atom_site_fract_z
Si Si1 0.170597 0.895707 0.325235
Si Si2 0.075705 0.723223 0.674256
Si Si3 0.285525 0.843898 0.168855
Si Si4 0.103186 0.470679 0.327318
Si Si5 0.958657 0.723657 0.175786
Si Si6 0.636675 0.360785 0.827809
O O1 0.173820 0.898004 0.500000
O O2 0.124435 0.806720 0.270587
O O3 0.231753 0.859801 0.270516
O O4 0.153728 0.018002 0.265772
O O5 0.063268 0.735562 0.500000
O O6 0.096089 0.599124 0.714727
O O7 0.020346 0.755494 0.765412
O O8 0.333243 0.934083 0.214374
O O9 0.309613 0.719776 0.194444
O O10 0.266804 0.862044 0.000000
O O11 0.091284 0.446369 0.500000
O O12 0.057983 0.398688 0.235780
O O13 0.916090 0.818159 0.233115
O O14 0.958266 0.721765 0.000000
O O15 0.618365 0.363663 0.000000
#
# Coordination Sequence:
#
# PCOD8238048 Si02
#       6
#     8   8   8   8   8   8
#     4  10  22  37  57  84 110 146 192 229 267 327
#     4  10  21  37  57  82 113 150 188 226 273 334
#     4   9  19  35  56  80 111 148 182 226 280 325
#     4   9  19  37  59  82 112 152 187 222 278 338
#     4  11  22  36  57  85 112 143 186 237 282 324
#     4   9  20  40  59  78 110 151 187 221 274 338
#
# _framework density 18.819019000000001
#
# number of rings (size 3 to 8) (size 9 to 14) (size 15 to 20)
#    0.000    2.333    0.000    3.000    2.333    7.333 
#    0.000    3.333    0.000    0.000    0.000    0.000 
#    0.000    0.000    0.000    0.000    0.000    0.000 
#
# Total GULP energy -595369.522573 kJ/mol
# GULP energy per Si atom -12403.531720 kJ/mol
# Density = 1.877619 g / cm^3
# Si number density = 18.819019 Si / 1000 Ang^3
#
#
#
# Elastic Constant Matrix: (Units=GPa)
#
#
# Indices 1 2 3 4 5 6 
#
# 1 133.1665 59.9892 46.7875 0.0000 0.0000 0.0000
# 2 59.9892 108.7900 27.7565 0.0000 0.0000 0.0000
# 3 46.7875 27.7565 56.5801 0.0000 0.0000 0.0000
# 4 0.0000 0.0000 0.0000 -36.9638 0.0000 0.0000
# 5 0.0000 0.0000 0.0000 0.0000 38.0742 0.0000
# 6 0.0000 0.0000 0.0000 0.0000 0.0000 18.7694
#
#
#
# Elastic Compliance Matrix: (Units=1/GPa)
#
#
# Indices 1 2 3 4 5 6 
#
# 1 0.012490 -0.004860 -0.007944 0.000000 0.000000 0.000000
# 2 -0.004860 0.012399 -0.002063 0.000000 0.000000 0.000000
# 3 -0.007944 -0.002063 0.025255 0.000000 0.000000 0.000000
# 4 0.000000 0.000000 0.000000 -0.027053 0.000000 0.000000
# 5 0.000000 0.000000 0.000000 0.000000 0.026264 0.000000
# 6 0.000000 0.000000 0.000000 0.000000 0.000000 0.053278
#
#
# Mechanical properties :
#
#
# Convention : Reuss Voigt Hill
#
# Bulk Modulus (GPa) = 48.99857 63.06701 56.03279
# Shear Modulus (GPa) = 35.92704 14.90952 25.41828
#
# Velocity S-wave (km/s) = 4.37404 2.81776 3.67913
# Velocity P-wave (km/s) = 7.18352 6.64616 6.92006
#
# Compressibility (1/GPa) = 0.02040876
#
# Stress axis : x y z
#
# Youngs Moduli (GPa) = 80.06396 80.65440 39.59588
#
# Poissons Ratio (x) = 0.39202 0.31455
# Poissons Ratio (y) = 0.38915 0.08169
# Poissons Ratio (z) = 0.63602 0.16640
#
# Static dielectric constant tensor:
#      x y z
#    x 3.428760 0.000000 0.000000 
#    y 0.000000 3.686220 0.000000 
#    z 0.000000 0.000000 3.264920 
# 
# 
# High freq. dielectric constant tensor:
#      x y z
#    x 1.736290 0.000000 0.000000 
#    y 0.000000 1.737810 0.000000 
#    z 0.000000 0.000000 1.716510 
# 
# From -- ./inp_files/4202.got.cif
#   From: 2010.06.25/outbox.cif.g09.slc.cpg/sg58_3_cif.got.tgz:4202.got - 2010.06.26 21:38:00.
