data_PCOD8238221
_publ_section_title
;
Structure prediction by ZEFSAII (Michael W. Deem and Ramdas Pophale) SiO2 
 PCOD8238221
Probable space group: P N N M
;
_chemical_formula_sum "Si O2"
_cell_formula_units_Z 56
_cell_length_a 9.478877
_cell_length_b 21.472769
_cell_length_c 14.311359
_cell_angle_alpha 90.000000
_cell_angle_beta 90.000000
_cell_angle_gamma 90.000000
_cell_volume 2912.901613
_symmetry_space_group_name_H-M "P N N M"
_symmetry_group_IT_number 58
_symmetry_cell_setting 'orthorhombic'
loop_
_space_group_symop_operation_xyz
x,y,z
-x,-y,z
1/2+x,1/2-y,1/2-z
1/2-x,1/2+y,1/2-z
-x,-y,-z
x,y,-z
1/2-x,1/2+y,1/2+z
1/2+x,1/2-y,1/2+z
loop_
_atom_site_type_symbol
_atom_site_label
_atom_site_fract_x
_atom_site_fract_y
_atom_site_fract_z
Si Si1 0.011018 0.821882 0.743981
Si Si2 0.264690 0.101048 0.249191
Si Si3 0.659139 0.996044 0.393037
Si Si4 0.223590 0.866052 0.891968
Si Si5 0.657720 0.494482 0.392836
Si Si6 0.257892 0.365419 0.891833
Si Si7 0.544767 0.178976 0.244116
O O1 0.081757 0.843492 0.840818
O O2 0.093110 0.848561 0.654233
O O3 0.851308 0.845380 0.741047
O O4 0.015281 0.747909 0.738444
O O5 0.416642 0.131544 0.242733
O O6 0.253623 0.056196 0.338632
O O7 0.243964 0.059534 0.157426
O O8 0.654937 0.974690 0.500000
O O9 0.738023 0.061063 0.379350
O O10 0.500000 0.000000 0.353323
O O11 0.239084 0.940366 0.880521
O O12 0.358926 0.833928 0.846084
O O13 0.213407 0.846238 0.000000
O O14 0.500000 0.500000 0.350205
O O15 0.646817 0.474012 0.500000
O O16 0.132387 0.328977 0.839774
O O17 0.256335 0.345309 0.000000
#
# Coordination Sequence:
#
# PCOD8238221 Si02
#       7
#     8   8   8   8   8   8   8
#     4  11  24  41  60  89 122 160 207 243 285 357
#     4  12  22  36  66  90 120 160 194 250 308 342
#     4  10  21  38  62  92 120 151 197 247 303 366
#     4  10  22  42  63  85 122 160 195 248 304 351
#     4  10  21  38  62  92 120 151 197 247 303 366
#     4  10  22  42  63  85 122 160 195 248 304 351
#     4  11  24  41  60  89 122 160 207 243 285 357
#
# _framework density 19.224817000000002
#
# number of rings (size 3 to 8) (size 9 to 14) (size 15 to 20)
#    0.000    1.429    2.857    3.429    0.000    2.286 
#    0.000    5.714    0.000    0.000    0.000    0.000 
#    0.000    0.000    0.000    0.000    0.000    0.000 
#
# Total GULP energy -694701.424707 kJ/mol
# GULP energy per Si atom -12405.382584 kJ/mol
# Density = 1.918106 g / cm^3
# Si number density = 19.224817 Si / 1000 Ang^3
#
#
#
# Elastic Constant Matrix: (Units=GPa)
#
#
# Indices 1 2 3 4 5 6 
#
# 1 76.0407 9.6085 39.4910 0.0000 0.0000 0.0000
# 2 9.6085 85.6991 38.5874 0.0000 0.0000 0.0000
# 3 39.4910 38.5874 129.0445 0.0000 0.0000 0.0000
# 4 0.0000 0.0000 0.0000 15.4639 0.0000 0.0000
# 5 0.0000 0.0000 0.0000 0.0000 25.0431 0.0000
# 6 0.0000 0.0000 0.0000 0.0000 0.0000 34.6532
#
#
#
# Elastic Compliance Matrix: (Units=1/GPa)
#
#
# Indices 1 2 3 4 5 6 
#
# 1 0.015652 0.000464 -0.004929 0.000000 0.000000 0.000000
# 2 0.000464 0.013498 -0.004178 0.000000 0.000000 0.000000
# 3 -0.004929 -0.004178 0.010507 0.000000 0.000000 0.000000
# 4 0.000000 0.000000 0.000000 0.064667 0.000000 0.000000
# 5 0.000000 0.000000 0.000000 0.000000 0.039931 0.000000
# 6 0.000000 0.000000 0.000000 0.000000 0.000000 0.028857
#
#
# Mechanical properties :
#
#
# Convention : Reuss Voigt Hill
#
# Bulk Modulus (GPa) = 44.69976 51.79535 48.24755
# Shear Modulus (GPa) = 25.27103 28.57185 26.92144
#
# Velocity S-wave (km/s) = 3.62954 3.85930 3.74618
# Velocity P-wave (km/s) = 6.39267 6.84539 6.62290
#
# Compressibility (1/GPa) = 0.02237149
#
# Stress axis : x y z
#
# Youngs Moduli (GPa) = 63.89008 74.08488 95.17448
#
# Poissons Ratio (x) = -0.03440 0.46909
# Poissons Ratio (y) = -0.02967 0.39767
# Poissons Ratio (z) = 0.31490 0.30955
#
# Static dielectric constant tensor:
#      x y z
#    x 3.553570 0.000000 0.000000 
#    y 0.000000 3.518810 0.000000 
#    z 0.000000 0.000000 3.652600 
# 
# 
# High freq. dielectric constant tensor:
#      x y z
#    x 1.750660 0.000000 0.000000 
#    y 0.000000 1.753060 0.000000 
#    z 0.000000 0.000000 1.750820 
# 
# From -- ./inp_files/20121.got.cif
#   From: 2010.06.25/outbox.cif.g09.slc.cpg/sg58_11_cif.got.tgz:20121.got - 2010.06.26 21:38:00.
