data_PCOD8238604
_publ_section_title
;
Structure prediction by ZEFSAII (Michael W. Deem and Ramdas Pophale) SiO2 
 PCOD8238604
Probable space group: P N N M
;
_chemical_formula_sum "Si O2"
_cell_formula_units_Z 64
_cell_length_a 7.923792
_cell_length_b 14.697756
_cell_length_c 22.966471
_cell_angle_alpha 90.000000
_cell_angle_beta 90.000000
_cell_angle_gamma 90.000000
_cell_volume 2674.720259
_symmetry_space_group_name_H-M "P N N M"
_symmetry_group_IT_number 58
_symmetry_cell_setting 'orthorhombic'
loop_
_space_group_symop_operation_xyz
x,y,z
-x,-y,z
1/2+x,1/2-y,1/2-z
1/2-x,1/2+y,1/2-z
-x,-y,-z
x,y,-z
1/2-x,1/2+y,1/2+z
1/2+x,1/2-y,1/2+z
loop_
_atom_site_type_symbol
_atom_site_label
_atom_site_fract_x
_atom_site_fract_y
_atom_site_fract_z
Si Si1 0.079242 0.740293 0.932741
Si Si2 0.271977 0.892644 0.432832
Si Si3 0.801701 0.005223 0.672475
Si Si4 0.463528 0.738886 0.067458
Si Si5 0.952054 0.100402 0.154845
Si Si6 0.209999 0.144686 0.761475
Si Si7 0.697399 0.149504 0.238126
Si Si8 0.952120 0.398689 0.651750
O O1 0.271216 0.707133 0.917024
O O2 0.944186 0.661476 0.919777
O O3 0.019443 0.827846 0.896587
O O4 0.070960 0.769421 0.000000
O O5 0.263618 0.923301 0.500000
O O6 0.271123 0.984288 0.393384
O O7 0.102180 0.836589 0.414899
O O8 0.737738 0.096430 0.703593
O O9 0.731931 0.917644 0.706945
O O10 0.000000 0.000000 0.670265
O O11 0.501746 0.832581 0.099617
O O12 0.482565 0.761517 0.000000
O O13 0.012778 0.130825 0.221499
O O14 0.756606 0.103838 0.175526
O O15 0.000000 0.000000 0.133094
O O16 0.253357 0.247017 0.745208
O O17 0.256702 0.109435 0.828750
O O18 0.502302 0.138108 0.218543
O O19 0.000000 0.500000 0.633275
#
# Coordination Sequence:
#
# PCOD8238604 Si02
#       8
#     8   8   8   8   8   8   8   8
#     4  10  22  42  70 103 142 191 240 290 355 426
#     4  10  24  47  73 103 141 185 242 302 354 414
#     4  12  24  44  69 104 138 183 240 288 356 440
#     4  10  22  42  70 105 140 190 243 288 355 428
#     4  12  21  41  63  91 135 177 227 291 345 414
#     4  12  25  40  64  96 134 184 231 288 354 426
#     4  12  23  41  62  94 134 179 227 285 352 418
#     4  12  23  40  63  97 143 181 226 299 357 416
#
# _framework density 23.927734999999998
#
# number of rings (size 3 to 8) (size 9 to 14) (size 15 to 20)
#    0.000    0.750    5.000    3.000    1.750    0.750 
#    0.000    1.250    0.000    0.750    0.000   10.500 
#    0.000    0.000    0.000    0.000    0.000    0.000 
#
# Total GULP energy -793003.368492 kJ/mol
# GULP energy per Si atom -12390.677633 kJ/mol
# Density = 2.387327 g / cm^3
# Si number density = 23.927735 Si / 1000 Ang^3
#
#
#
# Elastic Constant Matrix: (Units=GPa)
#
#
# Indices 1 2 3 4 5 6 
#
# 1 63.7160 29.1018 28.3015 0.0000 0.0000 0.0000
# 2 29.1018 106.6568 35.7167 0.0000 0.0000 0.0000
# 3 28.3015 35.7167 98.1947 0.0000 0.0000 0.0000
# 4 0.0000 0.0000 0.0000 38.7718 0.0000 0.0000
# 5 0.0000 0.0000 0.0000 0.0000 33.0451 0.0000
# 6 0.0000 0.0000 0.0000 0.0000 0.0000 19.3385
#
#
#
# Elastic Compliance Matrix: (Units=1/GPa)
#
#
# Indices 1 2 3 4 5 6 
#
# 1 0.019312 -0.003878 -0.004156 0.000000 0.000000 0.000000
# 2 -0.003878 0.011455 -0.003049 0.000000 0.000000 0.000000
# 3 -0.004156 -0.003049 0.012491 0.000000 0.000000 0.000000
# 4 0.000000 0.000000 0.000000 0.025792 0.000000 0.000000
# 5 0.000000 0.000000 0.000000 0.000000 0.030262 0.000000
# 6 0.000000 0.000000 0.000000 0.000000 0.000000 0.051710
#
#
# Mechanical properties :
#
#
# Convention : Reuss Voigt Hill
#
# Bulk Modulus (GPa) = 47.40954 50.53417 48.97186
# Shear Modulus (GPa) = 27.74448 29.92757 28.83603
#
# Velocity S-wave (km/s) = 3.40885 3.54043 3.47526
# Velocity P-wave (km/s) = 5.94562 6.15453 6.05097
#
# Compressibility (1/GPa) = 0.02109280
#
# Stress axis : x y z
#
# Youngs Moduli (GPa) = 51.78253 87.29875 80.06067
#
# Poissons Ratio (x) = 0.33852 0.33269
# Poissons Ratio (y) = 0.20080 0.24410
# Poissons Ratio (z) = 0.21518 0.26617
#
# Static dielectric constant tensor:
#      x y z
#    x 4.997600 0.000000 0.000000 
#    y 0.000000 3.965990 0.000000 
#    z 0.000000 0.000000 4.209110 
# 
# 
# High freq. dielectric constant tensor:
#      x y z
#    x 1.996900 0.000000 0.000000 
#    y 0.000000 1.935810 0.000000 
#    z 0.000000 0.000000 1.943950 
# 
# From -- ./inp_files/31616.got.cif
#   From: 2010.06.25/outbox.cif.g09.slc.cpg/sg58_16_cif.got.tgz:31616.got - 2010.06.26 21:38:00.
