data_PCOD8238798
_publ_section_title
;
Structure prediction by ZEFSAII (Michael W. Deem and Ramdas Pophale) SiO2 
 PCOD8238798
Probable space group: P N N M
;
_chemical_formula_sum "Si O2"
_cell_formula_units_Z 48
_cell_length_a 17.884495
_cell_length_b 16.663608
_cell_length_c 8.977187
_cell_angle_alpha 90.000000
_cell_angle_beta 90.000000
_cell_angle_gamma 90.000000
_cell_volume 2675.383190
_symmetry_space_group_name_H-M "P N N M"
_symmetry_group_IT_number 58
_symmetry_cell_setting 'orthorhombic'
loop_
_space_group_symop_operation_xyz
x,y,z
-x,-y,z
1/2+x,1/2-y,1/2-z
1/2-x,1/2+y,1/2-z
-x,-y,-z
x,y,-z
1/2-x,1/2+y,1/2+z
1/2+x,1/2-y,1/2+z
loop_
_atom_site_type_symbol
_atom_site_label
_atom_site_fract_x
_atom_site_fract_y
_atom_site_fract_z
Si Si1 0.948907 0.255673 0.175894
Si Si2 0.594942 0.331660 0.672370
Si Si3 0.326057 0.364033 0.675425
Si Si4 0.980369 0.586530 0.176715
Si Si5 0.085945 0.007540 0.675639
Si Si6 0.173062 0.332430 0.828546
O O1 0.869316 0.218239 0.222286
O O2 0.014922 0.198172 0.235585
O O3 0.960437 0.346505 0.237781
O O4 0.959601 0.259967 0.000000
O O5 0.589478 0.357007 0.500000
O O6 0.619727 0.408101 0.768536
O O7 0.655443 0.261359 0.694618
O O8 0.330430 0.377469 0.500000
O O9 0.364995 0.438270 0.753356
O O10 0.241058 0.357183 0.724577
O O11 0.896987 0.613162 0.221962
O O12 0.000000 0.500000 0.248578
O O13 0.986368 0.581246 0.000000
O O14 0.093798 0.001854 0.500000
O O15 0.000000 0.000000 0.728154
O O16 0.193653 0.349558 0.000000
#
# Coordination Sequence:
#
# PCOD8238798 Si02
#       6
#     8   8   8   8   8   8
#     4   8  15  28  49  74  97 133 179 212 246 310
#     4   9  17  34  56  74 101 142 180 213 260 321
#     4  11  21  34  53  76 110 147 180 216 262 328
#     4   8  14  29  54  78 100 132 176 221 261 304
#     4  11  22  34  53  82 110 135 177 231 277 319
#     4   9  19  35  54  78 109 139 173 223 273 314
#
# _framework density 17.941355000000001
#
# number of rings (size 3 to 8) (size 9 to 14) (size 15 to 20)
#    0.000    2.667    1.667    3.000    0.000    1.333 
#    3.000    0.000    0.000    0.500    0.000    0.000 
#    0.000    0.000    0.000    0.000    0.000    0.000 
#
# Total GULP energy -595021.291053 kJ/mol
# GULP energy per Si atom -12396.276897 kJ/mol
# Density = 1.790052 g / cm^3
# Si number density = 17.941355 Si / 1000 Ang^3
#
#
#
# Elastic Constant Matrix: (Units=GPa)
#
#
# Indices 1 2 3 4 5 6 
#
# 1 95.8826 65.5121 33.0345 0.0000 0.0000 0.0000
# 2 65.5121 158.6852 40.0540 0.0000 0.0000 0.0000
# 3 33.0345 40.0540 48.7389 0.0000 0.0000 0.0000
# 4 0.0000 0.0000 0.0000 14.5389 0.0000 0.0000
# 5 0.0000 0.0000 0.0000 0.0000 22.9407 0.0000
# 6 0.0000 0.0000 0.0000 0.0000 0.0000 22.9857
#
#
#
# Elastic Compliance Matrix: (Units=1/GPa)
#
#
# Indices 1 2 3 4 5 6 
#
# 1 0.016184 -0.004937 -0.006912 0.000000 0.000000 0.000000
# 2 -0.004937 0.009457 -0.004426 0.000000 0.000000 0.000000
# 3 -0.006912 -0.004426 0.028840 0.000000 0.000000 0.000000
# 4 0.000000 0.000000 0.000000 0.068781 0.000000 0.000000
# 5 0.000000 0.000000 0.000000 0.000000 0.043591 0.000000
# 6 0.000000 0.000000 0.000000 0.000000 0.000000 0.043505
#
#
# Mechanical properties :
#
#
# Convention : Reuss Voigt Hill
#
# Bulk Modulus (GPa) = 45.59728 64.50089 55.04908
# Shear Modulus (GPa) = 19.98263 23.07347 21.52805
#
# Velocity S-wave (km/s) = 3.34095 3.59004 3.46773
# Velocity P-wave (km/s) = 6.35235 7.29476 6.83981
#
# Compressibility (1/GPa) = 0.02193113
#
# Stress axis : x y z
#
# Youngs Moduli (GPa) = 61.78975 105.74191 34.67445
#
# Poissons Ratio (x) = 0.52202 0.23968
# Poissons Ratio (y) = 0.30504 0.15346
# Poissons Ratio (z) = 0.42710 0.46799
#
# Static dielectric constant tensor:
#      x y z
#    x 3.255400 0.000000 0.000000 
#    y 0.000000 3.679590 0.000000 
#    z 0.000000 0.000000 2.968350 
# 
# 
# High freq. dielectric constant tensor:
#      x y z
#    x 1.681520 0.000000 0.000000 
#    y 0.000000 1.706050 0.000000 
#    z 0.000000 0.000000 1.662370 
# 
# From -- ./inp_files/5795.got.cif
#   From: 2010.06.25/outbox.cif.g09.slc.cpg/sg58_3_cif.got.tgz:5795.got - 2010.06.26 21:38:00.
