data_PCOD8238645
_publ_section_title
;
Structure prediction by ZEFSAII (Michael W. Deem and Ramdas Pophale) SiO2 
 PCOD8238645
Probable space group: P N N M
;
_chemical_formula_sum "Si O2"
_cell_formula_units_Z 64
_cell_length_a 15.089477
_cell_length_b 24.582574
_cell_length_c 8.894017
_cell_angle_alpha 90.000000
_cell_angle_beta 90.000000
_cell_angle_gamma 90.000000
_cell_volume 3299.130523
_symmetry_space_group_name_H-M "P N N M"
_symmetry_group_IT_number 58
_symmetry_cell_setting 'orthorhombic'
loop_
_space_group_symop_operation_xyz
x,y,z
-x,-y,z
1/2+x,1/2-y,1/2-z
1/2-x,1/2+y,1/2-z
-x,-y,-z
x,y,-z
1/2-x,1/2+y,1/2+z
1/2+x,1/2-y,1/2+z
loop_
_atom_site_type_symbol
_atom_site_label
_atom_site_fract_x
_atom_site_fract_y
_atom_site_fract_z
Si Si1 0.512847 0.838960 0.672660
Si Si2 0.687238 0.851622 0.823151
Si Si3 0.457852 0.720496 0.329027
Si Si4 0.779709 0.755501 0.676543
Si Si5 0.174715 0.944106 0.328195
Si Si6 0.325753 0.569104 0.826341
Si Si7 0.314441 0.854839 0.325018
Si Si8 0.005059 0.898333 0.173432
O O1 0.531964 0.853624 0.500000
O O2 0.587694 0.868012 0.773282
O O3 0.516768 0.773777 0.699894
O O4 0.416976 0.861845 0.723861
O O5 0.705054 0.792790 0.751288
O O6 0.757223 0.895914 0.768559
O O7 0.693864 0.847733 0.000000
O O8 0.420607 0.721509 0.500000
O O9 0.374917 0.719128 0.217148
O O10 0.515786 0.666559 0.300348
O O11 0.765324 0.756311 0.500000
O O12 0.769058 0.694157 0.734718
O O13 0.145241 0.933456 0.500000
O O14 0.262469 0.909940 0.287405
O O15 0.095197 0.927130 0.220585
O O16 0.199992 0.006465 0.302139
O O17 0.425484 0.578029 0.771489
O O18 0.319013 0.586381 0.000000
O O19 0.310897 0.839243 0.500000
O O20 0.985853 0.911772 0.000000
#
# Coordination Sequence:
#
# PCOD8238645 Si02
#       8
#     8   8   8   8   8   8   8   8
#     4   9  19  37  60  85 118 154 193 239 290 349
#     4  12  24  38  58  86 119 155 197 244 297 352
#     4   9  19  36  56  83 121 157 191 233 285 348
#     4  11  21  34  57  86 117 153 192 237 290 348
#     4  10  23  41  62  87 117 156 202 247 295 351
#     4  11  23  41  62  86 117 156 203 249 292 349
#     4   9  20  41  63  86 119 155 193 244 296 347
#     4  11  22  36  58  89 123 159 196 239 295 352
#
# _framework density 19.399049999999999
#
# number of rings (size 3 to 8) (size 9 to 14) (size 15 to 20)
#    0.000    1.750    1.250    4.125    1.750    5.500 
#    0.000    0.625    0.000    3.750    0.000    0.000 
#    0.000    0.000    0.000    0.000    0.000    0.000 
#
# Total GULP energy -793805.595476 kJ/mol
# GULP energy per Si atom -12403.212429 kJ/mol
# Density = 1.935490 g / cm^3
# Si number density = 19.399050 Si / 1000 Ang^3
#
#
#
# Elastic Constant Matrix: (Units=GPa)
#
#
# Indices 1 2 3 4 5 6 
#
# 1 107.7215 37.7609 45.5002 0.0000 0.0000 0.0000
# 2 37.7609 59.5355 32.2917 0.0000 0.0000 0.0000
# 3 45.5002 32.2917 109.2380 0.0000 0.0000 0.0000
# 4 0.0000 0.0000 0.0000 25.4381 0.0000 0.0000
# 5 0.0000 0.0000 0.0000 0.0000 28.3358 0.0000
# 6 0.0000 0.0000 0.0000 0.0000 0.0000 21.9324
#
#
#
# Elastic Compliance Matrix: (Units=1/GPa)
#
#
# Indices 1 2 3 4 5 6 
#
# 1 0.012996 -0.006320 -0.003545 0.000000 0.000000 0.000000
# 2 -0.006320 0.023078 -0.004189 0.000000 0.000000 0.000000
# 3 -0.003545 -0.004189 0.011869 0.000000 0.000000 0.000000
# 4 0.000000 0.000000 0.000000 0.039311 0.000000 0.000000
# 5 0.000000 0.000000 0.000000 0.000000 0.035291 0.000000
# 6 0.000000 0.000000 0.000000 0.000000 0.000000 0.045595
#
#
# Mechanical properties :
#
#
# Convention : Reuss Voigt Hill
#
# Bulk Modulus (GPa) = 50.41842 56.40005 53.40924
# Shear Modulus (GPa) = 24.64757 25.87074 25.25915
#
# Velocity S-wave (km/s) = 3.56835 3.65582 3.61235
# Velocity P-wave (km/s) = 6.55927 6.85250 6.70749
#
# Compressibility (1/GPa) = 0.01983402
#
# Stress axis : x y z
#
# Youngs Moduli (GPa) = 76.94699 43.33206 84.25111
#
# Poissons Ratio (x) = 0.27386 0.29866
# Poissons Ratio (y) = 0.48631 0.35297
# Poissons Ratio (z) = 0.27277 0.18154
#
# Static dielectric constant tensor:
#      x y z
#    x 3.517440 0.000000 0.000000 
#    y 0.000000 3.588120 0.000000 
#    z 0.000000 0.000000 3.517180 
# 
# 
# High freq. dielectric constant tensor:
#      x y z
#    x 1.752790 0.000000 0.000000 
#    y 0.000000 1.749120 0.000000 
#    z 0.000000 0.000000 1.755980 
# 
# From -- ./inp_files/6855.got.cif
#   From: 2010.06.25/outbox.cif.g09.slc.cpg/sg58_4_cif.got.tgz:6855.got - 2010.06.26 21:38:00.
