data_PCOD8238185
_publ_section_title
;
Structure prediction by ZEFSAII (Michael W. Deem and Ramdas Pophale) SiO2 
 PCOD8238185
Probable space group: P N N M
;
_chemical_formula_sum "Si O2"
_cell_formula_units_Z 48
_cell_length_a 11.911549
_cell_length_b 23.931291
_cell_length_c 8.393757
_cell_angle_alpha 90.000000
_cell_angle_beta 90.000000
_cell_angle_gamma 90.000000
_cell_volume 2392.713839
_symmetry_space_group_name_H-M "P N N M"
_symmetry_group_IT_number 58
_symmetry_cell_setting 'orthorhombic'
loop_
_space_group_symop_operation_xyz
x,y,z
-x,-y,z
1/2+x,1/2-y,1/2-z
1/2-x,1/2+y,1/2-z
-x,-y,-z
x,y,-z
1/2-x,1/2+y,1/2+z
1/2+x,1/2-y,1/2+z
loop_
_atom_site_type_symbol
_atom_site_label
_atom_site_fract_x
_atom_site_fract_y
_atom_site_fract_z
Si Si1 0.019697 0.385995 0.188145
Si Si2 0.720647 0.920268 0.689521
Si Si3 0.146629 0.852511 0.183515
Si Si4 0.593981 0.333790 0.184819
Si Si5 0.767865 0.546249 0.810838
Si Si6 0.841431 0.718660 0.184767
O O1 0.110990 0.431198 0.248162
O O2 0.059347 0.323869 0.237061
O O3 0.898108 0.399389 0.263324
O O4 0.012324 0.390668 0.000000
O O5 0.712891 0.918704 0.500000
O O6 0.818978 0.879946 0.750264
O O7 0.746303 0.982895 0.749097
O O8 0.169852 0.916643 0.232631
O O9 0.221723 0.810635 0.288068
O O10 0.017446 0.838572 0.211881
O O11 0.176188 0.842914 0.000000
O O12 0.649472 0.273303 0.207320
O O13 0.566434 0.343766 0.000000
O O14 0.756449 0.551119 0.000000
O O15 0.851990 0.734987 0.000000
#
# Coordination Sequence:
#
# PCOD8238185 Si02
#       6
#     8   8   8   8   8   8
#     4   8  15  30  56  87 113 141 183 234 285 342
#     4   9  18  32  55  87 117 148 186 233 288 351
#     4  11  23  40  59  79 112 155 198 239 288 342
#     4  11  23  37  56  85 119 153 193 238 290 349
#     4   9  17  34  60  86 113 146 190 238 287 346
#     4  10  21  38  61  86 114 148 192 240 292 350
#
# _framework density 20.060904000000001
#
# number of rings (size 3 to 8) (size 9 to 14) (size 15 to 20)
#    0.000    2.333    0.000    4.000    2.333    2.667 
#    0.000    5.000    0.000   10.000    0.000    0.000 
#    0.000    0.000    0.000    0.000    0.000    0.000 
#
# Total GULP energy -595275.074218 kJ/mol
# GULP energy per Si atom -12401.564046 kJ/mol
# Density = 2.001524 g / cm^3
# Si number density = 20.060904 Si / 1000 Ang^3
#
#
#
# Elastic Constant Matrix: (Units=GPa)
#
#
# Indices 1 2 3 4 5 6 
#
# 1 110.5106 60.1032 9.2810 0.0000 0.0000 0.0000
# 2 60.1032 145.3413 13.0226 0.0000 0.0000 0.0000
# 3 9.2810 13.0226 40.4111 0.0000 0.0000 0.0000
# 4 0.0000 0.0000 0.0000 26.0100 0.0000 0.0000
# 5 0.0000 0.0000 0.0000 0.0000 18.7918 0.0000
# 6 0.0000 0.0000 0.0000 0.0000 0.0000 24.7178
#
#
#
# Elastic Compliance Matrix: (Units=1/GPa)
#
#
# Indices 1 2 3 4 5 6 
#
# 1 0.011728 -0.004745 -0.001164 0.000000 0.000000 0.000000
# 2 -0.004745 0.009005 -0.001812 0.000000 0.000000 0.000000
# 3 -0.001164 -0.001812 0.025597 0.000000 0.000000 0.000000
# 4 0.000000 0.000000 0.000000 0.038447 0.000000 0.000000
# 5 0.000000 0.000000 0.000000 0.000000 0.053215 0.000000
# 6 0.000000 0.000000 0.000000 0.000000 0.000000 0.040457
#
#
# Mechanical properties :
#
#
# Convention : Reuss Voigt Hill
#
# Bulk Modulus (GPa) = 32.37678 51.23073 41.80376
# Shear Modulus (GPa) = 24.48741 28.16099 26.32420
#
# Velocity S-wave (km/s) = 3.49758 3.75076 3.62638
# Velocity P-wave (km/s) = 5.69956 6.65963 6.19821
#
# Compressibility (1/GPa) = 0.03088633
#
# Stress axis : x y z
#
# Youngs Moduli (GPa) = 85.26931 111.04838 39.06706
#
# Poissons Ratio (x) = 0.52697 0.04548
# Poissons Ratio (y) = 0.40464 0.07079
# Poissons Ratio (z) = 0.09927 0.20123
#
# Static dielectric constant tensor:
#      x y z
#    x 3.761110 0.000000 0.000000 
#    y 0.000000 3.782450 0.000000 
#    z 0.000000 0.000000 3.219230 
# 
# 
# High freq. dielectric constant tensor:
#      x y z
#    x 1.783450 0.000000 0.000000 
#    y 0.000000 1.790860 0.000000 
#    z 0.000000 0.000000 1.749390 
# 
# From -- ./inp_files/4177.got.cif
#   From: 2010.06.25/outbox.cif.g09.slc.cpg/sg58_3_cif.got.tgz:4177.got - 2010.06.26 21:38:00.
