data_PCOD8238051
_publ_section_title
;
Structure prediction by ZEFSAII (Michael W. Deem and Ramdas Pophale) SiO2 
 PCOD8238051
Probable space group: P N N M
;
_chemical_formula_sum "Si O2"
_cell_formula_units_Z 48
_cell_length_a 15.154330
_cell_length_b 18.118510
_cell_length_c 8.950381
_cell_angle_alpha 90.000000
_cell_angle_beta 90.000000
_cell_angle_gamma 90.000000
_cell_volume 2457.540836
_symmetry_space_group_name_H-M "P N N M"
_symmetry_group_IT_number 58
_symmetry_cell_setting 'orthorhombic'
loop_
_space_group_symop_operation_xyz
x,y,z
-x,-y,z
1/2+x,1/2-y,1/2-z
1/2-x,1/2+y,1/2-z
-x,-y,-z
x,y,-z
1/2-x,1/2+y,1/2+z
1/2+x,1/2-y,1/2+z
loop_
_atom_site_type_symbol
_atom_site_label
_atom_site_fract_x
_atom_site_fract_y
_atom_site_fract_z
Si Si1 0.644321 0.576576 0.826559
Si Si2 0.506969 0.331892 0.676494
Si Si3 0.677585 0.092000 0.173146
Si Si4 0.155722 0.576166 0.672240
Si Si5 0.667632 0.405161 0.173179
Si Si6 0.494617 0.820833 0.174162
O O1 0.563297 0.610271 0.737945
O O2 0.736188 0.611115 0.769724
O O3 0.641860 0.489582 0.795308
O O4 0.633528 0.595362 0.000000
O O5 0.506645 0.335661 0.500000
O O6 0.603417 0.351796 0.736573
O O7 0.481547 0.250270 0.729276
O O8 0.601646 0.149174 0.219057
O O9 0.642433 0.010015 0.208332
O O10 0.703000 0.099798 0.000000
O O11 0.181489 0.588077 0.500000
O O12 0.233328 0.610541 0.772240
O O13 0.065155 0.616242 0.713734
O O14 0.660293 0.384984 0.000000
O O15 0.498242 0.800088 0.000000
#
# Coordination Sequence:
#
# PCOD8238051 Si02
#       6
#     8   8   8   8   8   8
#     4  10  21  38  60  84 110 142 181 227 278 329
#     4  12  25  38  55  80 111 148 187 228 274 326
#     4   9  18  35  60  87 112 142 183 227 271 322
#     4   9  18  35  60  87 112 142 183 227 271 322
#     4  10  21  38  60  84 110 142 181 227 278 329
#     4  10  21  37  57  82 115 151 183 222 272 324
#
# _framework density 19.53172
#
# number of rings (size 3 to 8) (size 9 to 14) (size 15 to 20)
#    0.000    2.000    0.000    3.500    0.000    8.667 
#    0.000    0.000    0.000    5.000    0.000    0.000 
#    0.000    0.000    0.000    0.000    0.000    0.000 
#
# Total GULP energy -595458.234311 kJ/mol
# GULP energy per Si atom -12405.379881 kJ/mol
# Density = 1.948726 g / cm^3
# Si number density = 19.531720 Si / 1000 Ang^3
#
#
#
# Elastic Constant Matrix: (Units=GPa)
#
#
# Indices 1 2 3 4 5 6 
#
# 1 81.7522 16.4122 38.8830 0.0000 0.0000 0.0000
# 2 16.4122 40.7821 26.8626 0.0000 0.0000 0.0000
# 3 38.8830 26.8626 97.5487 0.0000 0.0000 0.0000
# 4 0.0000 0.0000 0.0000 27.4368 0.0000 0.0000
# 5 0.0000 0.0000 0.0000 0.0000 31.9169 0.0000
# 6 0.0000 0.0000 0.0000 0.0000 0.0000 18.0686
#
#
#
# Elastic Compliance Matrix: (Units=1/GPa)
#
#
# Indices 1 2 3 4 5 6 
#
# 1 0.015319 -0.002618 -0.005385 0.000000 0.000000 0.000000
# 2 -0.002618 0.030401 -0.007328 0.000000 0.000000 0.000000
# 3 -0.005385 -0.007328 0.014416 0.000000 0.000000 0.000000
# 4 0.000000 0.000000 0.000000 0.036447 0.000000 0.000000
# 5 0.000000 0.000000 0.000000 0.000000 0.031331 0.000000
# 6 0.000000 0.000000 0.000000 0.000000 0.000000 0.055345
#
#
# Mechanical properties :
#
#
# Convention : Reuss Voigt Hill
#
# Bulk Modulus (GPa) = 33.92896 42.71096 38.31996
# Shear Modulus (GPa) = 22.34670 24.67945 23.51307
#
# Velocity S-wave (km/s) = 3.38616 3.55851 3.47340
# Velocity P-wave (km/s) = 5.71813 6.22888 5.97896
#
# Compressibility (1/GPa) = 0.02947334
#
# Stress axis : x y z
#
# Youngs Moduli (GPa) = 65.27849 32.89354 69.36764
#
# Poissons Ratio (x) = 0.08610 0.37357
# Poissons Ratio (y) = 0.17088 0.50835
# Poissons Ratio (z) = 0.35155 0.24106
#
# Static dielectric constant tensor:
#      x y z
#    x 3.646960 0.000000 0.000000 
#    y 0.000000 3.502870 0.000000 
#    z 0.000000 0.000000 3.563050 
# 
# 
# High freq. dielectric constant tensor:
#      x y z
#    x 1.771460 0.000000 0.000000 
#    y 0.000000 1.754640 0.000000 
#    z 0.000000 0.000000 1.759160 
# 
# From -- ./inp_files/5871.got.cif
#   From: 2010.06.25/outbox.cif.g09.slc.cpg/sg58_3_cif.got.tgz:5871.got - 2010.06.26 21:38:00.
