data_PCOD8238703
_publ_section_title
;
Structure prediction by ZEFSAII (Michael W. Deem and Ramdas Pophale) SiO2 
 PCOD8238703
Probable space group: P N N M
;
_chemical_formula_sum "Si O2"
_cell_formula_units_Z 40
_cell_length_a 7.781342
_cell_length_b 28.555941
_cell_length_c 8.625100
_cell_angle_alpha 90.000000
_cell_angle_beta 90.000000
_cell_angle_gamma 90.000000
_cell_volume 1916.527779
_symmetry_space_group_name_H-M "P N N M"
_symmetry_group_IT_number 58
_symmetry_cell_setting 'orthorhombic'
loop_
_space_group_symop_operation_xyz
x,y,z
-x,-y,z
1/2+x,1/2-y,1/2-z
1/2-x,1/2+y,1/2-z
-x,-y,-z
x,y,-z
1/2-x,1/2+y,1/2+z
1/2+x,1/2-y,1/2+z
loop_
_atom_site_type_symbol
_atom_site_label
_atom_site_fract_x
_atom_site_fract_y
_atom_site_fract_z
Si Si1 0.820521 0.699180 0.180371
Si Si2 0.500580 0.053787 0.319223
Si Si3 0.686122 0.800436 0.180777
Si Si4 0.315808 0.391344 0.680369
Si Si5 0.664239 0.389173 0.819354
O O1 0.770625 0.751473 0.230111
O O2 0.705019 0.663249 0.276864
O O3 0.018801 0.690271 0.217104
O O4 0.788295 0.689677 0.000000
O O5 0.541926 0.059702 0.500000
O O6 0.646518 0.080293 0.224940
O O7 0.315175 0.074811 0.275940
O O8 0.500000 0.000000 0.268137
O O9 0.818856 0.841401 0.221370
O O10 0.637911 0.801172 0.000000
O O11 0.349731 0.396664 0.500000
O O12 0.481934 0.411892 0.770617
O O13 0.665603 0.377043 0.000000
#
# Coordination Sequence:
#
# PCOD8238703 Si02
#       5
#     8   8   8   8   8
#     4  11  23  39  60  89 128 172 216 260 318 388
#     4  10  23  45  71  97 127 169 220 271 327 392
#     4  11  23  38  60  92 129 168 215 268 320 378
#     4  12  25  41  65  95 132 170 214 272 325 382
#     4  11  23  41  67  94 129 172 215 266 322 388
#
# _framework density 20.871077
#
# number of rings (size 3 to 8) (size 9 to 14) (size 15 to 20)
#    0.000    1.000    2.000    4.800    0.000    8.400 
#    0.000    4.000    0.000    0.000    0.000    0.000 
#    0.000    0.000    0.000    0.000    0.000    0.000 
#
# Total GULP energy -496304.660680 kJ/mol
# GULP energy per Si atom -12407.616517 kJ/mol
# Density = 2.082357 g / cm^3
# Si number density = 20.871077 Si / 1000 Ang^3
#
#
#
# Elastic Constant Matrix: (Units=GPa)
#
#
# Indices 1 2 3 4 5 6 
#
# 1 116.8670 23.7187 29.3520 0.0000 0.0000 0.0000
# 2 23.7187 109.2339 36.4310 0.0000 0.0000 0.0000
# 3 29.3520 36.4310 73.3086 0.0000 0.0000 0.0000
# 4 0.0000 0.0000 0.0000 20.7743 0.0000 0.0000
# 5 0.0000 0.0000 0.0000 0.0000 35.7766 0.0000
# 6 0.0000 0.0000 0.0000 0.0000 0.0000 26.1431
#
#
#
# Elastic Compliance Matrix: (Units=1/GPa)
#
#
# Indices 1 2 3 4 5 6 
#
# 1 0.009597 -0.000962 -0.003365 0.000000 0.000000 0.000000
# 2 -0.000962 0.011070 -0.005116 0.000000 0.000000 0.000000
# 3 -0.003365 -0.005116 0.017531 0.000000 0.000000 0.000000
# 4 0.000000 0.000000 0.000000 0.048136 0.000000 0.000000
# 5 0.000000 0.000000 0.000000 0.000000 0.027951 0.000000
# 6 0.000000 0.000000 0.000000 0.000000 0.000000 0.038251
#
#
# Mechanical properties :
#
#
# Convention : Reuss Voigt Hill
#
# Bulk Modulus (GPa) = 51.77998 53.15700 52.46849
# Shear Modulus (GPa) = 28.11230 30.53268 29.32249
#
# Velocity S-wave (km/s) = 3.67406 3.82896 3.75231
# Velocity P-wave (km/s) = 6.54688 6.71360 6.63076
#
# Compressibility (1/GPa) = 0.01931248
#
# Stress axis : x y z
#
# Youngs Moduli (GPa) = 104.19960 90.33604 57.04321
#
# Poissons Ratio (x) = 0.08688 0.19193
# Poissons Ratio (y) = 0.10021 0.29184
# Poissons Ratio (z) = 0.35059 0.46217
#
# Static dielectric constant tensor:
#      x y z
#    x 3.891350 0.000000 0.000000 
#    y 0.000000 3.851550 0.000000 
#    z 0.000000 0.000000 3.668240 
# 
# 
# High freq. dielectric constant tensor:
#      x y z
#    x 1.832630 0.000000 0.000000 
#    y 0.000000 1.813110 0.000000 
#    z 0.000000 0.000000 1.818770 
# 
# From -- ./inp_files/2629.got.cif
#   From: 2010.06.25/outbox.cif.g09.slc.cpg/sg58_2_cif.got.tgz:2629.got - 2010.06.26 21:38:00.
