data_PCOD8238593
_publ_section_title
;
Structure prediction by ZEFSAII (Michael W. Deem and Ramdas Pophale) SiO2 
 PCOD8238593
Probable space group: P N N M
;
_chemical_formula_sum "Si O2"
_cell_formula_units_Z 52
_cell_length_a 18.416193
_cell_length_b 18.454537
_cell_length_c 7.580494
_cell_angle_alpha 90.000000
_cell_angle_beta 90.000000
_cell_angle_gamma 90.000000
_cell_volume 2576.324241
_symmetry_space_group_name_H-M "P N N M"
_symmetry_group_IT_number 58
_symmetry_cell_setting 'orthorhombic'
loop_
_space_group_symop_operation_xyz
x,y,z
-x,-y,z
1/2+x,1/2-y,1/2-z
1/2-x,1/2+y,1/2-z
-x,-y,-z
x,y,-z
1/2-x,1/2+y,1/2+z
1/2+x,1/2-y,1/2+z
loop_
_atom_site_type_symbol
_atom_site_label
_atom_site_fract_x
_atom_site_fract_y
_atom_site_fract_z
Si Si1 0.675808 0.679378 0.698061
Si Si2 0.677048 0.120832 0.295913
Si Si3 0.963903 0.708413 0.204521
Si Si4 0.375558 0.165258 0.704152
Si Si5 0.666685 0.442197 0.000000
Si Si6 0.400580 0.407023 0.000000
Si Si7 0.047546 0.173387 0.500000
Si Si8 0.781022 0.463712 0.303894
O O1 0.643557 0.671639 0.500000
O O2 0.761737 0.664773 0.690070
O O3 0.660230 0.759784 0.770352
O O4 0.637975 0.621595 0.823866
O O5 0.694294 0.132286 0.500000
O O6 0.599220 0.152701 0.242500
O O7 0.677117 0.036241 0.251793
O O8 0.959006 0.779702 0.323047
O O9 0.038774 0.666835 0.242578
O O10 0.958895 0.732681 0.000000
O O11 0.358039 0.152344 0.500000
O O12 0.340492 0.099720 0.810612
O O13 0.624962 0.366102 0.000000
O O14 0.715478 0.445494 0.174199
O O15 0.608173 0.506683 0.000000
O O16 0.484651 0.386632 0.000000
O O17 0.748246 0.473038 0.500000
#
# Coordination Sequence:
#
# PCOD8238593 Si02
#       8
#     8   8   8   8   4   4   4   8
#     4  11  22  38  67  94 126 169 224 270 328 386
#     4  11  22  42  65  94 132 173 219 273 328 390
#     4  10  25  43  66  99 135 171 219 272 330 391
#     4  10  22  42  64  94 133 172 217 275 328 390
#     4  12  27  48  62 102 135 171 221 277 330 387
#     4  12  23  46  72  92 132 176 218 269 330 398
#     4  12  27  44  72  96 133 173 221 277 324 399
#     4  12  25  41  66  96 135 175 222 269 326 393
#
# _framework density 20.183793000000001
#
# number of rings (size 3 to 8) (size 9 to 14) (size 15 to 20)
#    0.000    0.923    5.385    0.692    6.462    1.231 
#    0.000    3.077    0.000    2.769    0.000    0.000 
#    0.000    0.000    0.000    0.000    0.000    0.000 
#
# Total GULP energy -645058.348017 kJ/mol
# GULP energy per Si atom -12404.968231 kJ/mol
# Density = 2.013785 g / cm^3
# Si number density = 20.183793 Si / 1000 Ang^3
#
#
#
# Elastic Constant Matrix: (Units=GPa)
#
#
# Indices 1 2 3 4 5 6 
#
# 1 112.9689 52.4517 31.4845 0.0000 0.0000 0.0000
# 2 52.4517 69.5540 13.7912 0.0000 0.0000 0.0000
# 3 31.4845 13.7912 92.9139 0.0000 0.0000 0.0000
# 4 0.0000 0.0000 0.0000 22.3816 0.0000 0.0000
# 5 0.0000 0.0000 0.0000 0.0000 -5.8649 0.0000
# 6 0.0000 0.0000 0.0000 0.0000 0.0000 42.4971
#
#
#
# Elastic Compliance Matrix: (Units=1/GPa)
#
#
# Indices 1 2 3 4 5 6 
#
# 1 0.014602 -0.010335 -0.003414 0.000000 0.000000 0.000000
# 2 -0.010335 0.022128 0.000218 0.000000 0.000000 0.000000
# 3 -0.003414 0.000218 0.011887 0.000000 0.000000 0.000000
# 4 0.000000 0.000000 0.000000 0.044680 0.000000 0.000000
# 5 0.000000 0.000000 0.000000 0.000000 -0.170507 0.000000
# 6 0.000000 0.000000 0.000000 0.000000 0.000000 0.023531
#
#
# Mechanical properties :
#
#
# Convention : Reuss Voigt Hill
#
# Bulk Modulus (GPa) = 46.39361 52.32128 49.35744
# Shear Modulus (GPa) = -257.29453 23.65004 -116.82224
#
# Velocity S-wave (km/s) = -11.30277 3.42677 -7.61609
# Velocity P-wave (km/s) = 12.13677 6.45258 7.26861
#
# Compressibility (1/GPa) = 0.02155469
#
# Stress axis : x y z
#
# Youngs Moduli (GPa) = 68.48466 45.19240 84.12400
#
# Poissons Ratio (x) = 0.46704 0.28720
# Poissons Ratio (y) = 0.70776 -0.01830
# Poissons Ratio (z) = 0.23380 -0.00983
#
# Static dielectric constant tensor:
#      x y z
#    x 3.735450 0.000000 0.000000 
#    y 0.000000 3.669380 0.000000 
#    z 0.000000 0.000000 3.775040 
# 
# 
# High freq. dielectric constant tensor:
#      x y z
#    x 1.789030 0.000000 0.000000 
#    y 0.000000 1.788850 0.000000 
#    z 0.000000 0.000000 1.800670 
# 
# From -- ./inp_files/7979.got.cif
#   From: 2010.06.25/outbox.cif.g09.slc.cpg/sg58_4_cif.got.tgz:7979.got - 2010.06.26 21:38:00.
