data_PCOD8238632
_publ_section_title
;
Structure prediction by ZEFSAII (Michael W. Deem and Ramdas Pophale) SiO2 
 PCOD8238632
Probable space group: P N N M
;
_chemical_formula_sum "Si O2"
_cell_formula_units_Z 56
_cell_length_a 16.411017
_cell_length_b 11.414386
_cell_length_c 13.834699
_cell_angle_alpha 90.000000
_cell_angle_beta 90.000000
_cell_angle_gamma 90.000000
_cell_volume 2591.539096
_symmetry_space_group_name_H-M "P N N M"
_symmetry_group_IT_number 58
_symmetry_cell_setting 'orthorhombic'
loop_
_space_group_symop_operation_xyz
x,y,z
-x,-y,z
1/2+x,1/2-y,1/2-z
1/2-x,1/2+y,1/2-z
-x,-y,-z
x,y,-z
1/2-x,1/2+y,1/2+z
1/2+x,1/2-y,1/2+z
loop_
_atom_site_type_symbol
_atom_site_label
_atom_site_fract_x
_atom_site_fract_y
_atom_site_fract_z
Si Si1 0.470034 0.132425 0.887988
Si Si2 0.740280 0.389463 0.891918
Si Si3 0.673370 0.125675 0.392100
Si Si4 0.146222 0.045759 0.787396
Si Si5 0.787266 0.329258 0.387573
Si Si6 0.467924 0.754665 0.706587
Si Si7 0.629903 0.698356 0.614506
O O1 0.377937 0.148651 0.849029
O O2 0.520491 0.222061 0.821108
O O3 0.500000 0.000000 0.872559
O O4 0.480417 0.170176 0.000000
O O5 0.808342 0.489445 0.887907
O O6 0.664389 0.425861 0.825172
O O7 0.788038 0.271367 0.859976
O O8 0.705045 0.375523 0.000000
O O9 0.650530 0.167076 0.500000
O O10 0.753212 0.200480 0.358826
O O11 0.596434 0.147217 0.324819
O O12 0.228735 0.072764 0.844257
O O13 0.069390 0.126302 0.815316
O O14 0.125399 0.913243 0.814379
O O15 0.788844 0.351369 0.500000
O O16 0.549300 0.771376 0.642779
O O17 0.628446 0.666748 0.500000
#
# Coordination Sequence:
#
# PCOD8238632 Si02
#       7
#     8   8   8   8   8   8   8
#     4  10  23  40  61  94 132 172 219 267 318 381
#     4  10  24  42  64  93 125 165 212 265 316 376
#     4   9  20  39  63  91 121 161 210 259 317 381
#     4  11  24  39  65  93 128 168 210 258 320 384
#     4   9  19  38  63  90 120 162 212 259 306 369
#     4  11  24  38  63  96 127 172 206 263 325 387
#     4  11  25  44  66  95 131 165 211 269 323 381
#
# _framework density 21.608779999999999
#
# number of rings (size 3 to 8) (size 9 to 14) (size 15 to 20)
#    0.000    1.857    0.000    2.143   10.000    2.857 
#    0.000    5.000    0.000    1.714    0.000    0.000 
#    0.000    0.000    0.000    0.000    0.000    0.000 
#
# Total GULP energy -694282.409432 kJ/mol
# GULP energy per Si atom -12397.900168 kJ/mol
# Density = 2.155960 g / cm^3
# Si number density = 21.608780 Si / 1000 Ang^3
#
#
#
# Elastic Constant Matrix: (Units=GPa)
#
#
# Indices 1 2 3 4 5 6 
#
# 1 80.6260 7.3136 42.2163 0.0000 0.0000 0.0000
# 2 7.3136 65.4279 21.9830 0.0000 0.0000 0.0000
# 3 42.2163 21.9830 78.1400 0.0000 0.0000 0.0000
# 4 0.0000 0.0000 0.0000 30.2626 0.0000 0.0000
# 5 0.0000 0.0000 0.0000 0.0000 33.1137 0.0000
# 6 0.0000 0.0000 0.0000 0.0000 0.0000 18.8120
#
#
#
# Elastic Compliance Matrix: (Units=1/GPa)
#
#
# Indices 1 2 3 4 5 6 
#
# 1 0.017401 0.001340 -0.009778 0.000000 0.000000 0.000000
# 2 0.001340 0.016983 -0.005502 0.000000 0.000000 0.000000
# 3 -0.009778 -0.005502 0.019628 0.000000 0.000000 0.000000
# 4 0.000000 0.000000 0.000000 0.033044 0.000000 0.000000
# 5 0.000000 0.000000 0.000000 0.000000 0.030199 0.000000
# 6 0.000000 0.000000 0.000000 0.000000 0.000000 0.053158
#
#
# Mechanical properties :
#
#
# Convention : Reuss Voigt Hill
#
# Bulk Modulus (GPa) = 38.26653 40.80218 39.53436
# Shear Modulus (GPa) = 24.15415 26.61641 25.38528
#
# Velocity S-wave (km/s) = 3.34697 3.51342 3.43121
# Velocity P-wave (km/s) = 5.71695 5.94828 5.83376
#
# Compressibility (1/GPa) = 0.02613250
#
# Stress axis : x y z
#
# Youngs Moduli (GPa) = 57.46655 58.88339 50.94685
#
# Poissons Ratio (x) = -0.07892 0.49818
# Poissons Ratio (y) = -0.07702 0.28030
# Poissons Ratio (z) = 0.56193 0.32397
#
# Static dielectric constant tensor:
#      x y z
#    x 3.854330 0.000000 0.000000 
#    y 0.000000 3.725610 0.000000 
#    z 0.000000 0.000000 4.078950 
# 
# 
# High freq. dielectric constant tensor:
#      x y z
#    x 1.844350 0.000000 0.000000 
#    y 0.000000 1.839840 0.000000 
#    z 0.000000 0.000000 1.860690 
# 
# From -- ./inp_files/22174.got.cif
#   From: 2010.06.25/outbox.cif.g09.slc.cpg/sg58_12_cif.got.tgz:22174.got - 2010.06.26 21:38:00.
