data_PCOD8238826
_publ_section_title
;
Structure prediction by ZEFSAII (Michael W. Deem and Ramdas Pophale) SiO2 
 PCOD8238826
Probable space group: P N N M
;
_chemical_formula_sum "Si O2"
_cell_formula_units_Z 40
_cell_length_a 9.278665
_cell_length_b 8.729092
_cell_length_c 23.957826
_cell_angle_alpha 90.000000
_cell_angle_beta 90.000000
_cell_angle_gamma 90.000000
_cell_volume 1940.447836
_symmetry_space_group_name_H-M "P N N M"
_symmetry_group_IT_number 58
_symmetry_cell_setting 'orthorhombic'
loop_
_space_group_symop_operation_xyz
x,y,z
-x,-y,z
1/2+x,1/2-y,1/2-z
1/2-x,1/2+y,1/2-z
-x,-y,-z
x,y,-z
1/2-x,1/2+y,1/2+z
1/2+x,1/2-y,1/2+z
loop_
_atom_site_type_symbol
_atom_site_label
_atom_site_fract_x
_atom_site_fract_y
_atom_site_fract_z
Si Si1 0.402777 0.128672 0.649713
Si Si2 0.149498 0.924703 0.790465
Si Si3 0.853073 0.410663 0.373492
Si Si4 0.575348 0.339414 0.436846
Si Si5 0.646735 0.567603 0.161363
O O1 0.357402 0.243327 0.698706
O O2 0.493405 0.213270 0.600977
O O3 0.500000 0.000000 0.679241
O O4 0.267007 0.028183 0.626503
O O5 0.178600 0.963094 0.726450
O O6 0.281161 0.984032 0.826902
O O7 0.000000 0.000000 0.811268
O O8 0.743691 0.373521 0.424094
O O9 0.875560 0.246712 0.346175
O O10 0.000000 0.500000 0.393056
O O11 0.500000 0.500000 0.427963
O O12 0.563839 0.279299 0.500000
O O13 0.500000 0.500000 0.139408
#
# Coordination Sequence:
#
# PCOD8238826 Si02
#       5
#     8   8   8   8   8
#     4  12  21  40  67  93 132 165 218 280 317 384
#     4  11  21  40  61  92 132 178 218 252 315 406
#     4  12  23  42  64  91 132 169 214 275 325 400
#     4  11  24  46  73  94 120 171 226 277 337 395
#     4  11  25  37  60  98 134 173 213 263 330 384
#
# _framework density 20.613799
#
# number of rings (size 3 to 8) (size 9 to 14) (size 15 to 20)
#    0.000    0.600    6.000    2.400    0.000    7.200 
#    0.000    0.000    0.000    1.200    0.000    0.000 
#    0.000    0.000    0.000    0.000    0.000    0.000 
#
# Total GULP energy -495613.348566 kJ/mol
# GULP energy per Si atom -12390.333714 kJ/mol
# Density = 2.056688 g / cm^3
# Si number density = 20.613799 Si / 1000 Ang^3
#
#
#
# Elastic Constant Matrix: (Units=GPa)
#
#
# Indices 1 2 3 4 5 6 
#
# 1 153.7851 63.4897 28.6355 0.0000 0.0000 0.0000
# 2 63.4897 142.4527 21.5930 0.0000 0.0000 0.0000
# 3 28.6355 21.5930 59.1452 0.0000 0.0000 0.0000
# 4 0.0000 0.0000 0.0000 -11.5832 0.0000 0.0000
# 5 0.0000 0.0000 0.0000 0.0000 25.6254 0.0000
# 6 0.0000 0.0000 0.0000 0.0000 0.0000 57.7562
#
#
#
# Elastic Compliance Matrix: (Units=1/GPa)
#
#
# Indices 1 2 3 4 5 6 
#
# 1 0.008402 -0.003311 -0.002859 0.000000 0.000000 0.000000
# 2 -0.003311 0.008736 -0.001586 0.000000 0.000000 0.000000
# 3 -0.002859 -0.001586 0.018871 0.000000 0.000000 0.000000
# 4 0.000000 0.000000 0.000000 -0.086332 0.000000 0.000000
# 5 0.000000 0.000000 0.000000 0.000000 0.039024 0.000000
# 6 0.000000 0.000000 0.000000 0.000000 0.000000 0.017314
#
#
# Mechanical properties :
#
#
# Convention : Reuss Voigt Hill
#
# Bulk Modulus (GPa) = 48.79017 64.75770 56.77393
# Shear Modulus (GPa) = 176.30328 30.47067 103.38698
#
# Velocity S-wave (km/s) = 9.25810 3.84887 7.08965
# Velocity P-wave (km/s) = 11.74749 7.15784 9.72723
#
# Compressibility (1/GPa) = 0.02049593
#
# Stress axis : x y z
#
# Youngs Moduli (GPa) = 119.01922 114.46706 52.99183
#
# Poissons Ratio (x) = 0.37904 0.15150
# Poissons Ratio (y) = 0.39411 0.08406
# Poissons Ratio (z) = 0.34027 0.18157
#
# Static dielectric constant tensor:
#      x y z
#    x 4.146040 0.000000 0.000000 
#    y 0.000000 3.909830 0.000000 
#    z 0.000000 0.000000 3.443900 
# 
# 
# High freq. dielectric constant tensor:
#      x y z
#    x 1.821960 0.000000 0.000000 
#    y 0.000000 1.832450 0.000000 
#    z 0.000000 0.000000 1.766290 
# 
# From -- ./inp_files/31257.got.cif
#   From: 2010.06.25/outbox.cif.g09.slc.cpg/sg58_16_cif.got.tgz:31257.got - 2010.06.26 21:38:00.
