data_PCOD8238001
_publ_section_title
;
Structure prediction by ZEFSAII (Michael W. Deem and Ramdas Pophale) SiO2 
 PCOD8238001
Probable space group: P N N M
;
_chemical_formula_sum "Si O2"
_cell_formula_units_Z 56
_cell_length_a 16.766031
_cell_length_b 13.565723
_cell_length_c 13.044007
_cell_angle_alpha 90.000000
_cell_angle_beta 90.000000
_cell_angle_gamma 90.000000
_cell_volume 2966.772419
_symmetry_space_group_name_H-M "P N N M"
_symmetry_group_IT_number 58
_symmetry_cell_setting 'orthorhombic'
loop_
_space_group_symop_operation_xyz
x,y,z
-x,-y,z
1/2+x,1/2-y,1/2-z
1/2-x,1/2+y,1/2-z
-x,-y,-z
x,y,-z
1/2-x,1/2+y,1/2+z
1/2+x,1/2-y,1/2+z
loop_
_atom_site_type_symbol
_atom_site_label
_atom_site_fract_x
_atom_site_fract_y
_atom_site_fract_z
Si Si1 0.787272 0.208721 0.691615
Si Si2 0.794102 0.994159 0.381611
Si Si3 0.616459 0.265451 0.381863
Si Si4 0.005306 0.615869 0.806563
Si Si5 0.051298 0.094005 0.286511
Si Si6 0.545057 0.766756 0.116148
Si Si7 0.326602 0.175549 0.616175
O O1 0.785760 0.090644 0.688090
O O2 0.709193 0.256044 0.642830
O O3 0.860420 0.253877 0.628190
O O4 0.794441 0.237482 0.811195
O O5 0.796771 0.026944 0.500000
O O6 0.873493 0.934578 0.355215
O O7 0.718167 0.926148 0.357820
O O8 0.604586 0.291888 0.500000
O O9 0.574354 0.162007 0.354797
O O10 0.577673 0.353866 0.317997
O O11 0.000000 0.500000 0.818825
O O12 0.012737 0.644805 0.687034
O O13 0.079684 0.659263 0.869098
O O14 0.996800 0.164377 0.355311
O O15 0.000000 0.000000 0.253612
O O16 0.524482 0.795421 0.000000
O O17 0.309070 0.208970 0.500000
#
# Coordination Sequence:
#
# PCOD8238001 Si02
#       7
#     8   8   8   8   8   8   8
#     4  11  21  37  60  88 118 147 199 243 286 345
#     4  11  21  36  63  89 115 155 193 238 290 343
#     4  11  23  39  60  86 119 157 196 242 294 346
#     4  10  22  39  59  86 118 152 198 242 282 349
#     4  11  22  38  58  89 121 151 194 246 289 353
#     4  10  21  36  59  86 118 156 191 241 297 342
#     4  10  22  40  61  84 118 153 189 239 292 343
#
# _framework density 18.875731999999999
#
# number of rings (size 3 to 8) (size 9 to 14) (size 15 to 20)
#    0.000    1.429    2.857    3.000    0.000    3.429 
#    0.000    0.714    0.000    1.714    0.000    0.000 
#    0.000    0.000    0.000    0.000    0.000    0.000 
#
# Total GULP energy -694722.579081 kJ/mol
# GULP energy per Si atom -12405.760341 kJ/mol
# Density = 1.883277 g / cm^3
# Si number density = 18.875732 Si / 1000 Ang^3
#
#
#
# Elastic Constant Matrix: (Units=GPa)
#
#
# Indices 1 2 3 4 5 6 
#
# 1 84.5868 8.5674 36.0177 0.0000 0.0000 0.0000
# 2 8.5674 80.1749 47.0032 0.0000 0.0000 0.0000
# 3 36.0177 47.0032 135.6514 0.0000 0.0000 0.0000
# 4 0.0000 0.0000 0.0000 22.1302 0.0000 0.0000
# 5 0.0000 0.0000 0.0000 0.0000 15.8547 0.0000
# 6 0.0000 0.0000 0.0000 0.0000 0.0000 23.1391
#
#
#
# Elastic Compliance Matrix: (Units=1/GPa)
#
#
# Indices 1 2 3 4 5 6 
#
# 1 0.013372 0.000819 -0.003834 0.000000 0.000000 0.000000
# 2 0.000819 0.015702 -0.005658 0.000000 0.000000 0.000000
# 3 -0.003834 -0.005658 0.010351 0.000000 0.000000 0.000000
# 4 0.000000 0.000000 0.000000 0.045187 0.000000 0.000000
# 5 0.000000 0.000000 0.000000 0.000000 0.063073 0.000000
# 6 0.000000 0.000000 0.000000 0.000000 0.000000 0.043217
#
#
# Mechanical properties :
#
#
# Convention : Reuss Voigt Hill
#
# Bulk Modulus (GPa) = 45.29477 53.73218 49.51347
# Shear Modulus (GPa) = 23.19020 26.14643 24.66832
#
# Velocity S-wave (km/s) = 3.50890 3.72585 3.61900
# Velocity P-wave (km/s) = 6.36120 6.85838 6.61446
#
# Compressibility (1/GPa) = 0.02207760
#
# Stress axis : x y z
#
# Youngs Moduli (GPa) = 74.78384 63.68422 96.61367
#
# Poissons Ratio (x) = -0.05215 0.37044
# Poissons Ratio (y) = -0.06124 0.54667
# Poissons Ratio (z) = 0.28674 0.36035
#
# Static dielectric constant tensor:
#      x y z
#    x 3.686670 0.000000 0.000000 
#    y 0.000000 3.377040 0.000000 
#    z 0.000000 0.000000 3.470420 
# 
# 
# High freq. dielectric constant tensor:
#      x y z
#    x 1.753190 0.000000 0.000000 
#    y 0.000000 1.725750 0.000000 
#    z 0.000000 0.000000 1.733610 
# 
# From -- ./inp_files/15696.got.cif
#   From: 2010.06.25/outbox.cif.g09.slc.cpg/sg58_8_cif.got.tgz:15696.got - 2010.06.26 21:38:00.
