data_PCOD8238473
_publ_section_title
;
Structure prediction by ZEFSAII (Michael W. Deem and Ramdas Pophale) SiO2 
 PCOD8238473
Probable space group: P N N M
;
_chemical_formula_sum "Si O2"
_cell_formula_units_Z 44
_cell_length_a 27.621784
_cell_length_b 5.296244
_cell_length_c 13.813376
_cell_angle_alpha 90.000000
_cell_angle_beta 90.000000
_cell_angle_gamma 90.000000
_cell_volume 2020.782365
_symmetry_space_group_name_H-M "P N N M"
_symmetry_group_IT_number 58
_symmetry_cell_setting 'orthorhombic'
loop_
_space_group_symop_operation_xyz
x,y,z
-x,-y,z
1/2+x,1/2-y,1/2-z
1/2-x,1/2+y,1/2-z
-x,-y,-z
x,y,-z
1/2-x,1/2+y,1/2+z
1/2+x,1/2-y,1/2+z
loop_
_atom_site_type_symbol
_atom_site_label
_atom_site_fract_x
_atom_site_fract_y
_atom_site_fract_z
Si Si1 0.769460 0.213843 0.796266
Si Si2 0.878606 0.348644 0.175707
Si Si3 0.714166 0.616495 0.500000
Si Si4 0.446620 0.890495 0.200654
Si Si5 0.031995 0.248982 0.500000
Si Si6 0.944968 0.923193 0.894524
Si Si7 0.349927 0.880834 0.500000
O O1 0.746873 0.487483 0.773596
O O2 0.827422 0.231391 0.794352
O O3 0.752339 0.135379 0.904474
O O4 0.905647 0.399516 0.278547
O O5 0.910108 0.161448 0.111420
O O6 0.876247 0.603837 0.106749
O O7 0.677442 0.849435 0.500000
O O8 0.685821 0.353205 0.500000
O O9 0.435561 0.749535 0.098409
O O10 0.442499 0.720093 0.294258
O O11 0.500000 0.000000 0.194462
O O12 0.000000 0.500000 0.500000
O O13 0.000000 0.000000 0.500000
O O14 0.929098 0.790832 0.000000
O O15 0.000000 0.000000 0.909838
#
# Coordination Sequence:
#
# PCOD8238473 Si02
#       7
#     8   8   4   8   4   8   4
#     4  11  25  45  69 100 131 178 234 288 339 413
#     4  11  24  39  66  99 140 181 222 278 352 421
#     4  10  22  44  70  95 132 176 224 277 344 418
#     4  11  24  40  65  95 133 186 233 285 337 408
#     4  10  24  46  68  89 125 184 245 277 318 400
#     4  11  23  38  62 105 150 183 224 281 350 425
#     4  10  22  38  64 102 135 184 217 252 340 446
#
# _framework density 21.773747
#
# number of rings (size 3 to 8) (size 9 to 14) (size 15 to 20)
#    0.000    1.273    2.727    2.727   11.455    0.364 
#    0.000    1.818    0.000    0.000    0.000    0.000 
#    0.000    0.000    0.000    0.000    0.000    0.000 
#
# Total GULP energy -545087.457999 kJ/mol
# GULP energy per Si atom -12388.351318 kJ/mol
# Density = 2.172419 g / cm^3
# Si number density = 21.773747 Si / 1000 Ang^3
#
#
#
# Elastic Constant Matrix: (Units=GPa)
#
#
# Indices 1 2 3 4 5 6 
#
# 1 105.9826 34.8515 51.1745 0.0000 0.0000 0.0000
# 2 34.8515 103.9563 54.0965 0.0000 0.0000 0.0000
# 3 51.1745 54.0965 185.6113 0.0000 0.0000 0.0000
# 4 0.0000 0.0000 0.0000 34.2058 0.0000 0.0000
# 5 0.0000 0.0000 0.0000 0.0000 28.2405 0.0000
# 6 0.0000 0.0000 0.0000 0.0000 0.0000 37.3679
#
#
#
# Elastic Compliance Matrix: (Units=1/GPa)
#
#
# Indices 1 2 3 4 5 6 
#
# 1 0.011446 -0.002588 -0.002402 0.000000 0.000000 0.000000
# 2 -0.002588 0.011924 -0.002762 0.000000 0.000000 0.000000
# 3 -0.002402 -0.002762 0.006855 0.000000 0.000000 0.000000
# 4 0.000000 0.000000 0.000000 0.029235 0.000000 0.000000
# 5 0.000000 0.000000 0.000000 0.000000 0.035410 0.000000
# 6 0.000000 0.000000 0.000000 0.000000 0.000000 0.026761
#
#
# Mechanical properties :
#
#
# Convention : Reuss Voigt Hill
#
# Bulk Modulus (GPa) = 67.92205 75.08834 71.50520
# Shear Modulus (GPa) = 35.20122 36.99135 36.09628
#
# Velocity S-wave (km/s) = 4.02516 4.12624 4.07601
# Velocity P-wave (km/s) = 7.27081 7.56715 7.42046
#
# Compressibility (1/GPa) = 0.01472276
#
# Stress axis : x y z
#
# Youngs Moduli (GPa) = 87.36638 83.86355 145.88534
#
# Poissons Ratio (x) = 0.21700 0.35036
# Poissons Ratio (y) = 0.22607 0.40292
# Poissons Ratio (z) = 0.20982 0.23162
#
# Static dielectric constant tensor:
#      x y z
#    x 4.327630 0.000000 0.000000 
#    y 0.000000 4.112820 0.000000 
#    z 0.000000 0.000000 5.740060 
# 
# 
# High freq. dielectric constant tensor:
#      x y z
#    x 1.838200 0.000000 0.000000 
#    y 0.000000 1.863800 0.000000 
#    z 0.000000 0.000000 1.881100 
# 
# From -- ./inp_files/23636.got.cif
#   From: 2010.06.25/outbox.cif.g09.slc.cpg/sg58_12_cif.got.tgz:23636.got - 2010.06.26 21:38:00.
