data_PCOD8238577
_publ_section_title
;
Structure prediction by ZEFSAII (Michael W. Deem and Ramdas Pophale) SiO2 
 PCOD8238577
Probable space group: P N N M
;
_chemical_formula_sum "Si O2"
_cell_formula_units_Z 64
_cell_length_a 8.903726
_cell_length_b 15.065480
_cell_length_c 23.212596
_cell_angle_alpha 90.000000
_cell_angle_beta 90.000000
_cell_angle_gamma 90.000000
_cell_volume 3113.712232
_symmetry_space_group_name_H-M "P N N M"
_symmetry_group_IT_number 58
_symmetry_cell_setting 'orthorhombic'
loop_
_space_group_symop_operation_xyz
x,y,z
-x,-y,z
1/2+x,1/2-y,1/2-z
1/2-x,1/2+y,1/2-z
-x,-y,-z
x,y,-z
1/2-x,1/2+y,1/2+z
1/2+x,1/2-y,1/2+z
loop_
_atom_site_type_symbol
_atom_site_label
_atom_site_fract_x
_atom_site_fract_y
_atom_site_fract_z
Si Si1 0.672245 0.010010 0.641888
Si Si2 0.832423 0.527115 0.371842
Si Si3 0.661448 0.325891 0.128323
Si Si4 0.906165 0.090047 0.435729
Si Si5 0.078181 0.092877 0.853330
Si Si6 0.664424 0.670533 0.432800
Si Si7 0.192864 0.375109 0.749396
Si Si8 0.512794 0.287202 0.751679
O O1 0.753204 0.082144 0.600889
O O2 0.692450 0.042013 0.707448
O O3 0.500000 0.000000 0.623494
O O4 0.752061 0.917279 0.633671
O O5 0.746231 0.432876 0.371856
O O6 0.778069 0.588136 0.424788
O O7 0.805824 0.584664 0.314256
O O8 0.000000 0.500000 0.382404
O O9 0.512563 0.332915 0.089171
O O10 0.774847 0.256120 0.100526
O O11 0.609505 0.297443 0.190920
O O12 0.858399 0.116241 0.500000
O O13 0.000000 0.000000 0.434189
O O14 0.086889 0.152479 0.796976
O O15 0.995855 0.143986 0.905326
O O16 0.000000 0.000000 0.836980
O O17 0.643406 0.691820 0.500000
O O18 0.338152 0.311551 0.758685
O O19 0.042365 0.317018 0.763136
#
# Coordination Sequence:
#
# PCOD8238577 Si02
#       8
#     8   8   8   8   8   8   8   8
#     4  11  25  38  63  94 134 172 216 263 330 399
#     4  11  24  43  65  98 137 171 220 286 346 400
#     4  11  22  41  67  94 130 174 217 276 333 404
#     4   9  19  38  62  86 116 166 218 260 314 382
#     4  10  22  41  67  94 132 174 223 274 340 409
#     4  11  24  45  70  98 131 178 233 279 333 404
#     4  12  25  41  63 101 135 174 216 277 341 412
#     4  12  23  39  67  94 133 168 217 275 341 398
#
# _framework density 20.554244000000001
#
# number of rings (size 3 to 8) (size 9 to 14) (size 15 to 20)
#    0.000    1.125    5.000    1.500    5.250    3.250 
#    0.000    0.000    0.000    0.000    0.000    0.000 
#    0.000    0.000    0.000    0.000    0.000    0.000 
#
# Total GULP energy -793611.508298 kJ/mol
# GULP energy per Si atom -12400.179817 kJ/mol
# Density = 2.050746 g / cm^3
# Si number density = 20.554244 Si / 1000 Ang^3
#
#
#
# Elastic Constant Matrix: (Units=GPa)
#
#
# Indices 1 2 3 4 5 6 
#
# 1 107.6549 30.6979 10.2556 0.0000 0.0000 0.0000
# 2 30.6979 74.6039 21.3432 0.0000 0.0000 0.0000
# 3 10.2556 21.3432 98.2795 0.0000 0.0000 0.0000
# 4 0.0000 0.0000 0.0000 21.7358 0.0000 0.0000
# 5 0.0000 0.0000 0.0000 0.0000 172.5306 0.0000
# 6 0.0000 0.0000 0.0000 0.0000 0.0000 26.7955
#
#
#
# Elastic Compliance Matrix: (Units=1/GPa)
#
#
# Indices 1 2 3 4 5 6 
#
# 1 0.010526 -0.004283 -0.000168 0.000000 0.000000 0.000000
# 2 -0.004283 0.016035 -0.003035 0.000000 0.000000 0.000000
# 3 -0.000168 -0.003035 0.010852 0.000000 0.000000 0.000000
# 4 0.000000 0.000000 0.000000 0.046007 0.000000 0.000000
# 5 0.000000 0.000000 0.000000 0.000000 0.005796 0.000000
# 6 0.000000 0.000000 0.000000 0.000000 0.000000 0.037320
#
#
# Mechanical properties :
#
#
# Convention : Reuss Voigt Hill
#
# Bulk Modulus (GPa) = 44.56435 45.01464 44.78950
# Shear Modulus (GPa) = 33.55948 58.76184 46.16066
#
# Velocity S-wave (km/s) = 4.04509 5.35264 4.74413
# Velocity P-wave (km/s) = 6.59889 7.75557 7.20050
#
# Compressibility (1/GPa) = 0.02243946
#
# Stress axis : x y z
#
# Youngs Moduli (GPa) = 94.99988 62.36382 92.15065
#
# Poissons Ratio (x) = 0.26712 0.01551
# Poissons Ratio (y) = 0.40690 0.27971
# Poissons Ratio (z) = 0.01598 0.18929
#
# Static dielectric constant tensor:
#      x y z
#    x 3.965260 0.000000 0.000000 
#    y 0.000000 3.965120 0.000000 
#    z 0.000000 0.000000 3.721360 
# 
# 
# High freq. dielectric constant tensor:
#      x y z
#    x 1.807630 0.000000 0.000000 
#    y 0.000000 1.804590 0.000000 
#    z 0.000000 0.000000 1.799620 
# 
# From -- ./inp_files/31631.got.cif
#   From: 2010.06.25/outbox.cif.g09.slc.cpg/sg58_16_cif.got.tgz:31631.got - 2010.06.26 21:38:00.
