data_PCOD8238346
_publ_section_title
;
Structure prediction by ZEFSAII (Michael W. Deem and Ramdas Pophale) SiO2 
 PCOD8238346
Probable space group: P N N M
;
_chemical_formula_sum "Si O2"
_cell_formula_units_Z 48
_cell_length_a 8.870673
_cell_length_b 13.135069
_cell_length_c 19.148913
_cell_angle_alpha 90.000000
_cell_angle_beta 90.000000
_cell_angle_gamma 90.000000
_cell_volume 2231.172018
_symmetry_space_group_name_H-M "P N N M"
_symmetry_group_IT_number 58
_symmetry_cell_setting 'orthorhombic'
loop_
_space_group_symop_operation_xyz
x,y,z
-x,-y,z
1/2+x,1/2-y,1/2-z
1/2-x,1/2+y,1/2-z
-x,-y,-z
x,y,-z
1/2-x,1/2+y,1/2+z
1/2+x,1/2-y,1/2+z
loop_
_atom_site_type_symbol
_atom_site_label
_atom_site_fract_x
_atom_site_fract_y
_atom_site_fract_z
Si Si1 0.282075 0.134619 0.709867
Si Si2 0.323061 0.018650 0.922400
Si Si3 0.159481 0.954438 0.208246
Si Si4 0.776950 0.244377 0.579328
Si Si5 0.539251 0.723570 0.791794
Si Si6 0.024799 0.619861 0.921194
O O1 0.411971 0.163854 0.766332
O O2 0.340442 0.146279 0.631121
O O3 0.137138 0.207399 0.716796
O O4 0.238007 0.019964 0.730178
O O5 0.267845 0.134338 0.908357
O O6 0.500000 0.000000 0.917893
O O7 0.252516 0.946347 0.863538
O O8 0.267331 0.986228 0.000000
O O9 0.138444 0.843102 0.238537
O O10 0.000000 0.000000 0.187220
O O11 0.823323 0.218911 0.500000
O O12 0.909313 0.201196 0.628789
O O13 0.620888 0.187985 0.598764
O O14 0.000000 0.500000 0.913873
O O15 0.075449 0.646908 0.000000
#
# Coordination Sequence:
#
# PCOD8238346 Si02
#       6
#     8   8   8   8   8   8
#     4  11  23  39  61  91 125 160 208 261 312 382
#     4  10  22  40  62  90 124 167 216 262 319 385
#     4  10  23  40  60  90 125 160 207 266 318 378
#     4  10  21  40  64  92 129 166 209 265 320 381
#     4  11  23  38  62  93 124 165 210 257 322 380
#     4  10  22  41  66  93 124 168 213 258 321 388
#
# _framework density 21.513358
#
# number of rings (size 3 to 8) (size 9 to 14) (size 15 to 20)
#    0.000    1.667    1.667    2.000    4.667    3.000 
#    0.000    0.833    0.000    6.000    0.000    0.000 
#    0.000    0.000    0.000    0.000    0.000    0.000 
#
# Total GULP energy -595093.969346 kJ/mol
# GULP energy per Si atom -12397.791028 kJ/mol
# Density = 2.146439 g / cm^3
# Si number density = 21.513358 Si / 1000 Ang^3
#
#
#
# Elastic Constant Matrix: (Units=GPa)
#
#
# Indices 1 2 3 4 5 6 
#
# 1 72.2945 30.6137 47.6884 0.0000 0.0000 0.0000
# 2 30.6137 56.1303 7.3875 0.0000 0.0000 0.0000
# 3 47.6884 7.3875 138.0186 0.0000 0.0000 0.0000
# 4 0.0000 0.0000 0.0000 12.5723 0.0000 0.0000
# 5 0.0000 0.0000 0.0000 0.0000 40.8087 0.0000
# 6 0.0000 0.0000 0.0000 0.0000 0.0000 32.6921
#
#
#
# Elastic Compliance Matrix: (Units=1/GPa)
#
#
# Indices 1 2 3 4 5 6 
#
# 1 0.023987 -0.012077 -0.007642 0.000000 0.000000 0.000000
# 2 -0.012077 0.024023 0.002887 0.000000 0.000000 0.000000
# 3 -0.007642 0.002887 0.009731 0.000000 0.000000 0.000000
# 4 0.000000 0.000000 0.000000 0.079540 0.000000 0.000000
# 5 0.000000 0.000000 0.000000 0.000000 0.024505 0.000000
# 6 0.000000 0.000000 0.000000 0.000000 0.000000 0.030588
#
#
# Mechanical properties :
#
#
# Convention : Reuss Voigt Hill
#
# Bulk Modulus (GPa) = 41.53206 48.64693 45.08950
# Shear Modulus (GPa) = 21.36177 29.26488 25.31332
#
# Velocity S-wave (km/s) = 3.15454 3.69224 3.43393
# Velocity P-wave (km/s) = 5.71098 6.39049 6.06027
#
# Compressibility (1/GPa) = 0.02407779
#
# Stress axis : x y z
#
# Youngs Moduli (GPa) = 41.68909 41.62761 102.76200
#
# Poissons Ratio (x) = 0.50273 0.78527
# Poissons Ratio (y) = 0.50348 -0.29668
# Poissons Ratio (z) = 0.31857 -0.12018
#
# Static dielectric constant tensor:
#      x y z
#    x 3.742030 0.000000 0.000000 
#    y 0.000000 3.875140 0.000000 
#    z 0.000000 0.000000 4.128510 
# 
# 
# High freq. dielectric constant tensor:
#      x y z
#    x 1.838230 0.000000 0.000000 
#    y 0.000000 1.838490 0.000000 
#    z 0.000000 0.000000 1.862230 
# 
# From -- ./inp_files/25269.got.cif
#   From: 2010.06.25/outbox.cif.g09.slc.cpg/sg58_13_cif.got.tgz:25269.got - 2010.06.26 21:38:00.
