data_PCOD8238317
_publ_section_title
;
Structure prediction by ZEFSAII (Michael W. Deem and Ramdas Pophale) SiO2 
 PCOD8238317
Probable space group: P N N M
;
_chemical_formula_sum "Si O2"
_cell_formula_units_Z 64
_cell_length_a 11.832732
_cell_length_b 14.278121
_cell_length_c 18.334334
_cell_angle_alpha 90.000000
_cell_angle_beta 90.000000
_cell_angle_gamma 90.000000
_cell_volume 3097.570682
_symmetry_space_group_name_H-M "P N N M"
_symmetry_group_IT_number 58
_symmetry_cell_setting 'orthorhombic'
loop_
_space_group_symop_operation_xyz
x,y,z
-x,-y,z
1/2+x,1/2-y,1/2-z
1/2-x,1/2+y,1/2-z
-x,-y,-z
x,y,-z
1/2-x,1/2+y,1/2+z
1/2+x,1/2-y,1/2+z
loop_
_atom_site_type_symbol
_atom_site_label
_atom_site_fract_x
_atom_site_fract_y
_atom_site_fract_z
Si Si1 0.487134 0.193763 0.079801
Si Si2 0.102511 0.249729 0.084904
Si Si3 0.345929 0.259024 0.583102
Si Si4 0.278253 0.122050 0.838619
Si Si5 0.774903 0.892572 0.327786
Si Si6 0.492499 0.398498 0.110371
Si Si7 0.749094 0.072826 0.586877
Si Si8 0.301029 0.929229 0.917635
O O1 0.386599 0.182882 0.137614
O O2 0.523145 0.302876 0.068246
O O3 0.592578 0.133375 0.107728
O O4 0.446872 0.158281 0.000000
O O5 0.166023 0.170959 0.131264
O O6 0.150021 0.353194 0.100319
O O7 0.973587 0.251312 0.111331
O O8 0.114203 0.222739 0.000000
O O9 0.335203 0.222982 0.500000
O O10 0.259014 0.202755 0.632753
O O11 0.312457 0.367998 0.588639
O O12 0.274632 0.112608 0.752352
O O13 0.289475 0.017297 0.866481
O O14 0.912629 0.904973 0.325272
O O15 0.715566 0.975149 0.375147
O O16 0.500000 0.500000 0.067447
O O17 0.360029 0.388386 0.130189
O O18 0.772738 0.060701 0.500000
O O19 0.319417 0.964060 0.000000
#
# Coordination Sequence:
#
# PCOD8238317 Si02
#       8
#     8   8   8   8   8   8   8   8
#     4  11  21  40  71  98 123 162 216 273 316 362
#     4  10  22  42  67  93 119 164 219 261 310 371
#     4  10  22  43  67  91 121 164 217 260 308 375
#     4  12  25  41  60  92 135 170 206 258 318 387
#     4  11  25  41  60  95 132 170 199 252 329 391
#     4  10  21  39  65  99 125 155 207 263 321 373
#     4  10  21  41  69  96 122 159 213 271 315 369
#     4  10  22  42  68  93 122 166 221 272 307 360
#
# _framework density 20.661352000000001
#
# number of rings (size 3 to 8) (size 9 to 14) (size 15 to 20)
#    0.000    1.500    2.500    2.250    0.000    9.000 
#   11.250    3.750    0.000    0.000    0.000    0.000 
#    0.000    0.000    0.000    0.000    0.000    0.000 
#
# Total GULP energy -793065.168022 kJ/mol
# GULP energy per Si atom -12391.643250 kJ/mol
# Density = 2.061433 g / cm^3
# Si number density = 20.661352 Si / 1000 Ang^3
#
#
#
# Elastic Constant Matrix: (Units=GPa)
#
#
# Indices 1 2 3 4 5 6 
#
# 1 116.2075 34.0631 46.3932 0.0000 0.0000 0.0000
# 2 34.0631 125.9065 52.3859 0.0000 0.0000 0.0000
# 3 46.3932 52.3859 100.3822 0.0000 0.0000 0.0000
# 4 0.0000 0.0000 0.0000 12.7104 0.0000 0.0000
# 5 0.0000 0.0000 0.0000 0.0000 20.2266 0.0000
# 6 0.0000 0.0000 0.0000 0.0000 0.0000 27.2003
#
#
#
# Elastic Compliance Matrix: (Units=1/GPa)
#
#
# Indices 1 2 3 4 5 6 
#
# 1 0.010663 -0.001066 -0.004372 0.000000 0.000000 0.000000
# 2 -0.001066 0.010252 -0.004857 0.000000 0.000000 0.000000
# 3 -0.004372 -0.004857 0.014517 0.000000 0.000000 0.000000
# 4 0.000000 0.000000 0.000000 0.078676 0.000000 0.000000
# 5 0.000000 0.000000 0.000000 0.000000 0.049440 0.000000
# 6 0.000000 0.000000 0.000000 0.000000 0.000000 0.036764
#
#
# Mechanical properties :
#
#
# Convention : Reuss Voigt Hill
#
# Bulk Modulus (GPa) = 67.37664 67.57560 67.47612
# Shear Modulus (GPa) = 22.13858 26.00438 24.07148
#
# Velocity S-wave (km/s) = 3.27692 3.55152 3.41698
# Velocity P-wave (km/s) = 6.85554 7.04238 6.94959
#
# Compressibility (1/GPa) = 0.01484194
#
# Stress axis : x y z
#
# Youngs Moduli (GPa) = 93.78150 97.54393 68.88287
#
# Poissons Ratio (x) = 0.10396 0.30115
# Poissons Ratio (y) = 0.09995 0.33460
# Poissons Ratio (z) = 0.41000 0.47382
#
# Static dielectric constant tensor:
#      x y z
#    x 3.863500 0.000000 0.000000 
#    y 0.000000 3.900620 0.000000 
#    z 0.000000 0.000000 3.420060 
# 
# 
# High freq. dielectric constant tensor:
#      x y z
#    x 1.813840 0.000000 0.000000 
#    y 0.000000 1.826030 0.000000 
#    z 0.000000 0.000000 1.772010 
# 
# From -- ./inp_files/26352.got.cif
#   From: 2010.06.25/outbox.cif.g09.slc.cpg/sg58_14_cif.got.tgz:26352.got - 2010.06.26 21:38:00.
