data_PCOD8238860
_publ_section_title
;
Structure prediction by ZEFSAII (Michael W. Deem and Ramdas Pophale) SiO2 
 PCOD8238860
Probable space group: P N N M
;
_chemical_formula_sum "Si O2"
_cell_formula_units_Z 32
_cell_length_a 9.185239
_cell_length_b 6.697656
_cell_length_c 21.818867
_cell_angle_alpha 90.000000
_cell_angle_beta 90.000000
_cell_angle_gamma 90.000000
_cell_volume 1342.287340
_symmetry_space_group_name_H-M "P N N M"
_symmetry_group_IT_number 58
_symmetry_cell_setting 'orthorhombic'
loop_
_space_group_symop_operation_xyz
x,y,z
-x,-y,z
1/2+x,1/2-y,1/2-z
1/2-x,1/2+y,1/2-z
-x,-y,-z
x,y,-z
1/2-x,1/2+y,1/2+z
1/2+x,1/2-y,1/2+z
loop_
_atom_site_type_symbol
_atom_site_label
_atom_site_fract_x
_atom_site_fract_y
_atom_site_fract_z
Si Si1 0.657572 0.199147 0.836840
Si Si2 0.156108 0.461958 0.114169
Si Si3 0.566423 0.717038 0.067026
Si Si4 0.865037 0.869712 0.793052
O O1 0.775064 0.319375 0.877201
O O2 0.515456 0.157720 0.879599
O O3 0.620794 0.342681 0.779839
O O4 0.718310 0.986307 0.813367
O O5 0.259684 0.309274 0.076679
O O6 0.127702 0.351524 0.178916
O O7 0.000000 0.500000 0.081072
O O8 0.500000 0.500000 0.069121
O O9 0.541883 0.816719 0.000000
O O10 0.000000 0.000000 0.816416
#
# Coordination Sequence:
#
# PCOD8238860 Si02
#       4
#     8   8   8   8
#     4  11  23  40  64  95 133 171 217 271 335 397
#     4  11  22  39  63  94 132 167 216 270 330 392
#     4   9  21  43  68  93 127 177 225 266 321 394
#     4  12  23  38  62  98 135 171 210 278 344 397
#
# _framework density 23.839904000000001
#
# number of rings (size 3 to 8) (size 9 to 14) (size 15 to 20)
#    0.000    1.250    5.000    2.250    0.000    1.500 
#    0.000    2.500    0.000    1.500    0.000    0.000 
#    0.000    0.000    0.000    0.000    0.000    0.000 
#
# Total GULP energy -396600.420680 kJ/mol
# GULP energy per Si atom -12393.763146 kJ/mol
# Density = 2.378564 g / cm^3
# Si number density = 23.839904 Si / 1000 Ang^3
#
#
#
# Elastic Constant Matrix: (Units=GPa)
#
#
# Indices 1 2 3 4 5 6 
#
# 1 174.9766 29.3432 61.8805 0.0000 0.0000 0.0000
# 2 29.3432 81.7990 17.4805 0.0000 0.0000 0.0000
# 3 61.8805 17.4805 135.7106 0.0000 0.0000 0.0000
# 4 0.0000 0.0000 0.0000 -12.1670 0.0000 0.0000
# 5 0.0000 0.0000 0.0000 0.0000 3.7435 0.0000
# 6 0.0000 0.0000 0.0000 0.0000 0.0000 31.4386
#
#
#
# Elastic Compliance Matrix: (Units=1/GPa)
#
#
# Indices 1 2 3 4 5 6 
#
# 1 0.007091 -0.001905 -0.002988 0.000000 0.000000 0.000000
# 2 -0.001905 0.013083 -0.000816 0.000000 0.000000 0.000000
# 3 -0.002988 -0.000816 0.008836 0.000000 0.000000 0.000000
# 4 0.000000 0.000000 0.000000 -0.082189 0.000000 0.000000
# 5 0.000000 0.000000 0.000000 0.000000 0.267131 0.000000
# 6 0.000000 0.000000 0.000000 0.000000 0.000000 0.031808
#
#
# Mechanical properties :
#
#
# Convention : Reuss Voigt Hill
#
# Bulk Modulus (GPa) = 56.84694 67.76605 62.30650
# Shear Modulus (GPa) = 19.00829 23.52181 21.26505
#
# Velocity S-wave (km/s) = 2.82677 3.14452 2.98987
# Velocity P-wave (km/s) = 5.87803 6.45532 6.17343
#
# Compressibility (1/GPa) = 0.01759110
#
# Stress axis : x y z
#
# Youngs Moduli (GPa) = 141.01836 76.43497 113.17023
#
# Poissons Ratio (x) = 0.14563 0.33816
# Poissons Ratio (y) = 0.26868 0.09240
# Poissons Ratio (z) = 0.42137 0.06240
#
# Static dielectric constant tensor:
#      x y z
#    x 4.597680 0.000000 0.000000 
#    y 0.000000 4.090650 0.000000 
#    z 0.000000 0.000000 4.283480 
# 
# 
# High freq. dielectric constant tensor:
#      x y z
#    x 1.951270 0.000000 0.000000 
#    y 0.000000 1.950940 0.000000 
#    z 0.000000 0.000000 1.913860 
# 
# From -- ./inp_files/28450.got.cif
#   From: 2010.06.25/outbox.cif.g09.slc.cpg/sg58_15_cif.got.tgz:28450.got - 2010.06.26 21:38:00.
