data_PCOD8238182
_publ_section_title
;
Structure prediction by ZEFSAII (Michael W. Deem and Ramdas Pophale) SiO2 
 PCOD8238182
Probable space group: P N N M
;
_chemical_formula_sum "Si O2"
_cell_formula_units_Z 48
_cell_length_a 18.612959
_cell_length_b 14.988526
_cell_length_c 8.932530
_cell_angle_alpha 90.000000
_cell_angle_beta 90.000000
_cell_angle_gamma 90.000000
_cell_volume 2492.004543
_symmetry_space_group_name_H-M "P N N M"
_symmetry_group_IT_number 58
_symmetry_cell_setting 'orthorhombic'
loop_
_space_group_symop_operation_xyz
x,y,z
-x,-y,z
1/2+x,1/2-y,1/2-z
1/2-x,1/2+y,1/2-z
-x,-y,-z
x,y,-z
1/2-x,1/2+y,1/2+z
1/2+x,1/2-y,1/2+z
loop_
_atom_site_type_symbol
_atom_site_label
_atom_site_fract_x
_atom_site_fract_y
_atom_site_fract_z
Si Si1 0.656329 0.101584 0.328889
Si Si2 0.687411 0.402888 0.323462
Si Si3 0.912299 0.761584 0.672718
Si Si4 0.578676 0.748320 0.826967
Si Si5 0.162633 0.601934 0.174949
Si Si6 0.179098 0.912239 0.326992
O O1 0.635259 0.122835 0.500000
O O2 0.609399 0.161565 0.218618
O O3 0.740176 0.122371 0.301647
O O4 0.639503 0.999124 0.288682
O O5 0.694353 0.402887 0.500000
O O6 0.627907 0.332208 0.275492
O O7 0.763563 0.372931 0.256638
O O8 0.663017 0.500036 0.268736
O O9 0.892276 0.777195 0.500000
O O10 0.996332 0.775081 0.701191
O O11 0.599091 0.834639 0.730506
O O12 0.625327 0.664289 0.771812
O O13 0.594668 0.769440 0.000000
O O14 0.176230 0.614398 0.000000
O O15 0.166536 0.937524 0.500000
#
# Coordination Sequence:
#
# PCOD8238182 Si02
#       6
#     8   8   8   8   8   8
#     4   9  19  36  58  83 109 143 186 232 281 329
#     4  11  22  37  59  84 111 144 185 233 280 329
#     4  11  23  37  55  82 116 153 189 226 274 331
#     4  10  22  38  57  83 116 152 186 226 277 331
#     4  10  21  38  61  85 110 143 185 232 280 332
#     4   9  19  38  60  81 108 143 185 231 280 332
#
# _framework density 19.261603000000001
#
# number of rings (size 3 to 8) (size 9 to 14) (size 15 to 20)
#    0.000    2.000    0.000    4.500    0.000    8.000 
#    0.000    6.667    0.000    0.000    0.000    0.000 
#    0.000    0.000    0.000    0.000    0.000    0.000 
#
# Total GULP energy -595471.819593 kJ/mol
# GULP energy per Si atom -12405.662908 kJ/mol
# Density = 1.921776 g / cm^3
# Si number density = 19.261603 Si / 1000 Ang^3
#
#
#
# Elastic Constant Matrix: (Units=GPa)
#
#
# Indices 1 2 3 4 5 6 
#
# 1 39.2453 21.8628 21.7667 0.0000 0.0000 0.0000
# 2 21.8628 75.8093 34.5005 0.0000 0.0000 0.0000
# 3 21.7667 34.5005 87.2781 0.0000 0.0000 0.0000
# 4 0.0000 0.0000 0.0000 33.0232 0.0000 0.0000
# 5 0.0000 0.0000 0.0000 0.0000 29.5552 0.0000
# 6 0.0000 0.0000 0.0000 0.0000 0.0000 12.1107
#
#
#
# Elastic Compliance Matrix: (Units=1/GPa)
#
#
# Indices 1 2 3 4 5 6 
#
# 1 0.032269 -0.006882 -0.005327 0.000000 0.000000 0.000000
# 2 -0.006882 0.017552 -0.005222 0.000000 0.000000 0.000000
# 3 -0.005327 -0.005222 0.014850 0.000000 0.000000 0.000000
# 4 0.000000 0.000000 0.000000 0.030282 0.000000 0.000000
# 5 0.000000 0.000000 0.000000 0.000000 0.033835 0.000000
# 6 0.000000 0.000000 0.000000 0.000000 0.000000 0.082572
#
#
# Mechanical properties :
#
#
# Convention : Reuss Voigt Hill
#
# Bulk Modulus (GPa) = 33.54634 39.84363 36.69499
# Shear Modulus (GPa) = 19.51913 23.21802 21.36857
#
# Velocity S-wave (km/s) = 3.18680 3.47566 3.33436
# Velocity P-wave (km/s) = 5.56731 6.06938 5.82376
#
# Compressibility (1/GPa) = 0.02980951
#
# Stress axis : x y z
#
# Youngs Moduli (GPa) = 30.98932 56.97318 67.33784
#
# Poissons Ratio (x) = 0.39207 0.35874
# Poissons Ratio (y) = 0.21326 0.35164
# Poissons Ratio (z) = 0.16510 0.29751
#
# Static dielectric constant tensor:
#      x y z
#    x 3.442780 0.000000 0.000000 
#    y 0.000000 3.582040 0.000000 
#    z 0.000000 0.000000 3.502500 
# 
# 
# High freq. dielectric constant tensor:
#      x y z
#    x 1.744280 0.000000 0.000000 
#    y 0.000000 1.758510 0.000000 
#    z 0.000000 0.000000 1.751110 
# 
# From -- ./inp_files/5785.got.cif
#   From: 2010.06.25/outbox.cif.g09.slc.cpg/sg58_3_cif.got.tgz:5785.got - 2010.06.26 21:38:00.
