data_PCOD8238452
_publ_section_title
;
Structure prediction by ZEFSAII (Michael W. Deem and Ramdas Pophale) SiO2 
 PCOD8238452
Probable space group: P N N M
;
_chemical_formula_sum "Si O2"
_cell_formula_units_Z 64
_cell_length_a 8.813130
_cell_length_b 17.359937
_cell_length_c 19.597767
_cell_angle_alpha 90.000000
_cell_angle_beta 90.000000
_cell_angle_gamma 90.000000
_cell_volume 2998.367840
_symmetry_space_group_name_H-M "P N N M"
_symmetry_group_IT_number 58
_symmetry_cell_setting 'orthorhombic'
loop_
_space_group_symop_operation_xyz
x,y,z
-x,-y,z
1/2+x,1/2-y,1/2-z
1/2-x,1/2+y,1/2-z
-x,-y,-z
x,y,-z
1/2-x,1/2+y,1/2+z
1/2+x,1/2-y,1/2+z
loop_
_atom_site_type_symbol
_atom_site_label
_atom_site_fract_x
_atom_site_fract_y
_atom_site_fract_z
Si Si1 0.171813 0.293116 0.078581
Si Si2 0.862757 0.121032 0.926542
Si Si3 0.703101 0.148904 0.200908
Si Si4 0.658191 0.590556 0.162951
Si Si5 0.286815 0.618489 0.576348
Si Si6 0.810407 0.917937 0.329786
Si Si7 0.097201 0.576633 0.299838
Si Si8 0.147403 0.721517 0.873086
O O1 0.299393 0.354330 0.100238
O O2 0.243107 0.208914 0.087605
O O3 0.029560 0.303125 0.130847
O O4 0.124182 0.308261 0.000000
O O5 0.761304 0.093721 0.862446
O O6 0.846081 0.214960 0.933652
O O7 0.036550 0.098341 0.912113
O O8 0.810195 0.086341 0.000000
O O9 0.745787 0.109023 0.270686
O O10 0.519611 0.149371 0.197451
O O11 0.781143 0.233765 0.193837
O O12 0.484532 0.602041 0.184184
O O13 0.699644 0.503747 0.139618
O O14 0.238043 0.594460 0.500000
O O15 0.187230 0.570148 0.629154
O O16 0.716545 0.908655 0.260211
O O17 0.743932 0.856457 0.384639
O O18 0.000000 0.500000 0.286701
#
# Coordination Sequence:
#
# PCOD8238452 Si02
#       8
#     8   8   8   8   8   8   8   8
#     4  10  22  43  71  97 128 165 211 266 326 388
#     4   8  17  38  62  91 125 159 211 262 315 376
#     4  10  22  37  63  96 121 170 213 264 317 381
#     4  11  24  43  63  92 128 173 216 266 329 385
#     4   9  20  38  61  88 122 165 210 264 314 378
#     4  11  25  41  61  91 132 168 213 275 321 379
#     4  12  24  40  61  89 132 170 214 265 329 377
#     4   9  21  37  65  94 122 161 214 256 320 379
#
# _framework density 21.344947000000001
#
# number of rings (size 3 to 8) (size 9 to 14) (size 15 to 20)
#    0.750    1.250    1.250    2.625    3.500    0.750 
#    0.000    4.375    0.000    1.500    0.000    0.000 
#    0.000    0.000    0.000    0.000    0.000    0.000 
#
# Total GULP energy -792936.518866 kJ/mol
# GULP energy per Si atom -12389.633107 kJ/mol
# Density = 2.129636 g / cm^3
# Si number density = 21.344947 Si / 1000 Ang^3
#
#
#
# Elastic Constant Matrix: (Units=GPa)
#
#
# Indices 1 2 3 4 5 6 
#
# 1 114.3780 41.6068 35.4468 0.0000 0.0000 0.0000
# 2 41.6068 80.2531 17.1709 0.0000 0.0000 0.0000
# 3 35.4468 17.1709 59.7135 0.0000 0.0000 0.0000
# 4 0.0000 0.0000 0.0000 7.4724 0.0000 0.0000
# 5 0.0000 0.0000 0.0000 0.0000 22.3627 0.0000
# 6 0.0000 0.0000 0.0000 0.0000 0.0000 29.7261
#
#
#
# Elastic Compliance Matrix: (Units=1/GPa)
#
#
# Indices 1 2 3 4 5 6 
#
# 1 0.012464 -0.005199 -0.005904 0.000000 0.000000 0.000000
# 2 -0.005199 0.015446 -0.001356 0.000000 0.000000 0.000000
# 3 -0.005904 -0.001356 0.020641 0.000000 0.000000 0.000000
# 4 0.000000 0.000000 0.000000 0.133826 0.000000 0.000000
# 5 0.000000 0.000000 0.000000 0.000000 0.044717 0.000000
# 6 0.000000 0.000000 0.000000 0.000000 0.000000 0.033641
#
#
# Mechanical properties :
#
#
# Convention : Reuss Voigt Hill
#
# Bulk Modulus (GPa) = 42.31068 49.19927 45.75497
# Shear Modulus (GPa) = 17.03415 22.58691 19.81053
#
# Velocity S-wave (km/s) = 2.82803 3.25651 3.04980
# Velocity P-wave (km/s) = 5.52531 6.10241 5.82102
#
# Compressibility (1/GPa) = 0.02363470
#
# Stress axis : x y z
#
# Youngs Moduli (GPa) = 80.23365 64.74259 48.44736
#
# Poissons Ratio (x) = 0.33657 0.28602
# Poissons Ratio (y) = 0.41710 0.06567
# Poissons Ratio (z) = 0.47368 0.08776
#
# Static dielectric constant tensor:
#      x y z
#    x 3.930070 0.000000 0.000000 
#    y 0.000000 3.861260 0.000000 
#    z 0.000000 0.000000 3.551130 
# 
# 
# High freq. dielectric constant tensor:
#      x y z
#    x 1.838220 0.000000 0.000000 
#    y 0.000000 1.833760 0.000000 
#    z 0.000000 0.000000 1.815700 
# 
# From -- ./inp_files/25666.got.cif
#   From: 2010.06.25/outbox.cif.g09.slc.cpg/sg58_13_cif.got.tgz:25666.got - 2010.06.26 21:38:00.
