data_PCOD8238163
_publ_section_title
;
Structure prediction by ZEFSAII (Michael W. Deem and Ramdas Pophale) SiO2 
 PCOD8238163
Probable space group: P N N M
;
_chemical_formula_sum "Si O2"
_cell_formula_units_Z 40
_cell_length_a 14.731504
_cell_length_b 9.940486
_cell_length_c 13.496813
_cell_angle_alpha 90.000000
_cell_angle_beta 90.000000
_cell_angle_gamma 90.000000
_cell_volume 1976.450476
_symmetry_space_group_name_H-M "P N N M"
_symmetry_group_IT_number 58
_symmetry_cell_setting 'orthorhombic'
loop_
_space_group_symop_operation_xyz
x,y,z
-x,-y,z
1/2+x,1/2-y,1/2-z
1/2-x,1/2+y,1/2-z
-x,-y,-z
x,y,-z
1/2-x,1/2+y,1/2+z
1/2+x,1/2-y,1/2+z
loop_
_atom_site_type_symbol
_atom_site_label
_atom_site_fract_x
_atom_site_fract_y
_atom_site_fract_z
Si Si1 0.091908 0.253648 0.298986
Si Si2 0.908099 0.919115 0.113519
Si Si3 0.773554 0.507949 0.303677
Si Si4 0.094551 0.710377 0.614032
Si Si5 0.173973 0.001397 0.611206
O O1 0.094587 0.212975 0.183027
O O2 0.171655 0.357095 0.325290
O O3 0.996775 0.323088 0.325635
O O4 0.104557 0.123036 0.367932
O O5 0.823653 0.016447 0.140763
O O6 0.901168 0.870768 0.000000
O O7 0.000000 0.000000 0.133583
O O8 0.824327 0.376215 0.341507
O O9 0.758875 0.490792 0.185821
O O10 0.080120 0.671173 0.500000
O O11 0.117985 0.865822 0.628094
O O12 0.212502 0.010213 0.500000
#
# Coordination Sequence:
#
# PCOD8238163 Si02
#       5
#     8   8   8   8   8
#     4  11  22  38  61  90 118 149 195 246 290 340
#     4  10  22  40  61  85 118 161 202 238 287 354
#     4  11  23  38  59  87 120 152 188 239 296 349
#     4  11  23  40  61  86 119 156 192 237 296 352
#     4  10  21  38  60  83 112 153 197 239 283 339
#
# _framework density 20.238299999999999
#
# number of rings (size 3 to 8) (size 9 to 14) (size 15 to 20)
#    0.000    1.400    0.000    7.200    0.000    8.000 
#    0.000    3.000    0.000    2.400    0.000    0.000 
#    0.000    0.000    0.000    0.000    0.000    0.000 
#
# Total GULP energy -496172.495924 kJ/mol
# GULP energy per Si atom -12404.312398 kJ/mol
# Density = 2.019224 g / cm^3
# Si number density = 20.238300 Si / 1000 Ang^3
#
#
#
# Elastic Constant Matrix: (Units=GPa)
#
#
# Indices 1 2 3 4 5 6 
#
# 1 151.2103 57.5016 62.4924 0.0000 0.0000 0.0000
# 2 57.5016 80.7993 42.3472 0.0000 0.0000 0.0000
# 3 62.4924 42.3472 149.0581 0.0000 0.0000 0.0000
# 4 0.0000 0.0000 0.0000 22.3512 0.0000 0.0000
# 5 0.0000 0.0000 0.0000 0.0000 23.7129 0.0000
# 6 0.0000 0.0000 0.0000 0.0000 0.0000 30.1475
#
#
#
# Elastic Compliance Matrix: (Units=1/GPa)
#
#
# Indices 1 2 3 4 5 6 
#
# 1 0.009800 -0.005665 -0.002500 0.000000 0.000000 0.000000
# 2 -0.005665 0.017816 -0.002687 0.000000 0.000000 0.000000
# 3 -0.002500 -0.002687 0.008520 0.000000 0.000000 0.000000
# 4 0.000000 0.000000 0.000000 0.044740 0.000000 0.000000
# 5 0.000000 0.000000 0.000000 0.000000 0.042171 0.000000
# 6 0.000000 0.000000 0.000000 0.000000 0.000000 0.033170
#
#
# Mechanical properties :
#
#
# Convention : Reuss Voigt Hill
#
# Bulk Modulus (GPa) = 69.27723 78.41669 73.84696
# Shear Modulus (GPa) = 27.36269 29.82408 28.59338
#
# Velocity S-wave (km/s) = 3.68098 3.84297 3.76285
# Velocity P-wave (km/s) = 7.23679 7.64997 7.44625
#
# Compressibility (1/GPa) = 0.01443476
#
# Stress axis : x y z
#
# Youngs Moduli (GPa) = 102.03670 56.13059 117.37160
#
# Poissons Ratio (x) = 0.31795 0.29337
# Poissons Ratio (y) = 0.57799 0.31532
# Poissons Ratio (z) = 0.25504 0.15080
#
# Static dielectric constant tensor:
#      x y z
#    x 3.690880 0.000000 0.000000 
#    y 0.000000 3.552600 0.000000 
#    z 0.000000 0.000000 3.933980 
# 
# 
# High freq. dielectric constant tensor:
#      x y z
#    x 1.795730 0.000000 0.000000 
#    y 0.000000 1.783850 0.000000 
#    z 0.000000 0.000000 1.799800 
# 
# From -- ./inp_files/19503.got.cif
#   From: 2010.06.25/outbox.cif.g09.slc.cpg/sg58_10_cif.got.tgz:19503.got - 2010.06.26 21:38:00.
