data_PCOD8238393
_publ_section_title
;
Structure prediction by ZEFSAII (Michael W. Deem and Ramdas Pophale) SiO2 
 PCOD8238393
Probable space group: P N N M
;
_chemical_formula_sum "Si O2"
_cell_formula_units_Z 64
_cell_length_a 15.366156
_cell_length_b 9.237919
_cell_length_c 22.304863
_cell_angle_alpha 90.000000
_cell_angle_beta 90.000000
_cell_angle_gamma 90.000000
_cell_volume 3166.204399
_symmetry_space_group_name_H-M "P N N M"
_symmetry_group_IT_number 58
_symmetry_cell_setting 'orthorhombic'
loop_
_space_group_symop_operation_xyz
x,y,z
-x,-y,z
1/2+x,1/2-y,1/2-z
1/2-x,1/2+y,1/2-z
-x,-y,-z
x,y,-z
1/2-x,1/2+y,1/2+z
1/2+x,1/2-y,1/2+z
loop_
_atom_site_type_symbol
_atom_site_label
_atom_site_fract_x
_atom_site_fract_y
_atom_site_fract_z
Si Si1 0.985109 0.330620 0.123144
Si Si2 0.876565 0.279239 0.240234
Si Si3 0.834560 0.167399 0.068058
Si Si4 0.600719 0.006805 0.159660
Si Si5 0.832296 0.292353 0.568601
Si Si6 0.863755 0.842892 0.068543
Si Si7 0.095866 0.940425 0.342556
Si Si8 0.291881 0.721294 0.162604
O O1 0.949144 0.296344 0.189120
O O2 0.916778 0.273590 0.074125
O O3 0.000000 0.500000 0.113529
O O4 0.075122 0.246312 0.113329
O O5 0.876047 0.420659 0.280646
O O6 0.779570 0.262925 0.214639
O O7 0.901336 0.139202 0.278755
O O8 0.752397 0.238226 0.100086
O O9 0.858667 0.007733 0.093274
O O10 0.805867 0.149789 0.000000
O O11 0.650298 0.945111 0.101419
O O12 0.500000 0.000000 0.144764
O O13 0.628133 0.170477 0.173831
O O14 0.865118 0.300191 0.500000
O O15 0.729320 0.264248 0.571125
O O16 0.883400 0.166129 0.602594
O O17 0.899521 0.841554 0.000000
O O18 0.169727 0.061805 0.341029
O O19 0.000000 0.000000 0.354311
#
# Coordination Sequence:
#
# PCOD8238393 Si02
#       8
#     8   8   8   8   8   8   8   8
#     4  11  24  39  63  99 133 170 216 262 322 383
#     4  10  24  43  61  91 127 169 212 257 320 389
#     4  10  22  40  62  96 132 170 216 260 322 392
#     4  11  22  43  65  91 125 162 213 271 313 371
#     4  10  23  43  66  94 126 170 214 256 326 389
#     4  10  21  41  65  92 134 175 211 259 318 394
#     4  11  25  45  63  93 130 166 214 272 326 374
#     4  11  22  40  68  93 124 168 214 266 318 377
#
# _framework density 20.213477000000001
#
# number of rings (size 3 to 8) (size 9 to 14) (size 15 to 20)
#    0.000    1.500    1.250    3.375    3.500    5.000 
#    9.000    1.250    0.000    0.000    0.000    0.000 
#    0.000    0.000    0.000    0.000    0.000    0.000 
#
# Total GULP energy -793846.127764 kJ/mol
# GULP energy per Si atom -12403.845746 kJ/mol
# Density = 2.016747 g / cm^3
# Si number density = 20.213477 Si / 1000 Ang^3
#
#
#
# Elastic Constant Matrix: (Units=GPa)
#
#
# Indices 1 2 3 4 5 6 
#
# 1 98.3089 29.2342 29.6496 0.0000 0.0000 0.0000
# 2 29.2342 116.7889 28.5907 0.0000 0.0000 0.0000
# 3 29.6496 28.5907 99.0673 0.0000 0.0000 0.0000
# 4 0.0000 0.0000 0.0000 17.4619 0.0000 0.0000
# 5 0.0000 0.0000 0.0000 0.0000 27.3882 0.0000
# 6 0.0000 0.0000 0.0000 0.0000 0.0000 42.5638
#
#
#
# Elastic Compliance Matrix: (Units=1/GPa)
#
#
# Indices 1 2 3 4 5 6 
#
# 1 0.011696 -0.002228 -0.002858 0.000000 0.000000 0.000000
# 2 -0.002228 0.009638 -0.002115 0.000000 0.000000 0.000000
# 3 -0.002858 -0.002115 0.011560 0.000000 0.000000 0.000000
# 4 0.000000 0.000000 0.000000 0.057268 0.000000 0.000000
# 5 0.000000 0.000000 0.000000 0.000000 0.036512 0.000000
# 6 0.000000 0.000000 0.000000 0.000000 0.000000 0.023494
#
#
# Mechanical properties :
#
#
# Convention : Reuss Voigt Hill
#
# Bulk Modulus (GPa) = 54.07388 54.34599 54.20994
# Shear Modulus (GPa) = 29.28549 32.59550 30.94050
#
# Velocity S-wave (km/s) = 3.81045 4.02003 3.91664
# Velocity P-wave (km/s) = 6.79477 6.96361 6.87971
#
# Compressibility (1/GPa) = 0.01849322
#
# Stress axis : x y z
#
# Youngs Moduli (GPa) = 85.49598 103.75713 86.50798
#
# Poissons Ratio (x) = 0.23120 0.24720
# Poissons Ratio (y) = 0.19051 0.18293
# Poissons Ratio (z) = 0.24431 0.21940
#
# Static dielectric constant tensor:
#      x y z
#    x 3.676210 0.000000 0.000000 
#    y 0.000000 3.785660 0.000000 
#    z 0.000000 0.000000 3.667360 
# 
# 
# High freq. dielectric constant tensor:
#      x y z
#    x 1.798990 0.000000 0.000000 
#    y 0.000000 1.797880 0.000000 
#    z 0.000000 0.000000 1.790220 
# 
# From -- ./inp_files/32242.got.cif
#   From: 2010.06.25/outbox.cif.g09.slc.cpg/sg58_17_cif.got.tgz:32242.got - 2010.06.26 21:38:00.
