data_PCOD8238748
_publ_section_title
;
Structure prediction by ZEFSAII (Michael W. Deem and Ramdas Pophale) SiO2 
 PCOD8238748
Probable space group: P N N M
;
_chemical_formula_sum "Si O2"
_cell_formula_units_Z 48
_cell_length_a 7.721179
_cell_length_b 14.619464
_cell_length_c 21.953117
_cell_angle_alpha 90.000000
_cell_angle_beta 90.000000
_cell_angle_gamma 90.000000
_cell_volume 2478.056836
_symmetry_space_group_name_H-M "P N N M"
_symmetry_group_IT_number 58
_symmetry_cell_setting 'orthorhombic'
loop_
_space_group_symop_operation_xyz
x,y,z
-x,-y,z
1/2+x,1/2-y,1/2-z
1/2-x,1/2+y,1/2-z
-x,-y,-z
x,y,-z
1/2-x,1/2+y,1/2+z
1/2+x,1/2-y,1/2+z
loop_
_atom_site_type_symbol
_atom_site_label
_atom_site_fract_x
_atom_site_fract_y
_atom_site_fract_z
Si Si1 0.783181 0.773121 0.932090
Si Si2 0.584850 0.591056 0.400620
Si Si3 0.465720 0.894323 0.896199
Si Si4 0.335183 0.454969 0.262008
Si Si5 0.382990 0.131291 0.230597
Si Si6 0.172044 0.297385 0.191270
O O1 0.609410 0.834042 0.930276
O O2 0.789408 0.693128 0.881303
O O3 0.953596 0.829367 0.915182
O O4 0.798787 0.731629 0.000000
O O5 0.500000 0.500000 0.430911
O O6 0.774593 0.622179 0.424955
O O7 0.613491 0.572738 0.329793
O O8 0.473718 0.870334 0.823790
O O9 0.500000 0.000000 0.907644
O O10 0.500000 0.500000 0.229553
O O11 0.176960 0.527213 0.258815
O O12 0.302070 0.365570 0.223282
O O13 0.217607 0.192989 0.211476
O O14 0.475492 0.175385 0.290047
#
# Coordination Sequence:
#
# PCOD8238748 Si02
#       6
#     8   8   8   8   8   8
#     4  11  26  40  53  79 119 164 205 240 279 340
#     4  11  19  35  58  87 118 148 188 240 300 364
#     4  11  18  36  58  84 115 151 188 243 298 353
#     4  11  20  35  61  92 120 146 182 243 309 363
#     4  11  20  34  59  92 120 147 186 239 309 357
#     4  11  21  36  58  86 118 152 190 241 294 353
#
# _framework density 19.370014999999999
#
# number of rings (size 3 to 8) (size 9 to 14) (size 15 to 20)
#    0.000    1.000    5.000    5.500    0.000    1.333 
#    0.000    0.000    0.000    2.500    0.000    0.000 
#    0.000    0.000    0.000    0.000    0.000    0.000 
#
# Total GULP energy -594874.357863 kJ/mol
# GULP energy per Si atom -12393.215789 kJ/mol
# Density = 1.932593 g / cm^3
# Si number density = 19.370015 Si / 1000 Ang^3
#
#
#
# Elastic Constant Matrix: (Units=GPa)
#
#
# Indices 1 2 3 4 5 6 
#
# 1 120.4850 -5.1342 22.5252 0.0000 0.0000 0.0000
# 2 -5.1342 28.0814 24.4030 0.0000 0.0000 0.0000
# 3 22.5252 24.4030 102.8183 0.0000 0.0000 0.0000
# 4 0.0000 0.0000 0.0000 16.5139 0.0000 0.0000
# 5 0.0000 0.0000 0.0000 0.0000 25.4896 0.0000
# 6 0.0000 0.0000 0.0000 0.0000 0.0000 17.6043
#
#
#
# Elastic Compliance Matrix: (Units=1/GPa)
#
#
# Indices 1 2 3 4 5 6 
#
# 1 0.009040 0.004250 -0.002989 0.000000 0.000000 0.000000
# 2 0.004250 0.046862 -0.012054 0.000000 0.000000 0.000000
# 3 -0.002989 -0.012054 0.013242 0.000000 0.000000 0.000000
# 4 0.000000 0.000000 0.000000 0.060555 0.000000 0.000000
# 5 0.000000 0.000000 0.000000 0.000000 0.039232 0.000000
# 6 0.000000 0.000000 0.000000 0.000000 0.000000 0.056804
#
#
# Mechanical properties :
#
#
# Convention : Reuss Voigt Hill
#
# Bulk Modulus (GPa) = 21.02646 37.21920 29.12283
# Shear Modulus (GPa) = 18.99893 25.89427 22.44660
#
# Velocity S-wave (km/s) = 3.13524 3.66022 3.40786
# Velocity P-wave (km/s) = 4.89745 6.09258 5.52741
#
# Compressibility (1/GPa) = 0.04755911
#
# Stress axis : x y z
#
# Youngs Moduli (GPa) = 110.62246 21.33903 75.51976
#
# Poissons Ratio (x) = -0.09070 0.22574
# Poissons Ratio (y) = -0.47019 0.91028
# Poissons Ratio (z) = 0.33067 0.25721
#
# Static dielectric constant tensor:
#      x y z
#    x 4.097340 0.000000 0.000000 
#    y 0.000000 3.437370 0.000000 
#    z 0.000000 0.000000 3.493110 
# 
# 
# High freq. dielectric constant tensor:
#      x y z
#    x 1.780190 0.000000 0.000000 
#    y 0.000000 1.725600 0.000000 
#    z 0.000000 0.000000 1.722320 
# 
# From -- ./inp_files/31545.got.cif
#   From: 2010.06.25/outbox.cif.g09.slc.cpg/sg58_16_cif.got.tgz:31545.got - 2010.06.26 21:38:00.
