data_PCOD8238674
_publ_section_title
;
Structure prediction by ZEFSAII (Michael W. Deem and Ramdas Pophale) SiO2 
 PCOD8238674
Probable space group: P N N M
;
_chemical_formula_sum "Si O2"
_cell_formula_units_Z 48
_cell_length_a 14.701636
_cell_length_b 18.391804
_cell_length_c 8.556577
_cell_angle_alpha 90.000000
_cell_angle_beta 90.000000
_cell_angle_gamma 90.000000
_cell_volume 2313.609499
_symmetry_space_group_name_H-M "P N N M"
_symmetry_group_IT_number 58
_symmetry_cell_setting 'orthorhombic'
loop_
_space_group_symop_operation_xyz
x,y,z
-x,-y,z
1/2+x,1/2-y,1/2-z
1/2-x,1/2+y,1/2-z
-x,-y,-z
x,y,-z
1/2-x,1/2+y,1/2+z
1/2+x,1/2-y,1/2+z
loop_
_atom_site_type_symbol
_atom_site_label
_atom_site_fract_x
_atom_site_fract_y
_atom_site_fract_z
Si Si1 0.600405 0.025486 0.318838
Si Si2 0.564788 0.435165 0.318321
Si Si3 0.186138 0.742400 0.319993
Si Si4 0.504351 0.274755 0.320414
Si Si5 0.154993 0.324603 0.679792
Si Si6 0.747118 0.904835 0.319169
O O1 0.607556 0.047614 0.500000
O O2 0.623562 0.094206 0.213983
O O3 0.500000 0.000000 0.274469
O O4 0.668227 0.960836 0.275161
O O5 0.500000 0.500000 0.261284
O O6 0.589723 0.443522 0.500000
O O7 0.512851 0.360011 0.284205
O O8 0.656516 0.441333 0.218667
O O9 0.157641 0.746898 0.500000
O O10 0.097320 0.749062 0.214163
O O11 0.256160 0.806995 0.282124
O O12 0.236312 0.666603 0.285717
O O13 0.527135 0.256888 0.500000
O O14 0.573853 0.231055 0.213458
O O15 0.182435 0.317199 0.500000
O O16 0.742442 0.882485 0.500000
#
# Coordination Sequence:
#
# PCOD8238674 Si02
#       6
#     8   8   8   8   8   8
#     4  10  23  43  66  94 131 172 212 264 327 386
#     4  10  23  42  64  92 128 172 215 263 326 388
#     4  12  25  42  66  95 130 171 215 267 323 383
#     4  11  23  42  67  95 130 170 212 269 327 384
#     4  12  25  42  66  97 131 170 217 267 318 384
#     4  11  23  41  67  98 130 169 217 267 322 385
#
# _framework density 20.746801999999999
#
# number of rings (size 3 to 8) (size 9 to 14) (size 15 to 20)
#    0.000    1.000    1.667    5.000    2.333    4.000 
#    0.000    0.000    0.000    0.000    0.000    0.000 
#    0.000    0.000    0.000    0.000    0.000    0.000 
#
# Total GULP energy -595652.911086 kJ/mol
# GULP energy per Si atom -12409.435648 kJ/mol
# Density = 2.069958 g / cm^3
# Si number density = 20.746802 Si / 1000 Ang^3
#
#
#
# Elastic Constant Matrix: (Units=GPa)
#
#
# Indices 1 2 3 4 5 6 
#
# 1 105.1990 18.5556 23.7621 0.0000 0.0000 0.0000
# 2 18.5556 83.9693 43.1855 0.0000 0.0000 0.0000
# 3 23.7621 43.1855 75.4829 0.0000 0.0000 0.0000
# 4 0.0000 0.0000 0.0000 38.1408 0.0000 0.0000
# 5 0.0000 0.0000 0.0000 0.0000 33.8748 0.0000
# 6 0.0000 0.0000 0.0000 0.0000 0.0000 38.8283
#
#
#
# Elastic Compliance Matrix: (Units=1/GPa)
#
#
# Indices 1 2 3 4 5 6 
#
# 1 0.010277 -0.000860 -0.002743 0.000000 0.000000 0.000000
# 2 -0.000860 0.016946 -0.009425 0.000000 0.000000 0.000000
# 3 -0.002743 -0.009425 0.019504 0.000000 0.000000 0.000000
# 4 0.000000 0.000000 0.000000 0.026219 0.000000 0.000000
# 5 0.000000 0.000000 0.000000 0.000000 0.029520 0.000000
# 6 0.000000 0.000000 0.000000 0.000000 0.000000 0.025754
#
#
# Mechanical properties :
#
#
# Convention : Reuss Voigt Hill
#
# Bulk Modulus (GPa) = 48.37653 48.40641 48.39147
# Shear Modulus (GPa) = 31.02378 34.11197 32.56787
#
# Velocity S-wave (km/s) = 3.87117 4.05928 3.96634
# Velocity P-wave (km/s) = 6.58404 6.73446 6.65967
#
# Compressibility (1/GPa) = 0.02067118
#
# Stress axis : x y z
#
# Youngs Moduli (GPa) = 97.30336 59.01005 51.27268
#
# Poissons Ratio (x) = 0.05077 0.14064
# Poissons Ratio (y) = 0.08371 0.48322
# Poissons Ratio (z) = 0.26691 0.55614
#
# Static dielectric constant tensor:
#      x y z
#    x 3.864830 0.000000 0.000000 
#    y 0.000000 3.843340 0.000000 
#    z 0.000000 0.000000 3.661360 
# 
# 
# High freq. dielectric constant tensor:
#      x y z
#    x 1.825850 0.000000 0.000000 
#    y 0.000000 1.819800 0.000000 
#    z 0.000000 0.000000 1.812050 
# 
# From -- ./inp_files/5904.got.cif
#   From: 2010.06.25/outbox.cif.g09.slc.cpg/sg58_3_cif.got.tgz:5904.got - 2010.06.26 21:38:00.
