data_PCOD8238031
_publ_section_title
;
Structure prediction by ZEFSAII (Michael W. Deem and Ramdas Pophale) SiO2 
 PCOD8238031
Probable space group: P N N M
;
_chemical_formula_sum "Si O2"
_cell_formula_units_Z 48
_cell_length_a 29.576660
_cell_length_b 9.896801
_cell_length_c 8.916300
_cell_angle_alpha 90.000000
_cell_angle_beta 90.000000
_cell_angle_gamma 90.000000
_cell_volume 2609.928676
_symmetry_space_group_name_H-M "P N N M"
_symmetry_group_IT_number 58
_symmetry_cell_setting 'orthorhombic'
loop_
_space_group_symop_operation_xyz
x,y,z
-x,-y,z
1/2+x,1/2-y,1/2-z
1/2-x,1/2+y,1/2-z
-x,-y,-z
x,y,-z
1/2-x,1/2+y,1/2+z
1/2+x,1/2-y,1/2+z
loop_
_atom_site_type_symbol
_atom_site_label
_atom_site_fract_x
_atom_site_fract_y
_atom_site_fract_z
Si Si1 0.287431 0.664832 0.671365
Si Si2 0.558878 0.869960 0.677284
Si Si3 0.626623 0.669894 0.177037
Si Si4 0.610229 0.392390 0.675350
Si Si5 0.779424 0.141795 0.825756
Si Si6 0.958098 0.670476 0.823217
O O1 0.276889 0.704395 0.500000
O O2 0.340720 0.671948 0.704035
O O3 0.264003 0.771615 0.780401
O O4 0.268997 0.515062 0.707908
O O5 0.568034 0.858602 0.500000
O O6 0.597705 0.796342 0.768462
O O7 0.510337 0.804152 0.719281
O O8 0.558904 0.024857 0.734100
O O9 0.604565 0.533441 0.240282
O O10 0.677526 0.692069 0.233079
O O11 0.626750 0.663352 0.000000
O O12 0.602852 0.421717 0.500000
O O13 0.573010 0.289858 0.743250
O O14 0.790709 0.161754 0.000000
O O15 0.952569 0.669008 0.000000
#
# Coordination Sequence:
#
# PCOD8238031 Si02
#       6
#     8   8   8   8   8   8
#     4   9  19  34  52  77 106 133 169 216 259 303
#     4   9  17  33  55  79 105 135 173 214 257 305
#     4  11  22  35  51  75 106 138 173 214 258 303
#     4   9  18  35  55  76 103 136 173 212 255 303
#     4  10  21  37  56  77 103 137 174 210 253 307
#     4   8  16  32  56  80 102 133 175 216 252 303
#
# _framework density 18.391307000000001
#
# number of rings (size 3 to 8) (size 9 to 14) (size 15 to 20)
#    0.000    2.667    0.000    4.000    0.000    5.333 
#    0.000    8.333    0.000    0.000    0.000    0.000 
#    0.000    0.000    0.000    0.000    0.000    0.000 
#
# Total GULP energy -595215.323437 kJ/mol
# GULP energy per Si atom -12400.319238 kJ/mol
# Density = 1.834945 g / cm^3
# Si number density = 18.391307 Si / 1000 Ang^3
#
#
#
# Elastic Constant Matrix: (Units=GPa)
#
#
# Indices 1 2 3 4 5 6 
#
# 1 31.7772 7.5015 11.8030 0.0000 0.0000 0.0000
# 2 7.5015 34.4409 14.8247 0.0000 0.0000 0.0000
# 3 11.8030 14.8247 64.8254 0.0000 0.0000 0.0000
# 4 0.0000 0.0000 0.0000 22.9425 0.0000 0.0000
# 5 0.0000 0.0000 0.0000 0.0000 22.1129 0.0000
# 6 0.0000 0.0000 0.0000 0.0000 0.0000 40.3628
#
#
#
# Elastic Compliance Matrix: (Units=1/GPa)
#
#
# Indices 1 2 3 4 5 6 
#
# 1 0.034620 -0.005354 -0.005079 0.000000 0.000000 0.000000
# 2 -0.005354 0.033034 -0.006579 0.000000 0.000000 0.000000
# 3 -0.005079 -0.006579 0.017855 0.000000 0.000000 0.000000
# 4 0.000000 0.000000 0.000000 0.043587 0.000000 0.000000
# 5 0.000000 0.000000 0.000000 0.000000 0.045222 0.000000
# 6 0.000000 0.000000 0.000000 0.000000 0.000000 0.024775
#
#
# Mechanical properties :
#
#
# Convention : Reuss Voigt Hill
#
# Bulk Modulus (GPa) = 19.42380 22.14467 20.78423
# Shear Modulus (GPa) = 19.97766 23.54460 21.76113
#
# Velocity S-wave (km/s) = 3.29941 3.58187 3.44354
# Velocity P-wave (km/s) = 5.00991 5.40124 5.20925
#
# Compressibility (1/GPa) = 0.05148324
#
# Stress axis : x y z
#
# Youngs Moduli (GPa) = 28.88545 30.27229 56.00544
#
# Poissons Ratio (x) = 0.16209 0.28444
# Poissons Ratio (y) = 0.15466 0.36848
# Poissons Ratio (z) = 0.14671 0.19917
#
# Static dielectric constant tensor:
#      x y z
#    x 3.465950 0.000000 0.000000 
#    y 0.000000 3.570090 0.000000 
#    z 0.000000 0.000000 3.127450 
# 
# 
# High freq. dielectric constant tensor:
#      x y z
#    x 1.715020 0.000000 0.000000 
#    y 0.000000 1.716140 0.000000 
#    z 0.000000 0.000000 1.691410 
# 
# From -- ./inp_files/2923.got.cif
#   From: 2010.06.25/outbox.cif.g09.slc.cpg/sg58_2_cif.got.tgz:2923.got - 2010.06.26 21:38:00.
