data_PCOD8238680
_publ_section_title
;
Structure prediction by ZEFSAII (Michael W. Deem and Ramdas Pophale) SiO2 
 PCOD8238680
Probable space group: P N N M
;
_chemical_formula_sum "Si O2"
_cell_formula_units_Z 52
_cell_length_a 8.208843
_cell_length_b 12.748998
_cell_length_c 24.881809
_cell_angle_alpha 90.000000
_cell_angle_beta 90.000000
_cell_angle_gamma 90.000000
_cell_volume 2603.993852
_symmetry_space_group_name_H-M "P N N M"
_symmetry_group_IT_number 58
_symmetry_cell_setting 'orthorhombic'
loop_
_space_group_symop_operation_xyz
x,y,z
-x,-y,z
1/2+x,1/2-y,1/2-z
1/2-x,1/2+y,1/2-z
-x,-y,-z
x,y,-z
1/2-x,1/2+y,1/2+z
1/2+x,1/2-y,1/2+z
loop_
_atom_site_type_symbol
_atom_site_label
_atom_site_fract_x
_atom_site_fract_y
_atom_site_fract_z
Si Si1 0.152757 0.066000 0.063213
Si Si2 0.691348 0.021187 0.561741
Si Si3 0.000000 0.500000 0.387881
Si Si4 0.624694 0.408979 0.151458
Si Si5 0.960476 0.300206 0.676959
Si Si6 0.060111 0.617631 0.791746
Si Si7 0.655642 0.226011 0.622657
O O1 0.108083 0.184284 0.080608
O O2 0.333503 0.024104 0.079373
O O3 0.150158 0.061865 0.000000
O O4 0.000000 0.000000 0.086993
O O5 0.749404 0.018763 0.500000
O O6 0.738878 0.132487 0.588385
O O7 0.500000 0.000000 0.566425
O O8 0.788633 0.932274 0.594385
O O9 0.038886 0.401694 0.350268
O O10 0.500000 0.500000 0.167773
O O11 0.541138 0.297424 0.147387
O O12 0.748175 0.397974 0.201057
O O13 0.984223 0.310181 0.740816
O O14 0.769962 0.283971 0.665845
O O15 0.000000 0.500000 0.784506
O O16 0.993579 0.675705 0.844700
#
# Coordination Sequence:
#
# PCOD8238680 Si02
#       7
#     8   8   4   8   8   8   8
#     4  10  23  42  66  96 131 172 225 276 330 398
#     4  11  22  40  66  94 130 173 210 260 336 397
#     4  10  23  42  66  90 132 176 221 274 326 392
#     4  12  23  41  65  98 133 161 215 275 326 399
#     4  11  24  41  63  93 128 169 221 269 333 387
#     4  12  22  42  66  90 130 173 212 268 326 396
#     4  11  21  43  62  92 129 171 212 271 327 395
#
# _framework density 19.969325999999999
#
# number of rings (size 3 to 8) (size 9 to 14) (size 15 to 20)
#    0.000    0.923    5.385    1.615    2.154    0.308 
#    0.000    5.385    0.000    0.000    0.000    0.000 
#    0.000    0.000    0.000    0.000    0.000    0.000 
#
# Total GULP energy -644525.612871 kJ/mol
# GULP energy per Si atom -12394.723324 kJ/mol
# Density = 1.992388 g / cm^3
# Si number density = 19.969326 Si / 1000 Ang^3
#
#
#
# Elastic Constant Matrix: (Units=GPa)
#
#
# Indices 1 2 3 4 5 6 
#
# 1 91.5838 39.6776 37.6939 0.0000 0.0000 0.0000
# 2 39.6776 142.1933 51.8156 0.0000 0.0000 0.0000
# 3 37.6939 51.8156 111.7519 0.0000 0.0000 0.0000
# 4 0.0000 0.0000 0.0000 43.1802 0.0000 0.0000
# 5 0.0000 0.0000 0.0000 0.0000 6.9184 0.0000
# 6 0.0000 0.0000 0.0000 0.0000 0.0000 26.8859
#
#
#
# Elastic Compliance Matrix: (Units=1/GPa)
#
#
# Indices 1 2 3 4 5 6 
#
# 1 0.013387 -0.002515 -0.003349 0.000000 0.000000 0.000000
# 2 -0.002515 0.008935 -0.003295 0.000000 0.000000 0.000000
# 3 -0.003349 -0.003295 0.011606 0.000000 0.000000 0.000000
# 4 0.000000 0.000000 0.000000 0.023159 0.000000 0.000000
# 5 0.000000 0.000000 0.000000 0.000000 0.144541 0.000000
# 6 0.000000 0.000000 0.000000 0.000000 0.000000 0.037194
#
#
# Mechanical properties :
#
#
# Convention : Reuss Voigt Hill
#
# Bulk Modulus (GPa) = 64.06157 67.10036 65.58096
# Shear Modulus (GPa) = 19.05902 29.81970 24.43936
#
# Velocity S-wave (km/s) = 3.09271 3.86848 3.50214
# Velocity P-wave (km/s) = 6.70095 7.32313 7.01894
#
# Compressibility (1/GPa) = 0.01560998
#
# Stress axis : x y z
#
# Youngs Moduli (GPa) = 74.69891 111.91918 86.16464
#
# Poissons Ratio (x) = 0.28148 0.28859
# Poissons Ratio (y) = 0.18787 0.28387
# Poissons Ratio (z) = 0.25019 0.36872
#
# Static dielectric constant tensor:
#      x y z
#    x 4.010040 0.000000 0.000000 
#    y 0.000000 3.344850 0.000000 
#    z 0.000000 0.000000 3.631720 
# 
# 
# High freq. dielectric constant tensor:
#      x y z
#    x 1.781690 0.000000 0.000000 
#    y 0.000000 1.791770 0.000000 
#    z 0.000000 0.000000 1.778500 
# 
# From -- ./inp_files/33305.got.cif
#   From: 2010.06.25/outbox.cif.g09.slc.cpg/sg58_17_cif.got.tgz:33305.got - 2010.06.26 21:38:00.
