data_PCOD8238432
_publ_section_title
;
Structure prediction by ZEFSAII (Michael W. Deem and Ramdas Pophale) SiO2 
 PCOD8238432
Probable space group: P N N M
;
_chemical_formula_sum "Si O2"
_cell_formula_units_Z 32
_cell_length_a 8.836339
_cell_length_b 11.880145
_cell_length_c 17.030908
_cell_angle_alpha 90.000000
_cell_angle_beta 90.000000
_cell_angle_gamma 90.000000
_cell_volume 1787.853435
_symmetry_space_group_name_H-M "P N N M"
_symmetry_group_IT_number 58
_symmetry_cell_setting 'orthorhombic'
loop_
_space_group_symop_operation_xyz
x,y,z
-x,-y,z
1/2+x,1/2-y,1/2-z
1/2-x,1/2+y,1/2-z
-x,-y,-z
x,y,-z
1/2-x,1/2+y,1/2+z
1/2+x,1/2-y,1/2+z
loop_
_atom_site_type_symbol
_atom_site_label
_atom_site_fract_x
_atom_site_fract_y
_atom_site_fract_z
Si Si1 0.967092 0.623190 0.910553
Si Si2 0.662052 0.707616 0.663619
Si Si3 0.830301 0.798636 0.188396
Si Si4 0.821062 0.494372 0.409939
O O1 0.881292 0.300415 0.902578
O O2 0.831545 0.681545 0.861254
O O3 0.000000 0.500000 0.875152
O O4 0.914427 0.613765 0.000000
O O5 0.757694 0.773917 0.728200
O O6 0.504336 0.659112 0.700195
O O7 0.756846 0.609698 0.624120
O O8 0.735552 0.890651 0.141367
O O9 0.766802 0.478876 0.500000
O O10 0.000000 0.500000 0.404305
#
# Coordination Sequence:
#
# PCOD8238432 Si02
#       4
#     8   8   8   8
#     4   9  20  37  59  83 117 157 197 241 296 366
#     4  10  22  35  60  87 121 155 198 250 302 363
#     4  10  22  35  60  87 121 155 198 250 302 363
#     4  11  23  39  61  87 123 162 207 256 306 362
#
# _framework density 17.898558000000001
#
# number of rings (size 3 to 8) (size 9 to 14) (size 15 to 20)
#    1.500    0.500    0.000    3.750    3.500    1.000 
#    0.000    0.000    0.000    0.000    0.000   10.500 
#    0.000    0.000    0.000    0.000    0.000    0.000 
#
# Total GULP energy -396559.772449 kJ/mol
# GULP energy per Si atom -12392.492889 kJ/mol
# Density = 1.785782 g / cm^3
# Si number density = 17.898558 Si / 1000 Ang^3
#
#
#
# Elastic Constant Matrix: (Units=GPa)
#
#
# Indices 1 2 3 4 5 6 
#
# 1 76.9828 17.6008 15.4697 0.0000 0.0000 0.0000
# 2 17.6008 116.7169 14.9243 0.0000 0.0000 0.0000
# 3 15.4697 14.9243 38.9895 0.0000 0.0000 0.0000
# 4 0.0000 0.0000 0.0000 35.7272 0.0000 0.0000
# 5 0.0000 0.0000 0.0000 0.0000 26.2932 0.0000
# 6 0.0000 0.0000 0.0000 0.0000 0.0000 34.3539
#
#
#
# Elastic Compliance Matrix: (Units=1/GPa)
#
#
# Indices 1 2 3 4 5 6 
#
# 1 0.014364 -0.001511 -0.005121 0.000000 0.000000 0.000000
# 2 -0.001511 0.009168 -0.002910 0.000000 0.000000 0.000000
# 3 -0.005121 -0.002910 0.028793 0.000000 0.000000 0.000000
# 4 0.000000 0.000000 0.000000 0.027990 0.000000 0.000000
# 5 0.000000 0.000000 0.000000 0.000000 0.038033 0.000000
# 6 0.000000 0.000000 0.000000 0.000000 0.000000 0.029109
#
#
# Mechanical properties :
#
#
# Convention : Reuss Voigt Hill
#
# Bulk Modulus (GPa) = 30.08228 36.51986 33.30107
# Shear Modulus (GPa) = 28.14983 31.58783 29.86883
#
# Velocity S-wave (km/s) = 3.97008 4.20554 4.08951
# Velocity P-wave (km/s) = 6.15297 6.63552 6.39880
#
# Compressibility (1/GPa) = 0.03324216
#
# Stress axis : x y z
#
# Youngs Moduli (GPa) = 69.61614 109.07876 34.73019
#
# Poissons Ratio (x) = 0.16486 0.17785
# Poissons Ratio (y) = 0.10522 0.10105
# Poissons Ratio (z) = 0.35649 0.31737
#
# Static dielectric constant tensor:
#      x y z
#    x 3.236370 0.000000 0.000000 
#    y 0.000000 3.404370 0.000000 
#    z 0.000000 0.000000 3.270780 
# 
# 
# High freq. dielectric constant tensor:
#      x y z
#    x 1.683400 0.000000 0.000000 
#    y 0.000000 1.700490 0.000000 
#    z 0.000000 0.000000 1.694090 
# 
# From -- ./inp_files/7408.got.cif
#   From: 2010.06.25/outbox.cif.g09.slc.cpg/sg58_4_cif.got.tgz:7408.got - 2010.06.26 21:38:00.
