data_PCOD8238821
_publ_section_title
;
Structure prediction by ZEFSAII (Michael W. Deem and Ramdas Pophale) SiO2 
 PCOD8238821
Probable space group: P N N M
;
_chemical_formula_sum "Si O2"
_cell_formula_units_Z 56
_cell_length_a 15.065017
_cell_length_b 9.329566
_cell_length_c 18.430420
_cell_angle_alpha 90.000000
_cell_angle_beta 90.000000
_cell_angle_gamma 90.000000
_cell_volume 2590.396828
_symmetry_space_group_name_H-M "P N N M"
_symmetry_group_IT_number 58
_symmetry_cell_setting 'orthorhombic'
loop_
_space_group_symop_operation_xyz
x,y,z
-x,-y,z
1/2+x,1/2-y,1/2-z
1/2-x,1/2+y,1/2-z
-x,-y,-z
x,y,-z
1/2-x,1/2+y,1/2+z
1/2+x,1/2-y,1/2+z
loop_
_atom_site_type_symbol
_atom_site_label
_atom_site_fract_x
_atom_site_fract_y
_atom_site_fract_z
Si Si1 0.774488 0.965336 0.418378
Si Si2 0.097341 0.975054 0.812657
Si Si3 0.400969 0.994271 0.849357
Si Si4 0.083686 0.400567 0.920085
Si Si5 0.339533 0.309680 0.189236
Si Si6 0.139899 0.278039 0.776529
Si Si7 0.744833 0.650833 0.583298
O O1 0.812293 0.957981 0.500000
O O2 0.771772 0.805978 0.382861
O O3 0.671959 0.006532 0.417922
O O4 0.838846 0.077839 0.377694
O O5 0.090382 0.851516 0.751675
O O6 0.165085 0.929340 0.875618
O O7 0.131569 0.108697 0.763297
O O8 0.000000 0.000000 0.846789
O O9 0.365240 0.151264 0.832453
O O10 0.500000 0.000000 0.881603
O O11 0.405182 0.886059 0.780506
O O12 0.334726 0.940221 0.911323
O O13 0.091622 0.286462 0.855657
O O14 0.000000 0.500000 0.904517
O O15 0.074343 0.326492 0.000000
O O16 0.242313 0.320925 0.224152
O O17 0.715060 0.666601 0.500000
#
# Coordination Sequence:
#
# PCOD8238821 Si02
#       7
#     8   8   8   8   8   8   8
#     4   9  21  40  66  91 125 175 216 262 329 394
#     4  12  26  41  65  98 134 174 219 271 332 403
#     4  12  25  43  70  99 131 173 223 277 329 392
#     4   9  19  33  56  90 128 169 214 259 312 388
#     4  11  22  41  68  94 131 173 215 274 328 392
#     4  11  21  39  62  96 129 173 211 273 328 388
#     4  11  25  45  66  93 133 177 217 272 336 395
#
# _framework density 21.618310000000001
#
# number of rings (size 3 to 8) (size 9 to 14) (size 15 to 20)
#    0.000    1.286    2.857    2.143    6.000    1.714 
#    0.000    0.000    0.000    2.143    0.000    0.000 
#    0.000    0.000    0.000    0.000    0.000    0.000 
#
# Total GULP energy -694144.484123 kJ/mol
# GULP energy per Si atom -12395.437216 kJ/mol
# Density = 2.156911 g / cm^3
# Si number density = 21.618310 Si / 1000 Ang^3
#
#
#
# Elastic Constant Matrix: (Units=GPa)
#
#
# Indices 1 2 3 4 5 6 
#
# 1 66.5653 9.9866 22.9307 0.0000 0.0000 0.0000
# 2 9.9866 126.4432 32.8511 0.0000 0.0000 0.0000
# 3 22.9307 32.8511 64.4690 0.0000 0.0000 0.0000
# 4 0.0000 0.0000 0.0000 32.9512 0.0000 0.0000
# 5 0.0000 0.0000 0.0000 0.0000 11.4703 0.0000
# 6 0.0000 0.0000 0.0000 0.0000 0.0000 21.3815
#
#
#
# Elastic Compliance Matrix: (Units=1/GPa)
#
#
# Indices 1 2 3 4 5 6 
#
# 1 0.017128 0.000265 -0.006227 0.000000 0.000000 0.000000
# 2 0.000265 0.009120 -0.004741 0.000000 0.000000 0.000000
# 3 -0.006227 -0.004741 0.020142 0.000000 0.000000 0.000000
# 4 0.000000 0.000000 0.000000 0.030348 0.000000 0.000000
# 5 0.000000 0.000000 0.000000 0.000000 0.087182 0.000000
# 6 0.000000 0.000000 0.000000 0.000000 0.000000 0.046769
#
#
# Mechanical properties :
#
#
# Convention : Reuss Voigt Hill
#
# Bulk Modulus (GPa) = 40.02713 43.22381 41.62547
# Shear Modulus (GPa) = 20.79658 25.94122 23.36890
#
# Velocity S-wave (km/s) = 3.10496 3.46781 3.29139
# Velocity P-wave (km/s) = 5.60446 6.00598 5.80869
#
# Compressibility (1/GPa) = 0.02498306
#
# Stress axis : x y z
#
# Youngs Moduli (GPa) = 58.38289 109.65408 49.64662
#
# Poissons Ratio (x) = -0.02907 0.30917
# Poissons Ratio (y) = -0.01548 0.23539
# Poissons Ratio (z) = 0.36357 0.51991
#
# Static dielectric constant tensor:
#      x y z
#    x 4.023760 0.000000 0.000000 
#    y 0.000000 4.309570 0.000000 
#    z 0.000000 0.000000 3.969430 
# 
# 
# High freq. dielectric constant tensor:
#      x y z
#    x 1.844010 0.000000 0.000000 
#    y 0.000000 1.860760 0.000000 
#    z 0.000000 0.000000 1.842060 
# 
# From -- ./inp_files/30018.got.cif
#   From: 2010.06.25/outbox.cif.g09.slc.cpg/sg58_16_cif.got.tgz:30018.got - 2010.06.26 21:38:00.
