data_PCOD8238381
_publ_section_title
;
Structure prediction by ZEFSAII (Michael W. Deem and Ramdas Pophale) SiO2 
 PCOD8238381
Probable space group: P N N M
;
_chemical_formula_sum "Si O2"
_cell_formula_units_Z 56
_cell_length_a 13.965708
_cell_length_b 12.018296
_cell_length_c 15.779803
_cell_angle_alpha 90.000000
_cell_angle_beta 90.000000
_cell_angle_gamma 90.000000
_cell_volume 2648.545453
_symmetry_space_group_name_H-M "P N N M"
_symmetry_group_IT_number 58
_symmetry_cell_setting 'orthorhombic'
loop_
_space_group_symop_operation_xyz
x,y,z
-x,-y,z
1/2+x,1/2-y,1/2-z
1/2-x,1/2+y,1/2-z
-x,-y,-z
x,y,-z
1/2-x,1/2+y,1/2+z
1/2+x,1/2-y,1/2+z
loop_
_atom_site_type_symbol
_atom_site_label
_atom_site_fract_x
_atom_site_fract_y
_atom_site_fract_z
Si Si1 0.254283 0.847721 0.317332
Si Si2 0.798797 0.615629 0.363759
Si Si3 0.108664 0.773040 0.093972
Si Si4 0.394710 0.019587 0.402185
Si Si5 0.458346 0.380537 0.761217
Si Si6 0.485521 0.768879 0.093712
Si Si7 0.311379 0.131475 0.902015
O O1 0.304859 0.827150 0.227897
O O2 0.312910 0.940624 0.366455
O O3 0.146905 0.891294 0.301368
O O4 0.254871 0.730909 0.367011
O O5 0.706401 0.658460 0.413564
O O6 0.894756 0.649582 0.412448
O O7 0.788710 0.482618 0.353387
O O8 0.136023 0.646064 0.114834
O O9 0.041507 0.816531 0.170470
O O10 0.058441 0.781214 0.000000
O O11 0.401427 0.989408 0.500000
O O12 0.500000 0.000000 0.360531
O O13 0.500000 0.500000 0.740837
O O14 0.525737 0.322009 0.831813
O O15 0.577762 0.842828 0.114762
O O16 0.497437 0.712710 0.000000
O O17 0.287467 0.114543 0.000000
#
# Coordination Sequence:
#
# PCOD8238381 Si02
#       7
#     8   8   8   8   8   8   8
#     4  10  24  39  64  92 128 165 211 265 318 376
#     4  11  23  36  64  96 128 167 210 261 322 379
#     4  10  23  43  64  93 130 165 215 268 317 380
#     4  10  23  43  66  91 121 166 220 269 322 381
#     4  10  24  42  62  96 131 170 216 259 322 392
#     4  10  22  39  62  94 129 167 213 263 317 380
#     4  10  21  41  63  90 127 167 212 258 318 386
#
# _framework density 21.143681000000001
#
# number of rings (size 3 to 8) (size 9 to 14) (size 15 to 20)
#    0.000    1.857    0.000    2.143   10.000    3.429 
#    0.000    0.000    0.000    0.000    0.000    0.000 
#    0.000    0.000    0.000    0.000    0.000    0.000 
#
# Total GULP energy -694342.450707 kJ/mol
# GULP energy per Si atom -12398.972334 kJ/mol
# Density = 2.109556 g / cm^3
# Si number density = 21.143681 Si / 1000 Ang^3
#
#
#
# Elastic Constant Matrix: (Units=GPa)
#
#
# Indices 1 2 3 4 5 6 
#
# 1 53.7373 39.7182 27.9332 0.0000 0.0000 0.0000
# 2 39.7182 124.2657 53.3934 0.0000 0.0000 0.0000
# 3 27.9332 53.3934 114.8564 0.0000 0.0000 0.0000
# 4 0.0000 0.0000 0.0000 33.0716 0.0000 0.0000
# 5 0.0000 0.0000 0.0000 0.0000 22.7090 0.0000
# 6 0.0000 0.0000 0.0000 0.0000 0.0000 35.6709
#
#
#
# Elastic Compliance Matrix: (Units=1/GPa)
#
#
# Indices 1 2 3 4 5 6 
#
# 1 0.025152 -0.006762 -0.002974 0.000000 0.000000 0.000000
# 2 -0.006762 0.011873 -0.003875 0.000000 0.000000 0.000000
# 3 -0.002974 -0.003875 0.011231 0.000000 0.000000 0.000000
# 4 0.000000 0.000000 0.000000 0.030237 0.000000 0.000000
# 5 0.000000 0.000000 0.000000 0.000000 0.044035 0.000000
# 6 0.000000 0.000000 0.000000 0.000000 0.000000 0.028034
#
#
# Mechanical properties :
#
#
# Convention : Reuss Voigt Hill
#
# Bulk Modulus (GPa) = 47.53762 59.43877 53.48819
# Shear Modulus (GPa) = 27.05668 29.74462 28.40065
#
# Velocity S-wave (km/s) = 3.58111 3.75478 3.66898
# Velocity P-wave (km/s) = 6.29532 6.85352 6.58034
#
# Compressibility (1/GPa) = 0.02103597
#
# Stress axis : x y z
#
# Youngs Moduli (GPa) = 39.75752 84.22127 89.03724
#
# Poissons Ratio (x) = 0.56946 0.26478
# Poissons Ratio (y) = 0.26882 0.34504
# Poissons Ratio (z) = 0.11823 0.32638
#
# Static dielectric constant tensor:
#      x y z
#    x 3.781280 0.000000 0.000000 
#    y 0.000000 3.744200 0.000000 
#    z 0.000000 0.000000 4.030490 
# 
# 
# High freq. dielectric constant tensor:
#      x y z
#    x 1.818220 0.000000 0.000000 
#    y 0.000000 1.826180 0.000000 
#    z 0.000000 0.000000 1.844710 
# 
# From -- ./inp_files/22212.got.cif
#   From: 2010.06.25/outbox.cif.g09.slc.cpg/sg58_12_cif.got.tgz:22212.got - 2010.06.26 21:38:00.
