data_PCOD8238006
_publ_section_title
;
Structure prediction by ZEFSAII (Michael W. Deem and Ramdas Pophale) SiO2 
 PCOD8238006
Probable space group: P N N M
;
_chemical_formula_sum "Si O2"
_cell_formula_units_Z 56
_cell_length_a 9.763528
_cell_length_b 20.654421
_cell_length_c 12.781119
_cell_angle_alpha 90.000000
_cell_angle_beta 90.000000
_cell_angle_gamma 90.000000
_cell_volume 2577.440684
_symmetry_space_group_name_H-M "P N N M"
_symmetry_group_IT_number 58
_symmetry_cell_setting 'orthorhombic'
loop_
_space_group_symop_operation_xyz
x,y,z
-x,-y,z
1/2+x,1/2-y,1/2-z
1/2-x,1/2+y,1/2-z
-x,-y,-z
x,y,-z
1/2-x,1/2+y,1/2+z
1/2+x,1/2-y,1/2+z
loop_
_atom_site_type_symbol
_atom_site_label
_atom_site_fract_x
_atom_site_fract_y
_atom_site_fract_z
Si Si1 0.350715 0.021372 0.879906
Si Si2 0.180431 0.681367 0.883261
Si Si3 0.602345 0.550260 0.691359
Si Si4 0.456937 0.610618 0.116125
Si Si5 0.932801 0.342064 0.328016
Si Si6 0.187181 0.789970 0.612443
Si Si7 0.239355 0.325061 0.667755
O O1 0.343996 0.097855 0.866900
O O2 0.500000 0.000000 0.843467
O O3 0.245916 0.987674 0.799079
O O4 0.317972 0.001105 0.000000
O O5 0.305809 0.634153 0.851944
O O6 0.063337 0.666005 0.798462
O O7 0.218091 0.757579 0.883299
O O8 0.128078 0.664831 0.000000
O O9 0.500000 0.500000 0.627925
O O10 0.525182 0.560858 0.802043
O O11 0.644179 0.620046 0.639644
O O12 0.539892 0.676952 0.114771
O O13 0.457669 0.578472 0.000000
O O14 0.843471 0.285250 0.376623
O O15 0.088566 0.346166 0.372171
O O16 0.261175 0.802430 0.500000
O O17 0.277818 0.817728 0.706731
#
# Coordination Sequence:
#
# PCOD8238006 Si02
#       7
#     8   8   8   8   8   8   8
#     4  11  24  41  62  87 120 166 210 249 300 364
#     4  10  21  37  62  94 123 154 199 254 318 380
#     4  11  23  41  62  88 125 166 211 256 295 357
#     4   9  18  36  63  90 115 152 202 256 312 369
#     4  11  20  37  61  85 119 160 201 249 310 365
#     4   9  18  33  57  85 113 147 194 250 308 364
#     4  10  21  36  60  88 123 160 199 253 308 363
#
# _framework density 21.726979
#
# number of rings (size 3 to 8) (size 9 to 14) (size 15 to 20)
#    0.000    1.857    2.857    1.286    0.000    2.286 
#    0.000    0.714    0.000    0.857    0.000    0.000 
#    0.000    0.000    0.000    0.000    0.000    0.000 
#
# Total GULP energy -693779.459723 kJ/mol
# GULP energy per Si atom -12388.918924 kJ/mol
# Density = 2.167753 g / cm^3
# Si number density = 21.726979 Si / 1000 Ang^3
#
#
#
# Elastic Constant Matrix: (Units=GPa)
#
#
# Indices 1 2 3 4 5 6 
#
# 1 85.0291 35.7577 10.7451 0.0000 0.0000 0.0000
# 2 35.7577 107.2511 10.2403 0.0000 0.0000 0.0000
# 3 10.7451 10.2403 72.5718 0.0000 0.0000 0.0000
# 4 0.0000 0.0000 0.0000 16.8001 0.0000 0.0000
# 5 0.0000 0.0000 0.0000 0.0000 7.1554 0.0000
# 6 0.0000 0.0000 0.0000 0.0000 0.0000 36.1341
#
#
#
# Elastic Compliance Matrix: (Units=1/GPa)
#
#
# Indices 1 2 3 4 5 6 
#
# 1 0.013820 -0.004473 -0.001415 0.000000 0.000000 0.000000
# 2 -0.004473 0.010899 -0.000876 0.000000 0.000000 0.000000
# 3 -0.001415 -0.000876 0.014113 0.000000 0.000000 0.000000
# 4 0.000000 0.000000 0.000000 0.059524 0.000000 0.000000
# 5 0.000000 0.000000 0.000000 0.000000 0.139755 0.000000
# 6 0.000000 0.000000 0.000000 0.000000 0.000000 0.027675
#
#
# Mechanical properties :
#
#
# Convention : Reuss Voigt Hill
#
# Bulk Modulus (GPa) = 39.51819 42.03757 40.77788
# Shear Modulus (GPa) = 17.37641 25.89185 21.63413
#
# Velocity S-wave (km/s) = 2.83107 3.45583 3.15894
# Velocity P-wave (km/s) = 5.37724 5.94254 5.66694
#
# Compressibility (1/GPa) = 0.02530480
#
# Stress axis : x y z
#
# Youngs Moduli (GPa) = 72.35681 91.75410 70.85889
#
# Poissons Ratio (x) = 0.41038 0.10028
# Poissons Ratio (y) = 0.32362 0.06205
# Poissons Ratio (z) = 0.10240 0.08034
#
# Static dielectric constant tensor:
#      x y z
#    x 3.702980 0.000000 0.000000 
#    y 0.000000 4.001760 0.000000 
#    z 0.000000 0.000000 3.935760 
# 
# 
# High freq. dielectric constant tensor:
#      x y z
#    x 1.835230 0.000000 0.000000 
#    y 0.000000 1.861920 0.000000 
#    z 0.000000 0.000000 1.840710 
# 
# From -- ./inp_files/20099.got.cif
#   From: 2010.06.25/outbox.cif.g09.slc.cpg/sg58_11_cif.got.tgz:20099.got - 2010.06.26 21:38:00.
