data_PCOD8238428
_publ_section_title
;
Structure prediction by ZEFSAII (Michael W. Deem and Ramdas Pophale) SiO2 
 PCOD8238428
Probable space group: P N N M
;
_chemical_formula_sum "Si O2"
_cell_formula_units_Z 64
_cell_length_a 14.757179
_cell_length_b 9.095338
_cell_length_c 24.672194
_cell_angle_alpha 90.000000
_cell_angle_beta 90.000000
_cell_angle_gamma 90.000000
_cell_volume 3311.539650
_symmetry_space_group_name_H-M "P N N M"
_symmetry_group_IT_number 58
_symmetry_cell_setting 'orthorhombic'
loop_
_space_group_symop_operation_xyz
x,y,z
-x,-y,z
1/2+x,1/2-y,1/2-z
1/2-x,1/2+y,1/2-z
-x,-y,-z
x,y,-z
1/2-x,1/2+y,1/2+z
1/2+x,1/2-y,1/2+z
loop_
_atom_site_type_symbol
_atom_site_label
_atom_site_fract_x
_atom_site_fract_y
_atom_site_fract_z
Si Si1 0.810519 0.094792 0.563456
Si Si2 0.830238 0.827962 0.631398
Si Si3 0.511430 0.666351 0.670811
Si Si4 0.797945 0.083453 0.161589
Si Si5 0.241415 0.475484 0.221486
Si Si6 0.529410 0.660879 0.858421
Si Si7 0.064436 0.632099 0.735494
Si Si8 0.322129 0.742433 0.363934
O O1 0.819413 0.114988 0.500000
O O2 0.903043 0.153556 0.590642
O O3 0.720937 0.182702 0.583027
O O4 0.800473 0.922803 0.579003
O O5 0.779066 0.675585 0.632942
O O6 0.933012 0.769068 0.626075
O O7 0.810395 0.929822 0.684480
O O8 0.500000 0.500000 0.693396
O O9 0.608914 0.661007 0.641194
O O10 0.508219 0.782237 0.719099
O O11 0.431209 0.718944 0.630258
O O12 0.795871 0.090197 0.227309
O O13 0.779970 0.918525 0.142585
O O14 0.160334 0.578607 0.242007
O O15 0.200232 0.338919 0.188772
O O16 0.500000 0.500000 0.836810
O O17 0.582632 0.755975 0.813818
O O18 0.000000 0.500000 0.715621
#
# Coordination Sequence:
#
# PCOD8238428 Si02
#       8
#     8   8   8   8   8   8   8   8
#     4  10  23  45  68  82 108 156 211 268 319 361
#     4  10  22  36  57  87 119 155 205 256 295 365
#     4  10  22  34  55  84 123 170 197 232 294 365
#     4  11  21  35  56  86 128 161 193 241 299 368
#     4  11  21  33  51  85 126 170 200 229 287 365
#     4  10  23  37  56  85 120 156 205 253 302 367
#     4  12  21  33  53  85 129 171 196 236 283 358
#     4  10  22  39  57  86 117 157 204 249 297 364
#
# _framework density 19.326357999999999
#
# number of rings (size 3 to 8) (size 9 to 14) (size 15 to 20)
#    0.000    1.500    2.500    2.625    8.750    2.250 
#    0.000    0.625    0.000    7.500    0.000    0.000 
#    0.000    0.000    0.000    0.000    0.000    0.000 
#
# Total GULP energy -793332.214923 kJ/mol
# GULP energy per Si atom -12395.815858 kJ/mol
# Density = 1.928237 g / cm^3
# Si number density = 19.326358 Si / 1000 Ang^3
#
#
#
# Elastic Constant Matrix: (Units=GPa)
#
#
# Indices 1 2 3 4 5 6 
#
# 1 126.0580 48.4324 50.5891 0.0000 0.0000 0.0000
# 2 48.4324 98.2473 45.9344 0.0000 0.0000 0.0000
# 3 50.5891 45.9344 103.6021 0.0000 0.0000 0.0000
# 4 0.0000 0.0000 0.0000 11.4096 0.0000 0.0000
# 5 0.0000 0.0000 0.0000 0.0000 18.5632 0.0000
# 6 0.0000 0.0000 0.0000 0.0000 0.0000 35.2107
#
#
#
# Elastic Compliance Matrix: (Units=1/GPa)
#
#
# Indices 1 2 3 4 5 6 
#
# 1 0.010791 -0.003603 -0.003672 0.000000 0.000000 0.000000
# 2 -0.003603 0.014043 -0.004467 0.000000 0.000000 0.000000
# 3 -0.003672 -0.004467 0.013426 0.000000 0.000000 0.000000
# 4 0.000000 0.000000 0.000000 0.087646 0.000000 0.000000
# 5 0.000000 0.000000 0.000000 0.000000 0.053870 0.000000
# 6 0.000000 0.000000 0.000000 0.000000 0.000000 0.028400
#
#
# Mechanical properties :
#
#
# Convention : Reuss Voigt Hill
#
# Bulk Modulus (GPa) = 67.67570 68.64657 68.16113
# Shear Modulus (GPa) = 21.13415 25.23346 23.18380
#
# Velocity S-wave (km/s) = 3.31046 3.61730 3.46727
# Velocity P-wave (km/s) = 7.05021 7.28308 7.16759
#
# Compressibility (1/GPa) = 0.01477635
#
# Stress axis : x y z
#
# Youngs Moduli (GPa) = 92.67365 71.21029 74.48347
#
# Poissons Ratio (x) = 0.25655 0.27348
# Poissons Ratio (y) = 0.33387 0.33272
# Poissons Ratio (z) = 0.34027 0.31810
#
# Static dielectric constant tensor:
#      x y z
#    x 4.003390 0.000000 0.000000 
#    y 0.000000 3.751110 0.000000 
#    z 0.000000 0.000000 2.980480 
# 
# 
# High freq. dielectric constant tensor:
#      x y z
#    x 1.777470 0.000000 0.000000 
#    y 0.000000 1.768810 0.000000 
#    z 0.000000 0.000000 1.684920 
# 
# From -- ./inp_files/32223.got.cif
#   From: 2010.06.25/outbox.cif.g09.slc.cpg/sg58_17_cif.got.tgz:32223.got - 2010.06.26 21:38:00.
