data_PCOD8238017
_publ_section_title
;
Structure prediction by ZEFSAII (Michael W. Deem and Ramdas Pophale) SiO2 
 PCOD8238017
Probable space group: P N N M
;
_chemical_formula_sum "Si O2"
_cell_formula_units_Z 64
_cell_length_a 14.010407
_cell_length_b 9.395468
_cell_length_c 23.107427
_cell_angle_alpha 90.000000
_cell_angle_beta 90.000000
_cell_angle_gamma 90.000000
_cell_volume 3041.730686
_symmetry_space_group_name_H-M "P N N M"
_symmetry_group_IT_number 58
_symmetry_cell_setting 'orthorhombic'
loop_
_space_group_symop_operation_xyz
x,y,z
-x,-y,z
1/2+x,1/2-y,1/2-z
1/2-x,1/2+y,1/2-z
-x,-y,-z
x,y,-z
1/2-x,1/2+y,1/2+z
1/2+x,1/2-y,1/2+z
loop_
_atom_site_type_symbol
_atom_site_label
_atom_site_fract_x
_atom_site_fract_y
_atom_site_fract_z
Si Si1 0.366021 0.786454 0.258189
Si Si2 0.702505 0.041370 0.434068
Si Si3 0.796659 0.970501 0.933198
Si Si4 0.019346 0.660651 0.331888
Si Si5 0.633857 0.747530 0.066131
Si Si6 0.937672 0.745794 0.880539
Si Si7 0.817707 0.385519 0.758756
Si Si8 0.154794 0.739907 0.115939
O O1 0.425718 0.773525 0.198673
O O2 0.437215 0.751607 0.310894
O O3 0.286756 0.663884 0.260980
O O4 0.320375 0.943774 0.265332
O O5 0.684775 0.084560 0.500000
O O6 0.801487 0.113788 0.414386
O O7 0.611872 0.097880 0.398415
O O8 0.709429 0.873400 0.424485
O O9 0.790628 0.112158 0.894444
O O10 0.695999 0.890850 0.926390
O O11 0.882670 0.876282 0.909217
O O12 0.817140 0.007767 0.000000
O O13 0.043691 0.747234 0.390543
O O14 0.107487 0.668986 0.288108
O O15 0.000000 0.500000 0.350440
O O16 0.597170 0.731713 0.000000
O O17 0.045105 0.752889 0.903710
O O18 0.840397 0.306533 0.818109
#
# Coordination Sequence:
#
# PCOD8238017 Si02
#       8
#     8   8   8   8   8   8   8   8
#     4  11  24  43  64  93 125 167 215 262 321 385
#     4  10  21  36  62  90 122 168 210 254 318 384
#     4  10  23  39  60  91 129 173 216 262 321 380
#     4  10  22  40  67  95 124 161 217 257 314 386
#     4   9  20  42  67  93 124 164 213 264 316 376
#     4  11  21  39  58  86 129 166 214 264 314 381
#     4  11  24  40  64  91 128 168 205 269 322 375
#     4  12  23  35  59  89 131 164 209 266 322 378
#
# _framework density 21.040652999999999
#
# number of rings (size 3 to 8) (size 9 to 14) (size 15 to 20)
#    0.000    1.500    2.500    3.750    5.250    3.250 
#    0.000    0.625    0.000    0.000    0.000    1.750 
#    0.000    0.000    0.000    0.000    0.000    0.000 
#
# Total GULP energy -793790.650222 kJ/mol
# GULP energy per Si atom -12402.978910 kJ/mol
# Density = 2.099276 g / cm^3
# Si number density = 21.040653 Si / 1000 Ang^3
#
#
#
# Elastic Constant Matrix: (Units=GPa)
#
#
# Indices 1 2 3 4 5 6 
#
# 1 69.3423 39.9574 27.5528 0.0000 0.0000 0.0000
# 2 39.9574 97.6561 29.9503 0.0000 0.0000 0.0000
# 3 27.5528 29.9503 95.5685 0.0000 0.0000 0.0000
# 4 0.0000 0.0000 0.0000 25.6908 0.0000 0.0000
# 5 0.0000 0.0000 0.0000 0.0000 33.4923 0.0000
# 6 0.0000 0.0000 0.0000 0.0000 0.0000 20.1174
#
#
#
# Elastic Compliance Matrix: (Units=1/GPa)
#
#
# Indices 1 2 3 4 5 6 
#
# 1 0.019887 -0.007057 -0.003522 0.000000 0.000000 0.000000
# 2 -0.007057 0.013833 -0.002301 0.000000 0.000000 0.000000
# 3 -0.003522 -0.002301 0.012200 0.000000 0.000000 0.000000
# 4 0.000000 0.000000 0.000000 0.038925 0.000000 0.000000
# 5 0.000000 0.000000 0.000000 0.000000 0.029858 0.000000
# 6 0.000000 0.000000 0.000000 0.000000 0.000000 0.049708
#
#
# Mechanical properties :
#
#
# Convention : Reuss Voigt Hill
#
# Bulk Modulus (GPa) = 49.60017 50.83199 50.21608
# Shear Modulus (GPa) = 25.39491 26.86718 26.13104
#
# Velocity S-wave (km/s) = 3.47788 3.57728 3.52793
# Velocity P-wave (km/s) = 6.30493 6.42448 6.36499
#
# Compressibility (1/GPa) = 0.02016122
#
# Stress axis : x y z
#
# Youngs Moduli (GPa) = 50.28387 72.29070 81.96667
#
# Poissons Ratio (x) = 0.51015 0.28868
# Poissons Ratio (y) = 0.35485 0.18857
# Poissons Ratio (z) = 0.17710 0.16631
#
# Static dielectric constant tensor:
#      x y z
#    x 3.643990 0.000000 0.000000 
#    y 0.000000 3.789880 0.000000 
#    z 0.000000 0.000000 3.892660 
# 
# 
# High freq. dielectric constant tensor:
#      x y z
#    x 1.807570 0.000000 0.000000 
#    y 0.000000 1.817660 0.000000 
#    z 0.000000 0.000000 1.836000 
# 
# From -- ./inp_files/32214.got.cif
#   From: 2010.06.25/outbox.cif.g09.slc.cpg/sg58_17_cif.got.tgz:32214.got - 2010.06.26 21:38:00.
