data_PCOD8238800
_publ_section_title
;
Structure prediction by ZEFSAII (Michael W. Deem and Ramdas Pophale) SiO2 
 PCOD8238800
Probable space group: P N N M
;
_chemical_formula_sum "Si O2"
_cell_formula_units_Z 48
_cell_length_a 8.876770
_cell_length_b 9.102468
_cell_length_c 29.256055
_cell_angle_alpha 90.000000
_cell_angle_beta 90.000000
_cell_angle_gamma 90.000000
_cell_volume 2363.904307
_symmetry_space_group_name_H-M "P N N M"
_symmetry_group_IT_number 58
_symmetry_cell_setting 'orthorhombic'
loop_
_space_group_symop_operation_xyz
x,y,z
-x,-y,z
1/2+x,1/2-y,1/2-z
1/2-x,1/2+y,1/2-z
-x,-y,-z
x,y,-z
1/2-x,1/2+y,1/2+z
1/2+x,1/2-y,1/2+z
loop_
_atom_site_type_symbol
_atom_site_label
_atom_site_fract_x
_atom_site_fract_y
_atom_site_fract_z
Si Si1 0.335379 0.464441 0.643980
Si Si2 0.834781 0.543390 0.790899
Si Si3 0.738044 0.073511 0.048851
Si Si4 0.439006 0.228703 0.950352
Si Si5 0.853133 0.241884 0.352038
Si Si6 0.661275 0.250142 0.203730
O O1 0.500000 0.500000 0.664119
O O2 0.355771 0.424452 0.590365
O O3 0.213024 0.593258 0.650709
O O4 0.278693 0.318487 0.668421
O O5 0.769014 0.629323 0.833896
O O6 0.726535 0.405895 0.779300
O O7 0.851225 0.644979 0.746891
O O8 0.000000 0.500000 0.807059
O O9 0.617558 0.204201 0.055090
O O10 0.646618 0.923819 0.048580
O O11 0.823432 0.093100 0.000000
O O12 0.385972 0.312016 0.904236
O O13 0.408370 0.309438 0.000000
O O14 0.999655 0.232783 0.320043
#
# Coordination Sequence:
#
# PCOD8238800 Si02
#       6
#     8   8   8   8   8   8
#     4  11  21  34  57  88 124 157 193 246 299 345
#     4  12  26  42  62  87 118 151 194 250 301 353
#     4   8  14  27  50  84 120 154 192 239 290 343
#     4   8  14  29  57  88 116 152 200 244 285 343
#     4  11  22  40  64  89 119 161 203 243 293 355
#     4  12  24  42  62  85 115 156 200 242 293 360
#
# _framework density 20.305391
#
# number of rings (size 3 to 8) (size 9 to 14) (size 15 to 20)
#    0.000    1.667    1.667    6.000    0.000    1.667 
#    0.000    0.000    0.000    3.500    0.000    0.000 
#    0.000    0.000    0.000    0.000    0.000    0.000 
#
# Total GULP energy -594908.902536 kJ/mol
# GULP energy per Si atom -12393.935470 kJ/mol
# Density = 2.025918 g / cm^3
# Si number density = 20.305391 Si / 1000 Ang^3
#
#
#
# Elastic Constant Matrix: (Units=GPa)
#
#
# Indices 1 2 3 4 5 6 
#
# 1 92.7957 18.5259 61.6332 0.0000 0.0000 0.0000
# 2 18.5259 59.7569 60.1632 0.0000 0.0000 0.0000
# 3 61.6332 60.1632 155.5966 0.0000 0.0000 0.0000
# 4 0.0000 0.0000 0.0000 19.8814 0.0000 0.0000
# 5 0.0000 0.0000 0.0000 0.0000 -4.0577 0.0000
# 6 0.0000 0.0000 0.0000 0.0000 0.0000 29.9993
#
#
#
# Elastic Compliance Matrix: (Units=1/GPa)
#
#
# Indices 1 2 3 4 5 6 
#
# 1 0.014790 0.002150 -0.006690 0.000000 0.000000 0.000000
# 2 0.002150 0.027714 -0.011568 0.000000 0.000000 0.000000
# 3 -0.006690 -0.011568 0.013550 0.000000 0.000000 0.000000
# 4 0.000000 0.000000 0.000000 0.050298 0.000000 0.000000
# 5 0.000000 0.000000 0.000000 0.000000 -0.246447 0.000000
# 6 0.000000 0.000000 0.000000 0.000000 0.000000 0.033334
#
#
# Mechanical properties :
#
#
# Convention : Reuss Voigt Hill
#
# Bulk Modulus (GPa) = 41.94771 65.42152 53.68461
# Shear Modulus (GPa) = -75.07615 20.35308 -27.36154
#
# Velocity S-wave (km/s) = -6.08718 3.16942 -3.67481
# Velocity P-wave (km/s) = 5.35740 6.75888 2.91381
#
# Compressibility (1/GPa) = 0.02383921
#
# Stress axis : x y z
#
# Youngs Moduli (GPa) = 67.61097 36.08248 73.80260
#
# Poissons Ratio (x) = -0.07758 0.49374
# Poissons Ratio (y) = -0.14537 0.85373
# Poissons Ratio (z) = 0.45232 0.41739
#
# Static dielectric constant tensor:
#      x y z
#    x 3.648660 0.000000 0.000000 
#    y 0.000000 3.436570 0.000000 
#    z 0.000000 0.000000 4.373900 
# 
# 
# High freq. dielectric constant tensor:
#      x y z
#    x 1.785030 0.000000 0.000000 
#    y 0.000000 1.757190 0.000000 
#    z 0.000000 0.000000 1.816020 
# 
# From -- ./inp_files/34555.got.cif
#   From: 2010.06.25/outbox.cif.g09.slc.cpg/sg58_18_cif.got.tgz:34555.got - 2010.06.26 21:38:00.
