data_PCOD8238551
_publ_section_title
;
Structure prediction by ZEFSAII (Michael W. Deem and Ramdas Pophale) SiO2 
 PCOD8238551
Probable space group: P N N M
;
_chemical_formula_sum "Si O2"
_cell_formula_units_Z 40
_cell_length_a 14.912975
_cell_length_b 14.933105
_cell_length_c 8.977344
_cell_angle_alpha 90.000000
_cell_angle_beta 90.000000
_cell_angle_gamma 90.000000
_cell_volume 1999.227770
_symmetry_space_group_name_H-M "P N N M"
_symmetry_group_IT_number 58
_symmetry_cell_setting 'orthorhombic'
loop_
_space_group_symop_operation_xyz
x,y,z
-x,-y,z
1/2+x,1/2-y,1/2-z
1/2-x,1/2+y,1/2-z
-x,-y,-z
x,y,-z
1/2-x,1/2+y,1/2+z
1/2+x,1/2-y,1/2+z
loop_
_atom_site_type_symbol
_atom_site_label
_atom_site_fract_x
_atom_site_fract_y
_atom_site_fract_z
Si Si1 0.521669 0.738943 0.326001
Si Si2 0.681037 0.221409 0.673770
Si Si3 0.158332 0.647033 0.671898
Si Si4 0.081033 0.938810 0.323968
Si Si5 0.761463 0.541813 0.327201
O O1 0.536917 0.724325 0.500000
O O2 0.416909 0.740868 0.285968
O O3 0.572385 0.828570 0.272488
O O4 0.570061 0.660632 0.236430
O O5 0.688271 0.197454 0.500000
O O6 0.753914 0.295829 0.720200
O O7 0.693185 0.131104 0.766010
O O8 0.136009 0.666465 0.500000
O O9 0.173377 0.542006 0.699267
O O10 0.088097 0.934869 0.500000
O O11 0.170487 0.981660 0.258525
O O12 0.000000 0.000000 0.267895
O O13 0.739049 0.554801 0.500000
#
# Coordination Sequence:
#
# PCOD8238551 Si02
#       5
#     8   8   8   8   8
#     4  11  23  39  63  92 122 163 210 256 308 370
#     4  10  22  41  62  87 125 166 204 255 314 369
#     4  10  22  41  62  87 125 166 204 255 314 369
#     4  11  23  39  61  91 125 162 205 258 317 369
#     4  11  23  39  63  92 122 163 210 256 308 370
#
# _framework density 20.007726000000002
#
# number of rings (size 3 to 8) (size 9 to 14) (size 15 to 20)
#    0.000    1.400    2.000    3.000    0.000    7.200 
#    0.000    4.000    0.000    0.000    0.000    0.000 
#    0.000    0.000    0.000    0.000    0.000    0.000 
#
# Total GULP energy -496218.203810 kJ/mol
# GULP energy per Si atom -12405.455095 kJ/mol
# Density = 1.996219 g / cm^3
# Si number density = 20.007726 Si / 1000 Ang^3
#
#
#
# Elastic Constant Matrix: (Units=GPa)
#
#
# Indices 1 2 3 4 5 6 
#
# 1 61.0848 -8.5396 20.4240 0.0000 0.0000 0.0000
# 2 -8.5396 73.8307 20.1117 0.0000 0.0000 0.0000
# 3 20.4240 20.1117 64.4883 0.0000 0.0000 0.0000
# 4 0.0000 0.0000 0.0000 29.2003 0.0000 0.0000
# 5 0.0000 0.0000 0.0000 0.0000 33.0268 0.0000
# 6 0.0000 0.0000 0.0000 0.0000 0.0000 31.6332
#
#
#
# Elastic Compliance Matrix: (Units=1/GPa)
#
#
# Indices 1 2 3 4 5 6 
#
# 1 0.019483 0.004300 -0.007511 0.000000 0.000000 0.000000
# 2 0.004300 0.015751 -0.006274 0.000000 0.000000 0.000000
# 3 -0.007511 -0.006274 0.019842 0.000000 0.000000 0.000000
# 4 0.000000 0.000000 0.000000 0.034246 0.000000 0.000000
# 5 0.000000 0.000000 0.000000 0.000000 0.030278 0.000000
# 6 0.000000 0.000000 0.000000 0.000000 0.000000 0.031612
#
#
# Mechanical properties :
#
#
# Convention : Reuss Voigt Hill
#
# Bulk Modulus (GPa) = 27.69701 29.26624 28.48163
# Shear Modulus (GPa) = 27.43940 29.93257 28.68598
#
# Velocity S-wave (km/s) = 3.70731 3.87208 3.79059
# Velocity P-wave (km/s) = 5.67440 5.88641 5.78138
#
# Compressibility (1/GPa) = 0.03610498
#
# Stress axis : x y z
#
# Youngs Moduli (GPa) = 51.32611 63.48866 50.39751
#
# Poissons Ratio (x) = -0.27298 0.37856
# Poissons Ratio (y) = -0.22068 0.31619
# Poissons Ratio (z) = 0.38553 0.39832
#
# Static dielectric constant tensor:
#      x y z
#    x 3.775750 0.000000 0.000000 
#    y 0.000000 3.624390 0.000000 
#    z 0.000000 0.000000 3.637730 
# 
# 
# High freq. dielectric constant tensor:
#      x y z
#    x 1.788440 0.000000 0.000000 
#    y 0.000000 1.786250 0.000000 
#    z 0.000000 0.000000 1.783950 
# 
# From -- ./inp_files/5370.got.cif
#   From: 2010.06.25/outbox.cif.g09.slc.cpg/sg58_3_cif.got.tgz:5370.got - 2010.06.26 21:38:00.
