data_PCOD8238931
_publ_section_title
;
Structure prediction by ZEFSAII (Michael W. Deem and Ramdas Pophale) SiO2 
 PCOD8238931
Probable space group: P N N M
;
_chemical_formula_sum "Si O2"
_cell_formula_units_Z 24
_cell_length_a 16.673305
_cell_length_b 9.678121
_cell_length_c 7.490616
_cell_angle_alpha 90.000000
_cell_angle_beta 90.000000
_cell_angle_gamma 90.000000
_cell_volume 1208.732713
_symmetry_space_group_name_H-M "P N N M"
_symmetry_group_IT_number 58
_symmetry_cell_setting 'orthorhombic'
loop_
_space_group_symop_operation_xyz
x,y,z
-x,-y,z
1/2+x,1/2-y,1/2-z
1/2-x,1/2+y,1/2-z
-x,-y,-z
x,y,-z
1/2-x,1/2+y,1/2+z
1/2+x,1/2-y,1/2+z
loop_
_atom_site_type_symbol
_atom_site_label
_atom_site_fract_x
_atom_site_fract_y
_atom_site_fract_z
Si Si1 0.340774 0.306137 0.204694
Si Si2 0.196836 0.497460 0.703520
Si Si3 0.922849 0.595775 0.000000
Si Si4 0.029792 0.845992 0.000000
O O1 0.282661 0.431701 0.254360
O O2 0.419939 0.313342 0.323133
O O3 0.295765 0.161093 0.241390
O O4 0.367967 0.318408 0.000000
O O5 0.172094 0.468732 0.500000
O O6 0.128777 0.429764 0.824028
O O7 0.000000 0.500000 0.000000
O O8 0.949901 0.754066 0.000000
O O9 0.000000 0.000000 0.000000
#
# Coordination Sequence:
#
# PCOD8238931 Si02
#       4
#     8   8   4   4
#     4  11  24  43  68  98 132 174 224 267 327 400
#     4  11  24  41  69  98 130 176 224 267 327 401
#     4  12  24  46  68  96 136 174 212 279 334 387
#     4  12  28  46  66 100 142 168 222 284 332 385
#
# _framework density 19.855506999999999
#
# number of rings (size 3 to 8) (size 9 to 14) (size 15 to 20)
#    0.000    0.667    6.667    0.000    4.667    2.667 
#    0.000    0.000    0.000    0.000    0.000    0.000 
#    0.000    0.000    0.000    0.000    0.000    0.000 
#
# Total GULP energy -297751.927089 kJ/mol
# GULP energy per Si atom -12406.330295 kJ/mol
# Density = 1.981031 g / cm^3
# Si number density = 19.855507 Si / 1000 Ang^3
#
#
#
# Elastic Constant Matrix: (Units=GPa)
#
#
# Indices 1 2 3 4 5 6 
#
# 1 54.2196 18.7954 44.0520 0.0000 0.0000 0.0000
# 2 18.7954 127.1610 52.1336 0.0000 0.0000 0.0000
# 3 44.0520 52.1336 160.0824 0.0000 0.0000 0.0000
# 4 0.0000 0.0000 0.0000 -0.3431 0.0000 0.0000
# 5 0.0000 0.0000 0.0000 0.0000 23.7748 0.0000
# 6 0.0000 0.0000 0.0000 0.0000 0.0000 50.2797
#
#
#
# Elastic Compliance Matrix: (Units=1/GPa)
#
#
# Indices 1 2 3 4 5 6 
#
# 1 0.023856 -0.000963 -0.006251 0.000000 0.000000 0.000000
# 2 -0.000963 0.009115 -0.002703 0.000000 0.000000 0.000000
# 3 -0.006251 -0.002703 0.008847 0.000000 0.000000 0.000000
# 4 0.000000 0.000000 0.000000 -2.914830 0.000000 0.000000
# 5 0.000000 0.000000 0.000000 0.000000 0.042061 0.000000
# 6 0.000000 0.000000 0.000000 0.000000 0.000000 0.019889
#
#
# Mechanical properties :
#
#
# Convention : Reuss Voigt Hill
#
# Bulk Modulus (GPa) = 45.48978 63.49167 54.49073
# Shear Modulus (GPa) = -1.79604 29.84108 14.02252
#
# Velocity S-wave (km/s) = -0.95211 3.88095 2.66038
# Velocity P-wave (km/s) = 4.66385 7.22001 6.07783
#
# Compressibility (1/GPa) = 0.02198296
#
# Stress axis : x y z
#
# Youngs Moduli (GPa) = 41.91758 109.71255 113.02805
#
# Poissons Ratio (x) = 0.10569 0.70655
# Poissons Ratio (y) = 0.04038 0.30555
# Poissons Ratio (z) = 0.26203 0.29658
#
# Static dielectric constant tensor:
#      x y z
#    x 3.771580 0.000000 0.000000 
#    y 0.000000 3.901370 0.000000 
#    z 0.000000 0.000000 3.831060 
# 
# 
# High freq. dielectric constant tensor:
#      x y z
#    x 1.765480 0.000000 0.000000 
#    y 0.000000 1.790700 0.000000 
#    z 0.000000 0.000000 1.795480 
# 
# From -- ./inp_files/1759.got.cif
#   From: 2010.06.25/outbox.cif.g09.slc.cpg/sg58_1_cif.got.tgz:1759.got - 2010.06.26 21:38:00.
