data_PCOD8238857
_publ_section_title
;
Structure prediction by ZEFSAII (Michael W. Deem and Ramdas Pophale) SiO2 
 PCOD8238857
Probable space group: P N N M
;
_chemical_formula_sum "Si O2"
_cell_formula_units_Z 56
_cell_length_a 9.768660
_cell_length_b 13.248378
_cell_length_c 21.410380
_cell_angle_alpha 90.000000
_cell_angle_beta 90.000000
_cell_angle_gamma 90.000000
_cell_volume 2770.907833
_symmetry_space_group_name_H-M "P N N M"
_symmetry_group_IT_number 58
_symmetry_cell_setting 'orthorhombic'
loop_
_space_group_symop_operation_xyz
x,y,z
-x,-y,z
1/2+x,1/2-y,1/2-z
1/2-x,1/2+y,1/2-z
-x,-y,-z
x,y,-z
1/2-x,1/2+y,1/2+z
1/2+x,1/2-y,1/2+z
loop_
_atom_site_type_symbol
_atom_site_label
_atom_site_fract_x
_atom_site_fract_y
_atom_site_fract_z
Si Si1 0.491828 0.263770 0.854590
Si Si2 0.984243 0.269052 0.152073
Si Si3 0.740452 0.180810 0.928039
Si Si4 0.586243 0.399948 0.747725
Si Si5 0.270490 0.749172 0.574000
Si Si6 0.595717 0.905766 0.758774
Si Si7 0.646027 0.470188 0.428875
O O1 0.594842 0.216320 0.904221
O O2 0.559846 0.356974 0.817551
O O3 0.362918 0.300220 0.895558
O O4 0.439408 0.181700 0.806459
O O5 0.857277 0.227866 0.113822
O O6 0.938155 0.367637 0.189329
O O7 0.043294 0.183909 0.197957
O O8 0.098289 0.305908 0.102571
O O9 0.744836 0.059484 0.921180
O O10 0.761336 0.212857 0.000000
O O11 0.500000 0.500000 0.737019
O O12 0.743851 0.432643 0.738082
O O13 0.264216 0.762522 0.500000
O O14 0.285533 0.631866 0.597140
O O15 0.500000 0.000000 0.775196
O O16 0.500000 0.500000 0.395962
O O17 0.609078 0.445830 0.500000
#
# Coordination Sequence:
#
# PCOD8238857 Si02
#       7
#     8   8   8   8   8   8   8
#     4  11  25  42  62  94 128 160 206 253 314 372
#     4  11  23  40  65  93 125 164 212 248 306 376
#     4  11  22  38  63  91 128 169 201 250 309 375
#     4  11  26  43  66  91 122 165 210 263 312 355
#     4  11  22  38  62  94 130 165 201 250 310 378
#     4  11  26  43  65  93 122 162 213 265 305 358
#     4   9  18  31  51  86 124 163 200 231 284 360
#
# _framework density 20.209982
#
# number of rings (size 3 to 8) (size 9 to 14) (size 15 to 20)
#    0.000    1.286    4.286    0.857    8.000    0.000 
#    0.000    2.143    0.000    5.143    0.000    0.000 
#    0.000    0.000    0.000    0.000    0.000    0.000 
#
# Total GULP energy -694338.454201 kJ/mol
# GULP energy per Si atom -12398.900968 kJ/mol
# Density = 2.016398 g / cm^3
# Si number density = 20.209982 Si / 1000 Ang^3
#
#
#
# Elastic Constant Matrix: (Units=GPa)
#
#
# Indices 1 2 3 4 5 6 
#
# 1 114.0580 22.4622 12.0705 0.0000 0.0000 0.0000
# 2 22.4622 32.1445 10.4243 0.0000 0.0000 0.0000
# 3 12.0705 10.4243 78.7990 0.0000 0.0000 0.0000
# 4 0.0000 0.0000 0.0000 -150.6930 0.0000 0.0000
# 5 0.0000 0.0000 0.0000 0.0000 37.0847 0.0000
# 6 0.0000 0.0000 0.0000 0.0000 0.0000 34.0817
#
#
#
# Elastic Compliance Matrix: (Units=1/GPa)
#
#
# Indices 1 2 3 4 5 6 
#
# 1 0.010198 -0.006916 -0.000647 0.000000 0.000000 0.000000
# 2 -0.006916 0.037195 -0.003861 0.000000 0.000000 0.000000
# 3 -0.000647 -0.003861 0.013300 0.000000 0.000000 0.000000
# 4 0.000000 0.000000 0.000000 -0.006636 0.000000 0.000000
# 5 0.000000 0.000000 0.000000 0.000000 0.026965 0.000000
# 6 0.000000 0.000000 0.000000 0.000000 0.000000 0.029341
#
#
# Mechanical properties :
#
#
# Convention : Reuss Voigt Hill
#
# Bulk Modulus (GPa) = 26.42424 34.99059 30.70741
# Shear Modulus (GPa) = 34.28708 -3.90234 15.19237
#
# Velocity S-wave (km/s) = 4.12338 -1.39107 2.74474
# Velocity P-wave (km/s) = 5.98104 3.84330 5.02712
#
# Compressibility (1/GPa) = 0.03784404
#
# Stress axis : x y z
#
# Youngs Moduli (GPa) = 98.05798 26.88552 75.18558
#
# Poissons Ratio (x) = 0.18595 0.04866
# Poissons Ratio (y) = 0.67821 0.29029
# Poissons Ratio (z) = 0.06346 0.10381
#
# Static dielectric constant tensor:
#      x y z
#    x 3.838330 0.000000 0.000000 
#    y 0.000000 3.411750 0.000000 
#    z 0.000000 0.000000 4.067890 
# 
# 
# High freq. dielectric constant tensor:
#      x y z
#    x 1.802730 0.000000 0.000000 
#    y 0.000000 1.752510 0.000000 
#    z 0.000000 0.000000 1.805290 
# 
# From -- ./inp_files/28967.got.cif
#   From: 2010.06.25/outbox.cif.g09.slc.cpg/sg58_15_cif.got.tgz:28967.got - 2010.06.26 21:38:00.
