data_PCOD8238093
_publ_section_title
;
Structure prediction by ZEFSAII (Michael W. Deem and Ramdas Pophale) SiO2 
 PCOD8238093
Probable space group: P N N M
;
_chemical_formula_sum "Si O2"
_cell_formula_units_Z 40
_cell_length_a 8.453986
_cell_length_b 10.861679
_cell_length_c 16.924521
_cell_angle_alpha 90.000000
_cell_angle_beta 90.000000
_cell_angle_gamma 90.000000
_cell_volume 1554.085377
_symmetry_space_group_name_H-M "P N N M"
_symmetry_group_IT_number 58
_symmetry_cell_setting 'orthorhombic'
loop_
_space_group_symop_operation_xyz
x,y,z
-x,-y,z
1/2+x,1/2-y,1/2-z
1/2-x,1/2+y,1/2-z
-x,-y,-z
x,y,-z
1/2-x,1/2+y,1/2+z
1/2+x,1/2-y,1/2+z
loop_
_atom_site_type_symbol
_atom_site_label
_atom_site_fract_x
_atom_site_fract_y
_atom_site_fract_z
Si Si1 0.065754 0.180871 0.406880
Si Si2 0.827855 0.319731 0.674836
Si Si3 0.625079 0.889154 0.352349
Si Si4 0.483386 0.655058 0.587737
Si Si5 0.813052 0.559428 0.590204
O O1 0.036598 0.166865 0.500000
O O2 0.190825 0.075666 0.377313
O O3 0.137388 0.310181 0.373437
O O4 0.896419 0.190003 0.361393
O O5 0.871092 0.330915 0.765626
O O6 0.640249 0.325441 0.658947
O O7 0.896886 0.440560 0.629225
O O8 0.578422 0.784465 0.415179
O O9 0.500000 0.000000 0.357520
O O10 0.404732 0.639584 0.500000
O O11 0.619236 0.547263 0.601340
O O12 0.862637 0.561690 0.500000
#
# Coordination Sequence:
#
# PCOD8238093 Si02
#       5
#     8   8   8   8   8
#     4  10  21  37  59  86 116 155 204 251 294 356
#     4  12  21  35  61  94 124 149 195 263 324 367
#     4  11  24  41  59  82 120 170 209 248 309 377
#     4  10  22  40  63  89 122 165 208 252 308 381
#     4   9  18  34  58  88 121 156 190 234 304 378
#
# _framework density 25.738612
#
# number of rings (size 3 to 8) (size 9 to 14) (size 15 to 20)
#    0.000    1.600    0.000    7.200    0.000    6.400 
#    0.000    3.000    0.000    2.400    0.000    0.000 
#    0.000    0.000    0.000    0.000    0.000    0.000 
#
# Total GULP energy -495563.819385 kJ/mol
# GULP energy per Si atom -12389.095485 kJ/mol
# Density = 2.568003 g / cm^3
# Si number density = 25.738612 Si / 1000 Ang^3
#
#
#
# Elastic Constant Matrix: (Units=GPa)
#
#
# Indices 1 2 3 4 5 6 
#
# 1 115.8596 33.8357 21.4821 0.0000 0.0000 0.0000
# 2 33.8357 64.1775 18.8922 0.0000 0.0000 0.0000
# 3 21.4821 18.8922 113.8921 0.0000 0.0000 0.0000
# 4 0.0000 0.0000 0.0000 18.4693 0.0000 0.0000
# 5 0.0000 0.0000 0.0000 0.0000 35.4335 0.0000
# 6 0.0000 0.0000 0.0000 0.0000 0.0000 41.8732
#
#
#
# Elastic Compliance Matrix: (Units=1/GPa)
#
#
# Indices 1 2 3 4 5 6 
#
# 1 0.010331 -0.005123 -0.001099 0.000000 0.000000 0.000000
# 2 -0.005123 0.018922 -0.002172 0.000000 0.000000 0.000000
# 3 -0.001099 -0.002172 0.009348 0.000000 0.000000 0.000000
# 4 0.000000 0.000000 0.000000 0.054144 0.000000 0.000000
# 5 0.000000 0.000000 0.000000 0.000000 0.028222 0.000000
# 6 0.000000 0.000000 0.000000 0.000000 0.000000 0.023882
#
#
# Mechanical properties :
#
#
# Convention : Reuss Voigt Hill
#
# Bulk Modulus (GPa) = 45.84583 49.14993 47.49788
# Shear Modulus (GPa) = 29.60180 33.80314 31.70247
#
# Velocity S-wave (km/s) = 3.39498 3.62791 3.51338
# Velocity P-wave (km/s) = 5.76356 6.05692 5.91206
#
# Compressibility (1/GPa) = 0.02181224
#
# Stress axis : x y z
#
# Youngs Moduli (GPa) = 96.79528 52.84733 106.97637
#
# Poissons Ratio (x) = 0.27075 0.11754
# Poissons Ratio (y) = 0.49591 0.23240
# Poissons Ratio (z) = 0.10636 0.11481
#
# Static dielectric constant tensor:
#      x y z
#    x 5.427690 0.000000 0.000000 
#    y 0.000000 4.741540 0.000000 
#    z 0.000000 0.000000 4.076130 
# 
# 
# High freq. dielectric constant tensor:
#      x y z
#    x 2.072870 0.000000 0.000000 
#    y 0.000000 2.016160 0.000000 
#    z 0.000000 0.000000 2.005090 
# 
# From -- ./inp_files/24938.got.cif
#   From: 2010.06.25/outbox.cif.g09.slc.cpg/sg58_13_cif.got.tgz:24938.got - 2010.06.26 21:38:00.
