data_PCOD8238535
_publ_section_title
;
Structure prediction by ZEFSAII (Michael W. Deem and Ramdas Pophale) SiO2 
 PCOD8238535
Probable space group: P N N M
;
_chemical_formula_sum "Si O2"
_cell_formula_units_Z 64
_cell_length_a 9.046537
_cell_length_b 16.101489
_cell_length_c 20.930516
_cell_angle_alpha 90.000000
_cell_angle_beta 90.000000
_cell_angle_gamma 90.000000
_cell_volume 3048.795808
_symmetry_space_group_name_H-M "P N N M"
_symmetry_group_IT_number 58
_symmetry_cell_setting 'orthorhombic'
loop_
_space_group_symop_operation_xyz
x,y,z
-x,-y,z
1/2+x,1/2-y,1/2-z
1/2-x,1/2+y,1/2-z
-x,-y,-z
x,y,-z
1/2-x,1/2+y,1/2+z
1/2+x,1/2-y,1/2+z
loop_
_atom_site_type_symbol
_atom_site_label
_atom_site_fract_x
_atom_site_fract_y
_atom_site_fract_z
Si Si1 0.391748 0.878683 0.241401
Si Si2 0.590363 0.423825 0.842689
Si Si3 0.132246 0.837789 0.575311
Si Si4 0.387878 0.424704 0.329540
Si Si5 0.396827 0.692193 0.723861
Si Si6 0.142231 0.465375 0.133458
Si Si7 0.176032 0.506554 0.572965
Si Si8 0.871853 0.337517 0.644388
O O1 0.222268 0.905468 0.228939
O O2 0.421647 0.788329 0.268762
O O3 0.432804 0.940220 0.298577
O O4 0.483113 0.883480 0.174479
O O5 0.500000 0.500000 0.812008
O O6 0.510717 0.392908 0.907695
O O7 0.581824 0.350163 0.792157
O O8 0.752544 0.454603 0.860385
O O9 0.146872 0.827362 0.500000
O O10 0.278429 0.885070 0.601832
O O11 0.104388 0.747383 0.606043
O O12 0.500000 0.500000 0.315198
O O13 0.491943 0.342593 0.331441
O O14 0.283211 0.440505 0.391098
O O15 0.228098 0.677986 0.705639
O O16 0.000000 0.500000 0.093333
O O17 0.221728 0.495960 0.500000
O O18 0.213185 0.598746 0.597666
O O19 0.000000 0.500000 0.582345
#
# Coordination Sequence:
#
# PCOD8238535 Si02
#       8
#     8   8   8   8   8   8   8   8
#     4  12  24  40  65  99 138 171 215 273 347 402
#     4  10  22  40  65  96 128 169 218 272 327 395
#     4  11  24  46  67  91 128 180 231 266 320 397
#     4  12  24  41  66  98 134 174 224 273 331 393
#     4  12  22  40  65  98 135 168 213 279 342 395
#     4  11  24  40  64 100 132 164 213 278 342 392
#     4  11  25  45  67  96 136 183 232 272 326 407
#     4  12  23  42  68  99 132 178 218 277 332 402
#
# _framework density 20.991893999999998
#
# number of rings (size 3 to 8) (size 9 to 14) (size 15 to 20)
#    0.000    0.625    5.000    4.500    1.750    2.750 
#    0.000    0.000    0.000    0.000    0.000    0.000 
#    0.000    0.000    0.000    0.000    0.000    0.000 
#
# Total GULP energy -792917.036055 kJ/mol
# GULP energy per Si atom -12389.328688 kJ/mol
# Density = 2.094412 g / cm^3
# Si number density = 20.991894 Si / 1000 Ang^3
#
#
#
# Elastic Constant Matrix: (Units=GPa)
#
#
# Indices 1 2 3 4 5 6 
#
# 1 105.2279 28.6782 49.1936 0.0000 0.0000 0.0000
# 2 28.6782 75.0386 48.5116 0.0000 0.0000 0.0000
# 3 49.1936 48.5116 108.3223 0.0000 0.0000 0.0000
# 4 0.0000 0.0000 0.0000 16.4720 0.0000 0.0000
# 5 0.0000 0.0000 0.0000 0.0000 17.4087 0.0000
# 6 0.0000 0.0000 0.0000 0.0000 0.0000 32.3235
#
#
#
# Elastic Compliance Matrix: (Units=1/GPa)
#
#
# Indices 1 2 3 4 5 6 
#
# 1 0.012186 -0.001519 -0.004854 0.000000 0.000000 0.000000
# 2 -0.001519 0.018947 -0.007795 0.000000 0.000000 0.000000
# 3 -0.004854 -0.007795 0.014927 0.000000 0.000000 0.000000
# 4 0.000000 0.000000 0.000000 0.060709 0.000000 0.000000
# 5 0.000000 0.000000 0.000000 0.000000 0.057442 0.000000
# 6 0.000000 0.000000 0.000000 0.000000 0.000000 0.030937
#
#
# Mechanical properties :
#
#
# Convention : Reuss Voigt Hill
#
# Bulk Modulus (GPa) = 56.42304 60.15063 58.28683
# Shear Modulus (GPa) = 21.79663 24.05456 22.92559
#
# Velocity S-wave (km/s) = 3.22582 3.38878 3.30830
# Velocity P-wave (km/s) = 6.38838 6.63538 6.51305
#
# Compressibility (1/GPa) = 0.01772326
#
# Stress axis : x y z
#
# Youngs Moduli (GPa) = 82.05831 52.77993 66.99242
#
# Poissons Ratio (x) = 0.08020 0.32517
# Poissons Ratio (y) = 0.12468 0.52221
# Poissons Ratio (z) = 0.39830 0.41142
#
# Static dielectric constant tensor:
#      x y z
#    x 8.602830 0.000000 0.000000 
#    y 0.000000 3.356180 0.000000 
#    z 0.000000 0.000000 3.643070 
# 
# 
# High freq. dielectric constant tensor:
#      x y z
#    x 1.834270 0.000000 0.000000 
#    y 0.000000 1.833420 0.000000 
#    z 0.000000 0.000000 1.797790 
# 
# From -- ./inp_files/31615.got.cif
#   From: 2010.06.25/outbox.cif.g09.slc.cpg/sg58_16_cif.got.tgz:31615.got - 2010.06.26 21:38:00.
