data_PCOD8238958
_publ_section_title
;
Structure prediction by ZEFSAII (Michael W. Deem and Ramdas Pophale) SiO2 
 PCOD8238958
Probable space group: P N N M
;
_chemical_formula_sum "Si O2"
_cell_formula_units_Z 44
_cell_length_a 14.434029
_cell_length_b 5.089706
_cell_length_c 26.591451
_cell_angle_alpha 90.000000
_cell_angle_beta 90.000000
_cell_angle_gamma 90.000000
_cell_volume 1953.539991
_symmetry_space_group_name_H-M "P N N M"
_symmetry_group_IT_number 58
_symmetry_cell_setting 'orthorhombic'
loop_
_space_group_symop_operation_xyz
x,y,z
-x,-y,z
1/2+x,1/2-y,1/2-z
1/2-x,1/2+y,1/2-z
-x,-y,-z
x,y,-z
1/2-x,1/2+y,1/2+z
1/2+x,1/2-y,1/2+z
loop_
_atom_site_type_symbol
_atom_site_label
_atom_site_fract_x
_atom_site_fract_y
_atom_site_fract_z
Si Si1 0.562005 0.748312 0.500000
Si Si2 0.437625 0.251104 0.328771
Si Si3 0.310810 0.283944 0.761192
Si Si4 0.060909 0.750424 0.351277
Si Si5 0.315992 0.196645 0.940437
Si Si6 0.296468 0.200626 0.586189
O O1 0.500000 0.500000 0.500000
O O2 0.621737 0.730201 0.549291
O O3 0.500000 0.000000 0.500000
O O4 0.500000 0.500000 0.343882
O O5 0.405284 0.264014 0.271114
O O6 0.340361 0.230439 0.358685
O O7 0.500000 0.000000 0.339788
O O8 0.264218 0.565187 0.752646
O O9 0.344066 0.254554 0.818839
O O10 0.089698 0.756892 0.410142
O O11 0.000000 0.500000 0.337780
O O12 0.000000 0.000000 0.337772
O O13 0.238129 0.407021 0.924943
O O14 0.286153 0.906021 0.922794
O O15 0.335466 0.206141 0.000000
#
# Coordination Sequence:
#
# PCOD8238958 Si02
#       6
#     4   8   8   8   8   8
#     4  12  22  36  58  88 124 164 210 264 314 366
#     4  12  24  41  64  94 132 169 208 262 320 382
#     4  12  24  44  69  99 129 170 214 259 324 392
#     4  12  26  45  69 100 134 168 218 276 327 383
#     4  12  24  44  67  93 127 176 219 271 326 381
#     4  12  23  42  62  94 128 172 220 262 318 389
#
# _framework density 22.523215
#
# number of rings (size 3 to 8) (size 9 to 14) (size 15 to 20)
#    0.000    0.000    1.818    9.818    0.000    0.727 
#    0.000    0.000    0.000    0.000    0.000    0.000 
#    0.000    0.000    0.000    0.000    0.000    0.000 
#
# Total GULP energy -545923.999590 kJ/mol
# GULP energy per Si atom -12407.363627 kJ/mol
# Density = 2.247195 g / cm^3
# Si number density = 22.523215 Si / 1000 Ang^3
#
#
#
# Elastic Constant Matrix: (Units=GPa)
#
#
# Indices 1 2 3 4 5 6 
#
# 1 81.2608 29.3386 31.8856 0.0000 0.0000 0.0000
# 2 29.3386 129.5696 17.1404 0.0000 0.0000 0.0000
# 3 31.8856 17.1404 113.5595 0.0000 0.0000 0.0000
# 4 0.0000 0.0000 0.0000 26.4776 0.0000 0.0000
# 5 0.0000 0.0000 0.0000 0.0000 55.6903 0.0000
# 6 0.0000 0.0000 0.0000 0.0000 0.0000 38.5487
#
#
#
# Elastic Compliance Matrix: (Units=1/GPa)
#
#
# Indices 1 2 3 4 5 6 
#
# 1 0.014799 -0.002858 -0.003724 0.000000 0.000000 0.000000
# 2 -0.002858 0.008427 -0.000469 0.000000 0.000000 0.000000
# 3 -0.003724 -0.000469 0.009922 0.000000 0.000000 0.000000
# 4 0.000000 0.000000 0.000000 0.037768 0.000000 0.000000
# 5 0.000000 0.000000 0.000000 0.000000 0.017956 0.000000
# 6 0.000000 0.000000 0.000000 0.000000 0.000000 0.025941
#
#
# Mechanical properties :
#
#
# Convention : Reuss Voigt Hill
#
# Bulk Modulus (GPa) = 52.50602 53.45766 52.98184
# Shear Modulus (GPa) = 36.96414 40.54502 38.75458
#
# Velocity S-wave (km/s) = 4.05551 4.24741 4.15257
# Velocity P-wave (km/s) = 6.72995 6.91665 6.82393
#
# Compressibility (1/GPa) = 0.01904544
#
# Stress axis : x y z
#
# Youngs Moduli (GPa) = 67.57081 118.66364 100.78172
#
# Poissons Ratio (x) = 0.33919 0.37531
# Poissons Ratio (y) = 0.19314 0.04731
# Poissons Ratio (z) = 0.25163 0.05570
#
# Static dielectric constant tensor:
#      x y z
#    x 3.987460 0.000000 0.000000 
#    y 0.000000 4.531910 0.000000 
#    z 0.000000 0.000000 4.295970 
# 
# 
# High freq. dielectric constant tensor:
#      x y z
#    x 1.889280 0.000000 0.000000 
#    y 0.000000 1.906400 0.000000 
#    z 0.000000 0.000000 1.902280 
# 
# From -- ./inp_files/33661.got.cif
#   From: 2010.06.25/outbox.cif.g09.slc.cpg/sg58_17_cif.got.tgz:33661.got - 2010.06.26 21:38:00.
