data_PCOD8238895
_publ_section_title
;
Structure prediction by ZEFSAII (Michael W. Deem and Ramdas Pophale) SiO2 
 PCOD8238895
Probable space group: P N N M
;
_chemical_formula_sum "Si O2"
_cell_formula_units_Z 64
_cell_length_a 15.178894
_cell_length_b 23.882977
_cell_length_c 8.532404
_cell_angle_alpha 90.000000
_cell_angle_beta 90.000000
_cell_angle_gamma 90.000000
_cell_volume 3093.143005
_symmetry_space_group_name_H-M "P N N M"
_symmetry_group_IT_number 58
_symmetry_cell_setting 'orthorhombic'
loop_
_space_group_symop_operation_xyz
x,y,z
-x,-y,z
1/2+x,1/2-y,1/2-z
1/2-x,1/2+y,1/2-z
-x,-y,-z
x,y,-z
1/2-x,1/2+y,1/2+z
1/2+x,1/2-y,1/2+z
loop_
_atom_site_type_symbol
_atom_site_label
_atom_site_fract_x
_atom_site_fract_y
_atom_site_fract_z
Si Si1 0.901037 0.769391 0.817921
Si Si2 0.247198 0.430040 0.815143
Si Si3 0.761419 0.197038 0.685797
Si Si4 0.601850 0.991510 0.183121
Si Si5 0.651861 0.875292 0.676112
Si Si6 0.354184 0.618914 0.176029
Si Si7 0.574933 0.770299 0.181293
Si Si8 0.399695 0.504711 0.318162
O O1 0.821839 0.731678 0.748161
O O2 0.911566 0.828119 0.728273
O O3 0.990765 0.736465 0.790584
O O4 0.885286 0.781504 0.000000
O O5 0.258424 0.366650 0.752039
O O6 0.160965 0.455293 0.731084
O O7 0.336755 0.463213 0.777544
O O8 0.230787 0.432037 0.000000
O O9 0.757819 0.196997 0.500000
O O10 0.850506 0.227378 0.742836
O O11 0.637359 0.939227 0.278946
O O12 0.500000 0.000000 0.227793
O O13 0.613549 0.980155 0.000000
O O14 0.616382 0.865396 0.500000
O O15 0.754233 0.861334 0.685278
O O16 0.604356 0.834447 0.797876
O O17 0.369209 0.568096 0.294014
O O18 0.380952 0.600747 0.000000
O O19 0.551928 0.759834 0.000000
O O20 0.500000 0.500000 0.257418
O O21 0.392363 0.488820 0.500000
#
# Coordination Sequence:
#
# PCOD8238895 Si02
#       8
#     8   8   8   8   8   8   8   8
#     4  11  23  42  65  94 128 168 211 260 315 374
#     4  11  23  42  65  92 125 168 212 257 310 377
#     4   9  22  42  63  88 125 166 204 251 314 371
#     4  11  25  43  64  94 128 166 209 261 320 377
#     4  11  23  41  66  95 124 164 213 263 316 377
#     4  11  23  41  66  95 124 164 213 263 316 377
#     4  11  23  42  65  94 128 168 211 260 315 374
#     4  11  25  43  64  94 128 166 209 261 320 377
#
# _framework density 20.690929000000001
#
# number of rings (size 3 to 8) (size 9 to 14) (size 15 to 20)
#    0.000    1.250    2.500    2.625    3.500    3.000 
#    0.000    3.750    0.000    0.000    0.000    0.000 
#    0.000    0.000    0.000    0.000    0.000    0.000 
#
# Total GULP energy -793933.163980 kJ/mol
# GULP energy per Si atom -12405.205687 kJ/mol
# Density = 2.064384 g / cm^3
# Si number density = 20.690929 Si / 1000 Ang^3
#
#
#
# Elastic Constant Matrix: (Units=GPa)
#
#
# Indices 1 2 3 4 5 6 
#
# 1 106.2985 25.7875 26.4659 0.0000 0.0000 0.0000
# 2 25.7875 116.4905 10.9036 0.0000 0.0000 0.0000
# 3 26.4659 10.9036 54.1049 0.0000 0.0000 0.0000
# 4 0.0000 0.0000 0.0000 26.5567 0.0000 0.0000
# 5 0.0000 0.0000 0.0000 0.0000 26.1051 0.0000
# 6 0.0000 0.0000 0.0000 0.0000 0.0000 29.4123
#
#
#
# Elastic Compliance Matrix: (Units=1/GPa)
#
#
# Indices 1 2 3 4 5 6 
#
# 1 0.011149 -0.001995 -0.005052 0.000000 0.000000 0.000000
# 2 -0.001995 0.009107 -0.000859 0.000000 0.000000 0.000000
# 3 -0.005052 -0.000859 0.021127 0.000000 0.000000 0.000000
# 4 0.000000 0.000000 0.000000 0.037655 0.000000 0.000000
# 5 0.000000 0.000000 0.000000 0.000000 0.038307 0.000000
# 6 0.000000 0.000000 0.000000 0.000000 0.000000 0.033999
#
#
# Mechanical properties :
#
#
# Convention : Reuss Voigt Hill
#
# Bulk Modulus (GPa) = 39.10781 44.80087 41.95434
# Shear Modulus (GPa) = 28.46091 30.66397 29.56244
#
# Velocity S-wave (km/s) = 3.71283 3.85385 3.78400
# Velocity P-wave (km/s) = 6.10918 6.44223 6.27792
#
# Compressibility (1/GPa) = 0.02557034
#
# Stress axis : x y z
#
# Youngs Moduli (GPa) = 89.69209 109.81164 47.33313
#
# Poissons Ratio (x) = 0.21910 0.23911
# Poissons Ratio (y) = 0.17896 0.04067
# Poissons Ratio (z) = 0.45309 0.09435
#
# Static dielectric constant tensor:
#      x y z
#    x 3.838620 0.000000 0.000000 
#    y 0.000000 3.791860 0.000000 
#    z 0.000000 0.000000 3.594910 
# 
# 
# High freq. dielectric constant tensor:
#      x y z
#    x 1.816410 0.000000 0.000000 
#    y 0.000000 1.818670 0.000000 
#    z 0.000000 0.000000 1.804590 
# 
# From -- ./inp_files/6794.got.cif
#   From: 2010.06.25/outbox.cif.g09.slc.cpg/sg58_4_cif.got.tgz:6794.got - 2010.06.26 21:38:00.
