data_PCOD8238993
_publ_section_title
;
Structure prediction by ZEFSAII (Michael W. Deem and Ramdas Pophale) SiO2 
 PCOD8238993
Probable space group: P N N M
;
_chemical_formula_sum "Si O2"
_cell_formula_units_Z 64
_cell_length_a 23.123377
_cell_length_b 15.821238
_cell_length_c 9.857003
_cell_angle_alpha 90.000000
_cell_angle_beta 90.000000
_cell_angle_gamma 90.000000
_cell_volume 3606.090422
_symmetry_space_group_name_H-M "P N N M"
_symmetry_group_IT_number 58
_symmetry_cell_setting 'orthorhombic'
loop_
_space_group_symop_operation_xyz
x,y,z
-x,-y,z
1/2+x,1/2-y,1/2-z
1/2-x,1/2+y,1/2-z
-x,-y,-z
x,y,-z
1/2-x,1/2+y,1/2+z
1/2+x,1/2-y,1/2+z
loop_
_atom_site_type_symbol
_atom_site_label
_atom_site_fract_x
_atom_site_fract_y
_atom_site_fract_z
Si Si1 0.508635 0.095079 0.660253
Si Si2 0.200236 0.195410 0.154221
Si Si3 0.838793 0.981461 0.843210
Si Si4 0.361443 0.868407 0.656533
Si Si5 0.267268 0.921841 0.845915
Si Si6 0.295968 0.243842 0.654355
Si Si7 0.952176 0.065660 0.162187
Si Si8 0.428941 0.247218 0.661118
O O1 0.500178 0.091525 0.500000
O O2 0.572281 0.125790 0.701020
O O3 0.463564 0.165222 0.719608
O O4 0.500000 0.000000 0.720206
O O5 0.155803 0.118586 0.178374
O O6 0.160225 0.274649 0.187073
O O7 0.256402 0.185427 0.249657
O O8 0.223358 0.197311 0.000000
O O9 0.776243 0.008077 0.786116
O O10 0.892168 0.030194 0.775177
O O11 0.838948 0.008282 0.000000
O O12 0.353304 0.895019 0.500000
O O13 0.323399 0.929253 0.750842
O O14 0.230753 0.836344 0.835073
O O15 0.287747 0.938471 0.000000
O O16 0.293270 0.209921 0.500000
O O17 0.362043 0.243167 0.708310
O O18 0.958381 0.163761 0.210872
O O19 0.952824 0.062025 0.000000
O O20 0.000000 0.000000 0.219431
O O21 0.431579 0.246409 0.500000
#
# Coordination Sequence:
#
# PCOD8238993 Si02
#       8
#     8   8   8   8   8   8   8   8
#     4   9  18  30  43  62  90 123 155 189 230 271
#     4   9  18  29  44  68  96 122 146 182 231 280
#     4   9  16  27  42  65  96 120 145 185 235 279
#     4   9  18  31  47  67  93 122 153 187 228 272
#     4   9  16  29  48  66  90 122 151 185 228 271
#     4   9  16  29  47  67  90 119 156 189 221 267
#     4   9  16  24  40  66  92 118 149 187 233 281
#     4   9  16  27  44  65  91 120 152 193 232 269
#
# _framework density 17.747752999999999
#
# number of rings (size 3 to 8) (size 9 to 14) (size 15 to 20)
#    0.000    3.000    1.250    0.000    1.750    1.000 
#    0.000    1.875    0.000    1.125    0.000    0.000 
#    0.000    2.500    0.000    0.000    0.000    0.000 
#
# Total GULP energy -792984.861107 kJ/mol
# GULP energy per Si atom -12390.388455 kJ/mol
# Density = 1.770736 g / cm^3
# Si number density = 17.747753 Si / 1000 Ang^3
#
#
#
# Elastic Constant Matrix: (Units=GPa)
#
#
# Indices 1 2 3 4 5 6 
#
# 1 127.7894 53.0420 33.9084 0.0000 0.0000 0.0000
# 2 53.0420 102.0384 18.2514 0.0000 0.0000 0.0000
# 3 33.9084 18.2514 30.0668 0.0000 0.0000 0.0000
# 4 0.0000 0.0000 0.0000 10.5911 0.0000 0.0000
# 5 0.0000 0.0000 0.0000 0.0000 20.6319 0.0000
# 6 0.0000 0.0000 0.0000 0.0000 0.0000 22.8630
#
#
#
# Elastic Compliance Matrix: (Units=1/GPa)
#
#
# Indices 1 2 3 4 5 6 
#
# 1 0.012826 -0.004577 -0.011687 0.000000 0.000000 0.000000
# 2 -0.004577 0.012627 -0.002503 0.000000 0.000000 0.000000
# 3 -0.011687 -0.002503 0.047958 0.000000 0.000000 0.000000
# 4 0.000000 0.000000 0.000000 0.094419 0.000000 0.000000
# 5 0.000000 0.000000 0.000000 0.000000 0.048469 0.000000
# 6 0.000000 0.000000 0.000000 0.000000 0.000000 0.043739
#
#
# Mechanical properties :
#
#
# Convention : Reuss Voigt Hill
#
# Bulk Modulus (GPa) = 27.87206 52.25534 40.06370
# Shear Modulus (GPa) = 16.15345 21.13005 18.64175
#
# Velocity S-wave (km/s) = 3.02017 3.45422 3.24446
# Velocity P-wave (km/s) = 5.28210 6.73915 6.05461
#
# Compressibility (1/GPa) = 0.03587822
#
# Stress axis : x y z
#
# Youngs Moduli (GPa) = 77.96589 79.19400 20.85137
#
# Poissons Ratio (x) = 0.36247 0.24368
# Poissons Ratio (y) = 0.35685 0.05220
# Poissons Ratio (z) = 0.91115 0.19825
#
# Static dielectric constant tensor:
#      x y z
#    x 3.451690 0.000000 0.000000 
#    y 0.000000 3.456450 0.000000 
#    z 0.000000 0.000000 2.859000 
# 
# 
# High freq. dielectric constant tensor:
#      x y z
#    x 1.691820 0.000000 0.000000 
#    y 0.000000 1.692940 0.000000 
#    z 0.000000 0.000000 1.618490 
# 
# From -- ./inp_files/17194.got.cif
#   From: 2010.06.25/outbox.cif.g09.slc.cpg/sg58_9_cif.got.tgz:17194.got - 2010.06.26 21:38:00.
