data_PCOD8238562
_publ_section_title
;
Structure prediction by ZEFSAII (Michael W. Deem and Ramdas Pophale) SiO2 
 PCOD8238562
Probable space group: P N N M
;
_chemical_formula_sum "Si O2"
_cell_formula_units_Z 48
_cell_length_a 8.598232
_cell_length_b 9.373203
_cell_length_c 28.774923
_cell_angle_alpha 90.000000
_cell_angle_beta 90.000000
_cell_angle_gamma 90.000000
_cell_volume 2319.056621
_symmetry_space_group_name_H-M "P N N M"
_symmetry_group_IT_number 58
_symmetry_cell_setting 'orthorhombic'
loop_
_space_group_symop_operation_xyz
x,y,z
-x,-y,z
1/2+x,1/2-y,1/2-z
1/2-x,1/2+y,1/2-z
-x,-y,-z
x,y,-z
1/2-x,1/2+y,1/2+z
1/2+x,1/2-y,1/2+z
loop_
_atom_site_type_symbol
_atom_site_label
_atom_site_fract_x
_atom_site_fract_y
_atom_site_fract_z
Si Si1 0.894268 0.213114 0.212596
Si Si2 0.663621 0.226563 0.446760
Si Si3 0.848089 0.220090 0.892614
Si Si4 0.835684 0.940548 0.447051
Si Si5 0.234869 0.093001 0.216042
Si Si6 0.669773 0.937540 0.114533
O O1 0.873770 0.268672 0.160194
O O2 0.851042 0.345038 0.245489
O O3 0.071640 0.172144 0.221066
O O4 0.784226 0.076857 0.223085
O O5 0.651192 0.275955 0.500000
O O6 0.502132 0.256925 0.422015
O O7 0.803665 0.312647 0.422618
O O8 0.701808 0.059505 0.443352
O O9 0.706945 0.309679 0.914054
O O10 0.803933 0.054237 0.893795
O O11 0.850703 0.885434 0.500000
O O12 0.000000 0.000000 0.429392
O O13 0.311979 0.125686 0.166198
O O14 0.500000 0.000000 0.106595
#
# Coordination Sequence:
#
# PCOD8238562 Si02
#       6
#     8   8   8   8   8   8
#     4  10  23  42  63  92 125 162 208 260 315 380
#     4  11  23  41  66  95 128 169 216 265 317 380
#     4  11  22  41  63  92 126 168 211 262 320 379
#     4  10  22  41  63  92 131 167 209 263 313 371
#     4  10  23  43  64  91 126 162 209 260 316 378
#     4  11  24  41  64  91 130 167 211 266 319 379
#
# _framework density 20.698070000000001
#
# number of rings (size 3 to 8) (size 9 to 14) (size 15 to 20)
#    0.000    1.500    1.667    2.500    4.667    5.000 
#    6.000    0.000    0.000    0.000    0.000    0.000 
#    0.000    0.000    0.000    0.000    0.000    0.000 
#
# Total GULP energy -595506.578970 kJ/mol
# GULP energy per Si atom -12406.387062 kJ/mol
# Density = 2.065096 g / cm^3
# Si number density = 20.698070 Si / 1000 Ang^3
#
#
#
# Elastic Constant Matrix: (Units=GPa)
#
#
# Indices 1 2 3 4 5 6 
#
# 1 78.9087 0.9694 26.6014 0.0000 0.0000 0.0000
# 2 0.9694 40.6070 38.7991 0.0000 0.0000 0.0000
# 3 26.6014 38.7991 133.7031 0.0000 0.0000 0.0000
# 4 0.0000 0.0000 0.0000 29.8896 0.0000 0.0000
# 5 0.0000 0.0000 0.0000 0.0000 20.9786 0.0000
# 6 0.0000 0.0000 0.0000 0.0000 0.0000 35.0433
#
#
#
# Elastic Compliance Matrix: (Units=1/GPa)
#
#
# Indices 1 2 3 4 5 6 
#
# 1 0.013877 0.003192 -0.003687 0.000000 0.000000 0.000000
# 2 0.003192 0.034808 -0.010736 0.000000 0.000000 0.000000
# 3 -0.003687 -0.010736 0.011328 0.000000 0.000000 0.000000
# 4 0.000000 0.000000 0.000000 0.033456 0.000000 0.000000
# 5 0.000000 0.000000 0.000000 0.000000 0.047668 0.000000
# 6 0.000000 0.000000 0.000000 0.000000 0.000000 0.028536
#
#
# Mechanical properties :
#
#
# Convention : Reuss Voigt Hill
#
# Bulk Modulus (GPa) = 26.63099 42.88429 34.75764
# Shear Modulus (GPa) = 24.43169 29.63891 27.03530
#
# Velocity S-wave (km/s) = 3.43940 3.78824 3.61802
# Velocity P-wave (km/s) = 5.35415 6.31651 5.85514
#
# Compressibility (1/GPa) = 0.03755024
#
# Stress axis : x y z
#
# Youngs Moduli (GPa) = 72.06362 28.72906 88.27488
#
# Poissons Ratio (x) = -0.09169 0.32547
# Poissons Ratio (y) = -0.23000 0.94771
# Poissons Ratio (z) = 0.26570 0.30843
#
# Static dielectric constant tensor:
#      x y z
#    x 3.719120 0.000000 0.000000 
#    y 0.000000 3.754730 0.000000 
#    z 0.000000 0.000000 3.802960 
# 
# 
# High freq. dielectric constant tensor:
#      x y z
#    x 1.822300 0.000000 0.000000 
#    y 0.000000 1.806130 0.000000 
#    z 0.000000 0.000000 1.814370 
# 
# From -- ./inp_files/34531.got.cif
#   From: 2010.06.25/outbox.cif.g09.slc.cpg/sg58_18_cif.got.tgz:34531.got - 2010.06.26 21:38:00.
