data_PCOD8238747
_publ_section_title
;
Structure prediction by ZEFSAII (Michael W. Deem and Ramdas Pophale) SiO2 
 PCOD8238747
Probable space group: P N N M
;
_chemical_formula_sum "Si O2"
_cell_formula_units_Z 56
_cell_length_a 15.325696
_cell_length_b 9.453427
_cell_length_c 20.243156
_cell_angle_alpha 90.000000
_cell_angle_beta 90.000000
_cell_angle_gamma 90.000000
_cell_volume 2932.835493
_symmetry_space_group_name_H-M "P N N M"
_symmetry_group_IT_number 58
_symmetry_cell_setting 'orthorhombic'
loop_
_space_group_symop_operation_xyz
x,y,z
-x,-y,z
1/2+x,1/2-y,1/2-z
1/2-x,1/2+y,1/2-z
-x,-y,-z
x,y,-z
1/2-x,1/2+y,1/2+z
1/2+x,1/2-y,1/2+z
loop_
_atom_site_type_symbol
_atom_site_label
_atom_site_fract_x
_atom_site_fract_y
_atom_site_fract_z
Si Si1 0.197473 0.694106 0.185198
Si Si2 0.599050 0.543125 0.705375
Si Si3 0.292315 0.721168 0.687242
Si Si4 0.123406 0.865690 0.646229
Si Si5 0.467283 0.849900 0.132669
Si Si6 0.913040 0.559439 0.778022
Si Si7 0.830731 0.858695 0.423827
O O1 0.121015 0.807594 0.170929
O O2 0.269863 0.754280 0.235607
O O3 0.157726 0.564994 0.227516
O O4 0.240484 0.647350 0.116842
O O5 0.500000 0.500000 0.688405
O O6 0.671870 0.436431 0.675593
O O7 0.612278 0.555505 0.783909
O O8 0.210614 0.767695 0.642000
O O9 0.375413 0.821361 0.673390
O O10 0.044811 0.762138 0.631329
O O11 0.122846 0.991937 0.592840
O O12 0.436459 0.876781 0.206939
O O13 0.389368 0.779661 0.091065
O O14 0.500000 0.000000 0.101479
O O15 0.000000 0.500000 0.812588
O O16 0.805451 0.856959 0.500000
#
# Coordination Sequence:
#
# PCOD8238747 Si02
#       7
#     8   8   8   8   8   8   8
#     4  11  21  36  57  87 121 151 190 238 296 359
#     4  11  20  32  58  93 123 146 179 244 318 364
#     4  11  18  32  56  87 118 147 184 239 307 351
#     4  11  22  37  59  90 123 158 192 241 296 368
#     4  11  23  37  61  89 121 151 196 249 300 354
#     4  11  19  33  56  90 119 146 179 239 307 358
#     4  12  25  42  60  80 118 172 209 236 280 353
#
# _framework density 19.094148000000001
#
# number of rings (size 3 to 8) (size 9 to 14) (size 15 to 20)
#    0.000    0.857    4.286    7.286    2.000    1.429 
#    0.000    0.000    0.000    0.857    0.000    0.000 
#    0.000    0.000    0.000    0.000    0.000    0.000 
#
# Total GULP energy -694186.184729 kJ/mol
# GULP energy per Si atom -12396.181870 kJ/mol
# Density = 1.905069 g / cm^3
# Si number density = 19.094148 Si / 1000 Ang^3
#
#
#
# Elastic Constant Matrix: (Units=GPa)
#
#
# Indices 1 2 3 4 5 6 
#
# 1 84.2927 22.7881 23.0664 0.0000 0.0000 0.0000
# 2 22.7881 101.0201 10.4472 0.0000 0.0000 0.0000
# 3 23.0664 10.4472 47.7477 0.0000 0.0000 0.0000
# 4 0.0000 0.0000 0.0000 16.3604 0.0000 0.0000
# 5 0.0000 0.0000 0.0000 0.0000 11.9178 0.0000
# 6 0.0000 0.0000 0.0000 0.0000 0.0000 53.8109
#
#
#
# Elastic Compliance Matrix: (Units=1/GPa)
#
#
# Indices 1 2 3 4 5 6 
#
# 1 0.014294 -0.002568 -0.006343 0.000000 0.000000 0.000000
# 2 -0.002568 0.010590 -0.001076 0.000000 0.000000 0.000000
# 3 -0.006343 -0.001076 0.024243 0.000000 0.000000 0.000000
# 4 0.000000 0.000000 0.000000 0.061123 0.000000 0.000000
# 5 0.000000 0.000000 0.000000 0.000000 0.083908 0.000000
# 6 0.000000 0.000000 0.000000 0.000000 0.000000 0.018584
#
#
# Mechanical properties :
#
#
# Convention : Reuss Voigt Hill
#
# Bulk Modulus (GPa) = 34.30421 38.40713 36.35567
# Shear Modulus (GPa) = 20.62422 28.20175 24.41298
#
# Velocity S-wave (km/s) = 3.29010 3.84732 3.57957
# Velocity P-wave (km/s) = 5.69542 6.31618 6.01382
#
# Compressibility (1/GPa) = 0.02915094
#
# Stress axis : x y z
#
# Youngs Moduli (GPa) = 69.96174 94.43143 41.24868
#
# Poissons Ratio (x) = 0.24253 0.26164
# Poissons Ratio (y) = 0.17969 0.04440
# Poissons Ratio (z) = 0.44377 0.10164
#
# Static dielectric constant tensor:
#      x y z
#    x 3.796020 0.000000 0.000000 
#    y 0.000000 3.898950 0.000000 
#    z 0.000000 0.000000 2.845670 
# 
# 
# High freq. dielectric constant tensor:
#      x y z
#    x 1.760950 0.000000 0.000000 
#    y 0.000000 1.771920 0.000000 
#    z 0.000000 0.000000 1.657750 
# 
# From -- ./inp_files/29996.got.cif
#   From: 2010.06.25/outbox.cif.g09.slc.cpg/sg58_15_cif.got.tgz:29996.got - 2010.06.26 21:38:00.
