data_PCOD8238965
_publ_section_title
;
Structure prediction by ZEFSAII (Michael W. Deem and Ramdas Pophale) SiO2 
 PCOD8238965
Probable space group: P N N M
;
_chemical_formula_sum "Si O2"
_cell_formula_units_Z 32
_cell_length_a 8.070327
_cell_length_b 9.296169
_cell_length_c 19.447084
_cell_angle_alpha 90.000000
_cell_angle_beta 90.000000
_cell_angle_gamma 90.000000
_cell_volume 1458.980988
_symmetry_space_group_name_H-M "P N N M"
_symmetry_group_IT_number 58
_symmetry_cell_setting 'orthorhombic'
loop_
_space_group_symop_operation_xyz
x,y,z
-x,-y,z
1/2+x,1/2-y,1/2-z
1/2-x,1/2+y,1/2-z
-x,-y,-z
x,y,-z
1/2-x,1/2+y,1/2+z
1/2+x,1/2-y,1/2+z
loop_
_atom_site_type_symbol
_atom_site_label
_atom_site_fract_x
_atom_site_fract_y
_atom_site_fract_z
Si Si1 0.391619 0.132791 0.702691
Si Si2 0.620373 0.371091 0.688819
Si Si3 0.179254 0.808829 0.577744
Si Si4 0.307833 0.646168 0.922420
O O1 0.510760 0.257002 0.732659
O O2 0.260921 0.075192 0.758594
O O3 0.313378 0.210718 0.635050
O O4 0.500000 0.000000 0.677387
O O5 0.500000 0.500000 0.664628
O O6 0.707368 0.293164 0.624411
O O7 0.237849 0.780407 0.500000
O O8 0.984106 0.774026 0.585470
O O9 0.190882 0.976852 0.595963
O O10 0.240792 0.669928 0.000000
#
# Coordination Sequence:
#
# PCOD8238965 Si02
#       4
#     8   8   8   8
#     4  12  24  41  64  90 125 168 214 260 304 376
#     4  12  26  40  60  93 132 167 207 259 320 377
#     4   9  19  39  65  93 125 162 206 259 317 374
#     4   9  19  38  68  95 118 158 215 266 305 364
#
# _framework density 21.933115000000001
#
# number of rings (size 3 to 8) (size 9 to 14) (size 15 to 20)
#    0.000    1.500    2.500    4.500    3.500    2.000 
#    0.000    0.000    0.000    3.750    0.000    0.000 
#    0.000    0.000    0.000    0.000    0.000    0.000 
#
# Total GULP energy -396609.359961 kJ/mol
# GULP energy per Si atom -12394.042499 kJ/mol
# Density = 2.188319 g / cm^3
# Si number density = 21.933115 Si / 1000 Ang^3
#
#
#
# Elastic Constant Matrix: (Units=GPa)
#
#
# Indices 1 2 3 4 5 6 
#
# 1 115.5862 45.7419 59.6062 0.0000 0.0000 0.0000
# 2 45.7419 76.3430 24.5836 0.0000 0.0000 0.0000
# 3 59.6062 24.5836 114.7229 0.0000 0.0000 0.0000
# 4 0.0000 0.0000 0.0000 25.6652 0.0000 0.0000
# 5 0.0000 0.0000 0.0000 0.0000 27.1523 0.0000
# 6 0.0000 0.0000 0.0000 0.0000 0.0000 41.5028
#
#
#
# Elastic Compliance Matrix: (Units=1/GPa)
#
#
# Indices 1 2 3 4 5 6 
#
# 1 0.014425 -0.006691 -0.006061 0.000000 0.000000 0.000000
# 2 -0.006691 0.017173 -0.000203 0.000000 0.000000 0.000000
# 3 -0.006061 -0.000203 0.011909 0.000000 0.000000 0.000000
# 4 0.000000 0.000000 0.000000 0.038963 0.000000 0.000000
# 5 0.000000 0.000000 0.000000 0.000000 0.036829 0.000000
# 6 0.000000 0.000000 0.000000 0.000000 0.000000 0.024095
#
#
# Mechanical properties :
#
#
# Convention : Reuss Voigt Hill
#
# Bulk Modulus (GPa) = 56.82955 62.94617 59.88786
# Shear Modulus (GPa) = 28.54337 30.64543 29.59440
#
# Velocity S-wave (km/s) = 3.61138 3.74200 3.67727
# Velocity P-wave (km/s) = 6.58453 6.88705 6.73749
#
# Compressibility (1/GPa) = 0.01759648
#
# Stress axis : x y z
#
# Youngs Moduli (GPa) = 69.32372 58.22938 83.96788
#
# Poissons Ratio (x) = 0.38963 0.50892
# Poissons Ratio (y) = 0.46386 0.01709
# Poissons Ratio (z) = 0.42017 0.01185
#
# Static dielectric constant tensor:
#      x y z
#    x 4.418690 0.000000 0.000000 
#    y 0.000000 3.594400 0.000000 
#    z 0.000000 0.000000 3.825770 
# 
# 
# High freq. dielectric constant tensor:
#      x y z
#    x 1.880950 0.000000 0.000000 
#    y 0.000000 1.828860 0.000000 
#    z 0.000000 0.000000 1.862250 
# 
# From -- ./inp_files/31230.got.cif
#   From: 2010.06.25/outbox.cif.g09.slc.cpg/sg58_16_cif.got.tgz:31230.got - 2010.06.26 21:38:00.
