data_PCOD8238350
_publ_section_title
;
Structure prediction by ZEFSAII (Michael W. Deem and Ramdas Pophale) SiO2 
 PCOD8238350
Probable space group: P N N M
;
_chemical_formula_sum "Si O2"
_cell_formula_units_Z 48
_cell_length_a 6.095863
_cell_length_b 13.135498
_cell_length_c 29.849377
_cell_angle_alpha 90.000000
_cell_angle_beta 90.000000
_cell_angle_gamma 90.000000
_cell_volume 2390.105173
_symmetry_space_group_name_H-M "P N N M"
_symmetry_group_IT_number 58
_symmetry_cell_setting 'orthorhombic'
loop_
_space_group_symop_operation_xyz
x,y,z
-x,-y,z
1/2+x,1/2-y,1/2-z
1/2-x,1/2+y,1/2-z
-x,-y,-z
x,y,-z
1/2-x,1/2+y,1/2+z
1/2+x,1/2-y,1/2+z
loop_
_atom_site_type_symbol
_atom_site_label
_atom_site_fract_x
_atom_site_fract_y
_atom_site_fract_z
Si Si1 0.852749 0.093773 0.728576
Si Si2 0.818814 0.342787 0.617995
Si Si3 0.196658 0.329194 0.448778
Si Si4 0.000000 0.500000 0.161846
Si Si5 0.566778 0.796132 0.621542
Si Si6 0.000000 0.000000 0.915135
Si Si7 0.625391 0.214227 0.194158
O O1 0.693029 0.139626 0.766022
O O2 0.014957 0.181974 0.711492
O O3 0.694751 0.051098 0.690002
O O4 0.000000 0.000000 0.746903
O O5 0.687098 0.236049 0.616145
O O6 0.651536 0.436495 0.618677
O O7 0.964159 0.355260 0.573434
O O8 0.957726 0.348573 0.663290
O O9 0.157397 0.298740 0.500000
O O10 0.298444 0.232904 0.422837
O O11 0.358920 0.425661 0.446497
O O12 0.902122 0.415703 0.128561
O O13 0.659423 0.739209 0.665476
#
# Coordination Sequence:
#
# PCOD8238350 Si02
#       7
#     8   8   8   4   8   4   8
#     4  12  26  43  67  95 129 176 223 277 325 385
#     4  10  22  41  62  89 132 167 205 266 320 389
#     4  10  22  41  65  95 130 167 206 265 327 392
#     4  12  22  44  69  92 118 174 219 266 326 376
#     4  10  22  42  67  90 125 165 215 263 318 390
#     4  10  21  40  64  98 122 172 212 254 320 400
#     4  11  24  45  61  94 131 166 222 271 321 384
#
# _framework density 20.082798
#
# number of rings (size 3 to 8) (size 9 to 14) (size 15 to 20)
#    0.000    1.333    3.333    1.750    0.000    4.000 
#   25.500    0.417    0.000    1.000    0.000    0.000 
#    0.000    0.000    0.000    0.000    0.000    0.000 
#
# Total GULP energy -595293.789195 kJ/mol
# GULP energy per Si atom -12401.953942 kJ/mol
# Density = 2.003709 g / cm^3
# Si number density = 20.082798 Si / 1000 Ang^3
#
#
#
# Elastic Constant Matrix: (Units=GPa)
#
#
# Indices 1 2 3 4 5 6 
#
# 1 118.9320 58.7287 56.4983 0.0000 0.0000 0.0000
# 2 58.7287 140.8261 74.6597 0.0000 0.0000 0.0000
# 3 56.4983 74.6597 131.2202 0.0000 0.0000 0.0000
# 4 0.0000 0.0000 0.0000 15.8125 0.0000 0.0000
# 5 0.0000 0.0000 0.0000 0.0000 9.1587 0.0000
# 6 0.0000 0.0000 0.0000 0.0000 0.0000 35.3184
#
#
#
# Elastic Compliance Matrix: (Units=1/GPa)
#
#
# Indices 1 2 3 4 5 6 
#
# 1 0.011439 -0.003092 -0.003166 0.000000 0.000000 0.000000
# 2 -0.003092 0.011004 -0.004930 0.000000 0.000000 0.000000
# 3 -0.003166 -0.004930 0.011789 0.000000 0.000000 0.000000
# 4 0.000000 0.000000 0.000000 0.063241 0.000000 0.000000
# 5 0.000000 0.000000 0.000000 0.000000 0.109186 0.000000
# 6 0.000000 0.000000 0.000000 0.000000 0.000000 0.028314
#
#
# Mechanical properties :
#
#
# Convention : Reuss Voigt Hill
#
# Bulk Modulus (GPa) = 84.34142 85.63906 84.99024
# Shear Modulus (GPa) = 19.13518 25.46404 22.29961
#
# Velocity S-wave (km/s) = 3.09012 3.56470 3.33586
# Velocity P-wave (km/s) = 7.40404 7.72517 7.56631
#
# Compressibility (1/GPa) = 0.01185657
#
# Stress axis : x y z
#
# Youngs Moduli (GPa) = 87.42063 90.87780 84.82752
#
# Poissons Ratio (x) = 0.28099 0.26856
# Poissons Ratio (y) = 0.27030 0.41816
# Poissons Ratio (z) = 0.27677 0.44798
#
# Static dielectric constant tensor:
#      x y z
#    x 3.937530 0.000000 0.000000 
#    y 0.000000 3.786970 0.000000 
#    z 0.000000 0.000000 3.443600 
# 
# 
# High freq. dielectric constant tensor:
#      x y z
#    x 1.804110 0.000000 0.000000 
#    y 0.000000 1.782980 0.000000 
#    z 0.000000 0.000000 1.766570 
# 
# From -- ./inp_files/32854.got.cif
#   From: 2010.06.25/outbox.cif.g09.slc.cpg/sg58_17_cif.got.tgz:32854.got - 2010.06.26 21:38:00.
