data_PCOD8238081
_publ_section_title
;
Structure prediction by ZEFSAII (Michael W. Deem and Ramdas Pophale) SiO2 
 PCOD8238081
Probable space group: P N N M
;
_chemical_formula_sum "Si O2"
_cell_formula_units_Z 40
_cell_length_a 20.672038
_cell_length_b 4.914454
_cell_length_c 18.119768
_cell_angle_alpha 90.000000
_cell_angle_beta 90.000000
_cell_angle_gamma 90.000000
_cell_volume 1840.819481
_symmetry_space_group_name_H-M "P N N M"
_symmetry_group_IT_number 58
_symmetry_cell_setting 'orthorhombic'
loop_
_space_group_symop_operation_xyz
x,y,z
-x,-y,z
1/2+x,1/2-y,1/2-z
1/2-x,1/2+y,1/2-z
-x,-y,-z
x,y,-z
1/2-x,1/2+y,1/2+z
1/2+x,1/2-y,1/2+z
loop_
_atom_site_type_symbol
_atom_site_label
_atom_site_fract_x
_atom_site_fract_y
_atom_site_fract_z
Si Si1 0.626287 0.100427 0.917432
Si Si2 0.705983 0.032823 0.324450
Si Si3 0.456611 0.241997 0.186217
Si Si4 0.224334 0.981038 0.082153
Si Si5 0.846604 0.930588 0.282683
O O1 0.698922 0.986433 0.915970
O O2 0.627519 0.364077 0.864948
O O3 0.575885 0.877435 0.888100
O O4 0.606367 0.187971 0.000000
O O5 0.698245 0.223394 0.396237
O O6 0.776177 0.071684 0.284966
O O7 0.654259 0.148586 0.264639
O O8 0.696675 0.726625 0.354976
O O9 0.500000 0.500000 0.163982
O O10 0.399955 0.345257 0.243740
O O11 0.500000 0.000000 0.223091
O O12 0.200171 0.900948 0.000000
#
# Coordination Sequence:
#
# PCOD8238081 Si02
#       5
#     8   8   8   8   8
#     4  10  22  39  58  81 118 164 211 254 291 337
#     4  11  22  35  64  85 117 155 193 255 300 376
#     4  12  25  41  57  79 119 164 213 263 286 341
#     4  10  21  37  58  90 122 153 192 244 310 365
#     4  11  23  40  60  90 116 157 214 247 314 351
#
# _framework density 21.729455000000002
#
# number of rings (size 3 to 8) (size 9 to 14) (size 15 to 20)
#    0.000    1.200    4.000    3.000    2.800    2.400 
#    0.000    0.000    0.000    0.000    0.000    0.000 
#    0.000   16.000    0.000    0.000    0.000    0.000 
#
# Total GULP energy -495619.453759 kJ/mol
# GULP energy per Si atom -12390.486344 kJ/mol
# Density = 2.168000 g / cm^3
# Si number density = 21.729455 Si / 1000 Ang^3
#
#
#
# Elastic Constant Matrix: (Units=GPa)
#
#
# Indices 1 2 3 4 5 6 
#
# 1 50.3265 27.5426 12.0584 0.0000 0.0000 0.0000
# 2 27.5426 113.6251 14.7022 0.0000 0.0000 0.0000
# 3 12.0584 14.7022 64.9939 0.0000 0.0000 0.0000
# 4 0.0000 0.0000 0.0000 32.4619 0.0000 0.0000
# 5 0.0000 0.0000 0.0000 0.0000 7.7829 0.0000
# 6 0.0000 0.0000 0.0000 0.0000 0.0000 45.6950
#
#
#
# Elastic Compliance Matrix: (Units=1/GPa)
#
#
# Indices 1 2 3 4 5 6 
#
# 1 0.023526 -0.005293 -0.003167 0.000000 0.000000 0.000000
# 2 -0.005293 0.010257 -0.001338 0.000000 0.000000 0.000000
# 3 -0.003167 -0.001338 0.016276 0.000000 0.000000 0.000000
# 4 0.000000 0.000000 0.000000 0.030805 0.000000 0.000000
# 5 0.000000 0.000000 0.000000 0.000000 0.128487 0.000000
# 6 0.000000 0.000000 0.000000 0.000000 0.000000 0.021884
#
#
# Mechanical properties :
#
#
# Convention : Reuss Voigt Hill
#
# Bulk Modulus (GPa) = 32.82754 37.50575 35.16665
# Shear Modulus (GPa) = 19.15803 28.83077 23.99440
#
# Velocity S-wave (km/s) = 2.97250 3.64649 3.32661
# Velocity P-wave (km/s) = 5.18856 5.91836 5.56544
#
# Compressibility (1/GPa) = 0.03046223
#
# Stress axis : x y z
#
# Youngs Moduli (GPa) = 42.50647 97.49448 61.43844
#
# Poissons Ratio (x) = 0.51602 0.19461
# Poissons Ratio (y) = 0.22498 0.08222
# Poissons Ratio (z) = 0.13464 0.13047
#
# Static dielectric constant tensor:
#      x y z
#    x 4.029580 0.000000 0.000000 
#    y 0.000000 4.077640 0.000000 
#    z 0.000000 0.000000 3.902790 
# 
# 
# High freq. dielectric constant tensor:
#      x y z
#    x 1.819360 0.000000 0.000000 
#    y 0.000000 1.878610 0.000000 
#    z 0.000000 0.000000 1.825340 
# 
# From -- ./inp_files/27430.got.cif
#   From: 2010.06.25/outbox.cif.g09.slc.cpg/sg58_14_cif.got.tgz:27430.got - 2010.06.26 21:38:00.
