data_PCOD8238722
_publ_section_title
;
Structure prediction by ZEFSAII (Michael W. Deem and Ramdas Pophale) SiO2 
 PCOD8238722
Probable space group: P N N M
;
_chemical_formula_sum "Si O2"
_cell_formula_units_Z 48
_cell_length_a 8.390452
_cell_length_b 7.655347
_cell_length_c 30.931944
_cell_angle_alpha 90.000000
_cell_angle_beta 90.000000
_cell_angle_gamma 90.000000
_cell_volume 1986.815107
_symmetry_space_group_name_H-M "P N N M"
_symmetry_group_IT_number 58
_symmetry_cell_setting 'orthorhombic'
loop_
_space_group_symop_operation_xyz
x,y,z
-x,-y,z
1/2+x,1/2-y,1/2-z
1/2-x,1/2+y,1/2-z
-x,-y,-z
x,y,-z
1/2-x,1/2+y,1/2+z
1/2+x,1/2-y,1/2+z
loop_
_atom_site_type_symbol
_atom_site_label
_atom_site_fract_x
_atom_site_fract_y
_atom_site_fract_z
Si Si1 0.321595 0.435609 0.090816
Si Si2 0.307350 0.282143 0.608378
Si Si3 0.360763 0.774498 0.803527
Si Si4 0.808710 0.336066 0.274381
Si Si5 0.176750 0.568782 0.450848
Si Si6 0.907008 0.672697 0.838963
O O1 0.500000 0.500000 0.094745
O O2 0.213132 0.606910 0.078389
O O3 0.308384 0.277159 0.056586
O O4 0.258731 0.365933 0.136619
O O5 0.169483 0.261851 0.645197
O O6 0.291174 0.458300 0.580634
O O7 0.480935 0.291603 0.630306
O O8 0.225230 0.665144 0.777381
O O9 0.540632 0.717448 0.790075
O O10 0.338646 0.971198 0.789187
O O11 0.642682 0.270390 0.295411
O O12 0.227435 0.531385 0.500000
O O13 0.000000 0.500000 0.441475
O O14 0.000000 0.500000 0.825760
#
# Coordination Sequence:
#
# PCOD8238722 Si02
#       6
#     8   8   8   8   8   8
#     4  11  22  41  71  99 135 181 235 288 357 424
#     4  11  24  45  70 104 138 189 239 297 362 429
#     4  11  26  42  68 101 144 189 239 290 352 414
#     4  11  25  43  66 100 142 189 239 293 345 414
#     4  11  25  44  72 107 140 181 237 301 368 439
#     4  10  24  43  70  99 141 186 241 295 352 428
#
# _framework density 24.159267
#
# number of rings (size 3 to 8) (size 9 to 14) (size 15 to 20)
#    0.000    1.167    1.667    3.000    9.333    5.667 
#    0.000    1.667    0.000    3.000    0.000    0.000 
#    0.000    0.000    0.000    0.000    0.000    0.000 
#
# Total GULP energy -595104.160846 kJ/mol
# GULP energy per Si atom -12398.003351 kJ/mol
# Density = 2.410428 g / cm^3
# Si number density = 24.159267 Si / 1000 Ang^3
#
#
#
# Elastic Constant Matrix: (Units=GPa)
#
#
# Indices 1 2 3 4 5 6 
#
# 1 101.3401 38.6493 41.6365 0.0000 0.0000 0.0000
# 2 38.6493 111.8193 49.7587 0.0000 0.0000 0.0000
# 3 41.6365 49.7587 113.8226 0.0000 0.0000 0.0000
# 4 0.0000 0.0000 0.0000 33.1288 0.0000 0.0000
# 5 0.0000 0.0000 0.0000 0.0000 23.0400 0.0000
# 6 0.0000 0.0000 0.0000 0.0000 0.0000 35.5878
#
#
#
# Elastic Compliance Matrix: (Units=1/GPa)
#
#
# Indices 1 2 3 4 5 6 
#
# 1 0.012275 -0.002787 -0.003272 0.000000 0.000000 0.000000
# 2 -0.002787 0.011736 -0.004111 0.000000 0.000000 0.000000
# 3 -0.003272 -0.004111 0.011780 0.000000 0.000000 0.000000
# 4 0.000000 0.000000 0.000000 0.030185 0.000000 0.000000
# 5 0.000000 0.000000 0.000000 0.000000 0.043403 0.000000
# 6 0.000000 0.000000 0.000000 0.000000 0.000000 0.028100
#
#
# Mechanical properties :
#
#
# Convention : Reuss Voigt Hill
#
# Bulk Modulus (GPa) = 64.72121 65.23010 64.97566
# Shear Modulus (GPa) = 30.68106 31.48048 31.08077
#
# Velocity S-wave (km/s) = 3.56750 3.61368 3.59067
# Velocity P-wave (km/s) = 6.61944 6.66860 6.64407
#
# Compressibility (1/GPa) = 0.01545088
#
# Stress axis : x y z
#
# Youngs Moduli (GPa) = 81.46725 85.21128 84.89248
#
# Poissons Ratio (x) = 0.23746 0.27776
# Poissons Ratio (y) = 0.22703 0.34899
# Poissons Ratio (z) = 0.26655 0.35030
#
# Static dielectric constant tensor:
#      x y z
#    x 4.640370 0.000000 0.000000 
#    y 0.000000 4.521840 0.000000 
#    z 0.000000 0.000000 4.212330 
# 
# 
# High freq. dielectric constant tensor:
#      x y z
#    x 1.967190 0.000000 0.000000 
#    y 0.000000 1.968950 0.000000 
#    z 0.000000 0.000000 1.932340 
# 
# From -- ./inp_files/34559.got.cif
#   From: 2010.06.25/outbox.cif.g09.slc.cpg/sg58_18_cif.got.tgz:34559.got - 2010.06.26 21:38:00.
