data_PCOD8238609
_publ_section_title
;
Structure prediction by ZEFSAII (Michael W. Deem and Ramdas Pophale) SiO2 
 PCOD8238609
Probable space group: P N N M
;
_chemical_formula_sum "Si O2"
_cell_formula_units_Z 48
_cell_length_a 17.338497
_cell_length_b 8.779076
_cell_length_c 15.439219
_cell_angle_alpha 90.000000
_cell_angle_beta 90.000000
_cell_angle_gamma 90.000000
_cell_volume 2350.095895
_symmetry_space_group_name_H-M "P N N M"
_symmetry_group_IT_number 58
_symmetry_cell_setting 'orthorhombic'
loop_
_space_group_symop_operation_xyz
x,y,z
-x,-y,z
1/2+x,1/2-y,1/2-z
1/2-x,1/2+y,1/2-z
-x,-y,-z
x,y,-z
1/2-x,1/2+y,1/2+z
1/2+x,1/2-y,1/2+z
loop_
_atom_site_type_symbol
_atom_site_label
_atom_site_fract_x
_atom_site_fract_y
_atom_site_fract_z
Si Si1 0.235895 0.454631 0.159709
Si Si2 0.947713 0.645111 0.345787
Si Si3 0.691439 0.721355 0.000000
Si Si4 0.940729 0.628243 0.849680
Si Si5 0.780604 0.020043 0.000000
Si Si6 0.558657 0.363057 0.500000
Si Si7 0.487225 0.325456 0.000000
Si Si8 0.228609 0.309647 0.339608
O O1 0.144079 0.446202 0.146230
O O2 0.260471 0.373627 0.249012
O O3 0.267129 0.626893 0.160992
O O4 0.277233 0.363158 0.084188
O O5 0.961692 0.691408 0.245847
O O6 0.856323 0.622198 0.357885
O O7 0.000000 0.500000 0.369558
O O8 0.972059 0.773943 0.412010
O O9 0.711044 0.899840 0.000000
O O10 0.600437 0.722348 0.000000
O O11 0.000000 0.500000 0.879177
O O12 0.952840 0.767138 0.913582
O O13 0.781882 0.127879 0.916185
O O14 0.855476 0.919510 0.000000
O O15 0.500000 0.500000 0.500000
O O16 0.500000 0.500000 0.000000
#
# Coordination Sequence:
#
# PCOD8238609 Si02
#       8
#     8   8   4   8   4   4   4   8
#     4  11  23  42  65  98 131 173 221 275 336 400
#     4  10  22  43  65  94 129 175 219 261 323 403
#     4  12  23  42  66  94 138 170 211 278 332 396
#     4  10  23  44  68  91 131 179 221 272 337 400
#     4  12  24  42  64  99 129 174 219 270 339 394
#     4  12  27  43  64  96 133 172 226 282 329 394
#     4  12  24  39  64 100 130 168 213 267 331 387
#     4  11  24  40  69  95 132 172 222 272 331 399
#
# _framework density 20.424699
#
# number of rings (size 3 to 8) (size 9 to 14) (size 15 to 20)
#    0.000    1.000    1.667    4.500    4.667    3.333 
#    0.000    0.000    0.000    0.000    0.000    0.000 
#    0.000    0.000    0.000    0.000    0.000    0.000 
#
# Total GULP energy -595298.391755 kJ/mol
# GULP energy per Si atom -12402.049828 kJ/mol
# Density = 2.037821 g / cm^3
# Si number density = 20.424699 Si / 1000 Ang^3
#
#
#
# Elastic Constant Matrix: (Units=GPa)
#
#
# Indices 1 2 3 4 5 6 
#
# 1 68.3193 8.4510 34.7800 0.0000 0.0000 0.0000
# 2 8.4510 115.6053 66.9511 0.0000 0.0000 0.0000
# 3 34.7800 66.9511 164.7779 0.0000 0.0000 0.0000
# 4 0.0000 0.0000 0.0000 40.8405 0.0000 0.0000
# 5 0.0000 0.0000 0.0000 0.0000 7.1408 0.0000
# 6 0.0000 0.0000 0.0000 0.0000 0.0000 38.5134
#
#
#
# Elastic Compliance Matrix: (Units=1/GPa)
#
#
# Indices 1 2 3 4 5 6 
#
# 1 0.016498 0.001060 -0.003913 0.000000 0.000000 0.000000
# 2 0.001060 0.011380 -0.004848 0.000000 0.000000 0.000000
# 3 -0.003913 -0.004848 0.008864 0.000000 0.000000 0.000000
# 4 0.000000 0.000000 0.000000 0.024486 0.000000 0.000000
# 5 0.000000 0.000000 0.000000 0.000000 0.140041 0.000000
# 6 0.000000 0.000000 0.000000 0.000000 0.000000 0.025965
#
#
# Mechanical properties :
#
#
# Convention : Reuss Voigt Hill
#
# Bulk Modulus (GPa) = 46.85720 63.22964 55.04342
# Shear Modulus (GPa) = 20.02014 33.20029 26.61022
#
# Velocity S-wave (km/s) = 3.13420 4.03612 3.61341
# Velocity P-wave (km/s) = 6.00740 7.26258 6.66460
#
# Compressibility (1/GPa) = 0.02134144
#
# Stress axis : x y z
#
# Youngs Moduli (GPa) = 60.61317 87.87316 112.81164
#
# Poissons Ratio (x) = -0.09316 0.44143
# Poissons Ratio (y) = -0.06426 0.54686
# Poissons Ratio (z) = 0.23718 0.42597
#
# Static dielectric constant tensor:
#      x y z
#    x 3.802100 0.000000 0.000000 
#    y 0.000000 3.572320 0.000000 
#    z 0.000000 0.000000 4.049440 
# 
# 
# High freq. dielectric constant tensor:
#      x y z
#    x 1.804150 0.000000 0.000000 
#    y 0.000000 1.801280 0.000000 
#    z 0.000000 0.000000 1.823210 
# 
# From -- ./inp_files/19927.got.cif
#   From: 2010.06.25/outbox.cif.g09.slc.cpg/sg58_10_cif.got.tgz:19927.got - 2010.06.26 21:38:00.
