data_PCOD8238174
_publ_section_title
;
Structure prediction by ZEFSAII (Michael W. Deem and Ramdas Pophale) SiO2 
 PCOD8238174
Probable space group: P N N M
;
_chemical_formula_sum "Si O2"
_cell_formula_units_Z 64
_cell_length_a 18.657669
_cell_length_b 19.836733
_cell_length_c 8.403998
_cell_angle_alpha 90.000000
_cell_angle_beta 90.000000
_cell_angle_gamma 90.000000
_cell_volume 3110.380155
_symmetry_space_group_name_H-M "P N N M"
_symmetry_group_IT_number 58
_symmetry_cell_setting 'orthorhombic'
loop_
_space_group_symop_operation_xyz
x,y,z
-x,-y,z
1/2+x,1/2-y,1/2-z
1/2-x,1/2+y,1/2-z
-x,-y,-z
x,y,-z
1/2-x,1/2+y,1/2+z
1/2+x,1/2-y,1/2+z
loop_
_atom_site_type_symbol
_atom_site_label
_atom_site_fract_x
_atom_site_fract_y
_atom_site_fract_z
Si Si1 0.354265 0.735979 0.685280
Si Si2 0.287924 0.478048 0.311880
Si Si3 0.445025 0.440416 0.313755
Si Si4 0.163257 0.379368 0.685017
Si Si5 0.483866 0.924662 0.683725
Si Si6 0.243922 0.623387 0.310579
Si Si7 0.006752 0.799985 0.685935
Si Si8 0.904607 0.323555 0.684349
O O1 0.342790 0.751198 0.500000
O O2 0.327012 0.800319 0.783502
O O3 0.307514 0.672698 0.743086
O O4 0.436644 0.719126 0.715343
O O5 0.292228 0.484677 0.500000
O O6 0.367278 0.461885 0.247453
O O7 0.234889 0.418146 0.259748
O O8 0.260245 0.549124 0.239967
O O9 0.500000 0.500000 0.277522
O O10 0.443315 0.422414 0.500000
O O11 0.470339 0.375894 0.216593
O O12 0.147252 0.392489 0.500000
O O13 0.098945 0.408648 0.789092
O O14 0.503502 0.913819 0.500000
O O15 0.531914 0.876048 0.789153
O O16 0.500000 0.000000 0.740244
O O17 0.238958 0.618974 0.500000
O O18 0.169379 0.651202 0.234751
O O19 0.990616 0.788537 0.500000
O O20 0.070163 0.749960 0.746362
O O21 0.888405 0.317672 0.500000
#
# Coordination Sequence:
#
# PCOD8238174 Si02
#       8
#     8   8   8   8   8   8   8   8
#     4  11  22  38  63  88 117 157 200 248 300 356
#     4   9  19  36  59  88 118 152 201 252 294 353
#     4  10  21  39  64  90 118 159 208 253 303 359
#     4  11  22  37  58  86 119 157 198 242 296 355
#     4  11  23  38  58  86 119 154 196 241 289 347
#     4   9  19  37  61  87 114 153 202 245 295 355
#     4  11  23  38  59  89 124 158 199 248 300 359
#     4  10  21  38  60  87 119 158 200 243 294 359
#
# _framework density 20.576262
#
# number of rings (size 3 to 8) (size 9 to 14) (size 15 to 20)
#    0.000    1.750    1.250    3.000    1.750    4.750 
#    0.000    1.875    0.000    5.250    0.000    0.000 
#    0.000    0.000    0.000    0.000    0.000    0.000 
#
# Total GULP energy -793789.993833 kJ/mol
# GULP energy per Si atom -12402.968654 kJ/mol
# Density = 2.052943 g / cm^3
# Si number density = 20.576262 Si / 1000 Ang^3
#
#
#
# Elastic Constant Matrix: (Units=GPa)
#
#
# Indices 1 2 3 4 5 6 
#
# 1 148.1915 67.7600 9.4947 0.0000 0.0000 0.0000
# 2 67.7600 159.4936 12.7095 0.0000 0.0000 0.0000
# 3 9.4947 12.7095 18.0851 0.0000 0.0000 0.0000
# 4 0.0000 0.0000 0.0000 27.7538 0.0000 0.0000
# 5 0.0000 0.0000 0.0000 0.0000 12.0817 0.0000
# 6 0.0000 0.0000 0.0000 0.0000 0.0000 44.2238
#
#
#
# Elastic Compliance Matrix: (Units=1/GPa)
#
#
# Indices 1 2 3 4 5 6 
#
# 1 0.008444 -0.003426 -0.002026 0.000000 0.000000 0.000000
# 2 -0.003426 0.008032 -0.003846 0.000000 0.000000 0.000000
# 3 -0.002026 -0.003846 0.059060 0.000000 0.000000 0.000000
# 4 0.000000 0.000000 0.000000 0.036031 0.000000 0.000000
# 5 0.000000 0.000000 0.000000 0.000000 0.082770 0.000000
# 6 0.000000 0.000000 0.000000 0.000000 0.000000 0.022612
#
#
# Mechanical properties :
#
#
# Convention : Reuss Voigt Hill
#
# Bulk Modulus (GPa) = 17.56184 56.18874 36.87529
# Shear Modulus (GPa) = 19.64441 32.53226 26.08833
#
# Velocity S-wave (km/s) = 3.09319 3.98057 3.56460
# Velocity P-wave (km/s) = 4.61635 6.96372 5.90779
#
# Compressibility (1/GPa) = 0.05694163
#
# Stress axis : x y z
#
# Youngs Moduli (GPa) = 118.42169 124.50385 16.93184
#
# Poissons Ratio (x) = 0.42657 0.03430
# Poissons Ratio (y) = 0.40573 0.06512
# Poissons Ratio (z) = 0.23987 0.47881
#
# Static dielectric constant tensor:
#      x y z
#    x 3.943110 0.000000 0.000000 
#    y 0.000000 3.949580 0.000000 
#    z 0.000000 0.000000 3.376010 
# 
# 
# High freq. dielectric constant tensor:
#      x y z
#    x 1.815880 0.000000 0.000000 
#    y 0.000000 1.821370 0.000000 
#    z 0.000000 0.000000 1.773610 
# 
# From -- ./inp_files/8379.got.cif
#   From: 2010.06.25/outbox.cif.g09.slc.cpg/sg58_5_cif.got.tgz:8379.got - 2010.06.26 21:38:00.
