data_PCOD8238511
_publ_section_title
;
Structure prediction by ZEFSAII (Michael W. Deem and Ramdas Pophale) SiO2 
 PCOD8238511
Probable space group: P N N M
;
_chemical_formula_sum "Si O2"
_cell_formula_units_Z 48
_cell_length_a 12.371971
_cell_length_b 21.868672
_cell_length_c 8.438085
_cell_angle_alpha 90.000000
_cell_angle_beta 90.000000
_cell_angle_gamma 90.000000
_cell_volume 2282.996260
_symmetry_space_group_name_H-M "P N N M"
_symmetry_group_IT_number 58
_symmetry_cell_setting 'orthorhombic'
loop_
_space_group_symop_operation_xyz
x,y,z
-x,-y,z
1/2+x,1/2-y,1/2-z
1/2-x,1/2+y,1/2-z
-x,-y,-z
x,y,-z
1/2-x,1/2+y,1/2+z
1/2+x,1/2-y,1/2+z
loop_
_atom_site_type_symbol
_atom_site_label
_atom_site_fract_x
_atom_site_fract_y
_atom_site_fract_z
Si Si1 0.742530 0.601227 0.816657
Si Si2 0.484800 0.431581 0.313932
Si Si3 0.360563 0.134282 0.314324
Si Si4 0.375580 0.005238 0.817279
Si Si5 0.580071 0.194203 0.312920
Si Si6 0.144918 0.172942 0.812097
O O1 0.631017 0.597569 0.722417
O O2 0.808532 0.538966 0.795207
O O3 0.815529 0.656966 0.747969
O O4 0.714839 0.610566 0.000000
O O5 0.500000 0.500000 0.239298
O O6 0.498532 0.436644 0.500000
O O7 0.576160 0.385153 0.248799
O O8 0.371166 0.120218 0.500000
O O9 0.469111 0.165613 0.245566
O O10 0.258925 0.177387 0.278065
O O11 0.336050 0.073359 0.215689
O O12 0.500000 0.000000 0.769429
O O13 0.354388 0.988107 0.000000
O O14 0.579123 0.186690 0.500000
O O15 0.583449 0.264917 0.262681
O O16 0.163250 0.170150 0.000000
#
# Coordination Sequence:
#
# PCOD8238511 Si02
#       6
#     8   8   8   8   8   8
#     4  11  22  38  62  89 123 159 200 253 306 362
#     4  10  22  40  62  88 121 160 205 254 307 365
#     4  11  22  39  63  90 122 156 201 251 303 358
#     4  11  22  37  59  89 121 156 199 243 299 363
#     4   9  21  39  58  86 123 163 197 245 310 359
#     4  10  22  41  62  85 123 167 206 250 303 361
#
# _framework density 21.025001
#
# number of rings (size 3 to 8) (size 9 to 14) (size 15 to 20)
#    0.000    1.667    1.667    2.500    2.333    3.000 
#    0.000    2.500    0.000    0.000    0.000    0.000 
#    0.000    0.000    0.000    0.000    0.000    0.000 
#
# Total GULP energy -595317.350711 kJ/mol
# GULP energy per Si atom -12402.444806 kJ/mol
# Density = 2.097715 g / cm^3
# Si number density = 21.025001 Si / 1000 Ang^3
#
#
#
# Elastic Constant Matrix: (Units=GPa)
#
#
# Indices 1 2 3 4 5 6 
#
# 1 132.9226 56.7770 7.7480 0.0000 0.0000 0.0000
# 2 56.7770 147.8888 11.9474 0.0000 0.0000 0.0000
# 3 7.7480 11.9474 15.7316 0.0000 0.0000 0.0000
# 4 0.0000 0.0000 0.0000 14.3641 0.0000 0.0000
# 5 0.0000 0.0000 0.0000 0.0000 29.5560 0.0000
# 6 0.0000 0.0000 0.0000 0.0000 0.0000 29.5055
#
#
#
# Elastic Compliance Matrix: (Units=1/GPa)
#
#
# Indices 1 2 3 4 5 6 
#
# 1 0.009054 -0.003319 -0.001938 0.000000 0.000000 0.000000
# 2 -0.003319 0.008421 -0.004760 0.000000 0.000000 0.000000
# 3 -0.001938 -0.004760 0.068136 0.000000 0.000000 0.000000
# 4 0.000000 0.000000 0.000000 0.069618 0.000000 0.000000
# 5 0.000000 0.000000 0.000000 0.000000 0.033834 0.000000
# 6 0.000000 0.000000 0.000000 0.000000 0.000000 0.033892
#
#
# Mechanical properties :
#
#
# Convention : Reuss Voigt Hill
#
# Bulk Modulus (GPa) = 15.24975 49.94306 32.59641
# Shear Modulus (GPa) = 18.87865 29.35649 24.11757
#
# Velocity S-wave (km/s) = 2.99977 3.74072 3.39055
# Velocity P-wave (km/s) = 4.38943 6.51636 5.55563
#
# Compressibility (1/GPa) = 0.06557485
#
# Stress axis : x y z
#
# Youngs Moduli (GPa) = 110.44824 118.75388 14.67652
#
# Poissons Ratio (x) = 0.39419 0.02845
# Poissons Ratio (y) = 0.36662 0.06986
# Poissons Ratio (z) = 0.21408 0.56530
#
# Static dielectric constant tensor:
#      x y z
#    x 3.958100 0.000000 0.000000 
#    y 0.000000 4.010480 0.000000 
#    z 0.000000 0.000000 3.446270 
# 
# 
# High freq. dielectric constant tensor:
#      x y z
#    x 1.835730 0.000000 0.000000 
#    y 0.000000 1.830920 0.000000 
#    z 0.000000 0.000000 1.796080 
# 
# From -- ./inp_files/4247.got.cif
#   From: 2010.06.25/outbox.cif.g09.slc.cpg/sg58_3_cif.got.tgz:4247.got - 2010.06.26 21:38:00.
