data_PCOD8238037
_publ_section_title
;
Structure prediction by ZEFSAII (Michael W. Deem and Ramdas Pophale) SiO2 
 PCOD8238037
Probable space group: P N N M
;
_chemical_formula_sum "Si O2"
_cell_formula_units_Z 56
_cell_length_a 24.341986
_cell_length_b 14.205577
_cell_length_c 8.959721
_cell_angle_alpha 90.000000
_cell_angle_beta 90.000000
_cell_angle_gamma 90.000000
_cell_volume 3098.199454
_symmetry_space_group_name_H-M "P N N M"
_symmetry_group_IT_number 58
_symmetry_cell_setting 'orthorhombic'
loop_
_space_group_symop_operation_xyz
x,y,z
-x,-y,z
1/2+x,1/2-y,1/2-z
1/2-x,1/2+y,1/2-z
-x,-y,-z
x,y,-z
1/2-x,1/2+y,1/2+z
1/2+x,1/2-y,1/2+z
loop_
_atom_site_type_symbol
_atom_site_label
_atom_site_fract_x
_atom_site_fract_y
_atom_site_fract_z
Si Si1 0.794572 0.238370 0.823666
Si Si2 0.493307 0.892813 0.170129
Si Si3 0.831249 0.520163 0.168806
Si Si4 0.394675 0.793425 0.331023
Si Si5 0.719277 0.523608 0.324473
Si Si6 0.115110 0.638562 0.329260
Si Si7 0.317159 0.655867 0.823817
O O1 0.847402 0.281201 0.742963
O O2 0.738411 0.289923 0.772010
O O3 0.794041 0.129591 0.773942
O O4 0.801842 0.248451 0.000000
O O5 0.451252 0.833676 0.268509
O O6 0.550753 0.835892 0.180244
O O7 0.500000 0.000000 0.229359
O O8 0.471477 0.896576 0.000000
O O9 0.847451 0.628241 0.174159
O O10 0.780295 0.498228 0.274001
O O11 0.880130 0.458169 0.236445
O O12 0.817446 0.487748 0.000000
O O13 0.404993 0.759806 0.500000
O O14 0.371861 0.707466 0.234109
O O15 0.713881 0.510652 0.500000
O O16 0.679585 0.449188 0.243568
O O17 0.133242 0.623108 0.500000
O O18 0.320399 0.650388 0.000000
#
# Coordination Sequence:
#
# PCOD8238037 Si02
#       7
#     8   8   8   8   8   8   8
#     4  10  22  37  55  81 114 149 184 227 280 333
#     4  10  21  37  56  81 114 150 187 229 284 337
#     4  11  21  32  51  81 116 148 184 227 272 326
#     4  11  23  36  55  83 114 152 192 230 275 333
#     4  11  22  37  56  80 112 150 189 226 273 331
#     4  11  22  35  56  82 112 151 189 228 275 333
#     4  11  22  37  57  83 115 149 185 229 283 333
#
# _framework density 18.075013999999999
#
# number of rings (size 3 to 8) (size 9 to 14) (size 15 to 20)
#    0.000    1.286    4.286    2.143    0.000    4.286 
#    0.000    0.000    0.000    0.857    0.000    6.000 
#    0.000    0.000    0.000    0.000    0.000    0.000 
#
# Total GULP energy -694487.619919 kJ/mol
# GULP energy per Si atom -12401.564641 kJ/mol
# Density = 1.803387 g / cm^3
# Si number density = 18.075014 Si / 1000 Ang^3
#
#
#
# Elastic Constant Matrix: (Units=GPa)
#
#
# Indices 1 2 3 4 5 6 
#
# 1 69.2747 20.5900 31.1902 0.0000 0.0000 0.0000
# 2 20.5900 85.5079 40.9561 0.0000 0.0000 0.0000
# 3 31.1902 40.9561 80.3002 0.0000 0.0000 0.0000
# 4 0.0000 0.0000 0.0000 31.1843 0.0000 0.0000
# 5 0.0000 0.0000 0.0000 0.0000 30.4110 0.0000
# 6 0.0000 0.0000 0.0000 0.0000 0.0000 29.6287
#
#
#
# Elastic Compliance Matrix: (Units=1/GPa)
#
#
# Indices 1 2 3 4 5 6 
#
# 1 0.017599 -0.001275 -0.006186 0.000000 0.000000 0.000000
# 2 -0.001275 0.015568 -0.007445 0.000000 0.000000 0.000000
# 3 -0.006186 -0.007445 0.018653 0.000000 0.000000 0.000000
# 4 0.000000 0.000000 0.000000 0.032067 0.000000 0.000000
# 5 0.000000 0.000000 0.000000 0.000000 0.032883 0.000000
# 6 0.000000 0.000000 0.000000 0.000000 0.000000 0.033751
#
#
# Mechanical properties :
#
#
# Convention : Reuss Voigt Hill
#
# Bulk Modulus (GPa) = 45.43600 46.72839 46.08219
# Shear Modulus (GPa) = 26.64268 27.73456 27.18862
#
# Velocity S-wave (km/s) = 3.84344 3.92141 3.88262
# Velocity P-wave (km/s) = 6.69986 6.81263 6.75648
#
# Compressibility (1/GPa) = 0.02200898
#
# Stress axis : x y z
#
# Youngs Moduli (GPa) = 56.82058 64.23523 53.61062
#
# Poissons Ratio (x) = 0.08191 0.33161
# Poissons Ratio (y) = 0.07245 0.39912
# Poissons Ratio (z) = 0.35147 0.47822
#
# Static dielectric constant tensor:
#      x y z
#    x 3.153070 0.000000 0.000000 
#    y 0.000000 3.371890 0.000000 
#    z 0.000000 0.000000 3.406940 
# 
# 
# High freq. dielectric constant tensor:
#      x y z
#    x 1.683950 0.000000 0.000000 
#    y 0.000000 1.690430 0.000000 
#    z 0.000000 0.000000 1.711550 
# 
# From -- ./inp_files/6236.got.cif
#   From: 2010.06.25/outbox.cif.g09.slc.cpg/sg58_4_cif.got.tgz:6236.got - 2010.06.26 21:38:00.
