data_PCOD8238094
_publ_section_title
;
Structure prediction by ZEFSAII (Michael W. Deem and Ramdas Pophale) SiO2 
 PCOD8238094
Probable space group: P N N M
;
_chemical_formula_sum "Si O2"
_cell_formula_units_Z 48
_cell_length_a 28.776987
_cell_length_b 9.415761
_cell_length_c 8.746254
_cell_angle_alpha 90.000000
_cell_angle_beta 90.000000
_cell_angle_gamma 90.000000
_cell_volume 2369.860773
_symmetry_space_group_name_H-M "P N N M"
_symmetry_group_IT_number 58
_symmetry_cell_setting 'orthorhombic'
loop_
_space_group_symop_operation_xyz
x,y,z
-x,-y,z
1/2+x,1/2-y,1/2-z
1/2-x,1/2+y,1/2-z
-x,-y,-z
x,y,-z
1/2-x,1/2+y,1/2+z
1/2+x,1/2-y,1/2+z
loop_
_atom_site_type_symbol
_atom_site_label
_atom_site_fract_x
_atom_site_fract_y
_atom_site_fract_z
Si Si1 0.977853 0.859055 0.175608
Si Si2 0.118728 0.219635 0.323492
Si Si3 0.137765 0.512051 0.818881
Si Si4 0.203343 0.029911 0.677288
Si Si5 0.716804 0.793279 0.819437
Si Si6 0.461170 0.097124 0.325118
O O1 0.933576 0.808185 0.269422
O O2 0.022014 0.756762 0.188925
O O3 0.961937 0.878157 0.000000
O O4 0.000000 0.000000 0.246624
O O5 0.117419 0.263353 0.500000
O O6 0.142085 0.348434 0.230600
O O7 0.149811 0.078169 0.298439
O O8 0.177849 0.606020 0.748646
O O9 0.089404 0.575358 0.751638
O O10 0.141899 0.522301 0.000000
O O11 0.217846 0.037528 0.500000
O O12 0.210469 0.869349 0.740036
O O13 0.233939 0.143814 0.768943
O O14 0.712659 0.795079 0.000000
O O15 0.456541 0.044540 0.500000
O O16 0.500000 0.000000 0.241960
#
# Coordination Sequence:
#
# PCOD8238094 Si02
#       6
#     8   8   8   8   8   8
#     4  10  21  37  59  86 119 159 207 252 297 357
#     4  11  23  40  61  88 124 162 202 250 303 356
#     4  11  22  38  63  90 121 158 200 246 298 355
#     4  10  24  44  63  87 122 158 195 241 297 360
#     4  11  24  42  64  91 120 151 194 245 296 354
#     4   9  17  34  57  84 117 154 198 246 288 341
#
# _framework density 20.254353999999999
#
# number of rings (size 3 to 8) (size 9 to 14) (size 15 to 20)
#    0.000    1.667    1.667    2.500    2.333    5.667 
#    0.000    2.500    0.000    0.000    0.000    0.000 
#    0.000    0.000    0.000    0.000    0.000    0.000 
#
# Total GULP energy -595164.672964 kJ/mol
# GULP energy per Si atom -12399.264020 kJ/mol
# Density = 2.020825 g / cm^3
# Si number density = 20.254354 Si / 1000 Ang^3
#
#
#
# Elastic Constant Matrix: (Units=GPa)
#
#
# Indices 1 2 3 4 5 6 
#
# 1 93.1004 29.7585 22.1937 0.0000 0.0000 0.0000
# 2 29.7585 122.6862 18.7413 0.0000 0.0000 0.0000
# 3 22.1937 18.7413 45.5356 0.0000 0.0000 0.0000
# 4 0.0000 0.0000 0.0000 25.1830 0.0000 0.0000
# 5 0.0000 0.0000 0.0000 0.0000 25.8557 0.0000
# 6 0.0000 0.0000 0.0000 0.0000 0.0000 41.7674
#
#
#
# Elastic Compliance Matrix: (Units=1/GPa)
#
#
# Indices 1 2 3 4 5 6 
#
# 1 0.012725 -0.002283 -0.005263 0.000000 0.000000 0.000000
# 2 -0.002283 0.009107 -0.002636 0.000000 0.000000 0.000000
# 3 -0.005263 -0.002636 0.025611 0.000000 0.000000 0.000000
# 4 0.000000 0.000000 0.000000 0.039709 0.000000 0.000000
# 5 0.000000 0.000000 0.000000 0.000000 0.038676 0.000000
# 6 0.000000 0.000000 0.000000 0.000000 0.000000 0.023942
#
#
# Mechanical properties :
#
#
# Convention : Reuss Voigt Hill
#
# Bulk Modulus (GPa) = 36.92645 44.74547 40.83596
# Shear Modulus (GPa) = 27.90802 31.26979 29.58891
#
# Velocity S-wave (km/s) = 3.71600 3.93346 3.82627
# Velocity P-wave (km/s) = 6.05661 6.53981 6.30284
#
# Compressibility (1/GPa) = 0.02708086
#
# Stress axis : x y z
#
# Youngs Moduli (GPa) = 78.58380 109.80331 39.04633
#
# Poissons Ratio (x) = 0.25065 0.20549
# Poissons Ratio (y) = 0.17938 0.10292
# Poissons Ratio (z) = 0.41356 0.28941
#
# Static dielectric constant tensor:
#      x y z
#    x 3.863870 0.000000 0.000000 
#    y 0.000000 3.876700 0.000000 
#    z 0.000000 0.000000 3.519770 
# 
# 
# High freq. dielectric constant tensor:
#      x y z
#    x 1.804250 0.000000 0.000000 
#    y 0.000000 1.802960 0.000000 
#    z 0.000000 0.000000 1.769720 
# 
# From -- ./inp_files/10752.got.cif
#   From: 2010.06.25/outbox.cif.g09.slc.cpg/sg58_6_cif.got.tgz:10752.got - 2010.06.26 21:38:00.
