data_PCOD8238121
_publ_section_title
;
Structure prediction by ZEFSAII (Michael W. Deem and Ramdas Pophale) SiO2 
 PCOD8238121
Probable space group: P N N M
;
_chemical_formula_sum "Si O2"
_cell_formula_units_Z 60
_cell_length_a 19.583789
_cell_length_b 5.144107
_cell_length_c 27.466640
_cell_angle_alpha 90.000000
_cell_angle_beta 90.000000
_cell_angle_gamma 90.000000
_cell_volume 2767.019694
_symmetry_space_group_name_H-M "P N N M"
_symmetry_group_IT_number 58
_symmetry_cell_setting 'orthorhombic'
loop_
_space_group_symop_operation_xyz
x,y,z
-x,-y,z
1/2+x,1/2-y,1/2-z
1/2-x,1/2+y,1/2-z
-x,-y,-z
x,y,-z
1/2-x,1/2+y,1/2+z
1/2+x,1/2-y,1/2+z
loop_
_atom_site_type_symbol
_atom_site_label
_atom_site_fract_x
_atom_site_fract_y
_atom_site_fract_z
Si Si1 0.565781 0.830962 0.053614
Si Si2 0.926735 0.998615 0.944787
Si Si3 0.159244 0.539247 0.629296
Si Si4 0.430002 0.892345 0.792464
Si Si5 0.246412 0.039570 0.636107
Si Si6 0.500000 0.500000 0.865249
Si Si7 0.208413 0.375929 0.763977
Si Si8 0.653410 0.012451 0.554815
O O1 0.553875 0.625985 0.096826
O O2 0.500000 0.000000 0.045330
O O3 0.626298 0.012126 0.075712
O O4 0.585525 0.712452 0.000000
O O5 0.904162 0.294606 0.943514
O O6 0.874862 0.784383 0.922067
O O7 0.936367 0.896576 0.000000
O O8 0.000000 0.000000 0.917663
O O9 0.102132 0.607342 0.670890
O O10 0.206944 0.781681 0.623297
O O11 0.198079 0.282654 0.649033
O O12 0.452172 0.668004 0.829923
O O13 0.369902 0.819719 0.753976
O O14 0.500000 0.000000 0.766705
O O15 0.296833 0.984643 0.681234
O O16 0.287414 0.107336 0.587733
O O17 0.248257 0.605992 0.734609
O O18 0.681497 0.052459 0.500000
#
# Coordination Sequence:
#
# PCOD8238121 Si02
#       8
#     8   8   8   8   8   4   8   8
#     4  11  24  39  61  99 141 183 234 292 347 411
#     4   9  17  33  60  91 119 162 216 260 319 398
#     4  12  23  43  67  94 129 185 226 280 337 421
#     4  12  25  42  72 102 134 179 241 302 352 429
#     4  12  25  43  68  94 136 175 233 277 350 414
#     4  12  21  42  68  94 140 188 239 294 366 416
#     4  12  26  46  72 102 133 181 234 293 359 425
#     4  10  21  37  60  92 132 172 213 270 332 405
#
# _framework density 21.683982
#
# number of rings (size 3 to 8) (size 9 to 14) (size 15 to 20)
#    0.000    0.800    5.333    2.200    1.867    2.667 
#    0.000    1.333    1.467    0.000    0.000    0.000 
#    0.000    0.000    0.000    0.000    0.000    0.000 
#
# Total GULP energy -743307.388387 kJ/mol
# GULP energy per Si atom -12388.456473 kJ/mol
# Density = 2.163463 g / cm^3
# Si number density = 21.683982 Si / 1000 Ang^3
#
#
#
# Elastic Constant Matrix: (Units=GPa)
#
#
# Indices 1 2 3 4 5 6 
#
# 1 117.7389 20.5686 59.9457 0.0000 0.0000 0.0000
# 2 20.5686 87.8714 24.6486 0.0000 0.0000 0.0000
# 3 59.9457 24.6486 95.5008 0.0000 0.0000 0.0000
# 4 0.0000 0.0000 0.0000 19.8848 0.0000 0.0000
# 5 0.0000 0.0000 0.0000 0.0000 26.1208 0.0000
# 6 0.0000 0.0000 0.0000 0.0000 0.0000 25.2267
#
#
#
# Elastic Compliance Matrix: (Units=1/GPa)
#
#
# Indices 1 2 3 4 5 6 
#
# 1 0.012533 -0.000784 -0.007664 0.000000 0.000000 0.000000
# 2 -0.000784 0.012317 -0.002687 0.000000 0.000000 0.000000
# 3 -0.007664 -0.002687 0.015976 0.000000 0.000000 0.000000
# 4 0.000000 0.000000 0.000000 0.050290 0.000000 0.000000
# 5 0.000000 0.000000 0.000000 0.000000 0.038284 0.000000
# 6 0.000000 0.000000 0.000000 0.000000 0.000000 0.039641
#
#
# Mechanical properties :
#
#
# Convention : Reuss Voigt Hill
#
# Bulk Modulus (GPa) = 53.89356 56.82633 55.35994
# Shear Modulus (GPa) = 25.31707 27.30966 26.31336
#
# Velocity S-wave (km/s) = 3.42065 3.55271 3.48730
# Velocity P-wave (km/s) = 6.36468 6.56448 6.46535
#
# Compressibility (1/GPa) = 0.01855509
#
# Stress axis : x y z
#
# Youngs Moduli (GPa) = 79.79243 81.18534 62.59546
#
# Poissons Ratio (x) = 0.06362 0.47976
# Poissons Ratio (y) = 0.06253 0.16821
# Poissons Ratio (z) = 0.61156 0.21816
#
# Static dielectric constant tensor:
#      x y z
#    x 4.352620 0.000000 0.000000 
#    y 0.000000 3.895670 0.000000 
#    z 0.000000 0.000000 3.973130 
# 
# 
# High freq. dielectric constant tensor:
#      x y z
#    x 1.853660 0.000000 0.000000 
#    y 0.000000 1.855020 0.000000 
#    z 0.000000 0.000000 1.833330 
# 
# From -- ./inp_files/33819.got.cif
#   From: 2010.06.25/outbox.cif.g09.slc.cpg/sg58_17_cif.got.tgz:33819.got - 2010.06.26 21:38:00.
