data_PCOD8238286
_publ_section_title
;
Structure prediction by ZEFSAII (Michael W. Deem and Ramdas Pophale) SiO2 
 PCOD8238286
Probable space group: P N N M
;
_chemical_formula_sum "Si O2"
_cell_formula_units_Z 48
_cell_length_a 8.960890
_cell_length_b 15.147052
_cell_length_c 17.377206
_cell_angle_alpha 90.000000
_cell_angle_beta 90.000000
_cell_angle_gamma 90.000000
_cell_volume 2358.626708
_symmetry_space_group_name_H-M "P N N M"
_symmetry_group_IT_number 58
_symmetry_cell_setting 'orthorhombic'
loop_
_space_group_symop_operation_xyz
x,y,z
-x,-y,z
1/2+x,1/2-y,1/2-z
1/2-x,1/2+y,1/2-z
-x,-y,-z
x,y,-z
1/2-x,1/2+y,1/2+z
1/2+x,1/2-y,1/2+z
loop_
_atom_site_type_symbol
_atom_site_label
_atom_site_fract_x
_atom_site_fract_y
_atom_site_fract_z
Si Si1 0.671794 0.002390 0.678640
Si Si2 0.842636 0.319986 0.658410
Si Si3 0.657203 0.173647 0.588919
Si Si4 0.158029 0.345317 0.410522
Si Si5 0.847102 0.306575 0.163222
Si Si6 0.823765 0.998499 0.836282
O O1 0.700558 0.074058 0.612587
O O2 0.500000 0.000000 0.707421
O O3 0.709923 0.905838 0.644752
O O4 0.775193 0.026841 0.750645
O O5 0.795816 0.238196 0.604827
O O6 0.837280 0.287213 0.746201
O O7 0.730859 0.400680 0.643484
O O8 0.006667 0.353098 0.637577
O O9 0.614634 0.173690 0.500000
O O10 0.517266 0.208142 0.637730
O O11 0.120310 0.337973 0.500000
O O12 0.243377 0.258253 0.383992
O O13 0.256670 0.432074 0.396534
O O14 0.000000 0.000000 0.843332
#
# Coordination Sequence:
#
# PCOD8238286 Si02
#       6
#     8   8   8   8   8   8
#     4   9  20  39  63  89 119 159 202 245 296 355
#     4  11  23  41  62  87 121 163 205 246 296 361
#     4  11  22  37  61  92 125 157 197 251 305 355
#     4  12  25  40  61  90 125 159 196 250 310 359
#     4  10  21  39  63  88 119 161 207 247 290 355
#     4  11  23  40  64  89 115 156 207 253 297 356
#
# _framework density 20.350826000000001
#
# number of rings (size 3 to 8) (size 9 to 14) (size 15 to 20)
#    0.000    1.333    0.000    7.500    0.000   10.000 
#    0.000    0.000    0.000    2.500    0.000    0.000 
#    0.000    0.000    0.000    0.000    0.000    0.000 
#
# Total GULP energy -595497.108244 kJ/mol
# GULP energy per Si atom -12406.189755 kJ/mol
# Density = 2.030451 g / cm^3
# Si number density = 20.350826 Si / 1000 Ang^3
#
#
#
# Elastic Constant Matrix: (Units=GPa)
#
#
# Indices 1 2 3 4 5 6 
#
# 1 80.0249 24.8334 2.7068 0.0000 0.0000 0.0000
# 2 24.8334 99.2851 44.4803 0.0000 0.0000 0.0000
# 3 2.7068 44.4803 63.0288 0.0000 0.0000 0.0000
# 4 0.0000 0.0000 0.0000 12.8058 0.0000 0.0000
# 5 0.0000 0.0000 0.0000 0.0000 26.0884 0.0000
# 6 0.0000 0.0000 0.0000 0.0000 0.0000 28.7673
#
#
#
# Elastic Compliance Matrix: (Units=1/GPa)
#
#
# Indices 1 2 3 4 5 6 
#
# 1 0.013856 -0.004678 0.002706 0.000000 0.000000 0.000000
# 2 -0.004678 0.016308 -0.011308 0.000000 0.000000 0.000000
# 3 0.002706 -0.011308 0.023730 0.000000 0.000000 0.000000
# 4 0.000000 0.000000 0.000000 0.078090 0.000000 0.000000
# 5 0.000000 0.000000 0.000000 0.000000 0.038331 0.000000
# 6 0.000000 0.000000 0.000000 0.000000 0.000000 0.034762
#
#
# Mechanical properties :
#
#
# Convention : Reuss Voigt Hill
#
# Bulk Modulus (GPa) = 36.58361 42.93108 39.75734
# Shear Modulus (GPa) = 20.76859 24.88686 22.82772
#
# Velocity S-wave (km/s) = 3.19804 3.50078 3.35283
# Velocity P-wave (km/s) = 5.62602 6.12225 5.87937
#
# Compressibility (1/GPa) = 0.02733464
#
# Stress axis : x y z
#
# Youngs Moduli (GPa) = 72.16910 61.31879 42.14114
#
# Poissons Ratio (x) = 0.28687 -0.11405
# Poissons Ratio (y) = 0.33763 0.47653
# Poissons Ratio (z) = -0.19532 0.69339
#
# Static dielectric constant tensor:
#      x y z
#    x 3.742710 0.000000 0.000000 
#    y 0.000000 3.899810 0.000000 
#    z 0.000000 0.000000 3.554090 
# 
# 
# High freq. dielectric constant tensor:
#      x y z
#    x 1.792810 0.000000 0.000000 
#    y 0.000000 1.812330 0.000000 
#    z 0.000000 0.000000 1.790070 
# 
# From -- ./inp_files/19817.got.cif
#   From: 2010.06.25/outbox.cif.g09.slc.cpg/sg58_10_cif.got.tgz:19817.got - 2010.06.26 21:38:00.
