data_PCOD8238749
_publ_section_title
;
Structure prediction by ZEFSAII (Michael W. Deem and Ramdas Pophale) SiO2 
 PCOD8238749
Probable space group: P N N M
;
_chemical_formula_sum "Si O2"
_cell_formula_units_Z 40
_cell_length_a 4.903512
_cell_length_b 20.854501
_cell_length_c 26.367603
_cell_angle_alpha 90.000000
_cell_angle_beta 90.000000
_cell_angle_gamma 90.000000
_cell_volume 2696.358885
_symmetry_space_group_name_H-M "P N N M"
_symmetry_group_IT_number 58
_symmetry_cell_setting 'orthorhombic'
loop_
_space_group_symop_operation_xyz
x,y,z
-x,-y,z
1/2+x,1/2-y,1/2-z
1/2-x,1/2+y,1/2-z
-x,-y,-z
x,y,-z
1/2-x,1/2+y,1/2+z
1/2+x,1/2-y,1/2+z
loop_
_atom_site_type_symbol
_atom_site_label
_atom_site_fract_x
_atom_site_fract_y
_atom_site_fract_z
Si Si1 0.456516 0.168207 0.248116
Si Si2 0.963097 0.212481 0.691837
Si Si3 0.423755 0.926299 0.558161
Si Si4 0.742924 0.458130 0.218864
Si Si5 0.083181 0.114553 0.617923
O O1 0.761180 0.171974 0.271239
O O2 0.417284 0.210176 0.196133
O O3 0.356469 0.094780 0.240797
O O4 0.271744 0.201875 0.290279
O O5 0.961055 0.184677 0.634300
O O6 0.427915 0.904374 0.500000
O O7 0.627988 0.880407 0.589454
O O8 0.121020 0.919462 0.579506
O O9 0.500000 0.000000 0.564595
O O10 0.500000 0.500000 0.244541
O O11 0.613716 0.426268 0.169150
O O12 0.000000 0.500000 0.201466
#
# Coordination Sequence:
#
# PCOD8238749 Si02
#       5
#     8   8   8   8   8
#     4   9  17  28  39  58  81  99 126 161 197 229
#     4   9  17  28  43  57  74 100 129 166 197 226
#     4  11  22  32  41  55  77 102 130 169 211 240
#     4  11  19  27  41  60  81 105 132 163 195 229
#     4  11  19  30  44  57  73 100 139 169 195 230
#
# _framework density 14.834820000000001
#
# number of rings (size 3 to 8) (size 9 to 14) (size 15 to 20)
#    0.000    1.800    0.000    9.000    0.000    1.600 
#    0.000    0.000    0.000    0.000    0.000    0.000 
#    0.000    0.000    0.000    0.000    0.000   20.000 
#
# Total GULP energy -495622.274548 kJ/mol
# GULP energy per Si atom -12390.556864 kJ/mol
# Density = 1.480105 g / cm^3
# Si number density = 14.834820 Si / 1000 Ang^3
#
#
#
# Elastic Constant Matrix: (Units=GPa)
#
#
# Indices 1 2 3 4 5 6 
#
# 1 68.2174 20.0350 14.2447 0.0000 0.0000 0.0000
# 2 20.0350 80.0637 41.7042 0.0000 0.0000 0.0000
# 3 14.2447 41.7042 46.1604 0.0000 0.0000 0.0000
# 4 0.0000 0.0000 0.0000 15.5082 0.0000 0.0000
# 5 0.0000 0.0000 0.0000 0.0000 13.3976 0.0000
# 6 0.0000 0.0000 0.0000 0.0000 0.0000 22.1165
#
#
#
# Elastic Compliance Matrix: (Units=1/GPa)
#
#
# Indices 1 2 3 4 5 6 
#
# 1 0.015972 -0.002700 -0.002489 0.000000 0.000000 0.000000
# 2 -0.002700 0.024049 -0.020894 0.000000 0.000000 0.000000
# 3 -0.002489 -0.020894 0.041309 0.000000 0.000000 0.000000
# 4 0.000000 0.000000 0.000000 0.064482 0.000000 0.000000
# 5 0.000000 0.000000 0.000000 0.000000 0.074640 0.000000
# 6 0.000000 0.000000 0.000000 0.000000 0.000000 0.045215
#
#
# Mechanical properties :
#
#
# Convention : Reuss Voigt Hill
#
# Bulk Modulus (GPa) = 34.29058 38.48993 36.39026
# Shear Modulus (GPa) = 15.26457 18.10166 16.68312
#
# Velocity S-wave (km/s) = 3.21123 3.49695 3.35713
# Velocity P-wave (km/s) = 6.07573 6.50437 6.29370
#
# Compressibility (1/GPa) = 0.02916253
#
# Stress axis : x y z
#
# Youngs Moduli (GPa) = 62.61031 41.58112 24.20776
#
# Poissons Ratio (x) = 0.11227 0.06026
# Poissons Ratio (y) = 0.16905 0.50581
# Poissons Ratio (z) = 0.15586 0.86881
#
# Static dielectric constant tensor:
#      x y z
#    x 3.120230 0.000000 0.000000 
#    y 0.000000 3.282740 0.000000 
#    z 0.000000 0.000000 2.713880 
# 
# 
# High freq. dielectric constant tensor:
#      x y z
#    x 1.600180 0.000000 0.000000 
#    y 0.000000 1.551360 0.000000 
#    z 0.000000 0.000000 1.508300 
# 
# From -- ./inp_files/32881.got.cif
#   From: 2010.06.25/outbox.cif.g09.slc.cpg/sg58_17_cif.got.tgz:32881.got - 2010.06.26 21:38:00.
