data_PCOD8238884
_publ_section_title
;
Structure prediction by ZEFSAII (Michael W. Deem and Ramdas Pophale) SiO2 
 PCOD8238884
Probable space group: P N N M
;
_chemical_formula_sum "Si O2"
_cell_formula_units_Z 48
_cell_length_a 22.694505
_cell_length_b 11.602294
_cell_length_c 8.793935
_cell_angle_alpha 90.000000
_cell_angle_beta 90.000000
_cell_angle_gamma 90.000000
_cell_volume 2315.516244
_symmetry_space_group_name_H-M "P N N M"
_symmetry_group_IT_number 58
_symmetry_cell_setting 'orthorhombic'
loop_
_space_group_symop_operation_xyz
x,y,z
-x,-y,z
1/2+x,1/2-y,1/2-z
1/2-x,1/2+y,1/2-z
-x,-y,-z
x,y,-z
1/2-x,1/2+y,1/2+z
1/2+x,1/2-y,1/2+z
loop_
_atom_site_type_symbol
_atom_site_label
_atom_site_fract_x
_atom_site_fract_y
_atom_site_fract_z
Si Si1 0.048249 0.416410 0.831208
Si Si2 0.157266 0.580698 0.833286
Si Si3 0.722359 0.134304 0.678890
Si Si4 0.932000 0.000670 0.179446
Si Si5 0.646194 0.689135 0.177256
Si Si6 0.883505 0.773283 0.320706
O O1 0.107645 0.485398 0.848236
O O2 0.060303 0.303985 0.729852
O O3 0.000000 0.500000 0.753240
O O4 0.026067 0.377326 0.000000
O O5 0.212481 0.501477 0.780825
O O6 0.139117 0.675043 0.709981
O O7 0.168309 0.637650 0.000000
O O8 0.714459 0.156711 0.500000
O O9 0.788493 0.157643 0.733879
O O10 0.678443 0.222031 0.763519
O O11 0.903050 0.121407 0.228385
O O12 0.893755 0.900584 0.256782
O O13 0.928206 0.985229 0.000000
O O14 0.000000 0.000000 0.234278
O O15 0.636901 0.664356 0.000000
O O16 0.881286 0.779640 0.500000
#
# Coordination Sequence:
#
# PCOD8238884 Si02
#       6
#     8   8   8   8   8   8
#     4   9  19  37  62  87 117 161 206 245 295 363
#     4   9  19  37  59  86 120 158 204 248 296 367
#     4   9  21  42  64  90 124 165 205 246 307 377
#     4  11  26  46  66  88 122 172 218 251 307 385
#     4  11  24  40  63  95 127 158 201 260 314 362
#     4  11  23  39  63  94 126 158 201 260 313 359
#
# _framework density 20.729718999999999
#
# number of rings (size 3 to 8) (size 9 to 14) (size 15 to 20)
#    0.000    2.000    0.000    3.500    4.667    5.667 
#    0.000    0.000    0.000    0.000    0.000    0.000 
#    0.000    0.000    0.000    0.000    0.000    0.000 
#
# Total GULP energy -595144.463231 kJ/mol
# GULP energy per Si atom -12398.842984 kJ/mol
# Density = 2.068254 g / cm^3
# Si number density = 20.729719 Si / 1000 Ang^3
#
#
#
# Elastic Constant Matrix: (Units=GPa)
#
#
# Indices 1 2 3 4 5 6 
#
# 1 70.5437 22.5296 33.2473 0.0000 0.0000 0.0000
# 2 22.5296 100.5713 35.8882 0.0000 0.0000 0.0000
# 3 33.2473 35.8882 89.7668 0.0000 0.0000 0.0000
# 4 0.0000 0.0000 0.0000 -35.3886 0.0000 0.0000
# 5 0.0000 0.0000 0.0000 0.0000 17.0759 0.0000
# 6 0.0000 0.0000 0.0000 0.0000 0.0000 18.3341
#
#
#
# Elastic Compliance Matrix: (Units=1/GPa)
#
#
# Indices 1 2 3 4 5 6 
#
# 1 0.017470 -0.001872 -0.005722 0.000000 0.000000 0.000000
# 2 -0.001872 0.011798 -0.004024 0.000000 0.000000 0.000000
# 3 -0.005722 -0.004024 0.014868 0.000000 0.000000 0.000000
# 4 0.000000 0.000000 0.000000 -0.028258 0.000000 0.000000
# 5 0.000000 0.000000 0.000000 0.000000 0.058562 0.000000
# 6 0.000000 0.000000 0.000000 0.000000 0.000000 0.054543
#
#
# Mechanical properties :
#
#
# Convention : Reuss Voigt Hill
#
# Bulk Modulus (GPa) = 47.84375 49.35688 48.60032
# Shear Modulus (GPa) = 31.40970 11.28538 21.34754
#
# Velocity S-wave (km/s) = 3.89678 2.33578 3.21254
# Velocity P-wave (km/s) = 6.58608 5.57996 6.10378
#
# Compressibility (1/GPa) = 0.02090137
#
# Stress axis : x y z
#
# Youngs Moduli (GPa) = 57.24013 84.75797 67.25858
#
# Poissons Ratio (x) = 0.15864 0.38487
# Poissons Ratio (y) = 0.10713 0.27063
# Poissons Ratio (z) = 0.32754 0.34104
#
# Static dielectric constant tensor:
#      x y z
#    x 3.983010 0.000000 0.000000 
#    y 0.000000 3.867020 0.000000 
#    z 0.000000 0.000000 3.705920 
# 
# 
# High freq. dielectric constant tensor:
#      x y z
#    x 1.814840 0.000000 0.000000 
#    y 0.000000 1.814960 0.000000 
#    z 0.000000 0.000000 1.801040 
# 
# From -- ./inp_files/9728.got.cif
#   From: 2010.06.25/outbox.cif.g09.slc.cpg/sg58_5_cif.got.tgz:9728.got - 2010.06.26 21:38:00.
