data_PCOD8238034
_publ_section_title
;
Structure prediction by ZEFSAII (Michael W. Deem and Ramdas Pophale) SiO2 
 PCOD8238034
Probable space group: P N N M
;
_chemical_formula_sum "Si O2"
_cell_formula_units_Z 64
_cell_length_a 11.927526
_cell_length_b 29.484474
_cell_length_c 9.393118
_cell_angle_alpha 90.000000
_cell_angle_beta 90.000000
_cell_angle_gamma 90.000000
_cell_volume 3303.341964
_symmetry_space_group_name_H-M "P N N M"
_symmetry_group_IT_number 58
_symmetry_cell_setting 'orthorhombic'
loop_
_space_group_symop_operation_xyz
x,y,z
-x,-y,z
1/2+x,1/2-y,1/2-z
1/2-x,1/2+y,1/2-z
-x,-y,-z
x,y,-z
1/2-x,1/2+y,1/2+z
1/2+x,1/2-y,1/2+z
loop_
_atom_site_type_symbol
_atom_site_label
_atom_site_fract_x
_atom_site_fract_y
_atom_site_fract_z
Si Si1 0.055652 0.221446 0.336188
Si Si2 0.641680 0.114864 0.668817
Si Si3 0.489389 0.179277 0.164382
Si Si4 0.121468 0.849130 0.662012
Si Si5 0.038501 0.926881 0.161471
Si Si6 0.726018 0.031644 0.833020
Si Si7 0.791992 0.937228 0.834548
Si Si8 0.265193 0.663474 0.665716
O O1 0.092503 0.216710 0.500000
O O2 0.048325 0.273778 0.290123
O O3 0.147289 0.196093 0.242627
O O4 0.929480 0.201019 0.316287
O O5 0.626600 0.110260 0.500000
O O6 0.534492 0.139256 0.735752
O O7 0.749853 0.145390 0.713663
O O8 0.650027 0.064612 0.737347
O O9 0.357184 0.184316 0.189013
O O10 0.515293 0.167383 0.000000
O O11 0.117113 0.865117 0.500000
O O12 0.038376 0.881587 0.746414
O O13 0.921235 0.951999 0.193072
O O14 0.143322 0.958464 0.196409
O O15 0.042819 0.910054 0.000000
O O16 0.712799 0.979001 0.780732
O O17 0.695475 0.037972 0.000000
O O18 0.765944 0.887776 0.767535
O O19 0.766640 0.933093 0.000000
O O20 0.298975 0.662152 0.500000
#
# Coordination Sequence:
#
# PCOD8238034 Si02
#       8
#     8   8   8   8   8   8   8   8
#     4  10  21  37  56  80 110 141 176 219 278 336
#     4  10  21  37  57  80 110 146 189 230 270 325
#     4  10  23  40  58  79 108 145 184 229 277 325
#     4   9  18  32  51  77 109 143 173 215 271 324
#     4   9  15  26  47  77 110 142 177 221 269 322
#     4   9  17  30  52  79 112 147 181 226 280 330
#     4   9  16  29  51  81 110 142 184 228 276 328
#     4  10  21  38  60  84 111 143 186 232 274 325
#
# _framework density 19.374319
#
# number of rings (size 3 to 8) (size 9 to 14) (size 15 to 20)
#    0.000    2.500    1.250    0.750    1.750    3.000 
#    0.000    1.875    0.000    6.750    0.000    0.000 
#    0.000    0.000    0.000    0.000    0.000    0.000 
#
# Total GULP energy -793162.438754 kJ/mol
# GULP energy per Si atom -12393.163106 kJ/mol
# Density = 1.933022 g / cm^3
# Si number density = 19.374319 Si / 1000 Ang^3
#
#
#
# Elastic Constant Matrix: (Units=GPa)
#
#
# Indices 1 2 3 4 5 6 
#
# 1 54.2481 35.0108 24.3312 0.0000 0.0000 0.0000
# 2 35.0108 107.8073 37.4573 0.0000 0.0000 0.0000
# 3 24.3312 37.4573 53.4721 0.0000 0.0000 0.0000
# 4 0.0000 0.0000 0.0000 25.9566 0.0000 0.0000
# 5 0.0000 0.0000 0.0000 0.0000 20.6308 0.0000
# 6 0.0000 0.0000 0.0000 0.0000 0.0000 21.4809
#
#
#
# Elastic Compliance Matrix: (Units=1/GPa)
#
#
# Indices 1 2 3 4 5 6 
#
# 1 0.025498 -0.005616 -0.007668 0.000000 0.000000 0.000000
# 2 -0.005616 0.013497 -0.006899 0.000000 0.000000 0.000000
# 3 -0.007668 -0.006899 0.027023 0.000000 0.000000 0.000000
# 4 0.000000 0.000000 0.000000 0.038526 0.000000 0.000000
# 5 0.000000 0.000000 0.000000 0.000000 0.048471 0.000000
# 6 0.000000 0.000000 0.000000 0.000000 0.000000 0.046553
#
#
# Mechanical properties :
#
#
# Convention : Reuss Voigt Hill
#
# Bulk Modulus (GPa) = 38.98434 45.45847 42.22140
# Shear Modulus (GPa) = 20.12201 21.52887 20.82544
#
# Velocity S-wave (km/s) = 3.22622 3.33709 3.28212
# Velocity P-wave (km/s) = 5.83466 6.19374 6.01688
#
# Compressibility (1/GPa) = 0.02565132
#
# Stress axis : x y z
#
# Youngs Moduli (GPa) = 39.21932 74.09211 37.00531
#
# Poissons Ratio (x) = 0.41612 0.28375
# Poissons Ratio (y) = 0.22027 0.25530
# Poissons Ratio (z) = 0.30073 0.51116
#
# Static dielectric constant tensor:
#      x y z
#    x 3.373920 0.000000 0.000000 
#    y 0.000000 3.859020 0.000000 
#    z 0.000000 0.000000 3.344090 
# 
# 
# High freq. dielectric constant tensor:
#      x y z
#    x 1.740230 0.000000 0.000000 
#    y 0.000000 1.760530 0.000000 
#    z 0.000000 0.000000 1.728950 
# 
# From -- ./inp_files/4726.got.cif
#   From: 2010.06.25/outbox.cif.g09.slc.cpg/sg58_3_cif.got.tgz:4726.got - 2010.06.26 21:38:00.
