data_PCOD8238463
_publ_section_title
;
Structure prediction by ZEFSAII (Michael W. Deem and Ramdas Pophale) SiO2 
 PCOD8238463
Probable space group: P N N M
;
_chemical_formula_sum "Si O2"
_cell_formula_units_Z 64
_cell_length_a 12.286965
_cell_length_b 9.444723
_cell_length_c 27.303584
_cell_angle_alpha 90.000000
_cell_angle_beta 90.000000
_cell_angle_gamma 90.000000
_cell_volume 3168.498492
_symmetry_space_group_name_H-M "P N N M"
_symmetry_group_IT_number 58
_symmetry_cell_setting 'orthorhombic'
loop_
_space_group_symop_operation_xyz
x,y,z
-x,-y,z
1/2+x,1/2-y,1/2-z
1/2-x,1/2+y,1/2-z
-x,-y,-z
x,y,-z
1/2-x,1/2+y,1/2+z
1/2+x,1/2-y,1/2+z
loop_
_atom_site_type_symbol
_atom_site_label
_atom_site_fract_x
_atom_site_fract_y
_atom_site_fract_z
Si Si1 0.017084 0.839792 0.056035
Si Si2 0.907838 0.087473 0.727672
Si Si3 0.299328 0.733073 0.400189
Si Si4 0.295511 0.535467 0.686427
Si Si5 0.233362 0.505891 0.155276
Si Si6 0.097687 0.599679 0.755084
Si Si7 0.126110 0.516711 0.557829
Si Si8 0.732800 0.704787 0.388342
O O1 0.112475 0.771002 0.088745
O O2 0.898702 0.768698 0.061521
O O3 0.054811 0.828984 0.000000
O O4 0.000000 0.000000 0.073266
O O5 0.941593 0.239210 0.748910
O O6 0.888351 0.985108 0.773885
O O7 0.807794 0.089521 0.690589
O O8 0.000000 0.000000 0.698419
O O9 0.336926 0.654530 0.350785
O O10 0.188299 0.655008 0.419412
O O11 0.290784 0.899395 0.389144
O O12 0.187869 0.582025 0.714134
O O13 0.271806 0.387135 0.660467
O O14 0.133860 0.562061 0.189209
O O15 0.283037 0.644040 0.128176
O O16 0.000000 0.500000 0.739661
O O17 0.130528 0.535009 0.500000
O O18 0.188848 0.373075 0.572643
O O19 0.000000 0.500000 0.575650
#
# Coordination Sequence:
#
# PCOD8238463 Si02
#       8
#     8   8   8   8   8   8   8   8
#     4  11  22  39  67 100 128 161 208 269 326 384
#     4  11  25  39  60  86 127 171 216 270 314 374
#     4  11  23  40  67  92 128 167 210 267 315 388
#     4  10  22  38  58  86 117 165 217 246 311 372
#     4  11  26  43  57  94 131 167 218 265 323 373
#     4  11  25  40  61  85 128 170 215 270 312 374
#     4  10  22  43  70  96 123 163 212 258 317 392
#     4  11  23  40  66  93 128 165 211 266 316 389
#
# _framework density 20.198841000000002
#
# number of rings (size 3 to 8) (size 9 to 14) (size 15 to 20)
#    0.000    1.250    5.000    0.750    7.000    3.000 
#    0.000    3.125    0.000    1.500    0.000    0.000 
#    0.000    0.000    0.000    0.000    0.000    0.000 
#
# Total GULP energy -793186.261348 kJ/mol
# GULP energy per Si atom -12393.535334 kJ/mol
# Density = 2.015287 g / cm^3
# Si number density = 20.198841 Si / 1000 Ang^3
#
#
#
# Elastic Constant Matrix: (Units=GPa)
#
#
# Indices 1 2 3 4 5 6 
#
# 1 89.5967 29.5649 12.0241 0.0000 0.0000 0.0000
# 2 29.5649 136.8608 23.9953 0.0000 0.0000 0.0000
# 3 12.0241 23.9953 64.0968 0.0000 0.0000 0.0000
# 4 0.0000 0.0000 0.0000 21.7367 0.0000 0.0000
# 5 0.0000 0.0000 0.0000 0.0000 41.1471 0.0000
# 6 0.0000 0.0000 0.0000 0.0000 0.0000 22.4686
#
#
#
# Elastic Compliance Matrix: (Units=1/GPa)
#
#
# Indices 1 2 3 4 5 6 
#
# 1 0.012132 -0.002378 -0.001386 0.000000 0.000000 0.000000
# 2 -0.002378 0.008286 -0.002656 0.000000 0.000000 0.000000
# 3 -0.001386 -0.002656 0.016856 0.000000 0.000000 0.000000
# 4 0.000000 0.000000 0.000000 0.046005 0.000000 0.000000
# 5 0.000000 0.000000 0.000000 0.000000 0.024303 0.000000
# 6 0.000000 0.000000 0.000000 0.000000 0.000000 0.044506
#
#
# Mechanical properties :
#
#
# Convention : Reuss Voigt Hill
#
# Bulk Modulus (GPa) = 40.92553 46.85808 43.89181
# Shear Modulus (GPa) = 28.88977 32.06847 30.47912
#
# Velocity S-wave (km/s) = 3.78599 3.98884 3.88874
# Velocity P-wave (km/s) = 6.27829 6.66808 6.47612
#
# Compressibility (1/GPa) = 0.02443462
#
# Stress axis : x y z
#
# Youngs Moduli (GPa) = 82.42870 120.68561 59.32741
#
# Poissons Ratio (x) = 0.28696 0.08221
# Poissons Ratio (y) = 0.19600 0.15757
# Poissons Ratio (z) = 0.11422 0.32053
#
# Static dielectric constant tensor:
#      x y z
#    x 3.689440 0.000000 0.000000 
#    y 0.000000 3.608840 0.000000 
#    z 0.000000 0.000000 3.652790 
# 
# 
# High freq. dielectric constant tensor:
#      x y z
#    x 1.783110 0.000000 0.000000 
#    y 0.000000 1.786630 0.000000 
#    z 0.000000 0.000000 1.789610 
# 
# From -- ./inp_files/34956.got.cif
#   From: 2010.06.25/outbox.cif.g09.slc.cpg/sg58_18_cif.got.tgz:34956.got - 2010.06.26 21:38:00.
