data_PCOD8238464
_publ_section_title
;
Structure prediction by ZEFSAII (Michael W. Deem and Ramdas Pophale) SiO2 
 PCOD8238464
Probable space group: P N N M
;
_chemical_formula_sum "Si O2"
_cell_formula_units_Z 56
_cell_length_a 16.285939
_cell_length_b 19.642225
_cell_length_c 8.911044
_cell_angle_alpha 90.000000
_cell_angle_beta 90.000000
_cell_angle_gamma 90.000000
_cell_volume 2850.572384
_symmetry_space_group_name_H-M "P N N M"
_symmetry_group_IT_number 58
_symmetry_cell_setting 'orthorhombic'
loop_
_space_group_symop_operation_xyz
x,y,z
-x,-y,z
1/2+x,1/2-y,1/2-z
1/2-x,1/2+y,1/2-z
-x,-y,-z
x,y,-z
1/2-x,1/2+y,1/2+z
1/2+x,1/2-y,1/2+z
loop_
_atom_site_type_symbol
_atom_site_label
_atom_site_fract_x
_atom_site_fract_y
_atom_site_fract_z
Si Si1 0.563954 0.945131 0.677946
Si Si2 0.801729 0.131194 0.673155
Si Si3 0.517637 0.193095 0.673657
Si Si4 0.255850 0.019125 0.325313
Si Si5 0.147866 0.128593 0.176201
Si Si6 0.182530 0.267625 0.323007
Si Si7 0.536187 0.657717 0.671785
O O1 0.565233 0.951387 0.500000
O O2 0.537158 0.869916 0.729831
O O3 0.654912 0.960383 0.739108
O O4 0.500000 0.000000 0.745197
O O5 0.796188 0.152184 0.500000
O O6 0.761414 0.189593 0.773558
O O7 0.896603 0.123878 0.720884
O O8 0.755515 0.060623 0.702765
O O9 0.543412 0.184779 0.500000
O O10 0.601080 0.194248 0.767412
O O11 0.464948 0.261033 0.698055
O O12 0.246367 0.037856 0.500000
O O13 0.187192 0.058864 0.232257
O O14 0.191149 0.192269 0.255903
O O15 0.051564 0.126247 0.216742
O O16 0.160207 0.138026 0.000000
O O17 0.181109 0.261431 0.500000
O O18 0.557836 0.640561 0.500000
#
# Coordination Sequence:
#
# PCOD8238464 Si02
#       7
#     8   8   8   8   8   8   8
#     4   9  17  32  57  85 116 154 193 233 286 352
#     4  11  23  38  58  86 120 155 199 247 294 349
#     4   9  18  35  58  84 114 148 192 241 294 354
#     4  10  22  38  59  88 119 157 200 243 295 355
#     4  10  22  41  62  86 117 153 195 246 302 358
#     4  11  22  37  60  86 117 155 197 242 295 354
#     4   9  20  37  57  83 113 151 198 243 295 355
#
# _framework density 19.645178000000001
#
# number of rings (size 3 to 8) (size 9 to 14) (size 15 to 20)
#    0.000    2.143    0.000    3.857    2.000    6.857 
#    0.000    3.571    0.000    1.714    0.000    0.000 
#    0.000    0.000    0.000    0.000    0.000    0.000 
#
# Total GULP energy -694645.571527 kJ/mol
# GULP energy per Si atom -12404.385206 kJ/mol
# Density = 1.960046 g / cm^3
# Si number density = 19.645178 Si / 1000 Ang^3
#
#
#
# Elastic Constant Matrix: (Units=GPa)
#
#
# Indices 1 2 3 4 5 6 
#
# 1 92.2890 24.6052 33.6630 0.0000 0.0000 0.0000
# 2 24.6052 43.9578 26.6148 0.0000 0.0000 0.0000
# 3 33.6630 26.6148 82.9363 0.0000 0.0000 0.0000
# 4 0.0000 0.0000 0.0000 28.0983 0.0000 0.0000
# 5 0.0000 0.0000 0.0000 0.0000 30.9381 0.0000
# 6 0.0000 0.0000 0.0000 0.0000 0.0000 37.8080
#
#
#
# Elastic Compliance Matrix: (Units=1/GPa)
#
#
# Indices 1 2 3 4 5 6 
#
# 1 0.013653 -0.005321 -0.003834 0.000000 0.000000 0.000000
# 2 -0.005321 0.030309 -0.007567 0.000000 0.000000 0.000000
# 3 -0.003834 -0.007567 0.016042 0.000000 0.000000 0.000000
# 4 0.000000 0.000000 0.000000 0.035589 0.000000 0.000000
# 5 0.000000 0.000000 0.000000 0.000000 0.032323 0.000000
# 6 0.000000 0.000000 0.000000 0.000000 0.000000 0.026449
#
#
# Mechanical properties :
#
#
# Convention : Reuss Voigt Hill
#
# Bulk Modulus (GPa) = 37.64998 43.21655 40.43326
# Shear Modulus (GPa) = 25.42455 28.32221 26.87338
#
# Velocity S-wave (km/s) = 3.60138 3.80108 3.70258
# Velocity P-wave (km/s) = 6.04151 6.42733 6.23740
#
# Compressibility (1/GPa) = 0.02656044
#
# Stress axis : x y z
#
# Youngs Moduli (GPa) = 73.24646 32.99396 62.33710
#
# Poissons Ratio (x) = 0.17555 0.23900
# Poissons Ratio (y) = 0.38972 0.47168
# Poissons Ratio (z) = 0.28083 0.24965
#
# Static dielectric constant tensor:
#      x y z
#    x 3.638830 0.000000 0.000000 
#    y 0.000000 3.571280 0.000000 
#    z 0.000000 0.000000 3.365720 
# 
# 
# High freq. dielectric constant tensor:
#      x y z
#    x 1.772510 0.000000 0.000000 
#    y 0.000000 1.768970 0.000000 
#    z 0.000000 0.000000 1.747310 
# 
# From -- ./inp_files/6432.got.cif
#   From: 2010.06.25/outbox.cif.g09.slc.cpg/sg58_4_cif.got.tgz:6432.got - 2010.06.26 21:38:00.
