data_PCOD8238052
_publ_section_title
;
Structure prediction by ZEFSAII (Michael W. Deem and Ramdas Pophale) SiO2 
 PCOD8238052
Probable space group: P N N M
;
_chemical_formula_sum "Si O2"
_cell_formula_units_Z 48
_cell_length_a 8.072952
_cell_length_b 8.853704
_cell_length_c 31.408095
_cell_angle_alpha 90.000000
_cell_angle_beta 90.000000
_cell_angle_gamma 90.000000
_cell_volume 2244.910155
_symmetry_space_group_name_H-M "P N N M"
_symmetry_group_IT_number 58
_symmetry_cell_setting 'orthorhombic'
loop_
_space_group_symop_operation_xyz
x,y,z
-x,-y,z
1/2+x,1/2-y,1/2-z
1/2-x,1/2+y,1/2-z
-x,-y,-z
x,y,-z
1/2-x,1/2+y,1/2+z
1/2+x,1/2-y,1/2+z
loop_
_atom_site_type_symbol
_atom_site_label
_atom_site_fract_x
_atom_site_fract_y
_atom_site_fract_z
Si Si1 0.937327 0.829603 0.663442
Si Si2 0.424221 0.160580 0.760586
Si Si3 0.850744 0.398202 0.889330
Si Si4 0.266302 0.290912 0.889269
Si Si5 0.077949 0.160834 0.809508
Si Si6 0.533627 0.325289 0.450983
O O1 0.747214 0.811310 0.648152
O O2 0.950911 0.742448 0.707180
O O3 0.054130 0.745965 0.628345
O O4 0.000000 0.000000 0.671621
O O5 0.239409 0.148934 0.779148
O O6 0.433694 0.251041 0.716113
O O7 0.500000 0.000000 0.750403
O O8 0.724975 0.532227 0.903700
O O9 0.000000 0.500000 0.871299
O O10 0.902381 0.283935 0.926893
O O11 0.124065 0.249742 0.853232
O O12 0.217495 0.199267 0.931655
O O13 0.000000 0.000000 0.822177
O O14 0.500000 0.500000 0.444335
O O15 0.529390 0.277820 0.500000
#
# Coordination Sequence:
#
# PCOD8238052 Si02
#       6
#     8   8   8   8   8   8
#     4   9  19  38  58  83 116 149 189 235 285 338
#     4  11  24  37  56  84 115 153 194 238 283 335
#     4   9  19  34  59  84 108 144 184 231 282 335
#     4   9  20  37  59  84 110 147 188 232 285 340
#     4  11  23  40  58  82 116 152 194 238 286 338
#     4  10  21  37  57  83 114 148 187 231 282 343
#
# _framework density 21.381703999999999
#
# number of rings (size 3 to 8) (size 9 to 14) (size 15 to 20)
#    0.000    2.167    0.000    2.000    0.000   15.667 
#    0.000    0.833    0.000    8.000    0.000    0.000 
#    0.000    0.000    0.000    0.000    0.000    0.000 
#
# Total GULP energy -594649.639392 kJ/mol
# GULP energy per Si atom -12388.534154 kJ/mol
# Density = 2.133304 g / cm^3
# Si number density = 21.381704 Si / 1000 Ang^3
#
#
#
# Elastic Constant Matrix: (Units=GPa)
#
#
# Indices 1 2 3 4 5 6 
#
# 1 67.6299 20.5746 49.0856 0.0000 0.0000 0.0000
# 2 20.5746 114.7495 67.3143 0.0000 0.0000 0.0000
# 3 49.0856 67.3143 108.9945 0.0000 0.0000 0.0000
# 4 0.0000 0.0000 0.0000 32.7125 0.0000 0.0000
# 5 0.0000 0.0000 0.0000 0.0000 26.8798 0.0000
# 6 0.0000 0.0000 0.0000 0.0000 0.0000 25.1883
#
#
#
# Elastic Compliance Matrix: (Units=1/GPa)
#
#
# Indices 1 2 3 4 5 6 
#
# 1 0.022610 0.003010 -0.012041 0.000000 0.000000 0.000000
# 2 0.003010 0.014066 -0.010043 0.000000 0.000000 0.000000
# 3 -0.012041 -0.010043 0.020800 0.000000 0.000000 0.000000
# 4 0.000000 0.000000 0.000000 0.030569 0.000000 0.000000
# 5 0.000000 0.000000 0.000000 0.000000 0.037203 0.000000
# 6 0.000000 0.000000 0.000000 0.000000 0.000000 0.039701
#
#
# Mechanical properties :
#
#
# Convention : Reuss Voigt Hill
#
# Bulk Modulus (GPa) = 51.73891 62.81365 57.27628
# Shear Modulus (GPa) = 23.86181 27.24943 25.55562
#
# Velocity S-wave (km/s) = 3.34427 3.57379 3.46093
# Velocity P-wave (km/s) = 6.25799 6.81691 6.54342
#
# Compressibility (1/GPa) = 0.01932781
#
# Stress axis : x y z
#
# Youngs Moduli (GPa) = 44.22781 71.09258 48.07760
#
# Poissons Ratio (x) = -0.21396 0.57891
# Poissons Ratio (y) = -0.13311 0.48282
# Poissons Ratio (z) = 0.53255 0.71395
#
# Static dielectric constant tensor:
#      x y z
#    x 4.283800 0.000000 0.000000 
#    y 0.000000 4.115080 0.000000 
#    z 0.000000 0.000000 3.721210 
# 
# 
# High freq. dielectric constant tensor:
#      x y z
#    x 1.839050 0.000000 0.000000 
#    y 0.000000 1.848910 0.000000 
#    z 0.000000 0.000000 1.820050 
# 
# From -- ./inp_files/34574.got.cif
#   From: 2010.06.25/outbox.cif.g09.slc.cpg/sg58_18_cif.got.tgz:34574.got - 2010.06.26 21:38:00.
