data_PCOD8238425
_publ_section_title
;
Structure prediction by ZEFSAII (Michael W. Deem and Ramdas Pophale) SiO2 
 PCOD8238425
Probable space group: P N N M
;
_chemical_formula_sum "Si O2"
_cell_formula_units_Z 56
_cell_length_a 9.257622
_cell_length_b 13.453511
_cell_length_c 22.179831
_cell_angle_alpha 90.000000
_cell_angle_beta 90.000000
_cell_angle_gamma 90.000000
_cell_volume 2762.442932
_symmetry_space_group_name_H-M "P N N M"
_symmetry_group_IT_number 58
_symmetry_cell_setting 'orthorhombic'
loop_
_space_group_symop_operation_xyz
x,y,z
-x,-y,z
1/2+x,1/2-y,1/2-z
1/2-x,1/2+y,1/2-z
-x,-y,-z
x,y,-z
1/2-x,1/2+y,1/2+z
1/2+x,1/2-y,1/2+z
loop_
_atom_site_type_symbol
_atom_site_label
_atom_site_fract_x
_atom_site_fract_y
_atom_site_fract_z
Si Si1 0.129951 0.668738 0.230257
Si Si2 0.995270 0.115735 0.065997
Si Si3 0.693324 0.636953 0.677359
Si Si4 0.337602 0.506582 0.779149
Si Si5 0.510326 0.884859 0.856622
Si Si6 0.901241 0.590973 0.861327
Si Si7 0.231953 0.740958 0.432410
O O1 0.159082 0.786220 0.232081
O O2 0.286423 0.620381 0.216491
O O3 0.081647 0.616174 0.291242
O O4 0.010994 0.653028 0.179105
O O5 0.907297 0.162417 0.120688
O O6 0.159518 0.149469 0.068928
O O7 0.928302 0.144035 0.000000
O O8 0.000000 0.000000 0.075319
O O9 0.668938 0.530439 0.709028
O O10 0.849571 0.654865 0.649800
O O11 0.500000 0.500000 0.804650
O O12 0.227182 0.445454 0.819266
O O13 0.593208 0.802902 0.897250
O O14 0.500000 0.000000 0.880932
O O15 0.819011 0.661434 0.909024
O O16 0.000000 0.500000 0.889771
O O17 0.180666 0.767082 0.500000
#
# Coordination Sequence:
#
# PCOD8238425 Si02
#       7
#     8   8   8   8   8   8   8
#     4  11  23  40  60  95 128 168 206 263 326 398
#     4  10  22  41  62  90 123 163 219 269 310 377
#     4  12  23  37  63  89 126 173 208 266 323 386
#     4  11  24  37  62  96 127 160 208 257 329 390
#     4  12  24  41  60  91 137 172 215 265 336 394
#     4  10  21  45  66  92 133 165 209 271 328 393
#     4  11  25  43  67  95 127 173 224 266 316 390
#
# _framework density 20.271910999999999
#
# number of rings (size 3 to 8) (size 9 to 14) (size 15 to 20)
#    0.000    1.000    4.286    2.571    6.000    1.143 
#    0.000    0.000    0.000    0.429    0.000    0.000 
#    0.000    0.000    0.000    0.000    0.000    0.000 
#
# Total GULP energy -693812.599953 kJ/mol
# GULP energy per Si atom -12389.510713 kJ/mol
# Density = 2.022577 g / cm^3
# Si number density = 20.271911 Si / 1000 Ang^3
#
#
#
# Elastic Constant Matrix: (Units=GPa)
#
#
# Indices 1 2 3 4 5 6 
#
# 1 112.4158 24.0926 23.5073 0.0000 0.0000 0.0000
# 2 24.0926 81.4240 30.5339 0.0000 0.0000 0.0000
# 3 23.5073 30.5339 79.3793 0.0000 0.0000 0.0000
# 4 0.0000 0.0000 0.0000 25.8272 0.0000 0.0000
# 5 0.0000 0.0000 0.0000 0.0000 28.4858 0.0000
# 6 0.0000 0.0000 0.0000 0.0000 0.0000 27.4390
#
#
#
# Elastic Compliance Matrix: (Units=1/GPa)
#
#
# Indices 1 2 3 4 5 6 
#
# 1 0.009784 -0.002113 -0.002085 0.000000 0.000000 0.000000
# 2 -0.002113 0.014808 -0.005070 0.000000 0.000000 0.000000
# 3 -0.002085 -0.005070 0.015165 0.000000 0.000000 0.000000
# 4 0.000000 0.000000 0.000000 0.038719 0.000000 0.000000
# 5 0.000000 0.000000 0.000000 0.000000 0.035105 0.000000
# 6 0.000000 0.000000 0.000000 0.000000 0.000000 0.036444
#
#
# Mechanical properties :
#
#
# Convention : Reuss Voigt Hill
#
# Bulk Modulus (GPa) = 47.12214 47.72075 47.42145
# Shear Modulus (GPa) = 28.46790 29.35609 28.91199
#
# Velocity S-wave (km/s) = 3.75147 3.80954 3.78062
# Velocity P-wave (km/s) = 6.48538 6.55298 6.51927
#
# Compressibility (1/GPa) = 0.02122145
#
# Stress axis : x y z
#
# Youngs Moduli (GPa) = 102.20356 67.53089 65.93978
#
# Poissons Ratio (x) = 0.14272 0.13746
# Poissons Ratio (y) = 0.21600 0.33433
# Poissons Ratio (z) = 0.21305 0.34239
#
# Static dielectric constant tensor:
#      x y z
#    x 3.671660 0.000000 0.000000 
#    y 0.000000 3.807690 0.000000 
#    z 0.000000 0.000000 3.659700 
# 
# 
# High freq. dielectric constant tensor:
#      x y z
#    x 1.803370 0.000000 0.000000 
#    y 0.000000 1.796720 0.000000 
#    z 0.000000 0.000000 1.769670 
# 
# From -- ./inp_files/28946.got.cif
#   From: 2010.06.25/outbox.cif.g09.slc.cpg/sg58_15_cif.got.tgz:28946.got - 2010.06.26 21:38:00.
