data_PCOD8238054
_publ_section_title
;
Structure prediction by ZEFSAII (Michael W. Deem and Ramdas Pophale) SiO2 
 PCOD8238054
Probable space group: P N N M
;
_chemical_formula_sum "Si O2"
_cell_formula_units_Z 48
_cell_length_a 11.913594
_cell_length_b 23.148737
_cell_length_c 8.636996
_cell_angle_alpha 90.000000
_cell_angle_beta 90.000000
_cell_angle_gamma 90.000000
_cell_volume 2381.950955
_symmetry_space_group_name_H-M "P N N M"
_symmetry_group_IT_number 58
_symmetry_cell_setting 'orthorhombic'
loop_
_space_group_symop_operation_xyz
x,y,z
-x,-y,z
1/2+x,1/2-y,1/2-z
1/2-x,1/2+y,1/2-z
-x,-y,-z
x,y,-z
1/2-x,1/2+y,1/2+z
1/2+x,1/2-y,1/2+z
loop_
_atom_site_type_symbol
_atom_site_label
_atom_site_fract_x
_atom_site_fract_y
_atom_site_fract_z
Si Si1 0.742907 0.608640 0.816146
Si Si2 0.328325 0.656057 0.319260
Si Si3 0.553687 0.061549 0.172053
Si Si4 0.382265 0.780722 0.317580
Si Si5 0.987793 0.066409 0.184005
Si Si6 0.407069 0.151352 0.676779
O O1 0.818676 0.558917 0.735472
O O2 0.793786 0.670627 0.757633
O O3 0.617040 0.599202 0.759218
O O4 0.748419 0.602852 0.000000
O O5 0.349593 0.660178 0.500000
O O6 0.358696 0.718064 0.241556
O O7 0.404120 0.603053 0.256871
O O8 0.198454 0.644852 0.287892
O O9 0.483105 0.095407 0.300202
O O10 0.500000 0.000000 0.159185
O O11 0.551344 0.090236 0.000000
O O12 0.366542 0.778028 0.500000
O O13 0.512101 0.795146 0.276474
O O14 0.974428 0.067455 0.000000
O O15 0.000000 0.000000 0.242226
O O16 0.366284 0.155549 0.500000
#
# Coordination Sequence:
#
# PCOD8238054 Si02
#       6
#     8   8   8   8   8   8
#     4  10  21  38  60  86 118 149 188 244 295 345
#     4  10  21  38  60  82 114 157 195 237 288 344
#     4  10  21  37  60  85 112 150 193 233 281 345
#     4   8  18  37  58  83 114 148 186 236 294 349
#     4  10  23  40  58  83 117 159 203 240 283 350
#     4  10  21  37  57  86 119 145 187 242 292 344
#
# _framework density 20.151548999999999
#
# number of rings (size 3 to 8) (size 9 to 14) (size 15 to 20)
#    0.000    2.333    0.000    2.500    4.667    2.333 
#    0.000    4.167    0.000    0.000    0.000    0.000 
#    0.000    0.000    0.000    0.000    0.000    0.000 
#
# Total GULP energy -594933.460855 kJ/mol
# GULP energy per Si atom -12394.447101 kJ/mol
# Density = 2.010568 g / cm^3
# Si number density = 20.151549 Si / 1000 Ang^3
#
#
#
# Elastic Constant Matrix: (Units=GPa)
#
#
# Indices 1 2 3 4 5 6 
#
# 1 132.8364 49.0983 16.1226 0.0000 0.0000 0.0000
# 2 49.0983 102.6885 21.0178 0.0000 0.0000 0.0000
# 3 16.1226 21.0178 32.1352 0.0000 0.0000 0.0000
# 4 0.0000 0.0000 0.0000 15.8820 0.0000 0.0000
# 5 0.0000 0.0000 0.0000 0.0000 31.6789 0.0000
# 6 0.0000 0.0000 0.0000 0.0000 0.0000 19.3178
#
#
#
# Elastic Compliance Matrix: (Units=1/GPa)
#
#
# Indices 1 2 3 4 5 6 
#
# 1 0.009256 -0.004012 -0.002020 0.000000 0.000000 0.000000
# 2 -0.004012 0.012982 -0.006478 0.000000 0.000000 0.000000
# 3 -0.002020 -0.006478 0.036369 0.000000 0.000000 0.000000
# 4 0.000000 0.000000 0.000000 0.062964 0.000000 0.000000
# 5 0.000000 0.000000 0.000000 0.000000 0.031567 0.000000
# 6 0.000000 0.000000 0.000000 0.000000 0.000000 0.051766
#
#
# Mechanical properties :
#
#
# Convention : Reuss Voigt Hill
#
# Bulk Modulus (GPa) = 29.77315 48.90414 39.33864
# Shear Modulus (GPa) = 20.73654 25.47050 23.10352
#
# Velocity S-wave (km/s) = 3.21133 3.55906 3.38966
# Velocity P-wave (km/s) = 5.34386 6.41951 5.90622
#
# Compressibility (1/GPa) = 0.03358731
#
# Stress axis : x y z
#
# Youngs Moduli (GPa) = 108.03588 77.02696 27.49606
#
# Poissons Ratio (x) = 0.30905 0.05554
# Poissons Ratio (y) = 0.43347 0.17812
# Poissons Ratio (z) = 0.21821 0.49899
#
# Static dielectric constant tensor:
#      x y z
#    x 3.721300 0.000000 0.000000 
#    y 0.000000 4.007820 0.000000 
#    z 0.000000 0.000000 3.545850 
# 
# 
# High freq. dielectric constant tensor:
#      x y z
#    x 1.793750 0.000000 0.000000 
#    y 0.000000 1.785100 0.000000 
#    z 0.000000 0.000000 1.768100 
# 
# From -- ./inp_files/4263.got.cif
#   From: 2010.06.25/outbox.cif.g09.slc.cpg/sg58_3_cif.got.tgz:4263.got - 2010.06.26 21:38:00.
