data_PCOD8238856
_publ_section_title
;
Structure prediction by ZEFSAII (Michael W. Deem and Ramdas Pophale) SiO2 
 PCOD8238856
Probable space group: P N N M
;
_chemical_formula_sum "Si O2"
_cell_formula_units_Z 40
_cell_length_a 15.429329
_cell_length_b 15.306605
_cell_length_c 8.361145
_cell_angle_alpha 90.000000
_cell_angle_beta 90.000000
_cell_angle_gamma 90.000000
_cell_volume 1974.657003
_symmetry_space_group_name_H-M "P N N M"
_symmetry_group_IT_number 58
_symmetry_cell_setting 'orthorhombic'
loop_
_space_group_symop_operation_xyz
x,y,z
-x,-y,z
1/2+x,1/2-y,1/2-z
1/2-x,1/2+y,1/2-z
-x,-y,-z
x,y,-z
1/2-x,1/2+y,1/2+z
1/2+x,1/2-y,1/2+z
loop_
_atom_site_type_symbol
_atom_site_label
_atom_site_fract_x
_atom_site_fract_y
_atom_site_fract_z
Si Si1 0.936372 0.428009 0.309713
Si Si2 0.157744 0.175060 0.688522
Si Si3 0.250157 0.011005 0.813067
Si Si4 0.527492 0.737890 0.189900
Si Si5 0.712953 0.677809 0.813448
O O1 0.941039 0.427900 0.500000
O O2 0.839697 0.447676 0.252805
O O3 0.966278 0.335496 0.240087
O O4 0.000000 0.500000 0.235926
O O5 0.157692 0.160207 0.500000
O O6 0.178581 0.083404 0.773221
O O7 0.223721 0.253762 0.726812
O O8 0.061432 0.196370 0.754909
O O9 0.238662 0.921446 0.718141
O O10 0.249915 0.988827 0.000000
O O11 0.613673 0.687170 0.248067
O O12 0.523795 0.740057 0.000000
O O13 0.718758 0.700119 0.000000
#
# Coordination Sequence:
#
# PCOD8238856 Si02
#       5
#     8   8   8   8   8
#     4   9  16  31  58  86 110 146 200 246 286 349
#     4  11  22  39  63  90 120 157 204 250 301 362
#     4  11  22  38  61  88 122 160 201 250 302 354
#     4   9  19  36  59  85 116 161 203 239 294 372
#     4  11  22  40  62  87 122 161 204 250 301 359
#
# _framework density 20.256682999999999
#
# number of rings (size 3 to 8) (size 9 to 14) (size 15 to 20)
#    0.000    1.800    2.000    3.000    0.000    4.000 
#    0.000    8.000    0.000    2.400    0.000    0.000 
#    0.000    0.000    0.000    0.000    0.000    0.000 
#
# Total GULP energy -495967.935760 kJ/mol
# GULP energy per Si atom -12399.198394 kJ/mol
# Density = 2.021058 g / cm^3
# Si number density = 20.256683 Si / 1000 Ang^3
#
#
#
# Elastic Constant Matrix: (Units=GPa)
#
#
# Indices 1 2 3 4 5 6 
#
# 1 88.6132 -15.4591 20.4746 0.0000 0.0000 0.0000
# 2 -15.4591 67.3726 5.1290 0.0000 0.0000 0.0000
# 3 20.4746 5.1290 25.8661 0.0000 0.0000 0.0000
# 4 0.0000 0.0000 0.0000 -21.0300 0.0000 0.0000
# 5 0.0000 0.0000 0.0000 0.0000 25.0024 0.0000
# 6 0.0000 0.0000 0.0000 0.0000 0.0000 44.7883
#
#
#
# Elastic Compliance Matrix: (Units=1/GPa)
#
#
# Indices 1 2 3 4 5 6 
#
# 1 0.015000 0.004413 -0.012749 0.000000 0.000000 0.000000
# 2 0.004413 0.016368 -0.006738 0.000000 0.000000 0.000000
# 3 -0.012749 -0.006738 0.050088 0.000000 0.000000 0.000000
# 4 0.000000 0.000000 0.000000 -0.047551 0.000000 0.000000
# 5 0.000000 0.000000 0.000000 0.000000 0.039996 0.000000
# 6 0.000000 0.000000 0.000000 0.000000 0.000000 0.022327
#
#
# Mechanical properties :
#
#
# Convention : Reuss Voigt Hill
#
# Bulk Modulus (GPa) = 19.49028 22.46010 20.97519
# Shear Modulus (GPa) = 34.84781 21.19931 28.02356
#
# Velocity S-wave (km/s) = 4.15216 3.23853 3.72347
# Velocity P-wave (km/s) = 5.71225 5.00958 5.37242
#
# Compressibility (1/GPa) = 0.05130762
#
# Stress axis : x y z
#
# Youngs Moduli (GPa) = 66.66467 61.09373 19.96478
#
# Poissons Ratio (x) = -0.26958 0.25453
# Poissons Ratio (y) = -0.29416 0.13453
# Poissons Ratio (z) = 0.84989 0.41168
#
# Static dielectric constant tensor:
#      x y z
#    x 4.030360 0.000000 0.000000 
#    y 0.000000 3.775590 0.000000 
#    z 0.000000 0.000000 3.292530 
# 
# 
# High freq. dielectric constant tensor:
#      x y z
#    x 1.806130 0.000000 0.000000 
#    y 0.000000 1.803000 0.000000 
#    z 0.000000 0.000000 1.759100 
# 
# From -- ./inp_files/5362.got.cif
#   From: 2010.06.25/outbox.cif.g09.slc.cpg/sg58_3_cif.got.tgz:5362.got - 2010.06.26 21:38:00.
