data_PCOD8238541
_publ_section_title
;
Structure prediction by ZEFSAII (Michael W. Deem and Ramdas Pophale) SiO2 
 PCOD8238541
Probable space group: P N N M
;
_chemical_formula_sum "Si O2"
_cell_formula_units_Z 56
_cell_length_a 9.077762
_cell_length_b 14.151047
_cell_length_c 21.558786
_cell_angle_alpha 90.000000
_cell_angle_beta 90.000000
_cell_angle_gamma 90.000000
_cell_volume 2769.438129
_symmetry_space_group_name_H-M "P N N M"
_symmetry_group_IT_number 58
_symmetry_cell_setting 'orthorhombic'
loop_
_space_group_symop_operation_xyz
x,y,z
-x,-y,z
1/2+x,1/2-y,1/2-z
1/2-x,1/2+y,1/2-z
-x,-y,-z
x,y,-z
1/2-x,1/2+y,1/2+z
1/2+x,1/2-y,1/2+z
loop_
_atom_site_type_symbol
_atom_site_label
_atom_site_fract_x
_atom_site_fract_y
_atom_site_fract_z
Si Si1 0.677086 0.996701 0.802066
Si Si2 0.134294 0.640133 0.000000
Si Si3 0.181001 0.182191 0.255526
Si Si4 0.577669 0.595754 0.098004
Si Si5 0.342146 0.954796 0.932455
Si Si6 0.823216 0.764215 0.397957
Si Si7 0.811500 0.581688 0.000000
Si Si8 0.148245 0.852784 0.269193
O O1 0.729234 0.987381 0.874543
O O2 0.748414 0.093468 0.778852
O O3 0.500000 0.000000 0.797146
O O4 0.740243 0.916057 0.758474
O O5 0.190881 0.693714 0.938795
O O6 0.176539 0.530834 0.000000
O O7 0.958656 0.643053 0.000000
O O8 0.211235 0.212787 0.326411
O O9 0.261662 0.258743 0.211836
O O10 0.008627 0.175143 0.238568
O O11 0.500000 0.500000 0.075186
O O12 0.473772 0.684105 0.083113
O O13 0.726958 0.613161 0.061475
O O14 0.616561 0.584986 0.170297
O O15 0.349517 0.845721 0.911288
O O16 0.500000 0.000000 0.942630
O O17 0.259257 0.963170 0.000000
#
# Coordination Sequence:
#
# PCOD8238541 Si02
#       8
#     8   4   8   8   8   8   4   8
#     4  11  23  41  65  94 131 167 218 275 327 396
#     4  11  23  38  64  91 138 167 215 267 334 395
#     4  11  24  40  66  94 129 167 218 267 333 394
#     4  11  22  39  62  90 128 170 217 261 322 405
#     4  10  22  40  67  96 122 168 227 270 313 387
#     4  11  21  41  66  93 125 177 220 266 325 397
#     4  11  24  39  56 100 130 170 210 270 334 392
#     4  11  23  41  62  97 125 168 212 267 327 392
#
# _framework density 20.220707999999998
#
# number of rings (size 3 to 8) (size 9 to 14) (size 15 to 20)
#    0.000    1.143    3.571    3.643    6.000    2.286 
#    0.000    0.000    0.000    1.714    0.000    0.000 
#    0.000    0.000    0.000    0.000    0.000    0.000 
#
# Total GULP energy -694128.128569 kJ/mol
# GULP energy per Si atom -12395.145153 kJ/mol
# Density = 2.017468 g / cm^3
# Si number density = 20.220708 Si / 1000 Ang^3
#
#
#
# Elastic Constant Matrix: (Units=GPa)
#
#
# Indices 1 2 3 4 5 6 
#
# 1 136.0140 44.6020 53.0802 0.0000 0.0000 0.0000
# 2 44.6020 99.1965 34.5900 0.0000 0.0000 0.0000
# 3 53.0802 34.5900 101.2032 0.0000 0.0000 0.0000
# 4 0.0000 0.0000 0.0000 28.4606 0.0000 0.0000
# 5 0.0000 0.0000 0.0000 0.0000 20.3327 0.0000
# 6 0.0000 0.0000 0.0000 0.0000 0.0000 39.2307
#
#
#
# Elastic Compliance Matrix: (Units=1/GPa)
#
#
# Indices 1 2 3 4 5 6 
#
# 1 0.009984 -0.003023 -0.004203 0.000000 0.000000 0.000000
# 2 -0.003023 0.012361 -0.002639 0.000000 0.000000 0.000000
# 3 -0.004203 -0.002639 0.012988 0.000000 0.000000 0.000000
# 4 0.000000 0.000000 0.000000 0.035136 0.000000 0.000000
# 5 0.000000 0.000000 0.000000 0.000000 0.049182 0.000000
# 6 0.000000 0.000000 0.000000 0.000000 0.000000 0.025490
#
#
# Mechanical properties :
#
#
# Convention : Reuss Voigt Hill
#
# Bulk Modulus (GPa) = 64.09793 66.77312 65.43553
# Shear Modulus (GPa) = 29.39935 31.21426 30.30680
#
# Velocity S-wave (km/s) = 3.81717 3.93323 3.87563
# Velocity P-wave (km/s) = 7.15512 7.32945 7.24281
#
# Compressibility (1/GPa) = 0.01560113
#
# Stress axis : x y z
#
# Youngs Moduli (GPa) = 100.16102 80.90184 76.99685
#
# Poissons Ratio (x) = 0.24460 0.32362
# Poissons Ratio (y) = 0.30283 0.20319
# Poissons Ratio (z) = 0.42099 0.21349
#
# Static dielectric constant tensor:
#      x y z
#    x 3.655240 0.000000 0.000000 
#    y 0.000000 3.761160 0.000000 
#    z 0.000000 0.000000 3.992150 
# 
# 
# High freq. dielectric constant tensor:
#      x y z
#    x 1.777200 0.000000 0.000000 
#    y 0.000000 1.797800 0.000000 
#    z 0.000000 0.000000 1.799700 
# 
# From -- ./inp_files/28999.got.cif
#   From: 2010.06.25/outbox.cif.g09.slc.cpg/sg58_15_cif.got.tgz:28999.got - 2010.06.26 21:38:00.
