data_PCOD8238092
_publ_section_title
;
Structure prediction by ZEFSAII (Michael W. Deem and Ramdas Pophale) SiO2 
 PCOD8238092
Probable space group: P N N M
;
_chemical_formula_sum "Si O2"
_cell_formula_units_Z 32
_cell_length_a 16.267884
_cell_length_b 8.639832
_cell_length_c 10.391315
_cell_angle_alpha 90.000000
_cell_angle_beta 90.000000
_cell_angle_gamma 90.000000
_cell_volume 1460.517869
_symmetry_space_group_name_H-M "P N N M"
_symmetry_group_IT_number 58
_symmetry_cell_setting 'orthorhombic'
loop_
_space_group_symop_operation_xyz
x,y,z
-x,-y,z
1/2+x,1/2-y,1/2-z
1/2-x,1/2+y,1/2-z
-x,-y,-z
x,y,-z
1/2-x,1/2+y,1/2+z
1/2+x,1/2-y,1/2+z
loop_
_atom_site_type_symbol
_atom_site_label
_atom_site_fract_x
_atom_site_fract_y
_atom_site_fract_z
Si Si1 0.426651 0.822930 0.644188
Si Si2 0.881105 0.445245 0.643283
Si Si3 0.806557 0.942401 0.853097
Si Si4 0.943248 0.133553 0.276668
O O1 0.430278 0.894417 0.500000
O O2 0.342017 0.730075 0.665129
O O3 0.502515 0.703232 0.659249
O O4 0.431638 0.957239 0.751297
O O5 0.888003 0.520326 0.500000
O O6 0.787511 0.438099 0.692514
O O7 0.919864 0.273825 0.629037
O O8 0.857044 0.065280 0.770305
O O9 0.813103 0.995740 0.000000
O O10 0.000000 0.000000 0.344370
#
# Coordination Sequence:
#
# PCOD8238092 Si02
#       4
#     8   8   8   8
#     4  10  21  38  61  87 115 151 196 243 288 338
#     4  11  23  38  58  86 121 156 190 235 289 346
#     4   9  19  38  61  86 115 149 194 244 291 338
#     4  10  21  37  59  86 116 151 192 239 288 339
#
# _framework density 21.910038
#
# number of rings (size 3 to 8) (size 9 to 14) (size 15 to 20)
#    0.000    2.000    0.000    3.000    0.000    8.500 
#    0.000    5.000    0.000    0.000    0.000    0.000 
#    0.000    0.000    0.000    0.000    0.000    0.000 
#
# Total GULP energy -396636.618530 kJ/mol
# GULP energy per Si atom -12394.894329 kJ/mol
# Density = 2.186017 g / cm^3
# Si number density = 21.910038 Si / 1000 Ang^3
#
#
#
# Elastic Constant Matrix: (Units=GPa)
#
#
# Indices 1 2 3 4 5 6 
#
# 1 131.5203 45.4496 26.5443 0.0000 0.0000 0.0000
# 2 45.4496 111.7631 45.5774 0.0000 0.0000 0.0000
# 3 26.5443 45.5774 108.6746 0.0000 0.0000 0.0000
# 4 0.0000 0.0000 0.0000 33.2280 0.0000 0.0000
# 5 0.0000 0.0000 0.0000 0.0000 176.2493 0.0000
# 6 0.0000 0.0000 0.0000 0.0000 0.0000 38.8022
#
#
#
# Elastic Compliance Matrix: (Units=1/GPa)
#
#
# Indices 1 2 3 4 5 6 
#
# 1 0.008903 -0.003298 -0.000792 0.000000 0.000000 0.000000
# 2 -0.003298 0.012015 -0.004234 0.000000 0.000000 0.000000
# 3 -0.000792 -0.004234 0.011171 0.000000 0.000000 0.000000
# 4 0.000000 0.000000 0.000000 0.030095 0.000000 0.000000
# 5 0.000000 0.000000 0.000000 0.000000 0.005674 0.000000
# 6 0.000000 0.000000 0.000000 0.000000 0.000000 0.025772
#
#
# Mechanical properties :
#
#
# Convention : Reuss Voigt Hill
#
# Bulk Modulus (GPa) = 64.75442 65.23338 64.99390
# Shear Modulus (GPa) = 43.31936 65.28168 54.30052
#
# Velocity S-wave (km/s) = 4.45134 5.46443 4.98369
# Velocity P-wave (km/s) = 7.48586 8.34573 7.92746
#
# Compressibility (1/GPa) = 0.01544296
#
# Stress axis : x y z
#
# Youngs Moduli (GPa) = 112.32560 83.22974 89.52048
#
# Poissons Ratio (x) = 0.27446 0.07086
# Poissons Ratio (y) = 0.37040 0.37899
# Poissons Ratio (z) = 0.08891 0.35236
#
# Static dielectric constant tensor:
#      x y z
#    x 4.162780 0.000000 0.000000 
#    y 0.000000 3.874270 0.000000 
#    z 0.000000 0.000000 3.507810 
# 
# 
# High freq. dielectric constant tensor:
#      x y z
#    x 1.884910 0.000000 0.000000 
#    y 0.000000 1.857920 0.000000 
#    z 0.000000 0.000000 1.830780 
# 
# From -- ./inp_files/12622.got.cif
#   From: 2010.06.25/outbox.cif.g09.slc.cpg/sg58_7_cif.got.tgz:12622.got - 2010.06.26 21:38:00.
