data_PCOD8238062
_publ_section_title
;
Structure prediction by ZEFSAII (Michael W. Deem and Ramdas Pophale) SiO2 
 PCOD8238062
Probable space group: P N N M
;
_chemical_formula_sum "Si O2"
_cell_formula_units_Z 64
_cell_length_a 14.526172
_cell_length_b 25.702657
_cell_length_c 9.073070
_cell_angle_alpha 90.000000
_cell_angle_beta 90.000000
_cell_angle_gamma 90.000000
_cell_volume 3387.532452
_symmetry_space_group_name_H-M "P N N M"
_symmetry_group_IT_number 58
_symmetry_cell_setting 'orthorhombic'
loop_
_space_group_symop_operation_xyz
x,y,z
-x,-y,z
1/2+x,1/2-y,1/2-z
1/2-x,1/2+y,1/2-z
-x,-y,-z
x,y,-z
1/2-x,1/2+y,1/2+z
1/2+x,1/2-y,1/2+z
loop_
_atom_site_type_symbol
_atom_site_label
_atom_site_fract_x
_atom_site_fract_y
_atom_site_fract_z
Si Si1 0.650386 0.631400 0.672385
Si Si2 0.016629 0.668133 0.830187
Si Si3 0.995559 0.787506 0.828834
Si Si4 0.675826 0.891482 0.172339
Si Si5 0.105277 0.495317 0.327524
Si Si6 0.861191 0.860157 0.670698
Si Si7 0.330885 0.893338 0.328956
Si Si8 0.017864 0.941491 0.330010
O O1 0.668282 0.625801 0.500000
O O2 0.588771 0.681607 0.711649
O O3 0.747137 0.637484 0.754131
O O4 0.599882 0.579598 0.729270
O O5 0.010637 0.728140 0.784509
O O6 0.919088 0.641930 0.800883
O O7 0.088788 0.641315 0.723801
O O8 0.047331 0.661728 0.000000
O O9 0.909105 0.809196 0.738085
O O10 0.971448 0.794160 0.000000
O O11 0.659189 0.951852 0.210007
O O12 0.764574 0.870281 0.253885
O O13 0.689103 0.883015 0.000000
O O14 0.107292 0.482051 0.500000
O O15 0.156895 0.450032 0.241050
O O16 0.000000 0.500000 0.272231
O O17 0.843733 0.849403 0.500000
O O18 0.924494 0.910145 0.698942
O O19 0.309474 0.900956 0.500000
O O20 0.048661 0.937647 0.500000
O O21 0.000000 0.000000 0.280048
#
# Coordination Sequence:
#
# PCOD8238062 Si02
#       8
#     8   8   8   8   8   8   8   8
#     4  10  21  37  58  83 114 151 190 235 284 340
#     4  10  22  40  61  86 115 150 196 243 289 342
#     4   9  20  41  63  84 115 152 192 241 291 339
#     4  11  23  38  59  86 118 154 192 237 287 344
#     4  10  21  39  59  82 116 153 191 236 286 344
#     4  10  21  37  58  85 118 152 191 237 286 343
#     4  11  23  37  58  86 117 152 191 238 288 343
#     4   9  19  36  56  81 112 147 188 235 285 338
#
# _framework density 18.892809
#
# number of rings (size 3 to 8) (size 9 to 14) (size 15 to 20)
#    0.000    2.000    1.250    1.500    1.750    4.500 
#    0.000    2.500    0.000    0.000    0.000    0.000 
#    0.000    0.000    0.000    0.000    0.000    0.000 
#
# Total GULP energy -793939.697531 kJ/mol
# GULP energy per Si atom -12405.307774 kJ/mol
# Density = 1.884981 g / cm^3
# Si number density = 18.892809 Si / 1000 Ang^3
#
#
#
# Elastic Constant Matrix: (Units=GPa)
#
#
# Indices 1 2 3 4 5 6 
#
# 1 110.9536 40.7536 60.7786 0.0000 0.0000 0.0000
# 2 40.7536 123.4346 53.1917 0.0000 0.0000 0.0000
# 3 60.7786 53.1917 91.5809 0.0000 0.0000 0.0000
# 4 0.0000 0.0000 0.0000 22.2703 0.0000 0.0000
# 5 0.0000 0.0000 0.0000 0.0000 36.9510 0.0000
# 6 0.0000 0.0000 0.0000 0.0000 0.0000 34.7838
#
#
#
# Elastic Compliance Matrix: (Units=1/GPa)
#
#
# Indices 1 2 3 4 5 6 
#
# 1 0.014226 -0.000838 -0.008954 0.000000 0.000000 0.000000
# 2 -0.000838 0.010856 -0.005749 0.000000 0.000000 0.000000
# 3 -0.008954 -0.005749 0.020201 0.000000 0.000000 0.000000
# 4 0.000000 0.000000 0.000000 0.044903 0.000000 0.000000
# 5 0.000000 0.000000 0.000000 0.000000 0.027063 0.000000
# 6 0.000000 0.000000 0.000000 0.000000 0.000000 0.028749
#
#
# Mechanical properties :
#
#
# Convention : Reuss Voigt Hill
#
# Bulk Modulus (GPa) = 70.42401 70.60187 70.51294
# Shear Modulus (GPa) = 27.50094 30.21738 28.85916
#
# Velocity S-wave (km/s) = 3.81941 4.00360 3.91259
# Velocity P-wave (km/s) = 7.53704 7.66959 7.60361
#
# Compressibility (1/GPa) = 0.01419970
#
# Stress axis : x y z
#
# Youngs Moduli (GPa) = 70.29609 92.11905 49.50300
#
# Poissons Ratio (x) = 0.07721 0.44326
# Poissons Ratio (y) = 0.05892 0.28458
# Poissons Ratio (z) = 0.62944 0.52957
#
# Static dielectric constant tensor:
#      x y z
#    x 3.388580 0.000000 0.000000 
#    y 0.000000 3.481570 0.000000 
#    z 0.000000 0.000000 3.513340 
# 
# 
# High freq. dielectric constant tensor:
#      x y z
#    x 1.740580 0.000000 0.000000 
#    y 0.000000 1.737190 0.000000 
#    z 0.000000 0.000000 1.739420 
# 
# From -- ./inp_files/6945.got.cif
#   From: 2010.06.25/outbox.cif.g09.slc.cpg/sg58_4_cif.got.tgz:6945.got - 2010.06.26 21:38:00.
