data_PCOD8238229
_publ_section_title
;
Structure prediction by ZEFSAII (Michael W. Deem and Ramdas Pophale) SiO2 
 PCOD8238229
Probable space group: P N N M
;
_chemical_formula_sum "Si O2"
_cell_formula_units_Z 48
_cell_length_a 23.739815
_cell_length_b 11.491704
_cell_length_c 8.624576
_cell_angle_alpha 90.000000
_cell_angle_beta 90.000000
_cell_angle_gamma 90.000000
_cell_volume 2352.878573
_symmetry_space_group_name_H-M "P N N M"
_symmetry_group_IT_number 58
_symmetry_cell_setting 'orthorhombic'
loop_
_space_group_symop_operation_xyz
x,y,z
-x,-y,z
1/2+x,1/2-y,1/2-z
1/2-x,1/2+y,1/2-z
-x,-y,-z
x,y,-z
1/2-x,1/2+y,1/2+z
1/2+x,1/2-y,1/2+z
loop_
_atom_site_type_symbol
_atom_site_label
_atom_site_fract_x
_atom_site_fract_y
_atom_site_fract_z
Si Si1 0.030970 0.239806 0.179984
Si Si2 0.199236 0.335743 0.319455
Si Si3 0.369810 0.611908 0.820056
Si Si4 0.101246 0.467705 0.179885
Si Si5 0.172923 0.876458 0.819269
Si Si6 0.084333 0.711599 0.320061
O O1 0.073111 0.135724 0.224733
O O2 0.059709 0.362380 0.221749
O O3 0.974147 0.225669 0.277822
O O4 0.015793 0.231157 0.000000
O O5 0.190350 0.362531 0.500000
O O6 0.177614 0.206837 0.276227
O O7 0.164886 0.432352 0.223452
O O8 0.263923 0.343624 0.269869
O O9 0.346504 0.486318 0.779104
O O10 0.385144 0.617568 0.000000
O O11 0.080322 0.575856 0.280143
O O12 0.098238 0.501153 0.000000
O O13 0.134580 0.766277 0.779696
O O14 0.168775 0.906292 0.000000
O O15 0.097065 0.730029 0.500000
#
# Coordination Sequence:
#
# PCOD8238229 Si02
#       6
#     8   8   8   8   8   8
#     4  10  21  40  64  90 120 159 201 248 302 360
#     4   9  21  40  62  88 120 157 198 246 299 354
#     4  10  21  40  63  89 120 157 200 248 301 359
#     4  10  21  38  63  92 122 158 200 247 301 356
#     4  11  24  41  60  88 122 161 203 247 299 358
#     4  12  25  39  59  90 124 160 202 250 300 355
#
# _framework density 20.400542000000002
#
# number of rings (size 3 to 8) (size 9 to 14) (size 15 to 20)
#    0.000    1.667    0.000    4.000    2.333    6.667 
#    0.000    3.333    0.000    0.000    0.000    0.000 
#    0.000    0.000    0.000    0.000    0.000    0.000 
#
# Total GULP energy -595550.495018 kJ/mol
# GULP energy per Si atom -12407.301980 kJ/mol
# Density = 2.035411 g / cm^3
# Si number density = 20.400542 Si / 1000 Ang^3
#
#
#
# Elastic Constant Matrix: (Units=GPa)
#
#
# Indices 1 2 3 4 5 6 
#
# 1 119.3114 5.6090 27.3956 0.0000 0.0000 0.0000
# 2 5.6090 43.1836 14.7530 0.0000 0.0000 0.0000
# 3 27.3956 14.7530 51.3299 0.0000 0.0000 0.0000
# 4 0.0000 0.0000 0.0000 34.9479 0.0000 0.0000
# 5 0.0000 0.0000 0.0000 0.0000 34.1437 0.0000
# 6 0.0000 0.0000 0.0000 0.0000 0.0000 21.6156
#
#
#
# Elastic Compliance Matrix: (Units=1/GPa)
#
#
# Indices 1 2 3 4 5 6 
#
# 1 0.009564 0.000556 -0.005264 0.000000 0.000000 0.000000
# 2 0.000556 0.025711 -0.007687 0.000000 0.000000 0.000000
# 3 -0.005264 -0.007687 0.024501 0.000000 0.000000 0.000000
# 4 0.000000 0.000000 0.000000 0.028614 0.000000 0.000000
# 5 0.000000 0.000000 0.000000 0.000000 0.029288 0.000000
# 6 0.000000 0.000000 0.000000 0.000000 0.000000 0.046263
#
#
# Mechanical properties :
#
#
# Convention : Reuss Voigt Hill
#
# Bulk Modulus (GPa) = 28.58271 34.37111 31.47691
# Shear Modulus (GPa) = 24.95114 29.21259 27.08186
#
# Velocity S-wave (km/s) = 3.50102 3.78822 3.64745
# Velocity P-wave (km/s) = 5.51218 6.00157 5.76207
#
# Compressibility (1/GPa) = 0.03498618
#
# Stress axis : x y z
#
# Youngs Moduli (GPa) = 104.55824 38.89431 40.81509
#
# Poissons Ratio (x) = -0.02163 0.21487
# Poissons Ratio (y) = -0.05816 0.31373
# Poissons Ratio (z) = 0.55043 0.29896
#
# Static dielectric constant tensor:
#      x y z
#    x 3.794320 0.000000 0.000000 
#    y 0.000000 3.588380 0.000000 
#    z 0.000000 0.000000 3.678530 
# 
# 
# High freq. dielectric constant tensor:
#      x y z
#    x 1.806010 0.000000 0.000000 
#    y 0.000000 1.794070 0.000000 
#    z 0.000000 0.000000 1.803110 
# 
# From -- ./inp_files/4226.got.cif
#   From: 2010.06.25/outbox.cif.g09.slc.cpg/sg58_3_cif.got.tgz:4226.got - 2010.06.26 21:38:00.
