data_PCOD8238867
_publ_section_title
;
Structure prediction by ZEFSAII (Michael W. Deem and Ramdas Pophale) SiO2 
 PCOD8238867
Probable space group: P N N M
;
_chemical_formula_sum "Si O2"
_cell_formula_units_Z 40
_cell_length_a 5.075291
_cell_length_b 13.023467
_cell_length_c 26.468902
_cell_angle_alpha 90.000000
_cell_angle_beta 90.000000
_cell_angle_gamma 90.000000
_cell_volume 1749.538437
_symmetry_space_group_name_H-M "P N N M"
_symmetry_group_IT_number 58
_symmetry_cell_setting 'orthorhombic'
loop_
_space_group_symop_operation_xyz
x,y,z
-x,-y,z
1/2+x,1/2-y,1/2-z
1/2-x,1/2+y,1/2-z
-x,-y,-z
x,y,-z
1/2-x,1/2+y,1/2+z
1/2+x,1/2-y,1/2+z
loop_
_atom_site_type_symbol
_atom_site_label
_atom_site_fract_x
_atom_site_fract_y
_atom_site_fract_z
Si Si1 0.575653 0.112460 0.206116
Si Si2 0.205504 0.297570 0.811706
Si Si3 0.860306 0.183521 0.880558
Si Si4 0.163722 0.720630 0.557570
Si Si5 0.260928 0.432347 0.099983
O O1 0.346142 0.186332 0.185023
O O2 0.702186 0.169378 0.253912
O O3 0.775197 0.094492 0.159007
O O4 0.500000 0.000000 0.225316
O O5 0.343585 0.387022 0.844597
O O6 0.927899 0.279447 0.841914
O O7 0.623719 0.212855 0.917890
O O8 0.117112 0.150852 0.913334
O O9 0.145848 0.683762 0.500000
O O10 0.273032 0.837107 0.561285
O O11 0.500000 0.500000 0.079631
O O12 0.000000 0.500000 0.101489
#
# Coordination Sequence:
#
# PCOD8238867 Si02
#       5
#     8   8   8   8   8
#     4  12  25  42  72 105 138 190 230 278 338 419
#     4  11  24  43  67 100 148 181 224 276 344 408
#     4  11  22  45  68  97 141 180 224 282 340 405
#     4  11  24  43  71  98 134 183 230 289 354 405
#     4  11  23  39  66  99 139 181 222 277 341 412
#
# _framework density 22.863174999999998
#
# number of rings (size 3 to 8) (size 9 to 14) (size 15 to 20)
#    0.000    0.800    6.000    3.600    0.000    3.200 
#    0.000    0.000    0.000    3.600    0.000    0.000 
#    0.000    0.000    0.000    0.000    0.000    0.000 
#
# Total GULP energy -495598.192694 kJ/mol
# GULP energy per Si atom -12389.954817 kJ/mol
# Density = 2.281114 g / cm^3
# Si number density = 22.863175 Si / 1000 Ang^3
#
#
#
# Elastic Constant Matrix: (Units=GPa)
#
#
# Indices 1 2 3 4 5 6 
#
# 1 115.6844 14.5543 43.8243 0.0000 0.0000 0.0000
# 2 14.5543 40.3586 -2.2446 0.0000 0.0000 0.0000
# 3 43.8243 -2.2446 169.0721 0.0000 0.0000 0.0000
# 4 0.0000 0.0000 0.0000 18.3290 0.0000 0.0000
# 5 0.0000 0.0000 0.0000 0.0000 36.3836 0.0000
# 6 0.0000 0.0000 0.0000 0.0000 0.0000 20.0768
#
#
#
# Elastic Compliance Matrix: (Units=1/GPa)
#
#
# Indices 1 2 3 4 5 6 
#
# 1 0.010137 -0.003805 -0.002678 0.000000 0.000000 0.000000
# 2 -0.003805 0.026224 0.001334 0.000000 0.000000 0.000000
# 3 -0.002678 0.001334 0.006627 0.000000 0.000000 0.000000
# 4 0.000000 0.000000 0.000000 0.054558 0.000000 0.000000
# 5 0.000000 0.000000 0.000000 0.000000 0.027485 0.000000
# 6 0.000000 0.000000 0.000000 0.000000 0.000000 0.049809
#
#
# Mechanical properties :
#
#
# Convention : Reuss Voigt Hill
#
# Bulk Modulus (GPa) = 30.58946 48.59813 39.59379
# Shear Modulus (GPa) = 25.50572 32.88996 29.19784
#
# Velocity S-wave (km/s) = 3.34365 3.79694 3.57749
# Velocity P-wave (km/s) = 5.32119 6.36589 5.86684
#
# Compressibility (1/GPa) = 0.03269100
#
# Stress axis : x y z
#
# Youngs Moduli (GPa) = 98.64414 38.13277 150.90810
#
# Poissons Ratio (x) = 0.14509 0.40416
# Poissons Ratio (y) = 0.37532 -0.20137
# Poissons Ratio (z) = 0.26419 -0.05088
#
# Static dielectric constant tensor:
#      x y z
#    x 4.295810 0.000000 0.000000 
#    y 0.000000 3.882080 0.000000 
#    z 0.000000 0.000000 4.239460 
# 
# 
# High freq. dielectric constant tensor:
#      x y z
#    x 1.907850 0.000000 0.000000 
#    y 0.000000 1.870060 0.000000 
#    z 0.000000 0.000000 1.910610 
# 
# From -- ./inp_files/32662.got.cif
#   From: 2010.06.25/outbox.cif.g09.slc.cpg/sg58_17_cif.got.tgz:32662.got - 2010.06.26 21:38:00.
