data_PCOD8238704
_publ_section_title
;
Structure prediction by ZEFSAII (Michael W. Deem and Ramdas Pophale) SiO2 
 PCOD8238704
Probable space group: P N N M
;
_chemical_formula_sum "Si O2"
_cell_formula_units_Z 48
_cell_length_a 5.078588
_cell_length_b 16.972702
_cell_length_c 24.491477
_cell_angle_alpha 90.000000
_cell_angle_beta 90.000000
_cell_angle_gamma 90.000000
_cell_volume 2111.100677
_symmetry_space_group_name_H-M "P N N M"
_symmetry_group_IT_number 58
_symmetry_cell_setting 'orthorhombic'
loop_
_space_group_symop_operation_xyz
x,y,z
-x,-y,z
1/2+x,1/2-y,1/2-z
1/2-x,1/2+y,1/2-z
-x,-y,-z
x,y,-z
1/2-x,1/2+y,1/2+z
1/2+x,1/2-y,1/2+z
loop_
_atom_site_type_symbol
_atom_site_label
_atom_site_fract_x
_atom_site_fract_y
_atom_site_fract_z
Si Si1 0.278872 0.299072 0.239493
Si Si2 0.330211 0.688282 0.061930
Si Si3 0.549120 0.406303 0.163443
Si Si4 0.244922 0.049414 0.879268
Si Si5 0.341487 0.709367 0.561191
Si Si6 0.101803 0.580249 0.738057
O O1 0.556486 0.270222 0.266422
O O2 0.308374 0.346683 0.180872
O O3 0.139350 0.362181 0.280379
O O4 0.333785 0.614854 0.104032
O O5 0.616607 0.725544 0.063577
O O6 0.112923 0.751246 0.081887
O O7 0.264796 0.658446 0.000000
O O8 0.500000 0.500000 0.164449
O O9 0.738480 0.380241 0.212943
O O10 0.247502 0.136239 0.903179
O O11 0.223203 0.059351 0.814213
O O12 0.500000 0.000000 0.897042
O O13 0.000000 0.000000 0.901577
O O14 0.383778 0.678204 0.500000
O O15 0.000000 0.500000 0.764508
#
# Coordination Sequence:
#
# PCOD8238704 Si02
#       6
#     8   8   8   8   8   8
#     4  12  27  42  66 105 134 179 231 276 325 409
#     4  10  25  45  69  99 131 175 231 290 349 405
#     4  12  26  45  74 101 140 184 228 280 348 410
#     4  11  25  40  65 103 139 184 230 280 336 409
#     4  10  23  46  70  97 137 180 227 289 348 403
#     4  11  25  44  67  96 149 186 221 276 344 406
#
# _framework density 22.736953
#
# number of rings (size 3 to 8) (size 9 to 14) (size 15 to 20)
#    0.000    1.000    3.333    1.500    7.000    2.333 
#    0.000    0.000    0.000    3.500    0.000    0.000 
#    0.000    0.000    0.000    0.000    0.000    0.000 
#
# Total GULP energy -594770.456886 kJ/mol
# GULP energy per Si atom -12391.051185 kJ/mol
# Density = 2.268520 g / cm^3
# Si number density = 22.736953 Si / 1000 Ang^3
#
#
#
# Elastic Constant Matrix: (Units=GPa)
#
#
# Indices 1 2 3 4 5 6 
#
# 1 120.3891 42.6651 37.9164 0.0000 0.0000 0.0000
# 2 42.6651 139.3726 56.8035 0.0000 0.0000 0.0000
# 3 37.9164 56.8035 81.4443 0.0000 0.0000 0.0000
# 4 0.0000 0.0000 0.0000 19.1567 0.0000 0.0000
# 5 0.0000 0.0000 0.0000 0.0000 17.2817 0.0000
# 6 0.0000 0.0000 0.0000 0.0000 0.0000 37.8274
#
#
#
# Elastic Compliance Matrix: (Units=1/GPa)
#
#
# Indices 1 2 3 4 5 6 
#
# 1 0.009990 -0.001624 -0.003518 0.000000 0.000000 0.000000
# 2 -0.001624 0.010289 -0.006420 0.000000 0.000000 0.000000
# 3 -0.003518 -0.006420 0.018393 0.000000 0.000000 0.000000
# 4 0.000000 0.000000 0.000000 0.052201 0.000000 0.000000
# 5 0.000000 0.000000 0.000000 0.000000 0.057865 0.000000
# 6 0.000000 0.000000 0.000000 0.000000 0.000000 0.026436
#
#
# Mechanical properties :
#
#
# Convention : Reuss Voigt Hill
#
# Bulk Modulus (GPa) = 64.31565 68.44177 66.37871
# Shear Modulus (GPa) = 24.57241 28.44124 26.50683
#
# Velocity S-wave (km/s) = 3.29101 3.54062 3.41809
# Velocity P-wave (km/s) = 6.54135 6.84701 6.69592
#
# Compressibility (1/GPa) = 0.01554831
#
# Stress axis : x y z
#
# Youngs Moduli (GPa) = 100.09967 97.19404 54.36708
#
# Poissons Ratio (x) = 0.15788 0.19126
# Poissons Ratio (y) = 0.16260 0.34902
# Poissons Ratio (z) = 0.35214 0.62395
#
# Static dielectric constant tensor:
#      x y z
#    x 4.334870 0.000000 0.000000 
#    y 0.000000 4.292650 0.000000 
#    z 0.000000 0.000000 4.006690 
# 
# 
# High freq. dielectric constant tensor:
#      x y z
#    x 1.910850 0.000000 0.000000 
#    y 0.000000 1.907890 0.000000 
#    z 0.000000 0.000000 1.873710 
# 
# From -- ./inp_files/30973.got.cif
#   From: 2010.06.25/outbox.cif.g09.slc.cpg/sg58_16_cif.got.tgz:30973.got - 2010.06.26 21:38:00.
