data_PCOD8238175
_publ_section_title
;
Structure prediction by ZEFSAII (Michael W. Deem and Ramdas Pophale) SiO2 
 PCOD8238175
Probable space group: P N N M
;
_chemical_formula_sum "Si O2"
_cell_formula_units_Z 32
_cell_length_a 9.472049
_cell_length_b 9.229074
_cell_length_c 17.170589
_cell_angle_alpha 90.000000
_cell_angle_beta 90.000000
_cell_angle_gamma 90.000000
_cell_volume 1501.022690
_symmetry_space_group_name_H-M "P N N M"
_symmetry_group_IT_number 58
_symmetry_cell_setting 'orthorhombic'
loop_
_space_group_symop_operation_xyz
x,y,z
-x,-y,z
1/2+x,1/2-y,1/2-z
1/2-x,1/2+y,1/2-z
-x,-y,-z
x,y,-z
1/2-x,1/2+y,1/2+z
1/2+x,1/2-y,1/2+z
loop_
_atom_site_type_symbol
_atom_site_label
_atom_site_fract_x
_atom_site_fract_y
_atom_site_fract_z
Si Si1 0.766125 0.617479 0.407009
Si Si2 0.023074 0.834938 0.801810
Si Si3 0.505976 0.344544 0.912294
Si Si4 0.209394 0.688311 0.668813
O O1 0.777081 0.586402 0.500000
O O2 0.607565 0.665781 0.384123
O O3 0.873947 0.740373 0.376503
O O4 0.804508 0.480029 0.353332
O O5 0.107520 0.737601 0.739686
O O6 0.869924 0.763431 0.815894
O O7 0.000000 0.000000 0.772110
O O8 0.500000 0.500000 0.868718
O O9 0.351056 0.273570 0.906100
O O10 0.551640 0.370253 0.000000
#
# Coordination Sequence:
#
# PCOD8238175 Si02
#       4
#     8   8   8   8
#     4  10  22  42  67  94 124 161 208 259 310 370
#     4  10  23  39  60  90 126 162 201 257 310 367
#     4  10  21  38  60  87 122 159 198 248 305 366
#     4  11  21  37  61  88 121 160 205 251 305 363
#
# _framework density 21.318798999999999
#
# number of rings (size 3 to 8) (size 9 to 14) (size 15 to 20)
#    0.000    1.750    0.000    3.750    0.000   11.500 
#    0.000    6.250    0.000    4.500    0.000    0.000 
#    0.000    0.000    0.000    0.000    0.000    0.000 
#
# Total GULP energy -396441.150869 kJ/mol
# GULP energy per Si atom -12388.785965 kJ/mol
# Density = 2.127028 g / cm^3
# Si number density = 21.318799 Si / 1000 Ang^3
#
#
#
# Elastic Constant Matrix: (Units=GPa)
#
#
# Indices 1 2 3 4 5 6 
#
# 1 194.9024 91.7903 51.3950 0.0000 0.0000 0.0000
# 2 91.7903 130.0739 42.6702 0.0000 0.0000 0.0000
# 3 51.3950 42.6702 86.0166 0.0000 0.0000 0.0000
# 4 0.0000 0.0000 0.0000 27.5551 0.0000 0.0000
# 5 0.0000 0.0000 0.0000 0.0000 61.3822 0.0000
# 6 0.0000 0.0000 0.0000 0.0000 0.0000 32.4135
#
#
#
# Elastic Compliance Matrix: (Units=1/GPa)
#
#
# Indices 1 2 3 4 5 6 
#
# 1 0.008075 -0.004916 -0.002386 0.000000 0.000000 0.000000
# 2 -0.004916 0.012174 -0.003102 0.000000 0.000000 0.000000
# 3 -0.002386 -0.003102 0.014591 0.000000 0.000000 0.000000
# 4 0.000000 0.000000 0.000000 0.036291 0.000000 0.000000
# 5 0.000000 0.000000 0.000000 0.000000 0.016291 0.000000
# 6 0.000000 0.000000 0.000000 0.000000 0.000000 0.030851
#
#
# Mechanical properties :
#
#
# Convention : Reuss Voigt Hill
#
# Bulk Modulus (GPa) = 71.26842 86.96711 79.11776
# Shear Modulus (GPa) = 34.78036 39.27933 37.02984
#
# Velocity S-wave (km/s) = 4.04349 4.29706 4.17220
# Velocity P-wave (km/s) = 7.43654 8.09332 7.77187
#
# Compressibility (1/GPa) = 0.01403146
#
# Stress axis : x y z
#
# Youngs Moduli (GPa) = 123.83810 82.13938 68.53771
#
# Poissons Ratio (x) = 0.40376 0.16356
# Poissons Ratio (y) = 0.60873 0.21263
# Poissons Ratio (z) = 0.29553 0.25482
#
# Static dielectric constant tensor:
#      x y z
#    x 4.239640 0.000000 0.000000 
#    y 0.000000 4.107000 0.000000 
#    z 0.000000 0.000000 3.809270 
# 
# 
# High freq. dielectric constant tensor:
#      x y z
#    x 1.843860 0.000000 0.000000 
#    y 0.000000 1.835610 0.000000 
#    z 0.000000 0.000000 1.837310 
# 
# From -- ./inp_files/28430.got.cif
#   From: 2010.06.25/outbox.cif.g09.slc.cpg/sg58_15_cif.got.tgz:28430.got - 2010.06.26 21:38:00.
