data_PCOD8238292
_publ_section_title
;
Structure prediction by ZEFSAII (Michael W. Deem and Ramdas Pophale) SiO2 
 PCOD8238292
Probable space group: P N N M
;
_chemical_formula_sum "Si O2"
_cell_formula_units_Z 32
_cell_length_a 14.270810
_cell_length_b 12.421562
_cell_length_c 8.642487
_cell_angle_alpha 90.000000
_cell_angle_beta 90.000000
_cell_angle_gamma 90.000000
_cell_volume 1532.016950
_symmetry_space_group_name_H-M "P N N M"
_symmetry_group_IT_number 58
_symmetry_cell_setting 'orthorhombic'
loop_
_space_group_symop_operation_xyz
x,y,z
-x,-y,z
1/2+x,1/2-y,1/2-z
1/2-x,1/2+y,1/2-z
-x,-y,-z
x,y,-z
1/2-x,1/2+y,1/2+z
1/2+x,1/2-y,1/2+z
loop_
_atom_site_type_symbol
_atom_site_label
_atom_site_fract_x
_atom_site_fract_y
_atom_site_fract_z
Si Si1 0.939377 0.106979 0.170023
Si Si2 0.716401 0.454621 0.681838
Si Si3 0.405575 0.731383 0.179203
Si Si4 0.898381 0.539592 0.180839
O O1 0.988298 0.189927 0.287358
O O2 0.836394 0.067689 0.225315
O O3 0.933988 0.162071 0.000000
O O4 0.000000 0.000000 0.157708
O O5 0.705249 0.430865 0.500000
O O6 0.671461 0.356859 0.776382
O O7 0.824185 0.465887 0.728204
O O8 0.384397 0.836175 0.278924
O O9 0.396933 0.760223 0.000000
O O10 0.000000 0.500000 0.235486
O O11 0.882829 0.521833 0.000000
#
# Coordination Sequence:
#
# PCOD8238292 Si02
#       4
#     8   8   8   8
#     4   8  16  33  57  85 116 149 188 238 290 338
#     4  10  21  39  63  89 119 155 198 246 294 350
#     4  11  22  37  61  90 120 156 196 240 294 353
#     4  11  25  43  61  84 118 157 198 246 298 350
#
# _framework density 20.887498000000001
#
# number of rings (size 3 to 8) (size 9 to 14) (size 15 to 20)
#    0.000    2.000    0.000    5.250    0.000    9.500 
#    0.000    2.500    0.000    0.000    0.000    0.000 
#    0.000    0.000    0.000    0.000    0.000    0.000 
#
# Total GULP energy -396803.570235 kJ/mol
# GULP energy per Si atom -12400.111570 kJ/mol
# Density = 2.083996 g / cm^3
# Si number density = 20.887498 Si / 1000 Ang^3
#
#
#
# Elastic Constant Matrix: (Units=GPa)
#
#
# Indices 1 2 3 4 5 6 
#
# 1 125.8127 24.4528 27.0945 0.0000 0.0000 0.0000
# 2 24.4528 64.0363 7.7125 0.0000 0.0000 0.0000
# 3 27.0945 7.7125 58.8425 0.0000 0.0000 0.0000
# 4 0.0000 0.0000 0.0000 23.7375 0.0000 0.0000
# 5 0.0000 0.0000 0.0000 0.0000 31.2209 0.0000
# 6 0.0000 0.0000 0.0000 0.0000 0.0000 23.1469
#
#
#
# Elastic Compliance Matrix: (Units=1/GPa)
#
#
# Indices 1 2 3 4 5 6 
#
# 1 0.009398 -0.003117 -0.003919 0.000000 0.000000 0.000000
# 2 -0.003117 0.016900 -0.000780 0.000000 0.000000 0.000000
# 3 -0.003919 -0.000780 0.018901 0.000000 0.000000 0.000000
# 4 0.000000 0.000000 0.000000 0.042127 0.000000 0.000000
# 5 0.000000 0.000000 0.000000 0.000000 0.032030 0.000000
# 6 0.000000 0.000000 0.000000 0.000000 0.000000 0.043202
#
#
# Mechanical properties :
#
#
# Convention : Reuss Voigt Hill
#
# Bulk Modulus (GPa) = 33.82003 40.80125 37.31064
# Shear Modulus (GPa) = 26.58916 28.24982 27.41949
#
# Velocity S-wave (km/s) = 3.57174 3.68159 3.62708
# Velocity P-wave (km/s) = 5.76511 6.13583 5.95335
#
# Compressibility (1/GPa) = 0.02956828
#
# Stress axis : x y z
#
# Youngs Moduli (GPa) = 106.40509 59.17074 52.90655
#
# Poissons Ratio (x) = 0.18442 0.20734
# Poissons Ratio (y) = 0.33164 0.04127
# Poissons Ratio (z) = 0.41699 0.04615
#
# Static dielectric constant tensor:
#      x y z
#    x 4.188280 0.000000 0.000000 
#    y 0.000000 3.615490 0.000000 
#    z 0.000000 0.000000 3.673010 
# 
# 
# High freq. dielectric constant tensor:
#      x y z
#    x 1.823000 0.000000 0.000000 
#    y 0.000000 1.802420 0.000000 
#    z 0.000000 0.000000 1.816110 
# 
# From -- ./inp_files/3480.got.cif
#   From: 2010.06.25/outbox.cif.g09.slc.cpg/sg58_2_cif.got.tgz:3480.got - 2010.06.26 21:38:00.
