data_PCOD8238365
_publ_section_title
;
Structure prediction by ZEFSAII (Michael W. Deem and Ramdas Pophale) SiO2 
 PCOD8238365
Probable space group: P N N M
;
_chemical_formula_sum "Si O2"
_cell_formula_units_Z 56
_cell_length_a 21.046570
_cell_length_b 10.032095
_cell_length_c 13.369581
_cell_angle_alpha 90.000000
_cell_angle_beta 90.000000
_cell_angle_gamma 90.000000
_cell_volume 2822.869238
_symmetry_space_group_name_H-M "P N N M"
_symmetry_group_IT_number 58
_symmetry_cell_setting 'orthorhombic'
loop_
_space_group_symop_operation_xyz
x,y,z
-x,-y,z
1/2+x,1/2-y,1/2-z
1/2-x,1/2+y,1/2-z
-x,-y,-z
x,y,-z
1/2-x,1/2+y,1/2+z
1/2+x,1/2-y,1/2+z
loop_
_atom_site_type_symbol
_atom_site_label
_atom_site_fract_x
_atom_site_fract_y
_atom_site_fract_z
Si Si1 0.670650 0.864373 0.389715
Si Si2 0.493438 0.350221 0.884644
Si Si3 0.636679 0.727563 0.195909
Si Si4 0.207965 0.035554 0.716755
Si Si5 0.305385 0.007404 0.883702
Si Si6 0.062034 0.420273 0.111892
Si Si7 0.388161 0.773150 0.792394
O O1 0.673466 0.799925 0.500000
O O2 0.648023 0.751366 0.313421
O O3 0.739370 0.922206 0.363117
O O4 0.622758 0.986111 0.386140
O O5 0.500000 0.500000 0.843491
O O6 0.438305 0.276465 0.823342
O O7 0.560164 0.275397 0.872419
O O8 0.473347 0.350077 0.000000
O O9 0.669691 0.587554 0.168584
O O10 0.667086 0.844272 0.129360
O O11 0.239528 0.994988 0.822849
O O12 0.162441 0.160428 0.733704
O O13 0.355546 0.903384 0.838611
O O14 0.292476 0.977312 0.000000
O O15 0.074913 0.301621 0.189025
O O16 0.000000 0.500000 0.147507
O O17 0.051255 0.361886 0.000000
#
# Coordination Sequence:
#
# PCOD8238365 Si02
#       7
#     8   8   8   8   8   8   8
#     4  10  22  39  64  91 122 168 214 255 314 378
#     4  11  24  42  65  92 126 171 210 253 320 386
#     4  11  22  43  62  93 129 166 207 268 314 371
#     4  11  24  40  61  92 133 169 206 254 321 382
#     4  11  24  40  63  96 127 164 213 266 315 368
#     4  10  21  40  66  95 123 163 216 264 313 375
#     4  12  23  42  66  94 130 167 210 266 318 376
#
# _framework density 19.837971
#
# number of rings (size 3 to 8) (size 9 to 14) (size 15 to 20)
#    0.000    1.143    4.286    3.429    0.000    4.571 
#    0.000    1.429    0.000    0.857    0.000    0.000 
#    0.000    0.000    0.000    0.000    0.000    0.000 
#
# Total GULP energy -694591.510907 kJ/mol
# GULP energy per Si atom -12403.419838 kJ/mol
# Density = 1.979282 g / cm^3
# Si number density = 19.837971 Si / 1000 Ang^3
#
#
#
# Elastic Constant Matrix: (Units=GPa)
#
#
# Indices 1 2 3 4 5 6 
#
# 1 121.2999 37.9030 36.7504 0.0000 0.0000 0.0000
# 2 37.9030 97.6098 28.3620 0.0000 0.0000 0.0000
# 3 36.7504 28.3620 104.3386 0.0000 0.0000 0.0000
# 4 0.0000 0.0000 0.0000 22.4012 0.0000 0.0000
# 5 0.0000 0.0000 0.0000 0.0000 23.7579 0.0000
# 6 0.0000 0.0000 0.0000 0.0000 0.0000 39.1444
#
#
#
# Elastic Compliance Matrix: (Units=1/GPa)
#
#
# Indices 1 2 3 4 5 6 
#
# 1 0.010031 -0.003115 -0.002687 0.000000 0.000000 0.000000
# 2 -0.003115 0.012090 -0.002189 0.000000 0.000000 0.000000
# 3 -0.002687 -0.002189 0.011126 0.000000 0.000000 0.000000
# 4 0.000000 0.000000 0.000000 0.044641 0.000000 0.000000
# 5 0.000000 0.000000 0.000000 0.000000 0.042091 0.000000
# 6 0.000000 0.000000 0.000000 0.000000 0.000000 0.025546
#
#
# Mechanical properties :
#
#
# Convention : Reuss Voigt Hill
#
# Bulk Modulus (GPa) = 57.91737 58.80878 58.36307
# Shear Modulus (GPa) = 29.89319 31.74290 30.81805
#
# Velocity S-wave (km/s) = 3.88605 4.00447 3.94571
# Velocity P-wave (km/s) = 7.02807 7.14773 7.08815
#
# Compressibility (1/GPa) = 0.01726598
#
# Stress axis : x y z
#
# Youngs Moduli (GPa) = 99.68877 82.70962 89.88267
#
# Poissons Ratio (x) = 0.25761 0.24148
# Poissons Ratio (y) = 0.31049 0.19680
# Poissons Ratio (z) = 0.26782 0.18109
#
# Static dielectric constant tensor:
#      x y z
#    x 3.480200 0.000000 0.000000 
#    y 0.000000 3.545570 0.000000 
#    z 0.000000 0.000000 3.784760 
# 
# 
# High freq. dielectric constant tensor:
#      x y z
#    x 1.788690 0.000000 0.000000 
#    y 0.000000 1.769810 0.000000 
#    z 0.000000 0.000000 1.773880 
# 
# From -- ./inp_files/23262.got.cif
#   From: 2010.06.25/outbox.cif.g09.slc.cpg/sg58_12_cif.got.tgz:23262.got - 2010.06.26 21:38:00.
