data_PCOD8238691
_publ_section_title
;
Structure prediction by ZEFSAII (Michael W. Deem and Ramdas Pophale) SiO2 
 PCOD8238691
Probable space group: P N N M
;
_chemical_formula_sum "Si O2"
_cell_formula_units_Z 32
_cell_length_a 10.475842
_cell_length_b 9.998760
_cell_length_c 14.117183
_cell_angle_alpha 90.000000
_cell_angle_beta 90.000000
_cell_angle_gamma 90.000000
_cell_volume 1478.710403
_symmetry_space_group_name_H-M "P N N M"
_symmetry_group_IT_number 58
_symmetry_cell_setting 'orthorhombic'
loop_
_space_group_symop_operation_xyz
x,y,z
-x,-y,z
1/2+x,1/2-y,1/2-z
1/2-x,1/2+y,1/2-z
-x,-y,-z
x,y,-z
1/2-x,1/2+y,1/2+z
1/2+x,1/2-y,1/2+z
loop_
_atom_site_type_symbol
_atom_site_label
_atom_site_fract_x
_atom_site_fract_y
_atom_site_fract_z
Si Si1 0.296867 0.321594 0.603753
Si Si2 0.114180 0.901750 0.296324
Si Si3 0.138516 0.518853 0.894294
Si Si4 0.492401 0.846821 0.889742
O O1 0.309889 0.392638 0.500000
O O2 0.372679 0.406539 0.682367
O O3 0.351871 0.175829 0.599219
O O4 0.150138 0.300478 0.631435
O O5 0.087220 0.750236 0.331338
O O6 0.249007 0.949147 0.336724
O O7 0.000000 0.000000 0.328889
O O8 0.000000 0.500000 0.845052
O O9 0.140232 0.455905 0.000000
O O10 0.500000 0.000000 0.855216
O O11 0.529806 0.834018 0.000000
#
# Coordination Sequence:
#
# PCOD8238691 Si02
#       4
#     8   8   8   8
#     4  10  24  43  63  94 139 174 211 278 338 385
#     4  12  25  39  73 102 125 178 230 272 321 404
#     4  10  23  43  67  97 135 175 218 277 335 389
#     4  10  23  43  67  97 135 175 218 277 335 389
#
# _framework density 21.640478000000002
#
# number of rings (size 3 to 8) (size 9 to 14) (size 15 to 20)
#    0.000    1.500    2.500    0.750    7.000    1.500 
#    0.000    0.000    0.000    0.000    0.000    0.000 
#    0.000    0.000    0.000    0.000    0.000    0.000 
#
# Total GULP energy -396720.162572 kJ/mol
# GULP energy per Si atom -12397.505080 kJ/mol
# Density = 2.159122 g / cm^3
# Si number density = 21.640478 Si / 1000 Ang^3
#
#
#
# Elastic Constant Matrix: (Units=GPa)
#
#
# Indices 1 2 3 4 5 6 
#
# 1 162.4835 56.0061 53.4854 0.0000 0.0000 0.0000
# 2 56.0061 79.4117 37.6718 0.0000 0.0000 0.0000
# 3 53.4854 37.6718 120.2645 0.0000 0.0000 0.0000
# 4 0.0000 0.0000 0.0000 31.8224 0.0000 0.0000
# 5 0.0000 0.0000 0.0000 0.0000 40.1397 0.0000
# 6 0.0000 0.0000 0.0000 0.0000 0.0000 30.8302
#
#
#
# Elastic Compliance Matrix: (Units=1/GPa)
#
#
# Indices 1 2 3 4 5 6 
#
# 1 0.008627 -0.005009 -0.002268 0.000000 0.000000 0.000000
# 2 -0.005009 0.017698 -0.003316 0.000000 0.000000 0.000000
# 3 -0.002268 -0.003316 0.010362 0.000000 0.000000 0.000000
# 4 0.000000 0.000000 0.000000 0.031424 0.000000 0.000000
# 5 0.000000 0.000000 0.000000 0.000000 0.024913 0.000000
# 6 0.000000 0.000000 0.000000 0.000000 0.000000 0.032436
#
#
# Mechanical properties :
#
#
# Convention : Reuss Voigt Hill
#
# Bulk Modulus (GPa) = 64.50694 72.94292 68.72493
# Shear Modulus (GPa) = 32.93488 34.89155 33.91322
#
# Velocity S-wave (km/s) = 3.90540 4.01974 3.96298
# Velocity P-wave (km/s) = 7.08586 7.43803 7.26408
#
# Compressibility (1/GPa) = 0.01550221
#
# Stress axis : x y z
#
# Youngs Moduli (GPa) = 115.90861 56.50268 96.50242
#
# Poissons Ratio (x) = 0.28301 0.21886
# Poissons Ratio (y) = 0.58056 0.32003
# Poissons Ratio (z) = 0.26288 0.18738
#
# Static dielectric constant tensor:
#      x y z
#    x 3.831790 0.000000 0.000000 
#    y 0.000000 3.712080 0.000000 
#    z 0.000000 0.000000 4.486200 
# 
# 
# High freq. dielectric constant tensor:
#      x y z
#    x 1.854710 0.000000 0.000000 
#    y 0.000000 1.837530 0.000000 
#    z 0.000000 0.000000 1.860140 
# 
# From -- ./inp_files/19090.got.cif
#   From: 2010.06.25/outbox.cif.g09.slc.cpg/sg58_10_cif.got.tgz:19090.got - 2010.06.26 21:38:00.
