data_PCOD8238076
_publ_section_title
;
Structure prediction by ZEFSAII (Michael W. Deem and Ramdas Pophale) SiO2 
 PCOD8238076
Probable space group: P N N M
;
_chemical_formula_sum "Si O2"
_cell_formula_units_Z 64
_cell_length_a 26.412807
_cell_length_b 13.073642
_cell_length_c 8.946386
_cell_angle_alpha 90.000000
_cell_angle_beta 90.000000
_cell_angle_gamma 90.000000
_cell_volume 3089.290711
_symmetry_space_group_name_H-M "P N N M"
_symmetry_group_IT_number 58
_symmetry_cell_setting 'orthorhombic'
loop_
_space_group_symop_operation_xyz
x,y,z
-x,-y,z
1/2+x,1/2-y,1/2-z
1/2-x,1/2+y,1/2-z
-x,-y,-z
x,y,-z
1/2-x,1/2+y,1/2+z
1/2+x,1/2-y,1/2+z
loop_
_atom_site_type_symbol
_atom_site_label
_atom_site_fract_x
_atom_site_fract_y
_atom_site_fract_z
Si Si1 0.009280 0.731210 0.173420
Si Si2 0.806538 0.108852 0.822235
Si Si3 0.358627 0.993773 0.672667
Si Si4 0.122293 0.714658 0.176544
Si Si5 0.846180 0.907042 0.324355
Si Si6 0.198488 0.310409 0.324051
Si Si7 0.451424 0.933049 0.163696
Si Si8 0.536216 0.404700 0.834976
O O1 0.065296 0.711091 0.240997
O O2 0.966927 0.675440 0.271093
O O3 0.992592 0.846704 0.201804
O O4 0.005889 0.701194 0.000000
O O5 0.850279 0.184452 0.761005
O O6 0.755397 0.166530 0.769673
O O7 0.812972 0.997108 0.750495
O O8 0.807719 0.095841 0.000000
O O9 0.347827 0.970560 0.500000
O O10 0.332498 0.908962 0.772374
O O11 0.417743 0.987845 0.711277
O O12 0.344990 0.111893 0.714725
O O13 0.117593 0.724125 0.000000
O O14 0.836440 0.914637 0.500000
O O15 0.824967 0.796968 0.262279
O O16 0.905375 0.924566 0.284431
O O17 0.195640 0.305242 0.500000
O O18 0.500000 0.000000 0.141900
O O19 0.424895 0.919018 0.000000
O O20 0.500000 0.500000 0.853929
O O21 0.538326 0.350653 0.000000
#
# Coordination Sequence:
#
# PCOD8238076 Si02
#       8
#     8   8   8   8   8   8   8   8
#     4  11  21  35  58  87 121 158 203 249 296 355
#     4  10  22  41  64  87 117 156 201 251 305 363
#     4  11  22  38  63  90 122 159 203 249 297 361
#     4   9  20  37  58  88 123 159 196 247 304 354
#     4  10  22  41  62  86 120 158 200 253 306 363
#     4  10  23  41  62  88 121 159 200 251 313 367
#     4  11  22  36  55  83 121 160 195 236 293 353
#     4  10  21  37  58  86 123 164 205 247 299 360
#
# _framework density 20.716728
#
# number of rings (size 3 to 8) (size 9 to 14) (size 15 to 20)
#    0.000    1.750    1.250    2.625    1.750    3.250 
#    0.000    1.875    0.000    0.000    0.000    0.000 
#    0.000    0.000    0.000    0.000    0.000    0.000 
#
# Total GULP energy -793018.651701 kJ/mol
# GULP energy per Si atom -12390.916433 kJ/mol
# Density = 2.066958 g / cm^3
# Si number density = 20.716728 Si / 1000 Ang^3
#
#
#
# Elastic Constant Matrix: (Units=GPa)
#
#
# Indices 1 2 3 4 5 6 
#
# 1 96.2464 47.6001 17.7699 0.0000 0.0000 0.0000
# 2 47.6001 129.7564 23.8341 0.0000 0.0000 0.0000
# 3 17.7699 23.8341 19.7667 0.0000 0.0000 0.0000
# 4 0.0000 0.0000 0.0000 29.1326 0.0000 0.0000
# 5 0.0000 0.0000 0.0000 0.0000 25.1592 0.0000
# 6 0.0000 0.0000 0.0000 0.0000 0.0000 35.8009
#
#
#
# Elastic Compliance Matrix: (Units=1/GPa)
#
#
# Indices 1 2 3 4 5 6 
#
# 1 0.013607 -0.003526 -0.007982 0.000000 0.000000 0.000000
# 2 -0.003526 0.010813 -0.009868 0.000000 0.000000 0.000000
# 3 -0.007982 -0.009868 0.069664 0.000000 0.000000 0.000000
# 4 0.000000 0.000000 0.000000 0.034326 0.000000 0.000000
# 5 0.000000 0.000000 0.000000 0.000000 0.039747 0.000000
# 6 0.000000 0.000000 0.000000 0.000000 0.000000 0.027932
#
#
# Mechanical properties :
#
#
# Convention : Reuss Voigt Hill
#
# Bulk Modulus (GPa) = 19.48051 47.13086 33.30569
# Shear Modulus (GPa) = 19.53500 28.45624 23.99562
#
# Velocity S-wave (km/s) = 3.07409 3.71021 3.40703
# Velocity P-wave (km/s) = 4.69295 6.41512 5.62039
#
# Compressibility (1/GPa) = 0.05133335
#
# Stress axis : x y z
#
# Youngs Moduli (GPa) = 73.49003 92.48356 14.35460
#
# Poissons Ratio (x) = 0.32606 0.11457
# Poissons Ratio (y) = 0.25910 0.14165
# Poissons Ratio (z) = 0.58656 0.91265
#
# Static dielectric constant tensor:
#      x y z
#    x 3.890430 0.000000 0.000000 
#    y 0.000000 4.038420 0.000000 
#    z 0.000000 0.000000 3.592260 
# 
# 
# High freq. dielectric constant tensor:
#      x y z
#    x 1.812090 0.000000 0.000000 
#    y 0.000000 1.822910 0.000000 
#    z 0.000000 0.000000 1.789860 
# 
# From -- ./inp_files/11015.got.cif
#   From: 2010.06.25/outbox.cif.g09.slc.cpg/sg58_6_cif.got.tgz:11015.got - 2010.06.26 21:38:00.
