data_PCOD8238991
_publ_section_title
;
Structure prediction by ZEFSAII (Michael W. Deem and Ramdas Pophale) SiO2 
 PCOD8238991
Probable space group: P N N M
;
_chemical_formula_sum "Si O2"
_cell_formula_units_Z 64
_cell_length_a 16.369829
_cell_length_b 22.617704
_cell_length_c 9.794474
_cell_angle_alpha 90.000000
_cell_angle_beta 90.000000
_cell_angle_gamma 90.000000
_cell_volume 3626.383889
_symmetry_space_group_name_H-M "P N N M"
_symmetry_group_IT_number 58
_symmetry_cell_setting 'orthorhombic'
loop_
_space_group_symop_operation_xyz
x,y,z
-x,-y,z
1/2+x,1/2-y,1/2-z
1/2-x,1/2+y,1/2-z
-x,-y,-z
x,y,-z
1/2-x,1/2+y,1/2+z
1/2+x,1/2-y,1/2+z
loop_
_atom_site_type_symbol
_atom_site_label
_atom_site_fract_x
_atom_site_fract_y
_atom_site_fract_z
Si Si1 0.395430 0.661942 0.340035
Si Si2 0.412022 0.022603 0.837085
Si Si3 0.060173 0.264850 0.341077
Si Si4 0.734963 0.176538 0.843716
Si Si5 0.267959 0.226691 0.851045
Si Si6 0.750789 0.041567 0.837764
Si Si7 0.426182 0.150664 0.848749
Si Si8 0.586592 0.473952 0.661937
O O1 0.418027 0.668750 0.500000
O O2 0.450415 0.704829 0.246386
O O3 0.304104 0.682831 0.305733
O O4 0.406496 0.594314 0.291866
O O5 0.408114 0.088725 0.775256
O O6 0.500000 0.000000 0.785308
O O7 0.332649 0.987908 0.778376
O O8 0.406367 0.020191 0.000000
O O9 0.044111 0.249027 0.500000
O O10 0.143376 0.300781 0.321679
O O11 0.993657 0.309141 0.275620
O O12 0.789238 0.220349 0.752526
O O13 0.748237 0.109890 0.791338
O O14 0.762929 0.182280 0.000000
O O15 0.343985 0.185369 0.859848
O O16 0.248012 0.254297 0.000000
O O17 0.834020 0.010209 0.781360
O O18 0.749927 0.036822 0.000000
O O19 0.461171 0.136117 0.000000
O O20 0.500000 0.500000 0.717971
O O21 0.587519 0.478584 0.500000
#
# Coordination Sequence:
#
# PCOD8238991 Si02
#       8
#     8   8   8   8   8   8   8   8
#     4   9  17  30  47  65  85 113 150 184 215 254
#     4   9  15  23  39  63  88 112 139 175 219 264
#     4   9  17  29  45  65  90 117 141 173 219 265
#     4   9  17  29  45  66  90 114 143 179 220 262
#     4   9  17  29  45  64  87 116 147 179 214 256
#     4   9  16  26  41  62  88 114 140 177 221 258
#     4   9  16  26  41  63  90 116 143 176 217 264
#     4   9  17  28  42  61  85 113 145 181 218 254
#
# _framework density 17.648434000000002
#
# number of rings (size 3 to 8) (size 9 to 14) (size 15 to 20)
#    0.000    3.000    0.000    1.500    0.000    7.000 
#    0.000    1.875    0.000    1.125    0.000    1.750 
#    0.000    6.500    0.000    0.000    0.000    0.000 
#
# Total GULP energy -792930.300350 kJ/mol
# GULP energy per Si atom -12389.535943 kJ/mol
# Density = 1.760827 g / cm^3
# Si number density = 17.648434 Si / 1000 Ang^3
#
#
#
# Elastic Constant Matrix: (Units=GPa)
#
#
# Indices 1 2 3 4 5 6 
#
# 1 93.2781 56.7562 13.7942 0.0000 0.0000 0.0000
# 2 56.7562 170.7183 39.9214 0.0000 0.0000 0.0000
# 3 13.7942 39.9214 28.3555 0.0000 0.0000 0.0000
# 4 0.0000 0.0000 0.0000 21.0180 0.0000 0.0000
# 5 0.0000 0.0000 0.0000 0.0000 9.5698 0.0000
# 6 0.0000 0.0000 0.0000 0.0000 0.0000 21.7812
#
#
#
# Elastic Compliance Matrix: (Units=1/GPa)
#
#
# Indices 1 2 3 4 5 6 
#
# 1 0.013442 -0.004383 -0.000369 0.000000 0.000000 0.000000
# 2 -0.004383 0.010161 -0.012174 0.000000 0.000000 0.000000
# 3 -0.000369 -0.012174 0.052586 0.000000 0.000000 0.000000
# 4 0.000000 0.000000 0.000000 0.047578 0.000000 0.000000
# 5 0.000000 0.000000 0.000000 0.000000 0.104496 0.000000
# 6 0.000000 0.000000 0.000000 0.000000 0.000000 0.045911
#
#
# Mechanical properties :
#
#
# Convention : Reuss Voigt Hill
#
# Bulk Modulus (GPa) = 23.61956 57.03283 40.32619
# Shear Modulus (GPa) = 15.52128 22.59915 19.06021
#
# Velocity S-wave (km/s) = 2.96880 3.58232 3.28989
# Velocity P-wave (km/s) = 5.01639 7.03540 6.10987
#
# Compressibility (1/GPa) = 0.04233779
#
# Stress axis : x y z
#
# Youngs Moduli (GPa) = 74.39486 98.41107 19.01649
#
# Poissons Ratio (x) = 0.43129 0.00702
# Poissons Ratio (y) = 0.32604 0.23151
# Poissons Ratio (z) = 0.02745 1.19808
#
# Static dielectric constant tensor:
#      x y z
#    x 3.410090 0.000000 0.000000 
#    y 0.000000 3.525060 0.000000 
#    z 0.000000 0.000000 1.939070 
# 
# 
# High freq. dielectric constant tensor:
#      x y z
#    x 1.687230 0.000000 0.000000 
#    y 0.000000 1.696540 0.000000 
#    z 0.000000 0.000000 1.614770 
# 
# From -- ./inp_files/8358.got.cif
#   From: 2010.06.25/outbox.cif.g09.slc.cpg/sg58_5_cif.got.tgz:8358.got - 2010.06.26 21:38:00.
