data_PCOD8238486
_publ_section_title
;
Structure prediction by ZEFSAII (Michael W. Deem and Ramdas Pophale) SiO2 
 PCOD8238486
Probable space group: P N N M
;
_chemical_formula_sum "Si O2"
_cell_formula_units_Z 64
_cell_length_a 24.681892
_cell_length_b 8.492507
_cell_length_c 13.830384
_cell_angle_alpha 90.000000
_cell_angle_beta 90.000000
_cell_angle_gamma 90.000000
_cell_volume 2899.002565
_symmetry_space_group_name_H-M "P N N M"
_symmetry_group_IT_number 58
_symmetry_cell_setting 'orthorhombic'
loop_
_space_group_symop_operation_xyz
x,y,z
-x,-y,z
1/2+x,1/2-y,1/2-z
1/2-x,1/2+y,1/2-z
-x,-y,-z
x,y,-z
1/2-x,1/2+y,1/2+z
1/2+x,1/2-y,1/2+z
loop_
_atom_site_type_symbol
_atom_site_label
_atom_site_fract_x
_atom_site_fract_y
_atom_site_fract_z
Si Si1 0.613071 0.837554 0.114771
Si Si2 0.730547 0.366806 0.890409
Si Si3 0.832065 0.854961 0.212732
Si Si4 0.269077 0.274111 0.890233
Si Si5 0.333036 0.331165 0.390743
Si Si6 0.058798 0.656058 0.890335
Si Si7 0.417802 0.889223 0.748370
Si Si8 0.514130 0.679485 0.218326
O O1 0.669207 0.752595 0.145637
O O2 0.563681 0.727885 0.149188
O O3 0.611411 0.002837 0.171635
O O4 0.609059 0.865692 0.000000
O O5 0.676056 0.346143 0.828360
O O6 0.750174 0.546284 0.878648
O O7 0.777379 0.248217 0.853715
O O8 0.714475 0.328997 0.000000
O O9 0.772878 0.833214 0.166965
O O10 0.876135 0.722214 0.189212
O O11 0.852127 0.025881 0.177826
O O12 0.265538 0.217493 0.000000
O O13 0.326299 0.395221 0.500000
O O14 0.377543 0.194665 0.388247
O O15 0.051806 0.490067 0.834801
O O16 0.027657 0.793491 0.831945
O O17 0.036559 0.645440 0.000000
O O18 0.461867 0.785956 0.806284
O O19 0.500000 0.500000 0.198333
#
# Coordination Sequence:
#
# PCOD8238486 Si02
#       8
#     8   8   8   8   8   8   8   8
#     4  10  24  46  70  95 130 172 220 277 332 386
#     4  10  23  38  57  89 127 168 211 255 312 383
#     4  12  24  37  64  93 130 176 209 265 327 376
#     4  10  23  41  63  94 128 168 217 263 320 394
#     4  10  22  39  61  92 129 169 216 262 314 384
#     4  10  22  42  67  91 127 170 210 265 326 382
#     4  11  26  41  64  99 126 171 220 267 322 396
#     4  11  25  44  67  97 131 163 221 275 325 396
#
# _framework density 22.076559
#
# number of rings (size 3 to 8) (size 9 to 14) (size 15 to 20)
#    0.000    1.500    0.000    4.125   12.250    5.000 
#    0.000    0.000    0.000    0.000    0.000    0.000 
#    0.000    0.000    0.000    0.000    0.000    0.000 
#
# Total GULP energy -793708.607802 kJ/mol
# GULP energy per Si atom -12401.696997 kJ/mol
# Density = 2.202631 g / cm^3
# Si number density = 22.076559 Si / 1000 Ang^3
#
#
#
# Elastic Constant Matrix: (Units=GPa)
#
#
# Indices 1 2 3 4 5 6 
#
# 1 100.5661 43.9841 23.3760 0.0000 0.0000 0.0000
# 2 43.9841 133.9856 36.5657 0.0000 0.0000 0.0000
# 3 23.3760 36.5657 75.3432 0.0000 0.0000 0.0000
# 4 0.0000 0.0000 0.0000 25.4524 0.0000 0.0000
# 5 0.0000 0.0000 0.0000 0.0000 30.3496 0.0000
# 6 0.0000 0.0000 0.0000 0.0000 0.0000 42.0099
#
#
#
# Elastic Compliance Matrix: (Units=1/GPa)
#
#
# Indices 1 2 3 4 5 6 
#
# 1 0.011884 -0.003337 -0.002068 0.000000 0.000000 0.000000
# 2 -0.003337 0.009540 -0.003595 0.000000 0.000000 0.000000
# 3 -0.002068 -0.003595 0.015659 0.000000 0.000000 0.000000
# 4 0.000000 0.000000 0.000000 0.039289 0.000000 0.000000
# 5 0.000000 0.000000 0.000000 0.000000 0.032949 0.000000
# 6 0.000000 0.000000 0.000000 0.000000 0.000000 0.023804
#
#
# Mechanical properties :
#
#
# Convention : Reuss Voigt Hill
#
# Bulk Modulus (GPa) = 52.39963 57.52738 54.96350
# Shear Modulus (GPa) = 31.74924 33.29366 32.52145
#
# Velocity S-wave (km/s) = 3.79640 3.88764 3.84229
# Velocity P-wave (km/s) = 6.55773 6.80194 6.68095
#
# Compressibility (1/GPa) = 0.01908410
#
# Stress axis : x y z
#
# Youngs Moduli (GPa) = 84.14856 104.82290 63.86253
#
# Poissons Ratio (x) = 0.34978 0.13204
# Poissons Ratio (y) = 0.28079 0.22956
# Poissons Ratio (z) = 0.17399 0.37680
#
# Static dielectric constant tensor:
#      x y z
#    x 3.920960 0.000000 0.000000 
#    y 0.000000 3.878420 0.000000 
#    z 0.000000 0.000000 4.080890 
# 
# 
# High freq. dielectric constant tensor:
#      x y z
#    x 1.870950 0.000000 0.000000 
#    y 0.000000 1.869170 0.000000 
#    z 0.000000 0.000000 1.869880 
# 
# From -- ./inp_files/23545.got.cif
#   From: 2010.06.25/outbox.cif.g09.slc.cpg/sg58_12_cif.got.tgz:23545.got - 2010.06.26 21:38:00.
