data_PCOD8238242
_publ_section_title
;
Structure prediction by ZEFSAII (Michael W. Deem and Ramdas Pophale) SiO2 
 PCOD8238242
Probable space group: P N N M
;
_chemical_formula_sum "Si O2"
_cell_formula_units_Z 48
_cell_length_a 17.887589
_cell_length_b 9.241485
_cell_length_c 13.694465
_cell_angle_alpha 90.000000
_cell_angle_beta 90.000000
_cell_angle_gamma 90.000000
_cell_volume 2263.803051
_symmetry_space_group_name_H-M "P N N M"
_symmetry_group_IT_number 58
_symmetry_cell_setting 'orthorhombic'
loop_
_space_group_symop_operation_xyz
x,y,z
-x,-y,z
1/2+x,1/2-y,1/2-z
1/2-x,1/2+y,1/2-z
-x,-y,-z
x,y,-z
1/2-x,1/2+y,1/2+z
1/2+x,1/2-y,1/2+z
loop_
_atom_site_type_symbol
_atom_site_label
_atom_site_fract_x
_atom_site_fract_y
_atom_site_fract_z
Si Si1 0.830602 0.314184 0.110193
Si Si2 0.541147 0.853752 0.241099
Si Si3 0.310895 0.525792 0.184044
Si Si4 0.192018 0.012663 0.103592
Si Si5 0.454612 0.646378 0.108163
Si Si6 0.832371 0.287178 0.606845
O O1 0.911467 0.303473 0.163727
O O2 0.774204 0.419811 0.169065
O O3 0.792332 0.157960 0.106199
O O4 0.842839 0.374263 0.000000
O O5 0.478494 0.743360 0.200790
O O6 0.597840 0.872657 0.151475
O O7 0.500000 0.000000 0.270146
O O8 0.344361 0.558426 0.293409
O O9 0.366452 0.609237 0.112383
O O10 0.309943 0.352148 0.171053
O O11 0.269708 0.093800 0.099036
O O12 0.148082 0.049062 0.000000
O O13 0.500000 0.500000 0.119092
O O14 0.468449 0.715716 0.000000
O O15 0.854314 0.227870 0.500000
#
# Coordination Sequence:
#
# PCOD8238242 Si02
#       6
#     8   8   8   8   8   8
#     4  11  24  44  67  94 127 174 225 270 323 388
#     4  12  26  42  62  91 135 176 213 272 324 386
#     4  12  21  41  67  98 130 165 215 275 327 394
#     4  10  21  38  65  94 125 162 208 262 319 380
#     4  11  23  40  63  94 131 173 214 265 337 401
#     4  11  22  39  63  95 130 164 203 261 327 388
#
# _framework density 21.203258999999999
#
# number of rings (size 3 to 8) (size 9 to 14) (size 15 to 20)
#    0.000    0.833    5.000    2.000    2.333    3.000 
#    0.000    0.833    0.000    3.000    0.000    0.000 
#    0.000    0.000    0.000    0.000    0.000    0.000 
#
# Total GULP energy -594640.694492 kJ/mol
# GULP energy per Si atom -12388.347802 kJ/mol
# Density = 2.115500 g / cm^3
# Si number density = 21.203259 Si / 1000 Ang^3
#
#
#
# Elastic Constant Matrix: (Units=GPa)
#
#
# Indices 1 2 3 4 5 6 
#
# 1 74.0296 48.1775 23.0642 0.0000 0.0000 0.0000
# 2 48.1775 90.2846 33.7876 0.0000 0.0000 0.0000
# 3 23.0642 33.7876 169.9340 0.0000 0.0000 0.0000
# 4 0.0000 0.0000 0.0000 1.8221 0.0000 0.0000
# 5 0.0000 0.0000 0.0000 0.0000 62.0027 0.0000
# 6 0.0000 0.0000 0.0000 0.0000 0.0000 35.0872
#
#
#
# Elastic Compliance Matrix: (Units=1/GPa)
#
#
# Indices 1 2 3 4 5 6 
#
# 1 0.020764 -0.010831 -0.000665 0.000000 0.000000 0.000000
# 2 -0.010831 0.017617 -0.002033 0.000000 0.000000 0.000000
# 3 -0.000665 -0.002033 0.006379 0.000000 0.000000 0.000000
# 4 0.000000 0.000000 0.000000 0.548806 0.000000 0.000000
# 5 0.000000 0.000000 0.000000 0.000000 0.016128 0.000000
# 6 0.000000 0.000000 0.000000 0.000000 0.000000 0.028500
#
#
# Mechanical properties :
#
#
# Convention : Reuss Voigt Hill
#
# Bulk Modulus (GPa) = 56.48921 60.47852 58.48387
# Shear Modulus (GPa) = 7.44987 35.06367 21.25677
#
# Velocity S-wave (km/s) = 1.87648 4.07097 3.16970
# Velocity P-wave (km/s) = 5.60308 7.11915 6.40612
#
# Compressibility (1/GPa) = 0.01770249
#
# Stress axis : x y z
#
# Youngs Moduli (GPa) = 48.16012 56.76479 156.76498
#
# Poissons Ratio (x) = 0.61484 0.10419
# Poissons Ratio (y) = 0.52164 0.31864
# Poissons Ratio (z) = 0.03201 0.11538
#
# Static dielectric constant tensor:
#      x y z
#    x 3.595130 0.000000 0.000000 
#    y 0.000000 3.606900 0.000000 
#    z 0.000000 0.000000 4.672210 
# 
# 
# High freq. dielectric constant tensor:
#      x y z
#    x 1.805960 0.000000 0.000000 
#    y 0.000000 1.819800 0.000000 
#    z 0.000000 0.000000 1.859510 
# 
# From -- ./inp_files/22746.got.cif
#   From: 2010.06.25/outbox.cif.g09.slc.cpg/sg58_12_cif.got.tgz:22746.got - 2010.06.26 21:38:00.
