data_PCOD8238042
_publ_section_title
;
Structure prediction by ZEFSAII (Michael W. Deem and Ramdas Pophale) SiO2 
 PCOD8238042
Probable space group: P N N M
;
_chemical_formula_sum "Si O2"
_cell_formula_units_Z 48
_cell_length_a 15.179065
_cell_length_b 9.309771
_cell_length_c 18.370483
_cell_angle_alpha 90.000000
_cell_angle_beta 90.000000
_cell_angle_gamma 90.000000
_cell_volume 2595.999438
_symmetry_space_group_name_H-M "P N N M"
_symmetry_group_IT_number 58
_symmetry_cell_setting 'orthorhombic'
loop_
_space_group_symop_operation_xyz
x,y,z
-x,-y,z
1/2+x,1/2-y,1/2-z
1/2-x,1/2+y,1/2-z
-x,-y,-z
x,y,-z
1/2-x,1/2+y,1/2+z
1/2+x,1/2-y,1/2+z
loop_
_atom_site_type_symbol
_atom_site_label
_atom_site_fract_x
_atom_site_fract_y
_atom_site_fract_z
Si Si1 0.926976 0.113311 0.083182
Si Si2 0.081523 0.598810 0.166372
Si Si3 0.915380 0.407202 0.337511
Si Si4 0.727754 0.088663 0.917073
Si Si5 0.745031 0.414981 0.084715
Si Si6 0.577826 0.604941 0.915058
O O1 0.940107 0.244565 0.136963
O O2 0.830007 0.044811 0.092196
O O3 0.940275 0.165122 0.000000
O O4 0.000000 0.000000 0.106667
O O5 0.095907 0.607278 0.251949
O O6 0.169712 0.535801 0.129789
O O7 0.000000 0.500000 0.144729
O O8 0.828146 0.483835 0.366850
O O9 0.927643 0.250642 0.370725
O O10 0.000000 0.500000 0.359730
O O11 0.714251 0.254517 0.892890
O O12 0.696229 0.067336 0.000000
O O13 0.669394 0.527699 0.102824
O O14 0.770859 0.413908 0.000000
O O15 0.500000 0.500000 0.889465
O O16 0.568571 0.641426 0.000000
#
# Coordination Sequence:
#
# PCOD8238042 Si02
#       6
#     8   8   8   8   8   8
#     4   9  19  37  60  83 107 138 177 221 267 313
#     4  10  22  37  53  78 112 146 177 213 262 318
#     4  11  23  36  52  78 110 144 180 216 261 317
#     4   9  18  35  57  79 105 137 175 220 266 312
#     4   9  19  36  57  80 105 136 176 221 268 314
#     4  10  21  37  57  80 105 137 179 224 268 314
#
# _framework density 18.489989000000001
#
# number of rings (size 3 to 8) (size 9 to 14) (size 15 to 20)
#    0.000    2.333    0.000    3.000    0.000    8.667 
#    0.000    6.667    0.000    0.000    0.000    0.000 
#    0.000    0.000    0.000    0.000    0.000    0.000 
#
# Total GULP energy -595329.263730 kJ/mol
# GULP energy per Si atom -12402.692994 kJ/mol
# Density = 1.844790 g / cm^3
# Si number density = 18.489989 Si / 1000 Ang^3
#
#
#
# Elastic Constant Matrix: (Units=GPa)
#
#
# Indices 1 2 3 4 5 6 
#
# 1 130.6020 83.6332 66.5979 0.0000 0.0000 0.0000
# 2 83.6332 117.5498 58.3960 0.0000 0.0000 0.0000
# 3 66.5979 58.3960 75.4879 0.0000 0.0000 0.0000
# 4 0.0000 0.0000 0.0000 53.3695 0.0000 0.0000
# 5 0.0000 0.0000 0.0000 0.0000 26.3471 0.0000
# 6 0.0000 0.0000 0.0000 0.0000 0.0000 36.8104
#
#
#
# Elastic Compliance Matrix: (Units=1/GPa)
#
#
# Indices 1 2 3 4 5 6 
#
# 1 0.017362 -0.007704 -0.009358 0.000000 0.000000 0.000000
# 2 -0.007704 0.017235 -0.006536 0.000000 0.000000 0.000000
# 3 -0.009358 -0.006536 0.026559 0.000000 0.000000 0.000000
# 4 0.000000 0.000000 0.000000 0.018737 0.000000 0.000000
# 5 0.000000 0.000000 0.000000 0.000000 0.037955 0.000000
# 6 0.000000 0.000000 0.000000 0.000000 0.000000 0.027166
#
#
# Mechanical properties :
#
#
# Convention : Reuss Voigt Hill
#
# Bulk Modulus (GPa) = 71.62974 82.32155 76.97564
# Shear Modulus (GPa) = 25.39834 30.97292 28.18563
#
# Velocity S-wave (km/s) = 3.71027 4.09726 3.90856
# Velocity P-wave (km/s) = 7.56165 8.18549 7.87975
#
# Compressibility (1/GPa) = 0.01396068
#
# Stress axis : x y z
#
# Youngs Moduli (GPa) = 57.59750 58.02128 37.65184
#
# Poissons Ratio (x) = 0.44698 0.35234
# Poissons Ratio (y) = 0.44372 0.24610
# Poissons Ratio (z) = 0.53898 0.37924
#
# Static dielectric constant tensor:
#      x y z
#    x 3.565580 0.000000 0.000000 
#    y 0.000000 3.368450 0.000000 
#    z 0.000000 0.000000 3.340490 
# 
# 
# High freq. dielectric constant tensor:
#      x y z
#    x 1.731020 0.000000 0.000000 
#    y 0.000000 1.715850 0.000000 
#    z 0.000000 0.000000 1.713100 
# 
# From -- ./inp_files/25253.got.cif
#   From: 2010.06.25/outbox.cif.g09.slc.cpg/sg58_13_cif.got.tgz:25253.got - 2010.06.26 21:38:00.
