data_PCOD8238773
_publ_section_title
;
Structure prediction by ZEFSAII (Michael W. Deem and Ramdas Pophale) SiO2 
 PCOD8238773
Probable space group: P N N M
;
_chemical_formula_sum "Si O2"
_cell_formula_units_Z 40
_cell_length_a 11.011521
_cell_length_b 7.608246
_cell_length_c 23.330737
_cell_angle_alpha 90.000000
_cell_angle_beta 90.000000
_cell_angle_gamma 90.000000
_cell_volume 1954.610898
_symmetry_space_group_name_H-M "P N N M"
_symmetry_group_IT_number 58
_symmetry_cell_setting 'orthorhombic'
loop_
_space_group_symop_operation_xyz
x,y,z
-x,-y,z
1/2+x,1/2-y,1/2-z
1/2-x,1/2+y,1/2-z
-x,-y,-z
x,y,-z
1/2-x,1/2+y,1/2+z
1/2+x,1/2-y,1/2+z
loop_
_atom_site_type_symbol
_atom_site_label
_atom_site_fract_x
_atom_site_fract_y
_atom_site_fract_z
Si Si1 0.640673 0.018160 0.693635
Si Si2 0.759727 0.816687 0.121051
Si Si3 0.292599 0.079757 0.000000
Si Si4 0.441300 0.758978 0.000000
Si Si5 0.270170 0.847677 0.812139
Si Si6 0.989615 0.809473 0.375787
O O1 0.663158 0.145565 0.639195
O O2 0.712637 0.107899 0.745636
O O3 0.500000 0.000000 0.708069
O O4 0.688217 0.823995 0.680352
O O5 0.616628 0.788234 0.128530
O O6 0.797277 0.987219 0.158204
O O7 0.785184 0.854888 0.054266
O O8 0.431564 0.140343 0.000000
O O9 0.315439 0.870426 0.000000
O O10 0.440286 0.650757 0.940543
O O11 0.399002 0.816160 0.842036
O O12 0.000000 0.000000 0.345446
#
# Coordination Sequence:
#
# PCOD8238773 Si02
#       6
#     8   8   4   4   8   8
#     4  12  27  44  65  93 126 166 215 260 315 381
#     4  11  22  42  63  96 131 167 212 260 316 377
#     4   9  18  34  63  90 130 172 207 258 317 372
#     4   9  17  30  56  99 131 163 200 261 317 375
#     4  12  24  42  66  92 124 169 206 265 321 375
#     4  11  20  35  64  98 134 161 207 258 323 377
#
# _framework density 20.464431999999999
#
# number of rings (size 3 to 8) (size 9 to 14) (size 15 to 20)
#    0.000    1.000    6.000    2.100    0.000    0.800 
#    0.000    1.500    0.000    1.200    0.000    0.000 
#    0.000    0.000    0.000    0.000    0.000    0.000 
#
# Total GULP energy -495950.985217 kJ/mol
# GULP energy per Si atom -12398.774630 kJ/mol
# Density = 2.041785 g / cm^3
# Si number density = 20.464432 Si / 1000 Ang^3
#
#
#
# Elastic Constant Matrix: (Units=GPa)
#
#
# Indices 1 2 3 4 5 6 
#
# 1 45.1138 29.0368 15.0822 0.0000 0.0000 0.0000
# 2 29.0368 150.9410 42.0944 0.0000 0.0000 0.0000
# 3 15.0822 42.0944 105.4301 0.0000 0.0000 0.0000
# 4 0.0000 0.0000 0.0000 11.8617 0.0000 0.0000
# 5 0.0000 0.0000 0.0000 0.0000 7.3817 0.0000
# 6 0.0000 0.0000 0.0000 0.0000 0.0000 26.3573
#
#
#
# Elastic Compliance Matrix: (Units=1/GPa)
#
#
# Indices 1 2 3 4 5 6 
#
# 1 0.025636 -0.004399 -0.001911 0.000000 0.000000 0.000000
# 2 -0.004399 0.008210 -0.002649 0.000000 0.000000 0.000000
# 3 -0.001911 -0.002649 0.010816 0.000000 0.000000 0.000000
# 4 0.000000 0.000000 0.000000 0.084305 0.000000 0.000000
# 5 0.000000 0.000000 0.000000 0.000000 0.135470 0.000000
# 6 0.000000 0.000000 0.000000 0.000000 0.000000 0.037940
#
#
# Mechanical properties :
#
#
# Convention : Reuss Voigt Hill
#
# Bulk Modulus (GPa) = 37.39013 52.65685 45.02349
# Shear Modulus (GPa) = 15.18791 23.47159 19.32975
#
# Velocity S-wave (km/s) = 2.72722 3.39033 3.07669
# Velocity P-wave (km/s) = 5.31295 6.41191 5.88812
#
# Compressibility (1/GPa) = 0.02674503
#
# Stress axis : x y z
#
# Youngs Moduli (GPa) = 39.00732 121.80336 92.45667
#
# Poissons Ratio (x) = 0.53578 0.17670
# Poissons Ratio (y) = 0.17158 0.24489
# Poissons Ratio (z) = 0.07455 0.32262
#
# Static dielectric constant tensor:
#      x y z
#    x 3.257950 0.000000 0.000000 
#    y 0.000000 3.808260 0.000000 
#    z 0.000000 0.000000 3.921370 
# 
# 
# High freq. dielectric constant tensor:
#      x y z
#    x 1.753680 0.000000 0.000000 
#    y 0.000000 1.818120 0.000000 
#    z 0.000000 0.000000 1.804400 
# 
# From -- ./inp_files/29424.got.cif
#   From: 2010.06.25/outbox.cif.g09.slc.cpg/sg58_15_cif.got.tgz:29424.got - 2010.06.26 21:38:00.
