data_PCOD8238497
_publ_section_title
;
Structure prediction by ZEFSAII (Michael W. Deem and Ramdas Pophale) SiO2 
 PCOD8238497
Probable space group: P N N M
;
_chemical_formula_sum "Si O2"
_cell_formula_units_Z 56
_cell_length_a 22.566079
_cell_length_b 14.114293
_cell_length_c 9.084369
_cell_angle_alpha 90.000000
_cell_angle_beta 90.000000
_cell_angle_gamma 90.000000
_cell_volume 2893.410143
_symmetry_space_group_name_H-M "P N N M"
_symmetry_group_IT_number 58
_symmetry_cell_setting 'orthorhombic'
loop_
_space_group_symop_operation_xyz
x,y,z
-x,-y,z
1/2+x,1/2-y,1/2-z
1/2-x,1/2+y,1/2-z
-x,-y,-z
x,y,-z
1/2-x,1/2+y,1/2+z
1/2+x,1/2-y,1/2+z
loop_
_atom_site_type_symbol
_atom_site_label
_atom_site_fract_x
_atom_site_fract_y
_atom_site_fract_z
Si Si1 0.273297 0.647104 0.160233
Si Si2 0.855266 0.393082 0.171445
Si Si3 0.771303 0.143746 0.837226
Si Si4 0.495083 0.388489 0.670959
Si Si5 0.613349 0.707655 0.175016
Si Si6 0.617939 0.299175 0.672448
Si Si7 0.838767 0.596465 0.829524
O O1 0.213357 0.601432 0.224233
O O2 0.261110 0.757455 0.145620
O O3 0.330313 0.632948 0.263740
O O4 0.288454 0.603737 0.000000
O O5 0.890867 0.316480 0.267166
O O6 0.878945 0.501109 0.194179
O O7 0.858665 0.361254 0.000000
O O8 0.830793 0.152314 0.742082
O O9 0.723389 0.078765 0.754473
O O10 0.786633 0.102774 0.000000
O O11 0.500000 0.500000 0.696081
O O12 0.481765 0.364924 0.500000
O O13 0.444466 0.347727 0.774604
O O14 0.555078 0.338078 0.726381
O O15 0.618181 0.708834 0.000000
O O16 0.623354 0.309217 0.500000
O O17 0.624753 0.189152 0.723639
O O18 0.822148 0.608431 0.000000
#
# Coordination Sequence:
#
# PCOD8238497 Si02
#       7
#     8   8   8   8   8   8   8
#     4   8  15  28  47  71 100 134 166 200 248 301
#     4   9  18  33  53  79 112 145 173 208 261 320
#     4   9  17  31  51  75 106 142 174 209 259 313
#     4  10  22  40  58  75  99 135 178 223 273 327
#     4  11  22  36  55  78 105 139 181 228 270 312
#     4   9  18  33  53  76 102 134 173 217 262 310
#     4   9  17  31  53  82 112 140 174 216 261 316
#
# _framework density 19.354323999999998
#
# number of rings (size 3 to 8) (size 9 to 14) (size 15 to 20)
#    0.000    2.714    0.000    2.571    0.000    6.000 
#    0.000    3.571    0.000    4.286    0.000    0.000 
#    0.000    0.000    0.000    0.000    0.000    0.000 
#
# Total GULP energy -693972.683359 kJ/mol
# GULP energy per Si atom -12392.369346 kJ/mol
# Density = 1.931027 g / cm^3
# Si number density = 19.354324 Si / 1000 Ang^3
#
#
#
# Elastic Constant Matrix: (Units=GPa)
#
#
# Indices 1 2 3 4 5 6 
#
# 1 102.8816 36.8611 51.2336 0.0000 0.0000 0.0000
# 2 36.8611 86.7990 35.0725 0.0000 0.0000 0.0000
# 3 51.2336 35.0725 90.2851 0.0000 0.0000 0.0000
# 4 0.0000 0.0000 0.0000 17.3855 0.0000 0.0000
# 5 0.0000 0.0000 0.0000 0.0000 31.8052 0.0000
# 6 0.0000 0.0000 0.0000 0.0000 0.0000 21.5494
#
#
#
# Elastic Compliance Matrix: (Units=1/GPa)
#
#
# Indices 1 2 3 4 5 6 
#
# 1 0.014311 -0.003317 -0.006832 0.000000 0.000000 0.000000
# 2 -0.003317 0.014435 -0.003725 0.000000 0.000000 0.000000
# 3 -0.006832 -0.003725 0.016400 0.000000 0.000000 0.000000
# 4 0.000000 0.000000 0.000000 0.057519 0.000000 0.000000
# 5 0.000000 0.000000 0.000000 0.000000 0.031441 0.000000
# 6 0.000000 0.000000 0.000000 0.000000 0.000000 0.046405
#
#
# Mechanical properties :
#
#
# Convention : Reuss Voigt Hill
#
# Bulk Modulus (GPa) = 57.48116 58.47779 57.97947
# Shear Modulus (GPa) = 23.35811 24.60127 23.97969
#
# Velocity S-wave (km/s) = 3.47777 3.56912 3.52374
# Velocity P-wave (km/s) = 6.77424 6.87493 6.82477
#
# Compressibility (1/GPa) = 0.01739701
#
# Stress axis : x y z
#
# Youngs Moduli (GPa) = 69.87809 69.27813 60.97449
#
# Poissons Ratio (x) = 0.22977 0.41660
# Poissons Ratio (y) = 0.23176 0.22715
# Poissons Ratio (z) = 0.47744 0.25808
#
# Static dielectric constant tensor:
#      x y z
#    x 3.448580 0.000000 0.000000 
#    y 0.000000 3.721750 0.000000 
#    z 0.000000 0.000000 3.653670 
# 
# 
# High freq. dielectric constant tensor:
#      x y z
#    x 1.728920 0.000000 0.000000 
#    y 0.000000 1.754950 0.000000 
#    z 0.000000 0.000000 1.744980 
# 
# From -- ./inp_files/9084.got.cif
#   From: 2010.06.25/outbox.cif.g09.slc.cpg/sg58_5_cif.got.tgz:9084.got - 2010.06.26 21:38:00.
