data_PCOD8238518
_publ_section_title
;
Structure prediction by ZEFSAII (Michael W. Deem and Ramdas Pophale) SiO2 
 PCOD8238518
Probable space group: P N N M
;
_chemical_formula_sum "Si O2"
_cell_formula_units_Z 40
_cell_length_a 9.478871
_cell_length_b 18.768523
_cell_length_c 10.088311
_cell_angle_alpha 90.000000
_cell_angle_beta 90.000000
_cell_angle_gamma 90.000000
_cell_volume 1794.755000
_symmetry_space_group_name_H-M "P N N M"
_symmetry_group_IT_number 58
_symmetry_cell_setting 'orthorhombic'
loop_
_space_group_symop_operation_xyz
x,y,z
-x,-y,z
1/2+x,1/2-y,1/2-z
1/2-x,1/2+y,1/2-z
-x,-y,-z
x,y,-z
1/2-x,1/2+y,1/2+z
1/2+x,1/2-y,1/2+z
loop_
_atom_site_type_symbol
_atom_site_label
_atom_site_fract_x
_atom_site_fract_y
_atom_site_fract_z
Si Si1 0.809942 0.030746 0.643713
Si Si2 0.728002 0.218249 0.855758
Si Si3 0.252632 0.624104 0.208605
Si Si4 0.975486 0.115728 0.147484
Si Si5 0.557473 0.130751 0.657131
O O1 0.859947 0.060174 0.500000
O O2 0.922662 0.054443 0.752815
O O3 0.655306 0.061640 0.676696
O O4 0.801418 0.945705 0.629397
O O5 0.732314 0.303126 0.873025
O O6 0.885785 0.188024 0.827255
O O7 0.628870 0.197089 0.732999
O O8 0.675292 0.188744 0.000000
O O9 0.357018 0.630572 0.335177
O O10 0.086489 0.614716 0.237352
O O11 0.951072 0.086518 0.000000
O O12 0.533242 0.147971 0.500000
#
# Coordination Sequence:
#
# PCOD8238518 Si02
#       5
#     8   8   8   8   8
#     4  10  22  40  63  90 120 156 200 248 298 353
#     4  10  22  41  62  86 120 159 198 244 298 356
#     4  12  22  35  63  93 119 153 200 250 298 349
#     4  10  24  44  62  86 124 163 198 242 298 358
#     4  10  22  41  62  87 121 158 198 247 300 354
#
# _framework density 22.287163
#
# number of rings (size 3 to 8) (size 9 to 14) (size 15 to 20)
#    0.000    1.600    0.000    4.200    0.000    9.600 
#    0.000    4.000    0.000    6.000    0.000    0.000 
#    0.000    0.000    0.000    0.000    0.000    0.000 
#
# Total GULP energy -495559.097909 kJ/mol
# GULP energy per Si atom -12388.977448 kJ/mol
# Density = 2.223644 g / cm^3
# Si number density = 22.287163 Si / 1000 Ang^3
#
#
#
# Elastic Constant Matrix: (Units=GPa)
#
#
# Indices 1 2 3 4 5 6 
#
# 1 174.8093 46.3634 75.1710 0.0000 0.0000 0.0000
# 2 46.3634 137.8688 54.6222 0.0000 0.0000 0.0000
# 3 75.1710 54.6222 127.1152 0.0000 0.0000 0.0000
# 4 0.0000 0.0000 0.0000 13.1933 0.0000 0.0000
# 5 0.0000 0.0000 0.0000 0.0000 31.0761 0.0000
# 6 0.0000 0.0000 0.0000 0.0000 0.0000 24.8939
#
#
#
# Elastic Compliance Matrix: (Units=1/GPa)
#
#
# Indices 1 2 3 4 5 6 
#
# 1 0.007774 -0.000956 -0.004187 0.000000 0.000000 0.000000
# 2 -0.000956 0.008859 -0.003242 0.000000 0.000000 0.000000
# 3 -0.004187 -0.003242 0.011736 0.000000 0.000000 0.000000
# 4 0.000000 0.000000 0.000000 0.075796 0.000000 0.000000
# 5 0.000000 0.000000 0.000000 0.000000 0.032179 0.000000
# 6 0.000000 0.000000 0.000000 0.000000 0.000000 0.040171
#
#
# Mechanical properties :
#
#
# Convention : Reuss Voigt Hill
#
# Bulk Modulus (GPa) = 86.20010 88.01181 87.10596
# Shear Modulus (GPa) = 25.36145 31.40845 28.38495
#
# Velocity S-wave (km/s) = 3.37700 3.75809 3.57263
# Velocity P-wave (km/s) = 7.34619 7.64242 7.49577
#
# Compressibility (1/GPa) = 0.01160091
#
# Stress axis : x y z
#
# Youngs Moduli (GPa) = 128.62762 112.88044 85.20977
#
# Poissons Ratio (x) = 0.10787 0.35676
# Poissons Ratio (y) = 0.12292 0.27622
# Poissons Ratio (z) = 0.53854 0.36591
#
# Static dielectric constant tensor:
#      x y z
#    x 4.259590 0.000000 0.000000 
#    y 0.000000 3.986720 0.000000 
#    z 0.000000 0.000000 3.829930 
# 
# 
# High freq. dielectric constant tensor:
#      x y z
#    x 1.885450 0.000000 0.000000 
#    y 0.000000 1.880080 0.000000 
#    z 0.000000 0.000000 1.861590 
# 
# From -- ./inp_files/12900.got.cif
#   From: 2010.06.25/outbox.cif.g09.slc.cpg/sg58_7_cif.got.tgz:12900.got - 2010.06.26 21:38:00.
