data_PCOD8238934
_publ_section_title
;
Structure prediction by ZEFSAII (Michael W. Deem and Ramdas Pophale) SiO2 
 PCOD8238934
Probable space group: P N N M
;
_chemical_formula_sum "Si O2"
_cell_formula_units_Z 40
_cell_length_a 7.547845
_cell_length_b 9.533299
_cell_length_c 24.404484
_cell_angle_alpha 90.000000
_cell_angle_beta 90.000000
_cell_angle_gamma 90.000000
_cell_volume 1756.045712
_symmetry_space_group_name_H-M "P N N M"
_symmetry_group_IT_number 58
_symmetry_cell_setting 'orthorhombic'
loop_
_space_group_symop_operation_xyz
x,y,z
-x,-y,z
1/2+x,1/2-y,1/2-z
1/2-x,1/2+y,1/2-z
-x,-y,-z
x,y,-z
1/2-x,1/2+y,1/2+z
1/2+x,1/2-y,1/2+z
loop_
_atom_site_type_symbol
_atom_site_label
_atom_site_fract_x
_atom_site_fract_y
_atom_site_fract_z
Si Si1 0.195233 0.204375 0.000000
Si Si2 0.122992 0.870905 0.400382
Si Si3 0.616223 0.131374 0.109571
Si Si4 0.204124 0.867058 0.000000
Si Si5 0.622314 0.625992 0.295559
Si Si6 0.126181 0.376518 0.803245
O O1 0.279879 0.284108 0.051720
O O2 0.983953 0.211932 0.000000
O O3 0.222646 0.036308 0.000000
O O4 0.268008 0.927175 0.357185
O O5 0.000324 0.759975 0.367111
O O6 0.000000 0.000000 0.421553
O O7 0.702724 0.191350 0.054130
O O8 0.758081 0.078184 0.153533
O O9 0.500000 0.000000 0.092794
O O10 0.500000 0.500000 0.275190
O O11 0.742559 0.672899 0.244769
O O12 0.499481 0.748354 0.318535
O O13 0.000000 0.500000 0.781505
#
# Coordination Sequence:
#
# PCOD8238934 Si02
#       6
#     4   8   8   4   8   8
#     4  11  24  43  68 101 133 177 225 282 335 401
#     4  12  25  44  67  98 137 180 222 273 340 407
#     4  12  23  42  68 100 132 174 223 278 334 395
#     4  11  24  42  70 100 137 167 226 289 341 384
#     4  12  25  42  69  99 129 175 227 273 329 401
#     4  12  25  46  66  97 137 178 219 279 337 394
#
# _framework density 22.778448999999998
#
# number of rings (size 3 to 8) (size 9 to 14) (size 15 to 20)
#    0.000    0.200    2.000    8.400    2.800    0.000 
#    0.000    1.500    0.000    0.000    0.000    0.000 
#    0.000    0.000    0.000    0.000    0.000    0.000 
#
# Total GULP energy -496050.293840 kJ/mol
# GULP energy per Si atom -12401.257346 kJ/mol
# Density = 2.272660 g / cm^3
# Si number density = 22.778449 Si / 1000 Ang^3
#
#
#
# Elastic Constant Matrix: (Units=GPa)
#
#
# Indices 1 2 3 4 5 6 
#
# 1 137.2250 50.4556 50.1123 0.0000 0.0000 0.0000
# 2 50.4556 106.4852 3.4120 0.0000 0.0000 0.0000
# 3 50.1123 3.4120 120.0655 0.0000 0.0000 0.0000
# 4 0.0000 0.0000 0.0000 28.6792 0.0000 0.0000
# 5 0.0000 0.0000 0.0000 0.0000 10.1036 0.0000
# 6 0.0000 0.0000 0.0000 0.0000 0.0000 49.1934
#
#
#
# Elastic Compliance Matrix: (Units=1/GPa)
#
#
# Indices 1 2 3 4 5 6 
#
# 1 0.010671 -0.004918 -0.004314 0.000000 0.000000 0.000000
# 2 -0.004918 0.011666 0.001721 0.000000 0.000000 0.000000
# 3 -0.004314 0.001721 0.010080 0.000000 0.000000 0.000000
# 4 0.000000 0.000000 0.000000 0.034869 0.000000 0.000000
# 5 0.000000 0.000000 0.000000 0.000000 0.098974 0.000000
# 6 0.000000 0.000000 0.000000 0.000000 0.000000 0.020328
#
#
# Mechanical properties :
#
#
# Convention : Reuss Voigt Hill
#
# Bulk Modulus (GPa) = 57.48538 63.52617 60.50578
# Shear Modulus (GPa) = 24.10698 34.91496 29.51097
#
# Velocity S-wave (km/s) = 3.25672 3.91935 3.60330
# Velocity P-wave (km/s) = 6.27958 6.95924 6.62813
#
# Compressibility (1/GPa) = 0.01739573
#
# Stress axis : x y z
#
# Youngs Moduli (GPa) = 93.71206 85.71851 99.20187
#
# Poissons Ratio (x) = 0.42156 0.42796
# Poissons Ratio (y) = 0.46087 -0.17074
# Poissons Ratio (z) = 0.40428 -0.14753
#
# Static dielectric constant tensor:
#      x y z
#    x 4.572090 0.000000 0.000000 
#    y 0.000000 5.151540 0.000000 
#    z 0.000000 0.000000 3.902240 
# 
# 
# High freq. dielectric constant tensor:
#      x y z
#    x 1.923950 0.000000 0.000000 
#    y 0.000000 1.896370 0.000000 
#    z 0.000000 0.000000 1.897490 
# 
# From -- ./inp_files/33190.got.cif
#   From: 2010.06.25/outbox.cif.g09.slc.cpg/sg58_17_cif.got.tgz:33190.got - 2010.06.26 21:38:00.
