data_PCOD8238155
_publ_section_title
;
Structure prediction by ZEFSAII (Michael W. Deem and Ramdas Pophale) SiO2 
 PCOD8238155
Probable space group: P N N M
;
_chemical_formula_sum "Si O2"
_cell_formula_units_Z 64
_cell_length_a 24.433882
_cell_length_b 9.010651
_cell_length_c 13.757933
_cell_angle_alpha 90.000000
_cell_angle_beta 90.000000
_cell_angle_gamma 90.000000
_cell_volume 3029.017840
_symmetry_space_group_name_H-M "P N N M"
_symmetry_group_IT_number 58
_symmetry_cell_setting 'orthorhombic'
loop_
_space_group_symop_operation_xyz
x,y,z
-x,-y,z
1/2+x,1/2-y,1/2-z
1/2-x,1/2+y,1/2-z
-x,-y,-z
x,y,-z
1/2-x,1/2+y,1/2+z
1/2+x,1/2-y,1/2+z
loop_
_atom_site_type_symbol
_atom_site_label
_atom_site_fract_x
_atom_site_fract_y
_atom_site_fract_z
Si Si1 0.665768 0.150772 0.612064
Si Si2 0.060976 0.173795 0.112708
Si Si3 0.223160 0.050309 0.889816
Si Si4 0.168035 0.555951 0.710020
Si Si5 0.055257 0.570674 0.610824
Si Si6 0.942087 0.174688 0.888986
Si Si7 0.644449 0.634107 0.745459
Si Si8 0.055412 0.920711 0.389902
O O1 0.659599 0.094863 0.500000
O O2 0.610054 0.227263 0.653707
O O3 0.714055 0.272426 0.617512
O O4 0.678642 0.013568 0.682986
O O5 0.001273 0.218446 0.155211
O O6 0.070713 0.999895 0.127067
O O7 0.056237 0.206065 0.000000
O O8 0.284425 0.999587 0.862577
O O9 0.181462 0.975128 0.815609
O O10 0.210314 0.997215 0.000000
O O11 0.108335 0.513226 0.669330
O O12 0.179053 0.734157 0.705933
O O13 0.063035 0.517296 0.500000
O O14 0.047579 0.745936 0.616030
O O15 0.000000 0.500000 0.655512
O O16 0.895083 0.242455 0.821747
O O17 0.935596 0.224420 0.000000
O O18 0.607769 0.538207 0.822267
O O19 0.067789 0.973854 0.500000
O O20 0.000000 0.000000 0.351229
#
# Coordination Sequence:
#
# PCOD8238155 Si02
#       8
#     8   8   8   8   8   8   8   8
#     4  10  21  38  59  83 115 152 190 235 286 345
#     4   8  15  29  51  80 111 146 184 224 271 323
#     4  11  23  42  64  82 107 149 199 243 287 350
#     4  11  24  39  56  86 119 149 187 240 302 350
#     4   9  19  38  61  83 113 154 195 234 285 350
#     4   9  16  29  52  84 115 144 185 231 270 324
#     4  11  22  35  60  88 113 153 194 238 286 343
#     4   9  20  37  57  87 124 157 193 239 287 333
#
# _framework density 21.128959999999999
#
# number of rings (size 3 to 8) (size 9 to 14) (size 15 to 20)
#    0.000    2.250    1.250    2.250    1.750    4.500 
#    0.000    0.625    0.000    3.375    0.000    0.000 
#    0.000    0.000    0.000    0.000    0.000    0.000 
#
# Total GULP energy -793016.899285 kJ/mol
# GULP energy per Si atom -12390.889051 kJ/mol
# Density = 2.108087 g / cm^3
# Si number density = 21.128960 Si / 1000 Ang^3
#
#
#
# Elastic Constant Matrix: (Units=GPa)
#
#
# Indices 1 2 3 4 5 6 
#
# 1 136.3823 27.7792 57.1062 0.0000 0.0000 0.0000
# 2 27.7792 42.3928 27.9208 0.0000 0.0000 0.0000
# 3 57.1062 27.9208 109.1216 0.0000 0.0000 0.0000
# 4 0.0000 0.0000 0.0000 26.1688 0.0000 0.0000
# 5 0.0000 0.0000 0.0000 0.0000 35.7309 0.0000
# 6 0.0000 0.0000 0.0000 0.0000 0.0000 22.8184
#
#
#
# Elastic Compliance Matrix: (Units=1/GPa)
#
#
# Indices 1 2 3 4 5 6 
#
# 1 0.009845 -0.003678 -0.004211 0.000000 0.000000 0.000000
# 2 -0.003678 0.029744 -0.005686 0.000000 0.000000 0.000000
# 3 -0.004211 -0.005686 0.012823 0.000000 0.000000 0.000000
# 4 0.000000 0.000000 0.000000 0.038213 0.000000 0.000000
# 5 0.000000 0.000000 0.000000 0.000000 0.027987 0.000000
# 6 0.000000 0.000000 0.000000 0.000000 0.000000 0.043824
#
#
# Mechanical properties :
#
#
# Convention : Reuss Voigt Hill
#
# Bulk Modulus (GPa) = 39.58515 57.05658 48.32087
# Shear Modulus (GPa) = 25.25190 28.61634 26.93412
#
# Velocity S-wave (km/s) = 3.46082 3.68416 3.57424
# Velocity P-wave (km/s) = 5.89452 6.72012 6.32081
#
# Compressibility (1/GPa) = 0.02526200
#
# Stress axis : x y z
#
# Youngs Moduli (GPa) = 101.57823 33.62073 77.98707
#
# Poissons Ratio (x) = 0.12364 0.32840
# Poissons Ratio (y) = 0.37356 0.44342
# Poissons Ratio (z) = 0.42774 0.19116
#
# Static dielectric constant tensor:
#      x y z
#    x 4.195640 0.000000 0.000000 
#    y 0.000000 3.998820 0.000000 
#    z 0.000000 0.000000 3.962700 
# 
# 
# High freq. dielectric constant tensor:
#      x y z
#    x 1.836280 0.000000 0.000000 
#    y 0.000000 1.790020 0.000000 
#    z 0.000000 0.000000 1.831600 
# 
# From -- ./inp_files/23542.got.cif
#   From: 2010.06.25/outbox.cif.g09.slc.cpg/sg58_12_cif.got.tgz:23542.got - 2010.06.26 21:38:00.
