data_PCOD8238847
_publ_section_title
;
Structure prediction by ZEFSAII (Michael W. Deem and Ramdas Pophale) SiO2 
 PCOD8238847
Probable space group: P N N M
;
_chemical_formula_sum "Si O2"
_cell_formula_units_Z 40
_cell_length_a 23.660280
_cell_length_b 4.918692
_cell_length_c 16.091121
_cell_angle_alpha 90.000000
_cell_angle_beta 90.000000
_cell_angle_gamma 90.000000
_cell_volume 1872.646525
_symmetry_space_group_name_H-M "P N N M"
_symmetry_group_IT_number 58
_symmetry_cell_setting 'orthorhombic'
loop_
_space_group_symop_operation_xyz
x,y,z
-x,-y,z
1/2+x,1/2-y,1/2-z
1/2-x,1/2+y,1/2-z
-x,-y,-z
x,y,-z
1/2-x,1/2+y,1/2+z
1/2+x,1/2-y,1/2+z
loop_
_atom_site_type_symbol
_atom_site_label
_atom_site_fract_x
_atom_site_fract_y
_atom_site_fract_z
Si Si1 0.193601 0.968881 0.652100
Si Si2 0.680004 0.987695 0.404319
Si Si3 0.128756 0.448166 0.406988
Si Si4 0.635133 0.476757 0.320656
Si Si5 0.963724 0.749633 0.282357
O O1 0.168760 0.669817 0.636741
O O2 0.179458 0.061999 0.745588
O O3 0.259978 0.993659 0.640470
O O4 0.164172 0.171415 0.587260
O O5 0.686985 0.905298 0.500000
O O6 0.638449 0.781326 0.355968
O O7 0.651853 0.282124 0.396761
O O8 0.112015 0.539893 0.500000
O O9 0.072299 0.394462 0.354637
O O10 0.572884 0.395283 0.289477
O O11 0.000000 0.500000 0.243896
O O12 0.000000 0.000000 0.320812
#
# Coordination Sequence:
#
# PCOD8238847 Si02
#       5
#     8   8   8   8   8
#     4  11  22  39  61  90 127 168 197 228 296 374
#     4  12  23  38  63  93 125 157 195 248 306 363
#     4  11  22  37  59  92 130 160 198 247 295 360
#     4  11  23  41  62  88 121 158 206 250 294 367
#     4  11  23  41  64  86 115 164 216 262 310 353
#
# _framework density 21.360146
#
# number of rings (size 3 to 8) (size 9 to 14) (size 15 to 20)
#    0.000    0.800    0.000   10.800    0.000    0.800 
#    0.000    0.000    0.000   12.000    0.000    0.000 
#    0.000    0.000    0.000    0.000    0.000    0.000 
#
# Total GULP energy -496023.031016 kJ/mol
# GULP energy per Si atom -12400.575775 kJ/mol
# Density = 2.131153 g / cm^3
# Si number density = 21.360146 Si / 1000 Ang^3
#
#
#
# Elastic Constant Matrix: (Units=GPa)
#
#
# Indices 1 2 3 4 5 6 
#
# 1 69.4474 17.7062 23.6354 0.0000 0.0000 0.0000
# 2 17.7062 89.9205 28.0394 0.0000 0.0000 0.0000
# 3 23.6354 28.0394 82.4075 0.0000 0.0000 0.0000
# 4 0.0000 0.0000 0.0000 33.4894 0.0000 0.0000
# 5 0.0000 0.0000 0.0000 0.0000 1.7947 0.0000
# 6 0.0000 0.0000 0.0000 0.0000 0.0000 48.0345
#
#
#
# Elastic Compliance Matrix: (Units=1/GPa)
#
#
# Indices 1 2 3 4 5 6 
#
# 1 0.016258 -0.001955 -0.003998 0.000000 0.000000 0.000000
# 2 -0.001955 0.012676 -0.003752 0.000000 0.000000 0.000000
# 3 -0.003998 -0.003752 0.014558 0.000000 0.000000 0.000000
# 4 0.000000 0.000000 0.000000 0.029860 0.000000 0.000000
# 5 0.000000 0.000000 0.000000 0.000000 0.557196 0.000000
# 6 0.000000 0.000000 0.000000 0.000000 0.000000 0.020818
#
#
# Mechanical properties :
#
#
# Convention : Reuss Voigt Hill
#
# Bulk Modulus (GPa) = 41.52420 42.28193 41.90307
# Shear Modulus (GPa) = 7.36589 28.15668 17.76128
#
# Velocity S-wave (km/s) = 1.85901 3.63462 2.88673
# Velocity P-wave (km/s) = 4.90817 6.11978 5.54716
#
# Compressibility (1/GPa) = 0.02408234
#
# Stress axis : x y z
#
# Youngs Moduli (GPa) = 61.50651 78.88969 68.68966
#
# Poissons Ratio (x) = 0.15421 0.27462
# Poissons Ratio (y) = 0.12023 0.25775
# Poissons Ratio (z) = 0.24590 0.29602
#
# Static dielectric constant tensor:
#      x y z
#    x 3.841940 0.000000 0.000000 
#    y 0.000000 4.192160 0.000000 
#    z 0.000000 0.000000 3.620620 
# 
# 
# High freq. dielectric constant tensor:
#      x y z
#    x 1.830880 0.000000 0.000000 
#    y 0.000000 1.862920 0.000000 
#    z 0.000000 0.000000 1.822410 
# 
# From -- ./inp_files/27426.got.cif
#   From: 2010.06.25/outbox.cif.g09.slc.cpg/sg58_14_cif.got.tgz:27426.got - 2010.06.26 21:38:00.
