data_PCOD8238411
_publ_section_title
;
Structure prediction by ZEFSAII (Michael W. Deem and Ramdas Pophale) SiO2 
 PCOD8238411
Probable space group: P N N M
;
_chemical_formula_sum "Si O2"
_cell_formula_units_Z 64
_cell_length_a 30.616700
_cell_length_b 11.919087
_cell_length_c 8.721850
_cell_angle_alpha 90.000000
_cell_angle_beta 90.000000
_cell_angle_gamma 90.000000
_cell_volume 3182.804635
_symmetry_space_group_name_H-M "P N N M"
_symmetry_group_IT_number 58
_symmetry_cell_setting 'orthorhombic'
loop_
_space_group_symop_operation_xyz
x,y,z
-x,-y,z
1/2+x,1/2-y,1/2-z
1/2-x,1/2+y,1/2-z
-x,-y,-z
x,y,-z
1/2-x,1/2+y,1/2+z
1/2+x,1/2-y,1/2+z
loop_
_atom_site_type_symbol
_atom_site_label
_atom_site_fract_x
_atom_site_fract_y
_atom_site_fract_z
Si Si1 0.046215 0.746369 0.181174
Si Si2 0.302502 0.257287 0.181251
Si Si3 0.164324 0.994256 0.681602
Si Si4 0.572182 0.506612 0.318787
Si Si5 0.628966 0.160585 0.819997
Si Si6 0.206261 0.202066 0.818346
Si Si7 0.120760 0.598640 0.319934
Si Si8 0.041626 0.210537 0.680771
O O1 0.080007 0.652177 0.232976
O O2 0.999347 0.718787 0.255731
O O3 0.061514 0.868751 0.241352
O O4 0.041847 0.744310 0.000000
O O5 0.321019 0.373967 0.246668
O O6 0.253542 0.241491 0.242301
O O7 0.334346 0.157317 0.236060
O O8 0.301509 0.263581 0.000000
O O9 0.158299 0.995258 0.500000
O O10 0.119316 0.030280 0.758892
O O11 0.199750 0.084616 0.732839
O O12 0.570140 0.501006 0.500000
O O13 0.538724 0.414468 0.252470
O O14 0.670419 0.206459 0.728272
O O15 0.585578 0.225951 0.767500
O O16 0.623346 0.031095 0.775718
O O17 0.637656 0.176904 0.000000
O O18 0.205304 0.183953 0.000000
O O19 0.113509 0.616771 0.500000
O O20 0.038544 0.201796 0.500000
#
# Coordination Sequence:
#
# PCOD8238411 Si02
#       8
#     8   8   8   8   8   8   8   8
#     4  11  24  40  60  90 123 154 198 250 306 361
#     4   9  21  39  61  89 120 157 200 245 296 358
#     4  11  21  38  63  90 121 157 201 247 295 356
#     4  11  22  38  60  90 124 155 194 250 305 356
#     4  10  23  41  62  88 118 158 206 251 294 354
#     4  11  23  39  61  91 125 160 199 247 306 357
#     4  10  21  42  65  84 116 160 204 249 297 355
#     4  11  23  39  61  89 121 159 204 246 298 362
#
# _framework density 20.108053000000002
#
# number of rings (size 3 to 8) (size 9 to 14) (size 15 to 20)
#    0.000    1.500    2.500    2.250    1.750    4.500 
#    0.000    5.625    0.000    0.000    0.000    0.000 
#    0.000    0.000    0.000    0.000    0.000    0.000 
#
# Total GULP energy -793894.576010 kJ/mol
# GULP energy per Si atom -12404.602750 kJ/mol
# Density = 2.006229 g / cm^3
# Si number density = 20.108053 Si / 1000 Ang^3
#
#
#
# Elastic Constant Matrix: (Units=GPa)
#
#
# Indices 1 2 3 4 5 6 
#
# 1 125.6742 40.3589 29.2598 0.0000 0.0000 0.0000
# 2 40.3589 126.6880 28.1518 0.0000 0.0000 0.0000
# 3 29.2598 28.1518 41.2099 0.0000 0.0000 0.0000
# 4 0.0000 0.0000 0.0000 28.6822 0.0000 0.0000
# 5 0.0000 0.0000 0.0000 0.0000 29.3740 0.0000
# 6 0.0000 0.0000 0.0000 0.0000 0.0000 21.6679
#
#
#
# Elastic Compliance Matrix: (Units=1/GPa)
#
#
# Indices 1 2 3 4 5 6 
#
# 1 0.009897 -0.001876 -0.005746 0.000000 0.000000 0.000000
# 2 -0.001876 0.009662 -0.005268 0.000000 0.000000 0.000000
# 3 -0.005746 -0.005268 0.031944 0.000000 0.000000 0.000000
# 4 0.000000 0.000000 0.000000 0.034865 0.000000 0.000000
# 5 0.000000 0.000000 0.000000 0.000000 0.034044 0.000000
# 6 0.000000 0.000000 0.000000 0.000000 0.000000 0.046151
#
#
# Mechanical properties :
#
#
# Convention : Reuss Voigt Hill
#
# Bulk Modulus (GPa) = 38.87485 54.34590 46.61037
# Shear Modulus (GPa) = 24.88583 28.99825 26.94204
#
# Velocity S-wave (km/s) = 3.52178 3.80165 3.66439
# Velocity P-wave (km/s) = 5.99268 6.80850 6.41357
#
# Compressibility (1/GPa) = 0.02572357
#
# Stress axis : x y z
#
# Youngs Moduli (GPa) = 101.03747 103.50087 31.30449
#
# Poissons Ratio (x) = 0.19419 0.17986
# Poissons Ratio (y) = 0.18957 0.16491
# Poissons Ratio (z) = 0.58052 0.54525
#
# Static dielectric constant tensor:
#      x y z
#    x 3.829020 0.000000 0.000000 
#    y 0.000000 3.790870 0.000000 
#    z 0.000000 0.000000 3.456950 
# 
# 
# High freq. dielectric constant tensor:
#      x y z
#    x 1.797640 0.000000 0.000000 
#    y 0.000000 1.791330 0.000000 
#    z 0.000000 0.000000 1.773790 
# 
# From -- ./inp_files/4768.got.cif
#   From: 2010.06.25/outbox.cif.g09.slc.cpg/sg58_3_cif.got.tgz:4768.got - 2010.06.26 21:38:00.
