data_PCOD8238261
_publ_section_title
;
Structure prediction by ZEFSAII (Michael W. Deem and Ramdas Pophale) SiO2 
 PCOD8238261
Probable space group: P N N M
;
_chemical_formula_sum "Si O2"
_cell_formula_units_Z 48
_cell_length_a 11.956016
_cell_length_b 23.459395
_cell_length_c 8.541973
_cell_angle_alpha 90.000000
_cell_angle_beta 90.000000
_cell_angle_gamma 90.000000
_cell_volume 2395.860292
_symmetry_space_group_name_H-M "P N N M"
_symmetry_group_IT_number 58
_symmetry_cell_setting 'orthorhombic'
loop_
_space_group_symop_operation_xyz
x,y,z
-x,-y,z
1/2+x,1/2-y,1/2-z
1/2-x,1/2+y,1/2-z
-x,-y,-z
x,y,-z
1/2-x,1/2+y,1/2+z
1/2+x,1/2-y,1/2+z
loop_
_atom_site_type_symbol
_atom_site_label
_atom_site_fract_x
_atom_site_fract_y
_atom_site_fract_z
Si Si1 0.835896 0.282113 0.683197
Si Si2 0.787550 0.582736 0.317315
Si Si3 0.401678 0.344154 0.184208
Si Si4 0.990282 0.374156 0.182051
Si Si5 0.843646 0.860581 0.316858
Si Si6 0.311299 0.047064 0.183182
O O1 0.811668 0.286577 0.500000
O O2 0.858682 0.217793 0.736148
O O3 0.727396 0.304312 0.775632
O O4 0.944047 0.320104 0.722977
O O5 0.813179 0.588291 0.500000
O O6 0.666987 0.608166 0.276721
O O7 0.880257 0.617743 0.222235
O O8 0.787662 0.517176 0.263308
O O9 0.529823 0.350446 0.236167
O O10 0.387340 0.353517 0.000000
O O11 0.921138 0.430784 0.227050
O O12 0.976060 0.361305 0.000000
O O13 0.833728 0.872893 0.500000
O O14 0.796519 0.915131 0.224868
O O15 0.336097 0.051358 0.000000
#
# Coordination Sequence:
#
# PCOD8238261 Si02
#       6
#     8   8   8   8   8   8
#     4  10  21  39  61  86 117 154 195 241 292 348
#     4  11  24  39  59  87 120 156 197 244 293 347
#     4  10  24  41  58  86 120 155 196 241 292 349
#     4  11  22  37  61  91 119 154 197 242 296 350
#     4  10  21  39  61  86 116 154 196 241 293 348
#     4  10  21  39  61  87 118 155 198 243 293 348
#
# _framework density 20.034559000000002
#
# number of rings (size 3 to 8) (size 9 to 14) (size 15 to 20)
#    0.000    1.667    0.000    6.000    2.333    8.000 
#    0.000    3.333    0.000    0.000    0.000    0.000 
#    0.000    0.000    0.000    0.000    0.000    0.000 
#
# Total GULP energy -595489.571668 kJ/mol
# GULP energy per Si atom -12406.032743 kJ/mol
# Density = 1.998896 g / cm^3
# Si number density = 20.034559 Si / 1000 Ang^3
#
#
#
# Elastic Constant Matrix: (Units=GPa)
#
#
# Indices 1 2 3 4 5 6 
#
# 1 120.4988 26.5004 11.9838 0.0000 0.0000 0.0000
# 2 26.5004 70.0531 5.2670 0.0000 0.0000 0.0000
# 3 11.9838 5.2670 39.5487 0.0000 0.0000 0.0000
# 4 0.0000 0.0000 0.0000 26.9591 0.0000 0.0000
# 5 0.0000 0.0000 0.0000 0.0000 32.1825 0.0000
# 6 0.0000 0.0000 0.0000 0.0000 0.0000 20.5365
#
#
#
# Elastic Compliance Matrix: (Units=1/GPa)
#
#
# Indices 1 2 3 4 5 6 
#
# 1 0.009266 -0.003327 -0.002365 0.000000 0.000000 0.000000
# 2 -0.003327 0.015614 -0.001071 0.000000 0.000000 0.000000
# 3 -0.002365 -0.001071 0.026144 0.000000 0.000000 0.000000
# 4 0.000000 0.000000 0.000000 0.037093 0.000000 0.000000
# 5 0.000000 0.000000 0.000000 0.000000 0.031073 0.000000
# 6 0.000000 0.000000 0.000000 0.000000 0.000000 0.048694
#
#
# Mechanical properties :
#
#
# Convention : Reuss Voigt Hill
#
# Bulk Modulus (GPa) = 26.66798 35.28920 30.97859
# Shear Modulus (GPa) = 25.78520 28.35892 27.07206
#
# Velocity S-wave (km/s) = 3.59142 3.76640 3.67995
# Velocity P-wave (km/s) = 5.52609 6.04704 5.79242
#
# Compressibility (1/GPa) = 0.03749815
#
# Stress axis : x y z
#
# Youngs Moduli (GPa) = 107.92431 64.04452 38.24903
#
# Poissons Ratio (x) = 0.21310 0.09044
# Poissons Ratio (y) = 0.35910 0.04097
# Poissons Ratio (z) = 0.25519 0.06860
#
# Static dielectric constant tensor:
#      x y z
#    x 3.635150 0.000000 0.000000 
#    y 0.000000 3.712160 0.000000 
#    z 0.000000 0.000000 3.618110 
# 
# 
# High freq. dielectric constant tensor:
#      x y z
#    x 1.785190 0.000000 0.000000 
#    y 0.000000 1.785430 0.000000 
#    z 0.000000 0.000000 1.788150 
# 
# From -- ./inp_files/4240.got.cif
#   From: 2010.06.25/outbox.cif.g09.slc.cpg/sg58_3_cif.got.tgz:4240.got - 2010.06.26 21:38:00.
