data_PCOD8238700
_publ_section_title
;
Structure prediction by ZEFSAII (Michael W. Deem and Ramdas Pophale) SiO2 
 PCOD8238700
Probable space group: P N N M
;
_chemical_formula_sum "Si O2"
_cell_formula_units_Z 48
_cell_length_a 14.676495
_cell_length_b 9.788434
_cell_length_c 16.545792
_cell_angle_alpha 90.000000
_cell_angle_beta 90.000000
_cell_angle_gamma 90.000000
_cell_volume 2376.966868
_symmetry_space_group_name_H-M "P N N M"
_symmetry_group_IT_number 58
_symmetry_cell_setting 'orthorhombic'
loop_
_space_group_symop_operation_xyz
x,y,z
-x,-y,z
1/2+x,1/2-y,1/2-z
1/2-x,1/2+y,1/2-z
-x,-y,-z
x,y,-z
1/2-x,1/2+y,1/2+z
1/2+x,1/2-y,1/2+z
loop_
_atom_site_type_symbol
_atom_site_label
_atom_site_fract_x
_atom_site_fract_y
_atom_site_fract_z
Si Si1 0.261220 0.475148 0.094127
Si Si2 0.972871 0.845881 0.783421
Si Si3 0.194757 0.236234 0.317514
Si Si4 0.934901 0.621194 0.904729
Si Si5 0.108421 0.496398 0.595071
Si Si6 0.145895 0.761112 0.692283
O O1 0.269678 0.634402 0.113600
O O2 0.165444 0.416594 0.127212
O O3 0.342959 0.389703 0.133069
O O4 0.267209 0.454609 0.000000
O O5 0.045384 0.768546 0.727961
O O6 0.877193 0.844145 0.737542
O O7 0.965475 0.764543 0.867316
O O8 0.000000 0.000000 0.804573
O O9 0.150053 0.364177 0.362133
O O10 0.280685 0.276716 0.263358
O O11 0.000000 0.500000 0.874325
O O12 0.939835 0.638448 0.000000
O O13 0.133892 0.498376 0.500000
O O14 0.155875 0.623744 0.639779
O O15 0.000000 0.500000 0.606657
#
# Coordination Sequence:
#
# PCOD8238700 Si02
#       6
#     8   8   8   8   8   8
#     4  11  23  42  65  94 131 172 215 267 332 395
#     4  12  25  41  64 100 133 170 225 274 328 397
#     4  12  24  42  66  98 131 173 221 275 330 396
#     4  10  23  44  69  95 127 175 225 274 332 392
#     4  11  25  44  67  98 133 175 227 281 341 398
#     4  12  24  42  66  96 131 172 218 272 332 398
#
# _framework density 20.193802000000002
#
# number of rings (size 3 to 8) (size 9 to 14) (size 15 to 20)
#    0.000    0.667    5.000    3.000    2.333    0.333 
#    0.000    1.667    0.000    0.000    0.000    0.000 
#    0.000    0.000    0.000    0.000    0.000    0.000 
#
# Total GULP energy -595438.905234 kJ/mol
# GULP energy per Si atom -12404.977192 kJ/mol
# Density = 2.014784 g / cm^3
# Si number density = 20.193802 Si / 1000 Ang^3
#
#
#
# Elastic Constant Matrix: (Units=GPa)
#
#
# Indices 1 2 3 4 5 6 
#
# 1 60.8393 9.9626 24.0837 0.0000 0.0000 0.0000
# 2 9.9626 141.8546 47.8855 0.0000 0.0000 0.0000
# 3 24.0837 47.8855 59.4055 0.0000 0.0000 0.0000
# 4 0.0000 0.0000 0.0000 35.0931 0.0000 0.0000
# 5 0.0000 0.0000 0.0000 0.0000 27.2608 0.0000
# 6 0.0000 0.0000 0.0000 0.0000 0.0000 36.9713
#
#
#
# Elastic Compliance Matrix: (Units=1/GPa)
#
#
# Indices 1 2 3 4 5 6 
#
# 1 0.019916 0.001823 -0.009544 0.000000 0.000000 0.000000
# 2 0.001823 0.009852 -0.008680 0.000000 0.000000 0.000000
# 3 -0.009544 -0.008680 0.027699 0.000000 0.000000 0.000000
# 4 0.000000 0.000000 0.000000 0.028496 0.000000 0.000000
# 5 0.000000 0.000000 0.000000 0.000000 0.036683 0.000000
# 6 0.000000 0.000000 0.000000 0.000000 0.000000 0.027048
#
#
# Mechanical properties :
#
#
# Convention : Reuss Voigt Hill
#
# Bulk Modulus (GPa) = 40.54267 47.32921 43.93594
# Shear Modulus (GPa) = 26.21681 31.87620 29.04651
#
# Velocity S-wave (km/s) = 3.60705 3.97736 3.79672
# Velocity P-wave (km/s) = 6.12112 6.67689 6.40504
#
# Compressibility (1/GPa) = 0.02466537
#
# Stress axis : x y z
#
# Youngs Moduli (GPa) = 50.21040 101.50649 36.10177
#
# Poissons Ratio (x) = -0.18504 0.34454
# Poissons Ratio (y) = -0.09153 0.31337
# Poissons Ratio (z) = 0.47919 0.88109
#
# Static dielectric constant tensor:
#      x y z
#    x 3.878640 0.000000 0.000000 
#    y 0.000000 3.686580 0.000000 
#    z 0.000000 0.000000 3.635240 
# 
# 
# High freq. dielectric constant tensor:
#      x y z
#    x 1.797570 0.000000 0.000000 
#    y 0.000000 1.799250 0.000000 
#    z 0.000000 0.000000 1.795020 
# 
# From -- ./inp_files/25266.got.cif
#   From: 2010.06.25/outbox.cif.g09.slc.cpg/sg58_13_cif.got.tgz:25266.got - 2010.06.26 21:38:00.
