data_PCOD8238252
_publ_section_title
;
Structure prediction by ZEFSAII (Michael W. Deem and Ramdas Pophale) SiO2 
 PCOD8238252
Probable space group: P N N M
;
_chemical_formula_sum "Si O2"
_cell_formula_units_Z 48
_cell_length_a 28.799930
_cell_length_b 9.364216
_cell_length_c 8.952372
_cell_angle_alpha 90.000000
_cell_angle_beta 90.000000
_cell_angle_gamma 90.000000
_cell_volume 2414.354151
_symmetry_space_group_name_H-M "P N N M"
_symmetry_group_IT_number 58
_symmetry_cell_setting 'orthorhombic'
loop_
_space_group_symop_operation_xyz
x,y,z
-x,-y,z
1/2+x,1/2-y,1/2-z
1/2-x,1/2+y,1/2-z
-x,-y,-z
x,y,-z
1/2-x,1/2+y,1/2+z
1/2+x,1/2-y,1/2+z
loop_
_atom_site_type_symbol
_atom_site_label
_atom_site_fract_x
_atom_site_fract_y
_atom_site_fract_z
Si Si1 0.792959 0.970618 0.172038
Si Si2 0.864384 0.491062 0.323555
Si Si3 0.980517 0.853707 0.175967
Si Si4 0.878745 0.781376 0.172852
Si Si5 0.286748 0.199459 0.323883
Si Si6 0.036760 0.623935 0.334678
O O1 0.846111 0.919940 0.193280
O O2 0.761622 0.869433 0.274445
O O3 0.788136 0.134424 0.223795
O O4 0.777147 0.953970 0.000000
O O5 0.858476 0.499568 0.500000
O O6 0.855898 0.648647 0.258862
O O7 0.827997 0.380480 0.258632
O O8 0.915033 0.437853 0.273945
O O9 0.929449 0.818162 0.241886
O O10 0.018718 0.737249 0.216388
O O11 0.975894 0.866176 0.000000
O O12 0.000000 0.000000 0.245326
O O13 0.883006 0.737965 0.000000
O O14 0.293209 0.182489 0.500000
O O15 0.043109 0.692336 0.500000
O O16 0.000000 0.500000 0.345029
#
# Coordination Sequence:
#
# PCOD8238252 Si02
#       6
#     8   8   8   8   8   8
#     4  10  23  42  63  88 122 155 192 241 293 353
#     4  11  23  39  61  88 120 157 199 246 296 349
#     4  10  22  37  59  89 122 159 200 247 295 345
#     4  10  21  39  61  88 121 159 198 243 296 349
#     4  11  24  41  64  91 118 153 194 241 296 353
#     4  10  21  39  59  84 120 160 201 245 290 345
#
# _framework density 19.881091999999999
#
# number of rings (size 3 to 8) (size 9 to 14) (size 15 to 20)
#    0.000    1.667    1.667    2.000    2.333    6.667 
#    0.000    0.000    0.000    0.000    0.000    0.000 
#    0.000    0.000    0.000    0.000    0.000    0.000 
#
# Total GULP energy -595346.466905 kJ/mol
# GULP energy per Si atom -12403.051394 kJ/mol
# Density = 1.983584 g / cm^3
# Si number density = 19.881092 Si / 1000 Ang^3
#
#
#
# Elastic Constant Matrix: (Units=GPa)
#
#
# Indices 1 2 3 4 5 6 
#
# 1 99.4691 49.3713 30.0512 0.0000 0.0000 0.0000
# 2 49.3713 147.8564 43.2897 0.0000 0.0000 0.0000
# 3 30.0512 43.2897 53.2924 0.0000 0.0000 0.0000
# 4 0.0000 0.0000 0.0000 26.3698 0.0000 0.0000
# 5 0.0000 0.0000 0.0000 0.0000 30.8529 0.0000
# 6 0.0000 0.0000 0.0000 0.0000 0.0000 37.9193
#
#
#
# Elastic Compliance Matrix: (Units=1/GPa)
#
#
# Indices 1 2 3 4 5 6 
#
# 1 0.012988 -0.002877 -0.004987 0.000000 0.000000 0.000000
# 2 -0.002877 0.009511 -0.006104 0.000000 0.000000 0.000000
# 3 -0.004987 -0.006104 0.026535 0.000000 0.000000 0.000000
# 4 0.000000 0.000000 0.000000 0.037922 0.000000 0.000000
# 5 0.000000 0.000000 0.000000 0.000000 0.032412 0.000000
# 6 0.000000 0.000000 0.000000 0.000000 0.000000 0.026372
#
#
# Mechanical properties :
#
#
# Convention : Reuss Voigt Hill
#
# Bulk Modulus (GPa) = 47.39633 60.67138 54.03386
# Shear Modulus (GPa) = 27.66914 30.88878 29.27896
#
# Velocity S-wave (km/s) = 3.73464 3.94595 3.84175
# Velocity P-wave (km/s) = 6.51831 7.16547 6.84954
#
# Compressibility (1/GPa) = 0.02109868
#
# Stress axis : x y z
#
# Youngs Moduli (GPa) = 76.99480 105.14218 37.68670
#
# Poissons Ratio (x) = 0.30247 0.18794
# Poissons Ratio (y) = 0.22149 0.23002
# Poissons Ratio (z) = 0.38397 0.64175
#
# Static dielectric constant tensor:
#      x y z
#    x 3.665010 0.000000 0.000000 
#    y 0.000000 3.610040 0.000000 
#    z 0.000000 0.000000 3.554570 
# 
# 
# High freq. dielectric constant tensor:
#      x y z
#    x 1.789670 0.000000 0.000000 
#    y 0.000000 1.780940 0.000000 
#    z 0.000000 0.000000 1.767380 
# 
# From -- ./inp_files/2908.got.cif
#   From: 2010.06.25/outbox.cif.g09.slc.cpg/sg58_2_cif.got.tgz:2908.got - 2010.06.26 21:38:00.
