data_PCOD8238509
_publ_section_title
;
Structure prediction by ZEFSAII (Michael W. Deem and Ramdas Pophale) SiO2 
 PCOD8238509
Probable space group: P N N M
;
_chemical_formula_sum "Si O2"
_cell_formula_units_Z 64
_cell_length_a 11.864086
_cell_length_b 30.473839
_cell_length_c 8.886202
_cell_angle_alpha 90.000000
_cell_angle_beta 90.000000
_cell_angle_gamma 90.000000
_cell_volume 3212.755208
_symmetry_space_group_name_H-M "P N N M"
_symmetry_group_IT_number 58
_symmetry_cell_setting 'orthorhombic'
loop_
_space_group_symop_operation_xyz
x,y,z
-x,-y,z
1/2+x,1/2-y,1/2-z
1/2-x,1/2+y,1/2-z
-x,-y,-z
x,y,-z
1/2-x,1/2+y,1/2+z
1/2+x,1/2-y,1/2+z
loop_
_atom_site_type_symbol
_atom_site_label
_atom_site_fract_x
_atom_site_fract_y
_atom_site_fract_z
Si Si1 0.659327 0.621812 0.675463
Si Si2 0.284242 0.958685 0.677774
Si Si3 0.401244 0.626819 0.677195
Si Si4 0.694556 0.205883 0.825776
Si Si5 0.249715 0.046161 0.177558
Si Si6 0.005358 0.663531 0.177316
Si Si7 0.999255 0.571953 0.322566
Si Si8 0.752122 0.303624 0.824286
O O1 0.670074 0.609600 0.500000
O O2 0.721283 0.585075 0.771793
O O3 0.530134 0.623300 0.728432
O O4 0.712731 0.669026 0.711071
O O5 0.291523 0.960026 0.500000
O O6 0.410358 0.961104 0.746754
O O7 0.216890 0.001137 0.738725
O O8 0.389699 0.630881 0.500000
O O9 0.335355 0.583671 0.734775
O O10 0.348789 0.670746 0.745103
O O11 0.584291 0.200594 0.722498
O O12 0.748040 0.252478 0.782675
O O13 0.658336 0.204095 0.000000
O O14 0.374883 0.060238 0.227271
O O15 0.240154 0.038716 0.000000
O O16 0.968562 0.620394 0.266909
O O17 0.128148 0.678371 0.232925
O O18 0.001707 0.654643 0.000000
O O19 0.982759 0.569054 0.500000
O O20 0.739086 0.311429 0.000000
#
# Coordination Sequence:
#
# PCOD8238509 Si02
#       8
#     8   8   8   8   8   8   8   8
#     4  10  22  41  64  85 117 160 204 250 295 351
#     4  12  25  39  60  90 122 156 200 247 304 361
#     4  10  22  41  65  90 116 159 208 248 293 356
#     4  10  22  40  61  87 121 164 203 240 297 357
#     4  10  22  40  62  89 120 156 202 246 297 361
#     4  11  22  37  62  93 124 157 197 250 304 352
#     4  11  21  38  63  90 123 158 196 245 298 357
#     4  10  23  40  60  91 127 160 196 248 306 354
#
# _framework density 19.920596
#
# number of rings (size 3 to 8) (size 9 to 14) (size 15 to 20)
#    0.000    1.500    2.500    2.250    1.750    5.000 
#    0.000    2.500    0.000    0.000    0.000    0.000 
#    0.000    0.000    0.000    0.000    0.000    0.000 
#
# Total GULP energy -793972.625699 kJ/mol
# GULP energy per Si atom -12405.822277 kJ/mol
# Density = 1.987526 g / cm^3
# Si number density = 19.920596 Si / 1000 Ang^3
#
#
#
# Elastic Constant Matrix: (Units=GPa)
#
#
# Indices 1 2 3 4 5 6 
#
# 1 115.8743 33.8474 34.6658 0.0000 0.0000 0.0000
# 2 33.8474 115.8904 37.0950 0.0000 0.0000 0.0000
# 3 34.6658 37.0950 62.1618 0.0000 0.0000 0.0000
# 4 0.0000 0.0000 0.0000 31.2714 0.0000 0.0000
# 5 0.0000 0.0000 0.0000 0.0000 25.5132 0.0000
# 6 0.0000 0.0000 0.0000 0.0000 0.0000 24.1939
#
#
#
# Elastic Compliance Matrix: (Units=1/GPa)
#
#
# Indices 1 2 3 4 5 6 
#
# 1 0.010560 -0.001482 -0.005005 0.000000 0.000000 0.000000
# 2 -0.001482 0.010874 -0.005663 0.000000 0.000000 0.000000
# 3 -0.005005 -0.005663 0.022257 0.000000 0.000000 0.000000
# 4 0.000000 0.000000 0.000000 0.031978 0.000000 0.000000
# 5 0.000000 0.000000 0.000000 0.000000 0.039195 0.000000
# 6 0.000000 0.000000 0.000000 0.000000 0.000000 0.041333
#
#
# Mechanical properties :
#
#
# Convention : Reuss Voigt Hill
#
# Bulk Modulus (GPa) = 51.56589 56.12702 53.84645
# Shear Modulus (GPa) = 26.74356 28.75026 27.74691
#
# Velocity S-wave (km/s) = 3.66800 3.80313 3.73617
# Velocity P-wave (km/s) = 6.62426 6.89359 6.76027
#
# Compressibility (1/GPa) = 0.01939267
#
# Stress axis : x y z
#
# Youngs Moduli (GPa) = 94.69481 91.95993 44.92960
#
# Poissons Ratio (x) = 0.13632 0.22485
# Poissons Ratio (y) = 0.14037 0.25442
# Poissons Ratio (z) = 0.47390 0.52073
#
# Static dielectric constant tensor:
#      x y z
#    x 3.754590 0.000000 0.000000 
#    y 0.000000 3.735130 0.000000 
#    z 0.000000 0.000000 3.447990 
# 
# 
# High freq. dielectric constant tensor:
#      x y z
#    x 1.781330 0.000000 0.000000 
#    y 0.000000 1.788940 0.000000 
#    z 0.000000 0.000000 1.767160 
# 
# From -- ./inp_files/4770.got.cif
#   From: 2010.06.25/outbox.cif.g09.slc.cpg/sg58_3_cif.got.tgz:4770.got - 2010.06.26 21:38:00.
