data_PCOD8238880
_publ_section_title
;
Structure prediction by ZEFSAII (Michael W. Deem and Ramdas Pophale) SiO2 
 PCOD8238880
Probable space group: P N N M
;
_chemical_formula_sum "Si O2"
_cell_formula_units_Z 40
_cell_length_a 12.551777
_cell_length_b 17.268429
_cell_length_c 9.135578
_cell_angle_alpha 90.000000
_cell_angle_beta 90.000000
_cell_angle_gamma 90.000000
_cell_volume 1980.131689
_symmetry_space_group_name_H-M "P N N M"
_symmetry_group_IT_number 58
_symmetry_cell_setting 'orthorhombic'
loop_
_space_group_symop_operation_xyz
x,y,z
-x,-y,z
1/2+x,1/2-y,1/2-z
1/2-x,1/2+y,1/2-z
-x,-y,-z
x,y,-z
1/2-x,1/2+y,1/2+z
1/2+x,1/2-y,1/2+z
loop_
_atom_site_type_symbol
_atom_site_label
_atom_site_fract_x
_atom_site_fract_y
_atom_site_fract_z
Si Si1 0.129866 0.081004 0.661122
Si Si2 0.708756 0.833173 0.829095
Si Si3 0.009267 0.411204 0.326256
Si Si4 0.897016 0.099629 0.661377
Si Si5 0.280670 0.820884 0.171939
O O1 0.172074 0.107212 0.500000
O O2 0.214722 0.095634 0.788883
O O3 0.018590 0.125608 0.694029
O O4 0.107722 0.991345 0.658836
O O5 0.590535 0.857835 0.775795
O O6 0.762819 0.761762 0.746011
O O7 0.709101 0.816076 0.000000
O O8 0.011966 0.417025 0.500000
O O9 0.000000 0.500000 0.263817
O O10 0.115349 0.367330 0.268102
O O11 0.863133 0.132375 0.500000
O O12 0.823165 0.129830 0.790322
O O13 0.290421 0.808677 0.000000
#
# Coordination Sequence:
#
# PCOD8238880 Si02
#       5
#     8   8   8   8   8
#     4   9  19  37  60  85 116 153 191 236 295 357
#     4  11  23  38  59  87 119 155 199 247 297 357
#     4   9  20  40  63  85 114 157 202 245 297 356
#     4   9  19  37  60  85 116 153 191 236 295 357
#     4  11  23  38  59  87 119 155 199 247 297 357
#
# _framework density 20.200676999999999
#
# number of rings (size 3 to 8) (size 9 to 14) (size 15 to 20)
#    0.000    2.200    0.000    3.600    2.800    3.200 
#    0.000    5.000    0.000    7.200    0.000    0.000 
#    0.000    0.000    0.000    0.000    0.000    0.000 
#
# Total GULP energy -495692.318447 kJ/mol
# GULP energy per Si atom -12392.307961 kJ/mol
# Density = 2.015470 g / cm^3
# Si number density = 20.200677 Si / 1000 Ang^3
#
#
#
# Elastic Constant Matrix: (Units=GPa)
#
#
# Indices 1 2 3 4 5 6 
#
# 1 72.6255 9.3441 31.0720 0.0000 0.0000 0.0000
# 2 9.3441 56.2359 23.1112 0.0000 0.0000 0.0000
# 3 31.0720 23.1112 56.8410 0.0000 0.0000 0.0000
# 4 0.0000 0.0000 0.0000 31.4710 0.0000 0.0000
# 5 0.0000 0.0000 0.0000 0.0000 32.6564 0.0000
# 6 0.0000 0.0000 0.0000 0.0000 0.0000 37.4128
#
#
#
# Elastic Compliance Matrix: (Units=1/GPa)
#
#
# Indices 1 2 3 4 5 6 
#
# 1 0.018048 0.001268 -0.010381 0.000000 0.000000 0.000000
# 2 0.001268 0.021439 -0.009410 0.000000 0.000000 0.000000
# 3 -0.010381 -0.009410 0.027094 0.000000 0.000000 0.000000
# 4 0.000000 0.000000 0.000000 0.031775 0.000000 0.000000
# 5 0.000000 0.000000 0.000000 0.000000 0.030622 0.000000
# 6 0.000000 0.000000 0.000000 0.000000 0.000000 0.026729
#
#
# Mechanical properties :
#
#
# Convention : Reuss Voigt Hill
#
# Bulk Modulus (GPa) = 33.85992 34.75079 34.30535
# Shear Modulus (GPa) = 24.67951 28.45303 26.56627
#
# Velocity S-wave (km/s) = 3.49910 3.75710 3.63039
# Velocity P-wave (km/s) = 5.75527 6.00509 5.88151
#
# Compressibility (1/GPa) = 0.02953344
#
# Stress axis : x y z
#
# Youngs Moduli (GPa) = 55.40894 46.64449 36.90892
#
# Poissons Ratio (x) = -0.05912 0.38315
# Poissons Ratio (y) = -0.07023 0.34730
# Poissons Ratio (z) = 0.57520 0.43891
#
# Static dielectric constant tensor:
#      x y z
#    x 4.703150 0.000000 0.000000 
#    y 0.000000 4.019720 0.000000 
#    z 0.000000 0.000000 4.066950 
# 
# 
# High freq. dielectric constant tensor:
#      x y z
#    x 1.800900 0.000000 0.000000 
#    y 0.000000 1.794930 0.000000 
#    z 0.000000 0.000000 1.762040 
# 
# From -- ./inp_files/3798.got.cif
#   From: 2010.06.25/outbox.cif.g09.slc.cpg/sg58_2_cif.got.tgz:3798.got - 2010.06.26 21:38:00.
