data_PCOD8238470
_publ_section_title
;
Structure prediction by ZEFSAII (Michael W. Deem and Ramdas Pophale) SiO2 
 PCOD8238470
Probable space group: P N N M
;
_chemical_formula_sum "Si O2"
_cell_formula_units_Z 28
_cell_length_a 4.988470
_cell_length_b 14.084635
_cell_length_c 16.984183
_cell_angle_alpha 90.000000
_cell_angle_beta 90.000000
_cell_angle_gamma 90.000000
_cell_volume 1193.321931
_symmetry_space_group_name_H-M "P N N M"
_symmetry_group_IT_number 58
_symmetry_cell_setting 'orthorhombic'
loop_
_space_group_symop_operation_xyz
x,y,z
-x,-y,z
1/2+x,1/2-y,1/2-z
1/2-x,1/2+y,1/2-z
-x,-y,-z
x,y,-z
1/2-x,1/2+y,1/2+z
1/2+x,1/2-y,1/2+z
loop_
_atom_site_type_symbol
_atom_site_label
_atom_site_fract_x
_atom_site_fract_y
_atom_site_fract_z
Si Si1 0.707062 0.142129 0.500000
Si Si2 0.000000 0.500000 0.872427
Si Si3 0.174385 0.124457 0.261496
Si Si4 0.282381 0.772548 0.000000
Si Si5 0.669161 0.168641 0.169107
O O1 0.653857 0.079580 0.577293
O O2 0.515511 0.231909 0.500000
O O3 0.008593 0.183614 0.500000
O O4 0.243381 0.541203 0.820803
O O5 0.380894 0.127359 0.189390
O O6 0.192968 0.220713 0.310989
O O7 0.885319 0.108944 0.220697
O O8 0.304311 0.841170 0.075381
#
# Coordination Sequence:
#
# PCOD8238470 Si02
#       5
#     4   4   8   4   8
#     4  11  26  36  64 102 134 168 192 264 348 398
#     4  11  24  42  62  99 140 166 206 261 340 394
#     4  10  22  38  61  87 126 170 211 256 310 387
#     4  12  22  43  64  93 132 167 214 269 312 385
#     4  10  22  39  60  88 121 173 217 255 305 375
#
# _framework density 23.463909999999998
#
# number of rings (size 3 to 8) (size 9 to 14) (size 15 to 20)
#    0.000    1.429    2.857    1.714    8.000    5.714 
#    0.000    0.000    0.000    5.143    0.000    0.000 
#    0.000    0.000    0.000    0.000    0.000    0.000 
#
# Total GULP energy -347278.080811 kJ/mol
# GULP energy per Si atom -12402.788600 kJ/mol
# Density = 2.341050 g / cm^3
# Si number density = 23.463910 Si / 1000 Ang^3
#
#
#
# Elastic Constant Matrix: (Units=GPa)
#
#
# Indices 1 2 3 4 5 6 
#
# 1 72.7361 2.6117 1.4348 0.0000 0.0000 0.0000
# 2 2.6117 29.0962 19.4485 0.0000 0.0000 0.0000
# 3 1.4348 19.4485 147.5094 0.0000 0.0000 0.0000
# 4 0.0000 0.0000 0.0000 62.8281 0.0000 0.0000
# 5 0.0000 0.0000 0.0000 0.0000 -120.7057 0.0000
# 6 0.0000 0.0000 0.0000 0.0000 0.0000 29.3703
#
#
#
# Elastic Compliance Matrix: (Units=1/GPa)
#
#
# Indices 1 2 3 4 5 6 
#
# 1 0.013793 -0.001259 0.000032 0.000000 0.000000 0.000000
# 2 -0.001259 0.037805 -0.004972 0.000000 0.000000 0.000000
# 3 0.000032 -0.004972 0.007434 0.000000 0.000000 0.000000
# 4 0.000000 0.000000 0.000000 0.015916 0.000000 0.000000
# 5 0.000000 0.000000 0.000000 0.000000 -0.008285 0.000000
# 6 0.000000 0.000000 0.000000 0.000000 0.000000 0.034048
#
#
# Mechanical properties :
#
#
# Convention : Reuss Voigt Hill
#
# Bulk Modulus (GPa) = 21.44388 32.92573 27.18481
# Shear Modulus (GPa) = 38.86318 9.35498 24.10908
#
# Velocity S-wave (km/s) = 4.07418 1.99890 3.20894
# Velocity P-wave (km/s) = 5.59382 4.40346 5.03395
#
# Compressibility (1/GPa) = 0.04663335
#
# Stress axis : x y z
#
# Youngs Moduli (GPa) = 72.50094 26.45128 134.50828
#
# Poissons Ratio (x) = 0.03331 -0.00429
# Poissons Ratio (y) = 0.09131 0.66881
# Poissons Ratio (z) = -0.00231 0.13152
#
# Static dielectric constant tensor:
#      x y z
#    x 4.298190 0.000000 0.000000 
#    y 0.000000 3.914260 0.000000 
#    z 0.000000 0.000000 4.354430 
# 
# 
# High freq. dielectric constant tensor:
#      x y z
#    x 1.942350 0.000000 0.000000 
#    y 0.000000 1.898440 0.000000 
#    z 0.000000 0.000000 1.938870 
# 
# From -- ./inp_files/18262.got.cif
#   From: 2010.06.25/outbox.cif.g09.slc.cpg/sg58_10_cif.got.tgz:18262.got - 2010.06.26 21:38:00.
