data_PCOD8238597
_publ_section_title
;
Structure prediction by ZEFSAII (Michael W. Deem and Ramdas Pophale) SiO2 
 PCOD8238597
Probable space group: P N N M
;
_chemical_formula_sum "Si O2"
_cell_formula_units_Z 56
_cell_length_a 12.557883
_cell_length_b 6.810867
_cell_length_c 31.991321
_cell_angle_alpha 90.000000
_cell_angle_beta 90.000000
_cell_angle_gamma 90.000000
_cell_volume 2736.219954
_symmetry_space_group_name_H-M "P N N M"
_symmetry_group_IT_number 58
_symmetry_cell_setting 'orthorhombic'
loop_
_space_group_symop_operation_xyz
x,y,z
-x,-y,z
1/2+x,1/2-y,1/2-z
1/2-x,1/2+y,1/2-z
-x,-y,-z
x,y,-z
1/2-x,1/2+y,1/2+z
1/2+x,1/2-y,1/2+z
loop_
_atom_site_type_symbol
_atom_site_label
_atom_site_fract_x
_atom_site_fract_y
_atom_site_fract_z
Si Si1 0.889422 0.883227 0.734938
Si Si2 0.740472 0.194089 0.696648
Si Si3 0.883413 0.975285 0.451880
Si Si4 0.881963 0.519468 0.880771
Si Si5 0.117010 0.464732 0.330659
Si Si6 0.746435 0.662095 0.593013
Si Si7 0.699322 0.270690 0.451610
O O1 0.861147 0.787011 0.779653
O O2 0.897306 0.717784 0.699997
O O3 0.788901 0.018112 0.723624
O O4 0.000000 0.000000 0.739009
O O5 0.699755 0.114804 0.652077
O O6 0.838300 0.345218 0.692991
O O7 0.893373 0.920567 0.500000
O O8 0.815524 0.172812 0.444744
O O9 0.834182 0.788091 0.430208
O O10 0.000000 0.000000 0.431723
O O11 0.850113 0.298471 0.892476
O O12 0.884226 0.652857 0.922736
O O13 0.000000 0.500000 0.861814
O O14 0.202230 0.432344 0.366533
O O15 0.000000 0.500000 0.349919
O O16 0.702447 0.496890 0.561770
O O17 0.663365 0.254863 0.500000
#
# Coordination Sequence:
#
# PCOD8238597 Si02
#       7
#     8   8   8   8   8   8   8
#     4  12  26  44  71 100 132 173 218 270 327 396
#     4  12  25  45  67  98 135 168 220 273 326 396
#     4   9  20  36  57  91 131 168 212 262 320 387
#     4  11  26  45  68  96 130 171 229 280 334 389
#     4  12  25  40  67  99 134 174 215 262 330 394
#     4  11  23  39  65  94 128 171 217 273 321 392
#     4  10  22  42  65  94 134 175 221 277 335 397
#
# _framework density 20.466189
#
# number of rings (size 3 to 8) (size 9 to 14) (size 15 to 20)
#    0.000    1.000    5.714    0.429    2.000    4.857 
#    0.000    2.857    0.000    0.000    0.000    0.000 
#    0.000    0.000    0.000    0.000    0.000    0.000 
#
# Total GULP energy -694537.977123 kJ/mol
# GULP energy per Si atom -12402.463877 kJ/mol
# Density = 2.041961 g / cm^3
# Si number density = 20.466189 Si / 1000 Ang^3
#
#
#
# Elastic Constant Matrix: (Units=GPa)
#
#
# Indices 1 2 3 4 5 6 
#
# 1 90.6816 22.5039 16.4567 0.0000 0.0000 0.0000
# 2 22.5039 106.8895 33.5641 0.0000 0.0000 0.0000
# 3 16.4567 33.5641 90.2193 0.0000 0.0000 0.0000
# 4 0.0000 0.0000 0.0000 39.6169 0.0000 0.0000
# 5 0.0000 0.0000 0.0000 0.0000 78.2456 0.0000
# 6 0.0000 0.0000 0.0000 0.0000 0.0000 19.3358
#
#
#
# Elastic Compliance Matrix: (Units=1/GPa)
#
#
# Indices 1 2 3 4 5 6 
#
# 1 0.011787 -0.002045 -0.001389 0.000000 0.000000 0.000000
# 2 -0.002045 0.010948 -0.003700 0.000000 0.000000 0.000000
# 3 -0.001389 -0.003700 0.012714 0.000000 0.000000 0.000000
# 4 0.000000 0.000000 0.000000 0.025242 0.000000 0.000000
# 5 0.000000 0.000000 0.000000 0.000000 0.012780 0.000000
# 6 0.000000 0.000000 0.000000 0.000000 0.000000 0.051717
#
#
# Mechanical properties :
#
#
# Convention : Reuss Voigt Hill
#
# Bulk Modulus (GPa) = 47.21361 48.09330 47.65345
# Shear Modulus (GPa) = 34.12564 41.79071 37.95818
#
# Velocity S-wave (km/s) = 4.08783 4.52368 4.31127
# Velocity P-wave (km/s) = 6.73792 7.12986 6.93666
#
# Compressibility (1/GPa) = 0.02118033
#
# Stress axis : x y z
#
# Youngs Moduli (GPa) = 84.83712 91.34212 78.65395
#
# Poissons Ratio (x) = 0.18683 0.10926
# Poissons Ratio (y) = 0.17353 0.29100
# Poissons Ratio (z) = 0.11785 0.33795
#
# Static dielectric constant tensor:
#      x y z
#    x 3.647360 0.000000 0.000000 
#    y 0.000000 3.858720 0.000000 
#    z 0.000000 0.000000 3.719690 
# 
# 
# High freq. dielectric constant tensor:
#      x y z
#    x 1.794060 0.000000 0.000000 
#    y 0.000000 1.815160 0.000000 
#    z 0.000000 0.000000 1.804390 
# 
# From -- ./inp_files/35043.got.cif
#   From: 2010.06.25/outbox.cif.g09.slc.cpg/sg58_18_cif.got.tgz:35043.got - 2010.06.26 21:38:00.
