data_PCOD8238530
_publ_section_title
;
Structure prediction by ZEFSAII (Michael W. Deem and Ramdas Pophale) SiO2 
 PCOD8238530
Probable space group: P N N M
;
_chemical_formula_sum "Si O2"
_cell_formula_units_Z 64
_cell_length_a 11.091834
_cell_length_b 31.972705
_cell_length_c 8.685294
_cell_angle_alpha 90.000000
_cell_angle_beta 90.000000
_cell_angle_gamma 90.000000
_cell_volume 3080.117371
_symmetry_space_group_name_H-M "P N N M"
_symmetry_group_IT_number 58
_symmetry_cell_setting 'orthorhombic'
loop_
_space_group_symop_operation_xyz
x,y,z
-x,-y,z
1/2+x,1/2-y,1/2-z
1/2-x,1/2+y,1/2-z
-x,-y,-z
x,y,-z
1/2-x,1/2+y,1/2+z
1/2+x,1/2-y,1/2+z
loop_
_atom_site_type_symbol
_atom_site_label
_atom_site_fract_x
_atom_site_fract_y
_atom_site_fract_z
Si Si1 0.725418 0.267711 0.322531
Si Si2 0.526499 0.319542 0.826285
Si Si3 0.778954 0.185686 0.177969
Si Si4 0.632875 0.486269 0.320826
Si Si5 0.121211 0.476377 0.181342
Si Si6 0.130643 0.663120 0.179034
Si Si7 0.616389 0.120150 0.319785
Si Si8 0.158075 0.100235 0.673858
O O1 0.736063 0.255201 0.500000
O O2 0.611514 0.297165 0.296027
O O3 0.699524 0.226108 0.221565
O O4 0.844150 0.293855 0.270768
O O5 0.392438 0.307308 0.787093
O O6 0.541740 0.369760 0.812709
O O7 0.559582 0.305284 0.000000
O O8 0.720340 0.141409 0.219929
O O9 0.814478 0.185221 0.000000
O O10 0.500000 0.500000 0.254721
O O11 0.637814 0.496712 0.500000
O O12 0.749929 0.508260 0.245973
O O13 0.644022 0.437004 0.293547
O O14 0.104923 0.428077 0.227426
O O15 0.000000 0.500000 0.245053
O O16 0.127378 0.483198 0.000000
O O17 0.225548 0.627073 0.220255
O O18 0.002909 0.644974 0.227728
O O19 0.138201 0.674461 0.000000
O O20 0.644935 0.124762 0.500000
O O21 0.171613 0.082301 0.500000
#
# Coordination Sequence:
#
# PCOD8238530 Si02
#       8
#     8   8   8   8   8   8   8   8
#     4  11  23  40  63  91 123 162 207 252 305 366
#     4  10  22  42  65  90 120 155 205 258 310 368
#     4  12  26  41  60  87 125 167 205 252 309 366
#     4  11  25  40  58  90 131 169 207 258 316 381
#     4  10  22  43  70  97 125 164 215 266 320 386
#     4   9  19  39  65  92 123 158 203 256 306 364
#     4  10  22  40  64  93 126 161 205 259 313 370
#     4   9  19  38  65  91 117 156 204 253 304 367
#
# _framework density 20.77843
#
# number of rings (size 3 to 8) (size 9 to 14) (size 15 to 20)
#    0.000    1.750    0.000    4.500    3.500    6.750 
#    0.000    1.250    0.000    0.000    0.000    0.000 
#    0.000    0.000    0.000    0.000    0.000    0.000 
#
# Total GULP energy -793505.597542 kJ/mol
# GULP energy per Si atom -12398.524962 kJ/mol
# Density = 2.073114 g / cm^3
# Si number density = 20.778430 Si / 1000 Ang^3
#
#
#
# Elastic Constant Matrix: (Units=GPa)
#
#
# Indices 1 2 3 4 5 6 
#
# 1 111.1596 36.0757 32.6623 0.0000 0.0000 0.0000
# 2 36.0757 111.7976 36.9642 0.0000 0.0000 0.0000
# 3 32.6623 36.9642 67.8941 0.0000 0.0000 0.0000
# 4 0.0000 0.0000 0.0000 34.0665 0.0000 0.0000
# 5 0.0000 0.0000 0.0000 0.0000 27.8392 0.0000
# 6 0.0000 0.0000 0.0000 0.0000 0.0000 23.5389
#
#
#
# Elastic Compliance Matrix: (Units=1/GPa)
#
#
# Indices 1 2 3 4 5 6 
#
# 1 0.010894 -0.002174 -0.004057 0.000000 0.000000 0.000000
# 2 -0.002174 0.011342 -0.005129 0.000000 0.000000 0.000000
# 3 -0.004057 -0.005129 0.019473 0.000000 0.000000 0.000000
# 4 0.000000 0.000000 0.000000 0.029354 0.000000 0.000000
# 5 0.000000 0.000000 0.000000 0.000000 0.035921 0.000000
# 6 0.000000 0.000000 0.000000 0.000000 0.000000 0.042483
#
#
# Mechanical properties :
#
#
# Convention : Reuss Voigt Hill
#
# Bulk Modulus (GPa) = 52.66369 55.80616 54.23493
# Shear Modulus (GPa) = 28.00853 29.43219 28.72036
#
# Velocity S-wave (km/s) = 3.67544 3.76770 3.72186
# Velocity P-wave (km/s) = 6.58880 6.77078 6.68041
#
# Compressibility (1/GPa) = 0.01898842
#
# Stress axis : x y z
#
# Youngs Moduli (GPa) = 91.79621 88.16687 51.35247
#
# Poissons Ratio (x) = 0.19166 0.20835
# Poissons Ratio (y) = 0.19955 0.26340
# Poissons Ratio (z) = 0.37244 0.45224
#
# Static dielectric constant tensor:
#      x y z
#    x 3.942490 0.000000 0.000000 
#    y 0.000000 3.857970 0.000000 
#    z 0.000000 0.000000 3.543760 
# 
# 
# High freq. dielectric constant tensor:
#      x y z
#    x 1.817810 0.000000 0.000000 
#    y 0.000000 1.821480 0.000000 
#    z 0.000000 0.000000 1.801020 
# 
# From -- ./inp_files/4829.got.cif
#   From: 2010.06.25/outbox.cif.g09.slc.cpg/sg58_3_cif.got.tgz:4829.got - 2010.06.26 21:38:00.
