data_PCOD8238004
_publ_section_title
;
Structure prediction by ZEFSAII (Michael W. Deem and Ramdas Pophale) SiO2 
 PCOD8238004
Probable space group: P N N M
;
_chemical_formula_sum "Si O2"
_cell_formula_units_Z 64
_cell_length_a 12.183948
_cell_length_b 14.387853
_cell_length_c 18.787239
_cell_angle_alpha 90.000000
_cell_angle_beta 90.000000
_cell_angle_gamma 90.000000
_cell_volume 3293.419018
_symmetry_space_group_name_H-M "P N N M"
_symmetry_group_IT_number 58
_symmetry_cell_setting 'orthorhombic'
loop_
_space_group_symop_operation_xyz
x,y,z
-x,-y,z
1/2+x,1/2-y,1/2-z
1/2-x,1/2+y,1/2-z
-x,-y,-z
x,y,-z
1/2-x,1/2+y,1/2+z
1/2+x,1/2-y,1/2+z
loop_
_atom_site_type_symbol
_atom_site_label
_atom_site_fract_x
_atom_site_fract_y
_atom_site_fract_z
Si Si1 0.551312 0.733411 0.318089
Si Si2 0.492705 0.608997 0.183409
Si Si3 0.950698 0.906480 0.083099
Si Si4 0.872768 0.498480 0.284906
Si Si5 0.166011 0.813856 0.417385
Si Si6 0.837381 0.671817 0.801719
Si Si7 0.801123 0.399261 0.581630
Si Si8 0.757530 0.834365 0.713051
O O1 0.545843 0.668578 0.247590
O O2 0.521582 0.677627 0.388119
O O3 0.468084 0.820682 0.313335
O O4 0.673427 0.771854 0.332493
O O5 0.500000 0.500000 0.201453
O O6 0.557823 0.634301 0.111559
O O7 0.365177 0.635177 0.169238
O O8 0.825194 0.895361 0.105631
O O9 0.966509 0.905183 0.000000
O O10 0.000000 0.000000 0.116943
O O11 0.818045 0.596262 0.261092
O O12 0.860722 0.476125 0.369078
O O13 0.808981 0.421596 0.240868
O O14 0.000000 0.500000 0.264578
O O15 0.184052 0.839318 0.500000
O O16 0.271952 0.852876 0.374205
O O17 0.147695 0.703105 0.408149
O O18 0.795223 0.773580 0.780102
O O19 0.813078 0.432738 0.500000
#
# Coordination Sequence:
#
# PCOD8238004 Si02
#       8
#     8   8   8   8   8   8   8   8
#     4  11  20  37  61  90 128 166 208 263 317 379
#     4  11  23  40  62  93 124 164 219 264 323 374
#     4  10  21  36  59  92 127 167 212 260 321 389
#     4  12  23  39  63  92 129 162 210 266 314 376
#     4  11  22  42  67  90 123 168 215 258 321 386
#     4  11  22  38  64  91 124 166 212 257 322 373
#     4  10  21  39  60  89 130 171 209 253 319 396
#     4  11  23  38  59  95 129 161 214 264 317 379
#
# _framework density 19.432693
#
# number of rings (size 3 to 8) (size 9 to 14) (size 15 to 20)
#    0.000    1.125    5.000    1.875    3.500    0.500 
#    0.000    0.625    0.000    1.125    0.000    0.000 
#    0.000    0.000    0.000    0.000    0.000    0.000 
#
# Total GULP energy -793476.439614 kJ/mol
# GULP energy per Si atom -12398.069369 kJ/mol
# Density = 1.938846 g / cm^3
# Si number density = 19.432693 Si / 1000 Ang^3
#
#
#
# Elastic Constant Matrix: (Units=GPa)
#
#
# Indices 1 2 3 4 5 6 
#
# 1 128.0426 50.6017 40.1408 0.0000 0.0000 0.0000
# 2 50.6017 102.6975 40.4403 0.0000 0.0000 0.0000
# 3 40.1408 40.4403 78.8670 0.0000 0.0000 0.0000
# 4 0.0000 0.0000 0.0000 30.4448 0.0000 0.0000
# 5 0.0000 0.0000 0.0000 0.0000 20.4590 0.0000
# 6 0.0000 0.0000 0.0000 0.0000 0.0000 34.4255
#
#
#
# Elastic Compliance Matrix: (Units=1/GPa)
#
#
# Indices 1 2 3 4 5 6 
#
# 1 0.010350 -0.003791 -0.003324 0.000000 0.000000 0.000000
# 2 -0.003791 0.013589 -0.005039 0.000000 0.000000 0.000000
# 3 -0.003324 -0.005039 0.016955 0.000000 0.000000 0.000000
# 4 0.000000 0.000000 0.000000 0.032846 0.000000 0.000000
# 5 0.000000 0.000000 0.000000 0.000000 0.048878 0.000000
# 6 0.000000 0.000000 0.000000 0.000000 0.000000 0.029048
#
#
# Mechanical properties :
#
#
# Convention : Reuss Voigt Hill
#
# Bulk Modulus (GPa) = 60.28711 63.55252 61.91981
# Shear Modulus (GPa) = 27.54765 28.96081 28.25423
#
# Velocity S-wave (km/s) = 3.76918 3.86465 3.81721
# Velocity P-wave (km/s) = 7.07341 7.25871 7.16666
#
# Compressibility (1/GPa) = 0.01658729
#
# Stress axis : x y z
#
# Youngs Moduli (GPa) = 96.61756 73.58714 58.97928
#
# Poissons Ratio (x) = 0.27895 0.19605
# Poissons Ratio (y) = 0.36626 0.29718
# Poissons Ratio (z) = 0.32116 0.37079
#
# Static dielectric constant tensor:
#      x y z
#    x 4.045210 0.000000 0.000000 
#    y 0.000000 3.782320 0.000000 
#    z 0.000000 0.000000 3.351050 
# 
# 
# High freq. dielectric constant tensor:
#      x y z
#    x 1.766740 0.000000 0.000000 
#    y 0.000000 1.757190 0.000000 
#    z 0.000000 0.000000 1.733160 
# 
# From -- ./inp_files/26349.got.cif
#   From: 2010.06.25/outbox.cif.g09.slc.cpg/sg58_14_cif.got.tgz:26349.got - 2010.06.26 21:38:00.
