data_PCOD8238067
_publ_section_title
;
Structure prediction by ZEFSAII (Michael W. Deem and Ramdas Pophale) SiO2 
 PCOD8238067
Probable space group: P N N M
;
_chemical_formula_sum "Si O2"
_cell_formula_units_Z 48
_cell_length_a 17.318795
_cell_length_b 8.987385
_cell_length_c 14.176287
_cell_angle_alpha 90.000000
_cell_angle_beta 90.000000
_cell_angle_gamma 90.000000
_cell_volume 2206.548689
_symmetry_space_group_name_H-M "P N N M"
_symmetry_group_IT_number 58
_symmetry_cell_setting 'orthorhombic'
loop_
_space_group_symop_operation_xyz
x,y,z
-x,-y,z
1/2+x,1/2-y,1/2-z
1/2-x,1/2+y,1/2-z
-x,-y,-z
x,y,-z
1/2-x,1/2+y,1/2+z
1/2+x,1/2-y,1/2+z
loop_
_atom_site_type_symbol
_atom_site_label
_atom_site_fract_x
_atom_site_fract_y
_atom_site_fract_z
Si Si1 0.520845 0.672198 0.607034
Si Si2 0.976339 0.670357 0.715484
Si Si3 0.378192 0.247985 0.890127
Si Si4 0.694681 0.702161 0.605243
Si Si5 0.823442 0.546923 0.703855
Si Si6 0.244206 0.470754 0.895550
O O1 0.500000 0.500000 0.611701
O O2 0.508357 0.731929 0.500000
O O3 0.466928 0.756380 0.681455
O O4 0.607442 0.711851 0.644129
O O5 0.890973 0.658785 0.668051
O O6 0.000000 0.500000 0.730368
O O7 0.033430 0.764418 0.647115
O O8 0.329445 0.400348 0.876612
O O9 0.338570 0.123313 0.825033
O O10 0.380364 0.199654 0.000000
O O11 0.687180 0.640269 0.500000
O O12 0.739622 0.578528 0.662993
O O13 0.746454 0.850697 0.609020
O O14 0.818188 0.573710 0.816764
O O15 0.215482 0.419527 0.000000
#
# Coordination Sequence:
#
# PCOD8238067 Si02
#       6
#     8   8   8   8   8   8
#     4  10  22  40  61  87 123 163 203 253 312 373
#     4  10  22  37  57  86 119 159 202 252 309 364
#     4  10  22  40  60  84 118 159 202 247 300 363
#     4  10  21  38  59  84 115 151 196 249 301 354
#     4  11  21  35  59  87 115 153 200 252 303 358
#     4  10  21  37  58  84 116 154 195 245 302 361
#
# _framework density 21.753429000000001
#
# number of rings (size 3 to 8) (size 9 to 14) (size 15 to 20)
#    0.000    1.833    0.000    4.500    0.000    8.667 
#    0.000    3.333    0.000    3.500    0.000    0.000 
#    0.000    0.000    0.000    0.000    0.000    0.000 
#
# Total GULP energy -594802.978149 kJ/mol
# GULP energy per Si atom -12391.728711 kJ/mol
# Density = 2.170392 g / cm^3
# Si number density = 21.753429 Si / 1000 Ang^3
#
#
#
# Elastic Constant Matrix: (Units=GPa)
#
#
# Indices 1 2 3 4 5 6 
#
# 1 61.1723 26.7604 29.6744 0.0000 0.0000 0.0000
# 2 26.7604 56.1823 17.1185 0.0000 0.0000 0.0000
# 3 29.6744 17.1185 83.3891 0.0000 0.0000 0.0000
# 4 0.0000 0.0000 0.0000 30.8992 0.0000 0.0000
# 5 0.0000 0.0000 0.0000 0.0000 20.0339 0.0000
# 6 0.0000 0.0000 0.0000 0.0000 0.0000 35.4604
#
#
#
# Elastic Compliance Matrix: (Units=1/GPa)
#
#
# Indices 1 2 3 4 5 6 
#
# 1 0.023529 -0.009233 -0.006477 0.000000 0.000000 0.000000
# 2 -0.009233 0.022610 -0.001356 0.000000 0.000000 0.000000
# 3 -0.006477 -0.001356 0.014575 0.000000 0.000000 0.000000
# 4 0.000000 0.000000 0.000000 0.032363 0.000000 0.000000
# 5 0.000000 0.000000 0.000000 0.000000 0.049915 0.000000
# 6 0.000000 0.000000 0.000000 0.000000 0.000000 0.028200
#
#
# Mechanical properties :
#
#
# Convention : Reuss Voigt Hill
#
# Bulk Modulus (GPa) = 37.62053 38.65000 38.13527
# Shear Modulus (GPa) = 23.34412 25.75806 24.55109
#
# Velocity S-wave (km/s) = 3.27941 3.44480 3.36312
# Velocity P-wave (km/s) = 5.62770 5.79897 5.71398
#
# Compressibility (1/GPa) = 0.02658123
#
# Stress axis : x y z
#
# Youngs Moduli (GPa) = 42.50146 44.22762 68.60938
#
# Poissons Ratio (x) = 0.40837 0.44440
# Poissons Ratio (y) = 0.39243 0.09302
# Poissons Ratio (z) = 0.27529 0.05996
#
# Static dielectric constant tensor:
#      x y z
#    x 4.089310 0.000000 0.000000 
#    y 0.000000 3.643320 0.000000 
#    z 0.000000 0.000000 4.166290 
# 
# 
# High freq. dielectric constant tensor:
#      x y z
#    x 1.850940 0.000000 0.000000 
#    y 0.000000 1.832710 0.000000 
#    z 0.000000 0.000000 1.868590 
# 
# From -- ./inp_files/22755.got.cif
#   From: 2010.06.25/outbox.cif.g09.slc.cpg/sg58_12_cif.got.tgz:22755.got - 2010.06.26 21:38:00.
