data_PCOD8238326
_publ_section_title
;
Structure prediction by ZEFSAII (Michael W. Deem and Ramdas Pophale) SiO2 
 PCOD8238326
Probable space group: P N N M
;
_chemical_formula_sum "Si O2"
_cell_formula_units_Z 64
_cell_length_a 11.908809
_cell_length_b 30.773312
_cell_length_c 8.975356
_cell_angle_alpha 90.000000
_cell_angle_beta 90.000000
_cell_angle_gamma 90.000000
_cell_volume 3289.230081
_symmetry_space_group_name_H-M "P N N M"
_symmetry_group_IT_number 58
_symmetry_cell_setting 'orthorhombic'
loop_
_space_group_symop_operation_xyz
x,y,z
-x,-y,z
1/2+x,1/2-y,1/2-z
1/2-x,1/2+y,1/2-z
-x,-y,-z
x,y,-z
1/2-x,1/2+y,1/2+z
1/2+x,1/2-y,1/2+z
loop_
_atom_site_type_symbol
_atom_site_label
_atom_site_fract_x
_atom_site_fract_y
_atom_site_fract_z
Si Si1 0.217766 0.795582 0.323497
Si Si2 0.728288 0.452881 0.325004
Si Si3 0.010278 0.834722 0.177148
Si Si4 0.391238 0.125614 0.824681
Si Si5 0.773138 0.800676 0.176304
Si Si6 0.764000 0.038962 0.329534
Si Si7 0.502239 0.424415 0.171421
Si Si8 0.868752 0.624167 0.175702
O O1 0.197591 0.797976 0.500000
O O2 0.100717 0.801248 0.239703
O O3 0.261657 0.748758 0.269933
O O4 0.306289 0.832040 0.270730
O O5 0.704867 0.452824 0.500000
O O6 0.816322 0.415813 0.280337
O O7 0.778169 0.499094 0.272339
O O8 0.611545 0.445539 0.241937
O O9 0.036092 0.881865 0.241010
O O10 0.889601 0.819463 0.238191
O O11 0.015326 0.835971 0.000000
O O12 0.328715 0.169091 0.765643
O O13 0.509799 0.121728 0.746732
O O14 0.411190 0.127491 0.000000
O O15 0.775425 0.803197 0.000000
O O16 0.729971 0.029526 0.500000
O O17 0.898554 0.042459 0.315305
O O18 0.703674 0.082698 0.272047
O O19 0.525892 0.412550 0.000000
O O20 0.882544 0.624715 0.000000
#
# Coordination Sequence:
#
# PCOD8238326 Si02
#       8
#     8   8   8   8   8   8   8   8
#     4  10  21  40  62  86 119 158 195 238 295 349
#     4  11  23  39  60  88 120 152 194 244 296 349
#     4  11  21  37  62  91 122 155 195 245 294 344
#     4  10  22  41  59  82 118 155 192 240 295 347
#     4   9  20  39  61  84 120 158 188 237 296 345
#     4  10  22  40  59  84 118 153 193 240 294 348
#     4  11  21  38  62  88 121 158 193 237 293 353
#     4  10  22  40  60  84 116 154 198 244 288 345
#
# _framework density 19.457439999999998
#
# number of rings (size 3 to 8) (size 9 to 14) (size 15 to 20)
#    0.000    1.750    2.500    1.500    1.750    5.000 
#    0.000    3.750    0.000    0.000    0.000    0.000 
#    0.000    0.000    0.000    0.000    0.000    0.000 
#
# Total GULP energy -793784.695316 kJ/mol
# GULP energy per Si atom -12402.885864 kJ/mol
# Density = 1.941315 g / cm^3
# Si number density = 19.457440 Si / 1000 Ang^3
#
#
#
# Elastic Constant Matrix: (Units=GPa)
#
#
# Indices 1 2 3 4 5 6 
#
# 1 128.7354 52.6696 34.4511 0.0000 0.0000 0.0000
# 2 52.6696 140.2976 32.7491 0.0000 0.0000 0.0000
# 3 34.4511 32.7491 42.6101 0.0000 0.0000 0.0000
# 4 0.0000 0.0000 0.0000 5.1645 0.0000 0.0000
# 5 0.0000 0.0000 0.0000 0.0000 35.9736 0.0000
# 6 0.0000 0.0000 0.0000 0.0000 0.0000 22.3101
#
#
#
# Elastic Compliance Matrix: (Units=1/GPa)
#
#
# Indices 1 2 3 4 5 6 
#
# 1 0.010535 -0.002397 -0.006676 0.000000 0.000000 0.000000
# 2 -0.002397 0.009231 -0.005157 0.000000 0.000000 0.000000
# 3 -0.006676 -0.005157 0.032830 0.000000 0.000000 0.000000
# 4 0.000000 0.000000 0.000000 0.193629 0.000000 0.000000
# 5 0.000000 0.000000 0.000000 0.000000 0.027798 0.000000
# 6 0.000000 0.000000 0.000000 0.000000 0.000000 0.044823
#
#
# Mechanical properties :
#
#
# Convention : Reuss Voigt Hill
#
# Bulk Modulus (GPa) = 41.43044 61.26476 51.34760
# Shear Modulus (GPa) = 14.07060 25.47453 19.77257
#
# Velocity S-wave (km/s) = 2.69206 3.62227 3.19124
# Velocity P-wave (km/s) = 5.56794 7.00353 6.32659
#
# Compressibility (1/GPa) = 0.02413684
#
# Stress axis : x y z
#
# Youngs Moduli (GPa) = 94.92247 108.32751 30.46028
#
# Poissons Ratio (x) = 0.25963 0.20334
# Poissons Ratio (y) = 0.22750 0.15709
# Poissons Ratio (z) = 0.63367 0.55866
#
# Static dielectric constant tensor:
#      x y z
#    x 3.604370 0.000000 0.000000 
#    y 0.000000 3.997320 0.000000 
#    z 0.000000 0.000000 3.375760 
# 
# 
# High freq. dielectric constant tensor:
#      x y z
#    x 1.761170 0.000000 0.000000 
#    y 0.000000 1.772460 0.000000 
#    z 0.000000 0.000000 1.742630 
# 
# From -- ./inp_files/4672.got.cif
#   From: 2010.06.25/outbox.cif.g09.slc.cpg/sg58_3_cif.got.tgz:4672.got - 2010.06.26 21:38:00.
