data_PCOD8238838
_publ_section_title
;
Structure prediction by ZEFSAII (Michael W. Deem and Ramdas Pophale) SiO2 
 PCOD8238838
Probable space group: P N N M
;
_chemical_formula_sum "Si O2"
_cell_formula_units_Z 56
_cell_length_a 14.603340
_cell_length_b 20.949538
_cell_length_c 8.395169
_cell_angle_alpha 90.000000
_cell_angle_beta 90.000000
_cell_angle_gamma 90.000000
_cell_volume 2568.361137
_symmetry_space_group_name_H-M "P N N M"
_symmetry_group_IT_number 58
_symmetry_cell_setting 'orthorhombic'
loop_
_space_group_symop_operation_xyz
x,y,z
-x,-y,z
1/2+x,1/2-y,1/2-z
1/2-x,1/2+y,1/2-z
-x,-y,-z
x,y,-z
1/2-x,1/2+y,1/2+z
1/2+x,1/2-y,1/2+z
loop_
_atom_site_type_symbol
_atom_site_label
_atom_site_fract_x
_atom_site_fract_y
_atom_site_fract_z
Si Si1 0.511964 0.761614 0.685199
Si Si2 0.230375 0.533002 0.817615
Si Si3 0.077526 0.052335 0.182000
Si Si4 0.748210 0.097949 0.813580
Si Si5 0.311115 0.763730 0.186487
Si Si6 0.666722 0.836985 0.816008
Si Si7 0.431899 0.364337 0.188278
O O1 0.489119 0.755329 0.500000
O O2 0.418715 0.756069 0.783605
O O3 0.572146 0.824462 0.720081
O O4 0.581937 0.707375 0.748428
O O5 0.339157 0.534112 0.794355
O O6 0.195287 0.462252 0.765730
O O7 0.187024 0.588573 0.711377
O O8 0.204719 0.545231 0.000000
O O9 0.033185 0.116835 0.251583
O O10 0.110720 0.062218 0.000000
O O11 0.000000 0.000000 0.197498
O O12 0.714060 0.165925 0.744233
O O13 0.855876 0.091498 0.773047
O O14 0.731586 0.092915 0.000000
O O15 0.253113 0.706865 0.265444
O O16 0.289924 0.760863 0.000000
O O17 0.647488 0.824699 0.000000
O O18 0.421443 0.369639 0.000000
#
# Coordination Sequence:
#
# PCOD8238838 Si02
#       7
#     8   8   8   8   8   8   8
#     4  12  25  43  67  96 131 169 218 272 326 386
#     4  12  25  41  63  92 131 171 216 268 328 391
#     4  11  22  36  57  85 124 166 209 256 317 385
#     4  11  23  41  65  93 129 169 213 263 322 385
#     4  11  24  44  70  99 133 172 219 271 329 391
#     4  12  25  44  69  97 133 173 220 272 331 390
#     4  12  23  37  61  91 126 165 211 261 322 386
#
# _framework density 21.803787
#
# number of rings (size 3 to 8) (size 9 to 14) (size 15 to 20)
#    0.000    0.429    2.857    7.286    0.000    2.286 
#    0.000    0.714    0.000    4.286    0.000    0.000 
#    0.000    0.000    0.000    0.000    0.000    0.000 
#
# Total GULP energy -694545.221060 kJ/mol
# GULP energy per Si atom -12402.593233 kJ/mol
# Density = 2.175416 g / cm^3
# Si number density = 21.803787 Si / 1000 Ang^3
#
#
#
# Elastic Constant Matrix: (Units=GPa)
#
#
# Indices 1 2 3 4 5 6 
#
# 1 45.7225 7.6733 5.5760 0.0000 0.0000 0.0000
# 2 7.6733 109.5768 7.9553 0.0000 0.0000 0.0000
# 3 5.5760 7.9553 74.9969 0.0000 0.0000 0.0000
# 4 0.0000 0.0000 0.0000 35.2332 0.0000 0.0000
# 5 0.0000 0.0000 0.0000 0.0000 25.6094 0.0000
# 6 0.0000 0.0000 0.0000 0.0000 0.0000 25.5611
#
#
#
# Elastic Compliance Matrix: (Units=1/GPa)
#
#
# Indices 1 2 3 4 5 6 
#
# 1 0.022298 -0.001452 -0.001504 0.000000 0.000000 0.000000
# 2 -0.001452 0.009291 -0.000878 0.000000 0.000000 0.000000
# 3 -0.001504 -0.000878 0.013539 0.000000 0.000000 0.000000
# 4 0.000000 0.000000 0.000000 0.028382 0.000000 0.000000
# 5 0.000000 0.000000 0.000000 0.000000 0.039048 0.000000
# 6 0.000000 0.000000 0.000000 0.000000 0.000000 0.039122
#
#
# Mechanical properties :
#
#
# Convention : Reuss Voigt Hill
#
# Bulk Modulus (GPa) = 26.69442 30.30057 28.49750
# Shear Modulus (GPa) = 29.09762 31.22017 30.15890
#
# Velocity S-wave (km/s) = 3.65707 3.78811 3.72317
# Velocity P-wave (km/s) = 5.48652 5.74979 5.61970
#
# Compressibility (1/GPa) = 0.03746101
#
# Stress axis : x y z
#
# Youngs Moduli (GPa) = 44.84669 107.62599 73.86183
#
# Poissons Ratio (x) = 0.15630 0.11107
# Poissons Ratio (y) = 0.06513 0.06482
# Poissons Ratio (z) = 0.06744 0.09445
#
# Static dielectric constant tensor:
#      x y z
#    x 3.747250 0.000000 0.000000 
#    y 0.000000 4.310430 0.000000 
#    z 0.000000 0.000000 3.840480 
# 
# 
# High freq. dielectric constant tensor:
#      x y z
#    x 1.835430 0.000000 0.000000 
#    y 0.000000 1.873490 0.000000 
#    z 0.000000 0.000000 1.861960 
# 
# From -- ./inp_files/6436.got.cif
#   From: 2010.06.25/outbox.cif.g09.slc.cpg/sg58_4_cif.got.tgz:6436.got - 2010.06.26 21:38:00.
