data_PCOD8238016
_publ_section_title
;
Structure prediction by ZEFSAII (Michael W. Deem and Ramdas Pophale) SiO2 
 PCOD8238016
Probable space group: P N N M
;
_chemical_formula_sum "Si O2"
_cell_formula_units_Z 40
_cell_length_a 8.269437
_cell_length_b 11.636354
_cell_length_c 20.005060
_cell_angle_alpha 90.000000
_cell_angle_beta 90.000000
_cell_angle_gamma 90.000000
_cell_volume 1925.008830
_symmetry_space_group_name_H-M "P N N M"
_symmetry_group_IT_number 58
_symmetry_cell_setting 'orthorhombic'
loop_
_space_group_symop_operation_xyz
x,y,z
-x,-y,z
1/2+x,1/2-y,1/2-z
1/2-x,1/2+y,1/2-z
-x,-y,-z
x,y,-z
1/2-x,1/2+y,1/2+z
1/2+x,1/2-y,1/2+z
loop_
_atom_site_type_symbol
_atom_site_label
_atom_site_fract_x
_atom_site_fract_y
_atom_site_fract_z
Si Si1 0.244903 0.872990 0.756607
Si Si2 0.158685 0.933943 0.609350
Si Si3 0.000000 0.500000 0.119369
Si Si4 0.700650 0.818505 0.075896
Si Si5 0.535056 0.252830 0.327121
Si Si6 0.500000 0.000000 0.843300
O O1 0.173211 0.933406 0.690184
O O2 0.340089 0.756754 0.735066
O O3 0.109675 0.835302 0.808714
O O4 0.355365 0.961254 0.795983
O O5 0.328314 0.987841 0.579252
O O6 0.128574 0.808933 0.579256
O O7 0.000000 0.000000 0.585692
O O8 0.983909 0.380705 0.160932
O O9 0.569010 0.899236 0.110652
O O10 0.877050 0.815067 0.110811
O O11 0.725359 0.859603 0.000000
#
# Coordination Sequence:
#
# PCOD8238016 Si02
#       6
#     8   8   4   8   8   4
#     4  10  21  36  61  96 129 154 211 253 337 371
#     4  10  22  36  66  95 127 163 202 271 326 386
#     4   8  19  36  53  90 128 154 204 246 318 378
#     4  10  24  45  60  87 125 170 219 257 305 380
#     4  10  21  36  63  90 128 163 195 270 312 387
#     4  12  24  40  64  92 125 176 203 270 308 376
#
# _framework density 20.779126999999999
#
# number of rings (size 3 to 8) (size 9 to 14) (size 15 to 20)
#    0.000    2.400    0.000    5.100    8.400    0.400 
#    0.000   11.000    0.000    0.000    0.000    0.000 
#    0.000    0.000    0.000    0.000    0.000    0.000 
#
# Total GULP energy -495554.663984 kJ/mol
# GULP energy per Si atom -12388.866600 kJ/mol
# Density = 2.073183 g / cm^3
# Si number density = 20.779127 Si / 1000 Ang^3
#
#
#
# Elastic Constant Matrix: (Units=GPa)
#
#
# Indices 1 2 3 4 5 6 
#
# 1 129.8922 41.1215 16.1798 0.0000 0.0000 0.0000
# 2 41.1215 60.5692 14.4202 0.0000 0.0000 0.0000
# 3 16.1798 14.4202 82.6995 0.0000 0.0000 0.0000
# 4 0.0000 0.0000 0.0000 -5.2892 0.0000 0.0000
# 5 0.0000 0.0000 0.0000 0.0000 58.4323 0.0000
# 6 0.0000 0.0000 0.0000 0.0000 0.0000 53.1502
#
#
#
# Elastic Compliance Matrix: (Units=1/GPa)
#
#
# Indices 1 2 3 4 5 6 
#
# 1 0.009856 -0.006502 -0.000795 0.000000 0.000000 0.000000
# 2 -0.006502 0.021515 -0.002479 0.000000 0.000000 0.000000
# 3 -0.000795 -0.002479 0.012680 0.000000 0.000000 0.000000
# 4 0.000000 0.000000 0.000000 -0.189063 0.000000 0.000000
# 5 0.000000 0.000000 0.000000 0.000000 0.017114 0.000000
# 6 0.000000 0.000000 0.000000 0.000000 0.000000 0.018815
#
#
# Mechanical properties :
#
#
# Convention : Reuss Voigt Hill
#
# Bulk Modulus (GPa) = 40.81912 46.28932 43.55422
# Shear Modulus (GPa) = -61.45148 34.68793 -13.38178
#
# Velocity S-wave (km/s) = -5.44407 4.09022 -2.54047
# Velocity P-wave (km/s) = 4.45311 6.68070 3.52147
#
# Compressibility (1/GPa) = 0.02449832
#
# Stress axis : x y z
#
# Youngs Moduli (GPa) = 101.45907 46.47938 78.86596
#
# Poissons Ratio (x) = 0.30223 0.06266
# Poissons Ratio (y) = 0.65973 0.19554
# Poissons Ratio (z) = 0.08061 0.11524
#
# Static dielectric constant tensor:
#      x y z
#    x 4.022700 0.000000 0.000000 
#    y 0.000000 3.646730 0.000000 
#    z 0.000000 0.000000 3.536260 
# 
# 
# High freq. dielectric constant tensor:
#      x y z
#    x 1.822570 0.000000 0.000000 
#    y 0.000000 1.809290 0.000000 
#    z 0.000000 0.000000 1.789110 
# 
# From -- ./inp_files/28741.got.cif
#   From: 2010.06.25/outbox.cif.g09.slc.cpg/sg58_15_cif.got.tgz:28741.got - 2010.06.26 21:38:00.
