data_PCOD8238622
_publ_section_title
;
Structure prediction by ZEFSAII (Michael W. Deem and Ramdas Pophale) SiO2 
 PCOD8238622
Probable space group: P N N M
;
_chemical_formula_sum "Si O2"
_cell_formula_units_Z 60
_cell_length_a 9.515960
_cell_length_b 12.662971
_cell_length_c 24.269728
_cell_angle_alpha 90.000000
_cell_angle_beta 90.000000
_cell_angle_gamma 90.000000
_cell_volume 2924.510124
_symmetry_space_group_name_H-M "P N N M"
_symmetry_group_IT_number 58
_symmetry_cell_setting 'orthorhombic'
loop_
_space_group_symop_operation_xyz
x,y,z
-x,-y,z
1/2+x,1/2-y,1/2-z
1/2-x,1/2+y,1/2-z
-x,-y,-z
x,y,-z
1/2-x,1/2+y,1/2+z
1/2+x,1/2-y,1/2+z
loop_
_atom_site_type_symbol
_atom_site_label
_atom_site_fract_x
_atom_site_fract_y
_atom_site_fract_z
Si Si1 0.442501 0.380900 0.439943
Si Si2 0.377665 0.817358 0.062343
Si Si3 0.881477 0.159144 0.288314
Si Si4 0.158627 0.502957 0.822901
Si Si5 0.988653 0.878862 0.823640
Si Si6 0.911926 0.906610 0.620221
Si Si7 0.182370 0.611924 0.709263
Si Si8 0.500000 0.000000 0.871416
O O1 0.500000 0.500000 0.442191
O O2 0.484407 0.328640 0.500000
O O3 0.275095 0.370538 0.433273
O O4 0.499977 0.321752 0.384251
O O5 0.398956 0.700956 0.086832
O O6 0.483142 0.896396 0.092244
O O7 0.427688 0.808324 0.000000
O O8 0.892400 0.148176 0.221643
O O9 0.899609 0.280861 0.304360
O O10 0.008891 0.103534 0.320623
O O11 0.730164 0.109242 0.305909
O O12 0.252617 0.556500 0.869937
O O13 0.147718 0.578329 0.770557
O O14 0.000000 0.500000 0.846758
O O15 0.843038 0.854542 0.794933
O O16 0.000000 0.000000 0.839259
O O17 0.000000 0.000000 0.588254
O O18 0.136326 0.520185 0.667026
#
# Coordination Sequence:
#
# PCOD8238622 Si02
#       8
#     8   8   8   8   8   8   8   4
#     4   9  20  36  56  84 119 162 213 257 311 381
#     4  11  24  42  67  93 124 173 217 270 329 381
#     4  11  23  39  58  90 128 169 213 258 323 388
#     4  11  24  38  59  95 131 167 213 266 320 383
#     4  11  20  37  57  80 117 168 204 249 315 375
#     4  10  22  45  66  91 133 170 219 268 323 396
#     4  12  24  33  59  92 124 169 208 255 314 395
#     4  12  23  40  58  96 134 156 207 268 320 382
#
# _framework density 20.516258000000001
#
# number of rings (size 3 to 8) (size 9 to 14) (size 15 to 20)
#    0.000    1.200    4.667    2.200    3.733    0.267 
#    0.000    0.667    0.000    0.400    0.000    0.000 
#    0.000    0.000    0.000    0.000    0.000    0.000 
#
# Total GULP energy -743364.815920 kJ/mol
# GULP energy per Si atom -12389.413599 kJ/mol
# Density = 2.046956 g / cm^3
# Si number density = 20.516258 Si / 1000 Ang^3
#
#
#
# Elastic Constant Matrix: (Units=GPa)
#
#
# Indices 1 2 3 4 5 6 
#
# 1 102.2186 25.2528 20.1200 0.0000 0.0000 0.0000
# 2 25.2528 108.0581 26.1527 0.0000 0.0000 0.0000
# 3 20.1200 26.1527 74.1414 0.0000 0.0000 0.0000
# 4 0.0000 0.0000 0.0000 17.3392 0.0000 0.0000
# 5 0.0000 0.0000 0.0000 0.0000 -245.1173 0.0000
# 6 0.0000 0.0000 0.0000 0.0000 0.0000 20.9913
#
#
#
# Elastic Compliance Matrix: (Units=1/GPa)
#
#
# Indices 1 2 3 4 5 6 
#
# 1 0.010704 -0.001966 -0.002211 0.000000 0.000000 0.000000
# 2 -0.001966 0.010479 -0.003163 0.000000 0.000000 0.000000
# 3 -0.002211 -0.003163 0.015203 0.000000 0.000000 0.000000
# 4 0.000000 0.000000 0.000000 0.057673 0.000000 0.000000
# 5 0.000000 0.000000 0.000000 0.000000 -0.004080 0.000000
# 6 0.000000 0.000000 0.000000 0.000000 0.000000 0.047639
#
#
# Mechanical properties :
#
#
# Convention : Reuss Voigt Hill
#
# Bulk Modulus (GPa) = 46.07019 47.49656 46.78338
# Shear Modulus (GPa) = 31.34116 -27.16452 2.08832
#
# Velocity S-wave (km/s) = 3.91273 -3.64270 1.01000
# Velocity P-wave (km/s) = 6.55109 2.34705 4.92064
#
# Compressibility (1/GPa) = 0.02170601
#
# Stress axis : x y z
#
# Youngs Moduli (GPa) = 93.42334 95.42623 65.77448
#
# Poissons Ratio (x) = 0.18764 0.14544
# Poissons Ratio (y) = 0.18370 0.20804
# Poissons Ratio (z) = 0.20657 0.30182
#
# Static dielectric constant tensor:
#      x y z
#    x 3.739890 0.000000 0.000000 
#    y 0.000000 4.104050 0.000000 
#    z 0.000000 0.000000 3.867110 
# 
# 
# High freq. dielectric constant tensor:
#      x y z
#    x 1.798490 0.000000 0.000000 
#    y 0.000000 1.792350 0.000000 
#    z 0.000000 0.000000 1.794380 
# 
# From -- ./inp_files/33352.got.cif
#   From: 2010.06.25/outbox.cif.g09.slc.cpg/sg58_17_cif.got.tgz:33352.got - 2010.06.26 21:38:00.
