data_PCOD8238079
_publ_section_title
;
Structure prediction by ZEFSAII (Michael W. Deem and Ramdas Pophale) SiO2 
 PCOD8238079
Probable space group: P N N M
;
_chemical_formula_sum "Si O2"
_cell_formula_units_Z 32
_cell_length_a 8.092870
_cell_length_b 14.335271
_cell_length_c 13.107055
_cell_angle_alpha 90.000000
_cell_angle_beta 90.000000
_cell_angle_gamma 90.000000
_cell_volume 1520.595124
_symmetry_space_group_name_H-M "P N N M"
_symmetry_group_IT_number 58
_symmetry_cell_setting 'orthorhombic'
loop_
_space_group_symop_operation_xyz
x,y,z
-x,-y,z
1/2+x,1/2-y,1/2-z
1/2-x,1/2+y,1/2-z
-x,-y,-z
x,y,-z
1/2-x,1/2+y,1/2+z
1/2+x,1/2-y,1/2+z
loop_
_atom_site_type_symbol
_atom_site_label
_atom_site_fract_x
_atom_site_fract_y
_atom_site_fract_z
Si Si1 0.113312 0.316640 0.250413
Si Si2 0.675179 0.821194 0.118016
Si Si3 0.190095 0.003448 0.784014
Si Si4 0.371411 0.082531 0.610620
O O1 0.205492 0.231649 0.197350
O O2 0.236900 0.399686 0.279890
O O3 0.014711 0.292195 0.355341
O O4 0.964537 0.338097 0.172629
O O5 0.707460 0.932209 0.135754
O O6 0.710103 0.794836 0.000000
O O7 0.209115 0.047940 0.671102
O O8 0.000000 0.000000 0.816879
O O9 0.314589 0.119929 0.500000
O O10 0.500000 0.000000 0.597631
#
# Coordination Sequence:
#
# PCOD8238079 Si02
#       4
#     8   8   8   8
#     4  10  21  39  59  87 125 156 204 261 303 363
#     4  11  23  41  66  91 121 164 206 251 309 365
#     4  10  21  37  58  88 125 160 202 254 302 361
#     4   8  15  30  53  79 111 153 194 240 299 352
#
# _framework density 21.044392999999999
#
# number of rings (size 3 to 8) (size 9 to 14) (size 15 to 20)
#    0.000    2.250    0.000    4.500    0.000    4.000 
#    0.000   13.750    0.000    0.000    0.000    0.000 
#    0.000    0.000    0.000    0.000    0.000    0.000 
#
# Total GULP energy -396484.694562 kJ/mol
# GULP energy per Si atom -12390.146705 kJ/mol
# Density = 2.099650 g / cm^3
# Si number density = 21.044393 Si / 1000 Ang^3
#
#
#
# Elastic Constant Matrix: (Units=GPa)
#
#
# Indices 1 2 3 4 5 6 
#
# 1 91.1407 8.5155 40.0398 0.0000 0.0000 0.0000
# 2 8.5155 64.5860 27.6832 0.0000 0.0000 0.0000
# 3 40.0398 27.6832 99.8660 0.0000 0.0000 0.0000
# 4 0.0000 0.0000 0.0000 19.0509 0.0000 0.0000
# 5 0.0000 0.0000 0.0000 0.0000 26.9136 0.0000
# 6 0.0000 0.0000 0.0000 0.0000 0.0000 31.0629
#
#
#
# Elastic Compliance Matrix: (Units=1/GPa)
#
#
# Indices 1 2 3 4 5 6 
#
# 1 0.013339 0.000606 -0.005516 0.000000 0.000000 0.000000
# 2 0.000606 0.017598 -0.005121 0.000000 0.000000 0.000000
# 3 -0.005516 -0.005121 0.013644 0.000000 0.000000 0.000000
# 4 0.000000 0.000000 0.000000 0.052491 0.000000 0.000000
# 5 0.000000 0.000000 0.000000 0.000000 0.037156 0.000000
# 6 0.000000 0.000000 0.000000 0.000000 0.000000 0.032193
#
#
# Mechanical properties :
#
#
# Convention : Reuss Voigt Hill
#
# Bulk Modulus (GPa) = 40.78499 45.34107 43.06303
# Shear Modulus (GPa) = 25.68621 27.36241 26.52431
#
# Velocity S-wave (km/s) = 3.49746 3.60977 3.55406
# Velocity P-wave (km/s) = 5.97764 6.24229 6.11140
#
# Compressibility (1/GPa) = 0.02451883
#
# Stress axis : x y z
#
# Youngs Moduli (GPa) = 74.97002 56.82315 73.28964
#
# Poissons Ratio (x) = -0.03441 0.40425
# Poissons Ratio (y) = -0.04540 0.37533
# Poissons Ratio (z) = 0.41352 0.29100
#
# Static dielectric constant tensor:
#      x y z
#    x 3.828430 0.000000 0.000000 
#    y 0.000000 3.691190 0.000000 
#    z 0.000000 0.000000 4.125810 
# 
# 
# High freq. dielectric constant tensor:
#      x y z
#    x 1.819250 0.000000 0.000000 
#    y 0.000000 1.817030 0.000000 
#    z 0.000000 0.000000 1.815840 
# 
# From -- ./inp_files/19315.got.cif
#   From: 2010.06.25/outbox.cif.g09.slc.cpg/sg58_10_cif.got.tgz:19315.got - 2010.06.26 21:38:00.
