data_PCOD8238331
_publ_section_title
;
Structure prediction by ZEFSAII (Michael W. Deem and Ramdas Pophale) SiO2 
 PCOD8238331
Probable space group: P N N M
;
_chemical_formula_sum "Si O2"
_cell_formula_units_Z 64
_cell_length_a 15.048175
_cell_length_b 11.163021
_cell_length_c 17.019868
_cell_angle_alpha 90.000000
_cell_angle_beta 90.000000
_cell_angle_gamma 90.000000
_cell_volume 2859.050078
_symmetry_space_group_name_H-M "P N N M"
_symmetry_group_IT_number 58
_symmetry_cell_setting 'orthorhombic'
loop_
_space_group_symop_operation_xyz
x,y,z
-x,-y,z
1/2+x,1/2-y,1/2-z
1/2-x,1/2+y,1/2-z
-x,-y,-z
x,y,-z
1/2-x,1/2+y,1/2+z
1/2+x,1/2-y,1/2+z
loop_
_atom_site_type_symbol
_atom_site_label
_atom_site_fract_x
_atom_site_fract_y
_atom_site_fract_z
Si Si1 0.003550 0.860765 0.815294
Si Si2 0.611672 0.617559 0.166949
Si Si3 0.042835 0.671055 0.589358
Si Si4 0.022817 0.369453 0.089441
Si Si5 0.781512 0.427717 0.655174
Si Si6 0.658715 0.372485 0.208771
Si Si7 0.339983 0.834607 0.091318
Si Si8 0.279329 0.796919 0.412857
O O1 0.086056 0.851804 0.756206
O O2 0.021378 0.752579 0.876409
O O3 0.911909 0.823115 0.771911
O O4 0.000000 0.000000 0.848827
O O5 0.546237 0.685085 0.105373
O O6 0.607334 0.474431 0.158256
O O7 0.713652 0.655116 0.153938
O O8 0.071064 0.641082 0.500000
O O9 0.115092 0.615225 0.649295
O O10 0.943053 0.625306 0.605198
O O11 0.127922 0.360572 0.097413
O O12 0.000000 0.500000 0.128802
O O13 0.989843 0.372183 0.000000
O O14 0.746004 0.422455 0.745133
O O15 0.775399 0.559900 0.619348
O O16 0.716534 0.346522 0.600847
O O17 0.688369 0.275515 0.145406
O O18 0.324649 0.802655 0.000000
O O19 0.241187 0.822230 0.500000
#
# Coordination Sequence:
#
# PCOD8238331 Si02
#       8
#     8   8   8   8   8   8   8   8
#     4  10  21  43  63  94 135 181 231 281 348 439
#     4  10  21  40  62  94 131 173 224 278 342 421
#     4  10  21  40  68 100 136 176 225 288 364 440
#     4  10  22  44  71  99 134 177 238 307 361 417
#     4  11  22  38  66  94 138 182 228 285 349 423
#     4  11  24  41  62  95 139 181 230 284 346 428
#     4  11  24  42  65 101 142 179 230 296 361 429
#     4  10  21  41  68  96 128 175 226 281 356 426
#
# _framework density 22.385057
#
# number of rings (size 3 to 8) (size 9 to 14) (size 15 to 20)
#    0.000    1.625    2.500    2.625    3.500    2.250 
#    9.000    1.250    0.000    3.000    0.000    0.000 
#    0.000    1.000    0.000    0.000    0.000    0.000 
#
# Total GULP energy -793005.046612 kJ/mol
# GULP energy per Si atom -12390.703853 kJ/mol
# Density = 2.233411 g / cm^3
# Si number density = 22.385057 Si / 1000 Ang^3
#
#
#
# Elastic Constant Matrix: (Units=GPa)
#
#
# Indices 1 2 3 4 5 6 
#
# 1 68.9394 36.2129 44.3870 0.0000 0.0000 0.0000
# 2 36.2129 158.6528 68.8443 0.0000 0.0000 0.0000
# 3 44.3870 68.8443 101.0349 0.0000 0.0000 0.0000
# 4 0.0000 0.0000 0.0000 36.9605 0.0000 0.0000
# 5 0.0000 0.0000 0.0000 0.0000 36.8191 0.0000
# 6 0.0000 0.0000 0.0000 0.0000 0.0000 35.9178
#
#
#
# Elastic Compliance Matrix: (Units=1/GPa)
#
#
# Indices 1 2 3 4 5 6 
#
# 1 0.020358 -0.001087 -0.008203 0.000000 0.000000 0.000000
# 2 -0.001087 0.009007 -0.005660 0.000000 0.000000 0.000000
# 3 -0.008203 -0.005660 0.017358 0.000000 0.000000 0.000000
# 4 0.000000 0.000000 0.000000 0.027056 0.000000 0.000000
# 5 0.000000 0.000000 0.000000 0.000000 0.027160 0.000000
# 6 0.000000 0.000000 0.000000 0.000000 0.000000 0.027841
#
#
# Mechanical properties :
#
#
# Convention : Reuss Voigt Hill
#
# Bulk Modulus (GPa) = 59.44176 69.72393 64.58285
# Shear Modulus (GPa) = 30.43441 33.88503 32.15972
#
# Velocity S-wave (km/s) = 3.69126 3.89489 3.79444
# Velocity P-wave (km/s) = 6.69171 7.17231 6.93618
#
# Compressibility (1/GPa) = 0.01682319
#
# Stress axis : x y z
#
# Youngs Moduli (GPa) = 49.12049 111.02251 57.61103
#
# Poissons Ratio (x) = 0.12071 0.47258
# Poissons Ratio (y) = 0.05341 0.32606
# Poissons Ratio (z) = 0.40293 0.62836
#
# Static dielectric constant tensor:
#      x y z
#    x 3.869970 0.000000 0.000000 
#    y 0.000000 4.431350 0.000000 
#    z 0.000000 0.000000 3.952140 
# 
# 
# High freq. dielectric constant tensor:
#      x y z
#    x 1.870590 0.000000 0.000000 
#    y 0.000000 1.892900 0.000000 
#    z 0.000000 0.000000 1.861090 
# 
# From -- ./inp_files/27030.got.cif
#   From: 2010.06.25/outbox.cif.g09.slc.cpg/sg58_14_cif.got.tgz:27030.got - 2010.06.26 21:38:00.
