data_PCOD8238126
_publ_section_title
;
Structure prediction by ZEFSAII (Michael W. Deem and Ramdas Pophale) SiO2 
 PCOD8238126
Probable space group: P N N M
;
_chemical_formula_sum "Si O2"
_cell_formula_units_Z 56
_cell_length_a 13.833673
_cell_length_b 13.539349
_cell_length_c 14.056249
_cell_angle_alpha 90.000000
_cell_angle_beta 90.000000
_cell_angle_gamma 90.000000
_cell_volume 2632.720351
_symmetry_space_group_name_H-M "P N N M"
_symmetry_group_IT_number 58
_symmetry_cell_setting 'orthorhombic'
loop_
_space_group_symop_operation_xyz
x,y,z
-x,-y,z
1/2+x,1/2-y,1/2-z
1/2-x,1/2+y,1/2-z
-x,-y,-z
x,y,-z
1/2-x,1/2+y,1/2+z
1/2+x,1/2-y,1/2+z
loop_
_atom_site_type_symbol
_atom_site_label
_atom_site_fract_x
_atom_site_fract_y
_atom_site_fract_z
Si Si1 0.095067 0.948225 0.246253
Si Si2 0.197551 0.244321 0.896231
Si Si3 0.162142 0.782758 0.891590
Si Si4 0.763556 0.884457 0.265397
Si Si5 0.942261 0.412647 0.702158
Si Si6 0.009341 0.354514 0.102697
Si Si7 0.418658 0.289048 0.108478
O O1 0.158231 0.883637 0.170278
O O2 0.047344 0.881329 0.329245
O O3 0.169109 0.025020 0.298928
O O4 0.000000 0.000000 0.199219
O O5 0.169954 0.168141 0.813932
O O6 0.303718 0.286867 0.878476
O O7 0.123198 0.334335 0.891421
O O8 0.192668 0.192302 0.000000
O O9 0.229995 0.695153 0.845909
O O10 0.051517 0.747011 0.891448
O O11 0.198549 0.803287 0.000000
O O12 0.672272 0.929166 0.207416
O O13 0.980570 0.421992 0.810061
O O14 0.967495 0.310142 0.650199
O O15 0.000000 0.500000 0.646599
O O16 0.985632 0.405455 0.000000
O O17 0.452000 0.302071 0.000000
#
# Coordination Sequence:
#
# PCOD8238126 Si02
#       7
#     8   8   8   8   8   8   8
#     4  12  24  41  68  96 125 174 218 263 322 382
#     4   9  17  34  61  86 118 161 205 253 307 365
#     4  10  21  42  63  95 136 164 205 270 330 386
#     4  10  22  38  61  92 129 166 207 257 317 383
#     4  10  21  37  61  90 123 164 205 261 320 378
#     4   9  17  32  60  92 121 158 200 252 321 378
#     4  10  22  42  60  86 128 167 217 266 305 372
#
# _framework density 21.270775
#
# number of rings (size 3 to 8) (size 9 to 14) (size 15 to 20)
#    0.000    2.000    4.286    0.857    2.000    2.286 
#    0.000    0.000    0.000    0.000    0.000    0.000 
#    0.000    0.000    0.000    0.000    0.000    0.000 
#
# Total GULP energy -693745.411567 kJ/mol
# GULP energy per Si atom -12388.310921 kJ/mol
# Density = 2.122236 g / cm^3
# Si number density = 21.270775 Si / 1000 Ang^3
#
#
#
# Elastic Constant Matrix: (Units=GPa)
#
#
# Indices 1 2 3 4 5 6 
#
# 1 55.2817 39.4032 14.6329 0.0000 0.0000 0.0000
# 2 39.4032 120.4478 47.5997 0.0000 0.0000 0.0000
# 3 14.6329 47.5997 118.7294 0.0000 0.0000 0.0000
# 4 0.0000 0.0000 0.0000 2.6503 0.0000 0.0000
# 5 0.0000 0.0000 0.0000 0.0000 19.0078 0.0000
# 6 0.0000 0.0000 0.0000 0.0000 0.0000 35.4726
#
#
#
# Elastic Compliance Matrix: (Units=1/GPa)
#
#
# Indices 1 2 3 4 5 6 
#
# 1 0.023595 -0.007806 0.000222 0.000000 0.000000 0.000000
# 2 -0.007806 0.012448 -0.004028 0.000000 0.000000 0.000000
# 3 0.000222 -0.004028 0.010010 0.000000 0.000000 0.000000
# 4 0.000000 0.000000 0.000000 0.377321 0.000000 0.000000
# 5 0.000000 0.000000 0.000000 0.000000 0.052610 0.000000
# 6 0.000000 0.000000 0.000000 0.000000 0.000000 0.028191
#
#
# Mechanical properties :
#
#
# Convention : Reuss Voigt Hill
#
# Bulk Modulus (GPa) = 43.80824 55.30339 49.55581
# Shear Modulus (GPa) = 9.34563 24.28100 16.81331
#
# Velocity S-wave (km/s) = 2.09838 3.38230 2.81453
# Velocity P-wave (km/s) = 5.14890 6.42724 5.82325
#
# Compressibility (1/GPa) = 0.02282676
#
# Stress axis : x y z
#
# Youngs Moduli (GPa) = 42.38256 80.33341 99.89775
#
# Poissons Ratio (x) = 0.62711 -0.02215
# Poissons Ratio (y) = 0.33085 0.40243
# Poissons Ratio (z) = -0.00940 0.32362
#
# Static dielectric constant tensor:
#      x y z
#    x 3.715940 0.000000 0.000000 
#    y 0.000000 3.729530 0.000000 
#    z 0.000000 0.000000 3.999410 
# 
# 
# High freq. dielectric constant tensor:
#      x y z
#    x 1.822360 0.000000 0.000000 
#    y 0.000000 1.823510 0.000000 
#    z 0.000000 0.000000 1.828280 
# 
# From -- ./inp_files/22179.got.cif
#   From: 2010.06.25/outbox.cif.g09.slc.cpg/sg58_12_cif.got.tgz:22179.got - 2010.06.26 21:38:00.
