data_PCOD8238811
_publ_section_title
;
Structure prediction by ZEFSAII (Michael W. Deem and Ramdas Pophale) SiO2 
 PCOD8238811
Probable space group: P N N M
;
_chemical_formula_sum "Si O2"
_cell_formula_units_Z 36
_cell_length_a 20.622002
_cell_length_b 9.158977
_cell_length_c 9.546137
_cell_angle_alpha 90.000000
_cell_angle_beta 90.000000
_cell_angle_gamma 90.000000
_cell_volume 1803.040392
_symmetry_space_group_name_H-M "P N N M"
_symmetry_group_IT_number 58
_symmetry_cell_setting 'orthorhombic'
loop_
_space_group_symop_operation_xyz
x,y,z
-x,-y,z
1/2+x,1/2-y,1/2-z
1/2-x,1/2+y,1/2-z
-x,-y,-z
x,y,-z
1/2-x,1/2+y,1/2+z
1/2+x,1/2-y,1/2+z
loop_
_atom_site_type_symbol
_atom_site_label
_atom_site_fract_x
_atom_site_fract_y
_atom_site_fract_z
Si Si1 0.318400 0.058780 0.500000
Si Si2 0.578195 0.006039 0.000000
Si Si3 0.446029 0.874464 0.500000
Si Si4 0.999219 0.840142 0.212396
Si Si5 0.679376 0.583058 0.000000
Si Si6 0.071414 0.166033 0.500000
Si Si7 0.867781 0.296006 0.268954
O O1 0.321757 0.153815 0.358015
O O2 0.375265 0.940941 0.500000
O O3 0.251013 0.976915 0.500000
O O4 0.606558 0.931335 0.861086
O O5 0.500000 0.000000 0.000000
O O6 0.602550 0.172724 0.000000
O O7 0.451616 0.771855 0.364528
O O8 0.500000 0.000000 0.500000
O O9 0.976623 0.855266 0.371096
O O10 0.071381 0.780924 0.198114
O O11 0.000000 0.000000 0.141427
O O12 0.628349 0.451439 0.000000
O O13 0.671350 0.680950 0.137911
#
# Coordination Sequence:
#
# PCOD8238811 Si02
#       7
#     4   4   4   8   4   4   8
#     4  12  27  45  71  98 141 182 231 276 338 413
#     4  11  21  35  69 105 137 175 224 281 339 400
#     4  12  25  41  65  99 133 172 220 284 343 393
#     4  12  22  39  68 102 134 168 225 286 345 388
#     4  11  27  49  65  95 144 187 226 271 333 420
#     4  12  22  37  70 100 129 175 231 275 329 397
#     4  11  23  44  69  99 137 181 225 286 340 394
#
# _framework density 19.966273999999999
#
# number of rings (size 3 to 8) (size 9 to 14) (size 15 to 20)
#    0.000    0.444    6.667    2.667    0.000    3.556 
#    0.000    1.111    0.000    0.000    0.000    0.000 
#    0.000    0.000    0.000    0.000    0.000    0.000 
#
# Total GULP energy -446529.082142 kJ/mol
# GULP energy per Si atom -12403.585615 kJ/mol
# Density = 1.992083 g / cm^3
# Si number density = 19.966274 Si / 1000 Ang^3
#
#
#
# Elastic Constant Matrix: (Units=GPa)
#
#
# Indices 1 2 3 4 5 6 
#
# 1 115.9746 46.7503 41.3616 0.0000 0.0000 0.0000
# 2 46.7503 155.6384 53.6762 0.0000 0.0000 0.0000
# 3 41.3616 53.6762 127.0076 0.0000 0.0000 0.0000
# 4 0.0000 0.0000 0.0000 19.7526 0.0000 0.0000
# 5 0.0000 0.0000 0.0000 0.0000 23.9588 0.0000
# 6 0.0000 0.0000 0.0000 0.0000 0.0000 40.4867
#
#
#
# Elastic Compliance Matrix: (Units=1/GPa)
#
#
# Indices 1 2 3 4 5 6 
#
# 1 0.010410 -0.002292 -0.002422 0.000000 0.000000 0.000000
# 2 -0.002292 0.008026 -0.002646 0.000000 0.000000 0.000000
# 3 -0.002422 -0.002646 0.009780 0.000000 0.000000 0.000000
# 4 0.000000 0.000000 0.000000 0.050626 0.000000 0.000000
# 5 0.000000 0.000000 0.000000 0.000000 0.041738 0.000000
# 6 0.000000 0.000000 0.000000 0.000000 0.000000 0.024699
#
#
# Mechanical properties :
#
#
# Convention : Reuss Voigt Hill
#
# Bulk Modulus (GPa) = 74.08344 75.79965 74.94155
# Shear Modulus (GPa) = 30.39554 33.96178 32.17866
#
# Velocity S-wave (km/s) = 3.90596 4.12874 4.01889
# Velocity P-wave (km/s) = 7.58464 7.79583 7.69096
#
# Compressibility (1/GPa) = 0.01349829
#
# Stress axis : x y z
#
# Youngs Moduli (GPa) = 96.06084 124.59575 102.24682
#
# Poissons Ratio (x) = 0.28555 0.24760
# Poissons Ratio (y) = 0.22015 0.27050
# Poissons Ratio (z) = 0.23262 0.32963
#
# Static dielectric constant tensor:
#      x y z
#    x 3.526490 0.000000 0.000000 
#    y 0.000000 3.614850 0.000000 
#    z 0.000000 0.000000 3.896030 
# 
# 
# High freq. dielectric constant tensor:
#      x y z
#    x 1.753110 0.000000 0.000000 
#    y 0.000000 1.804030 0.000000 
#    z 0.000000 0.000000 1.795970 
# 
# From -- ./inp_files/8699.got.cif
#   From: 2010.06.25/outbox.cif.g09.slc.cpg/sg58_5_cif.got.tgz:8699.got - 2010.06.26 21:38:00.
