data_PCOD8238158
_publ_section_title
;
Structure prediction by ZEFSAII (Michael W. Deem and Ramdas Pophale) SiO2 
 PCOD8238158
Probable space group: P N N M
;
_chemical_formula_sum "Si O2"
_cell_formula_units_Z 64
_cell_length_a 14.266426
_cell_length_b 25.119803
_cell_length_c 9.006896
_cell_angle_alpha 90.000000
_cell_angle_beta 90.000000
_cell_angle_gamma 90.000000
_cell_volume 3227.799614
_symmetry_space_group_name_H-M "P N N M"
_symmetry_group_IT_number 58
_symmetry_cell_setting 'orthorhombic'
loop_
_space_group_symop_operation_xyz
x,y,z
-x,-y,z
1/2+x,1/2-y,1/2-z
1/2-x,1/2+y,1/2-z
-x,-y,-z
x,y,-z
1/2-x,1/2+y,1/2+z
1/2+x,1/2-y,1/2+z
loop_
_atom_site_type_symbol
_atom_site_label
_atom_site_fract_x
_atom_site_fract_y
_atom_site_fract_z
Si Si1 0.642500 0.098210 0.330869
Si Si2 0.314895 0.337596 0.166800
Si Si3 0.234392 0.988930 0.825721
Si Si4 0.933027 0.080542 0.171563
Si Si5 0.764986 0.391257 0.323977
Si Si6 0.041228 0.756196 0.332558
Si Si7 0.048162 0.649018 0.825005
Si Si8 0.584377 0.359401 0.828010
O O1 0.638886 0.079342 0.500000
O O2 0.703582 0.153104 0.315892
O O3 0.687274 0.049536 0.242660
O O4 0.538371 0.111666 0.274755
O O5 0.363019 0.371012 0.296794
O O6 0.350168 0.276686 0.184352
O O7 0.347182 0.357048 0.000000
O O8 0.126783 0.972322 0.784975
O O9 0.251378 0.048333 0.767436
O O10 0.248853 0.984819 0.000000
O O11 0.026931 0.088997 0.267616
O O12 0.963053 0.079561 0.000000
O O13 0.762542 0.386868 0.500000
O O14 0.863069 0.369899 0.266231
O O15 0.682690 0.354984 0.257035
O O16 0.023982 0.735263 0.500000
O O17 0.023095 0.709638 0.216190
O O18 0.972457 0.805347 0.296249
O O19 0.066628 0.645408 0.000000
O O20 0.604443 0.368182 0.000000
#
# Coordination Sequence:
#
# PCOD8238158 Si02
#       8
#     8   8   8   8   8   8   8   8
#     4   9  19  36  58  81 107 142 183 230 282 334
#     4   8  15  31  54  80 108 138 177 224 273 326
#     4   9  20  37  58  84 112 145 187 233 278 330
#     4   9  16  30  54  84 114 143 179 222 271 328
#     4  11  24  41  58  79 112 152 190 231 281 331
#     4   9  19  36  58  83 112 145 179 221 276 334
#     4  11  24  39  55  81 113 146 191 238 279 331
#     4  10  21  38  59  86 118 149 185 228 277 337
#
# _framework density 19.827748
#
# number of rings (size 3 to 8) (size 9 to 14) (size 15 to 20)
#    0.000    2.500    0.000    2.250    0.000    7.000 
#    0.000    6.250    0.000    0.000    0.000    0.000 
#    0.000    0.000    0.000    0.000    0.000    0.000 
#
# Total GULP energy -793237.293302 kJ/mol
# GULP energy per Si atom -12394.332708 kJ/mol
# Density = 1.978262 g / cm^3
# Si number density = 19.827748 Si / 1000 Ang^3
#
#
#
# Elastic Constant Matrix: (Units=GPa)
#
#
# Indices 1 2 3 4 5 6 
#
# 1 114.8241 23.4926 37.5364 0.0000 0.0000 0.0000
# 2 23.4926 67.5103 30.0404 0.0000 0.0000 0.0000
# 3 37.5364 30.0404 68.1073 0.0000 0.0000 0.0000
# 4 0.0000 0.0000 0.0000 26.6628 0.0000 0.0000
# 5 0.0000 0.0000 0.0000 0.0000 32.4462 0.0000
# 6 0.0000 0.0000 0.0000 0.0000 0.0000 23.0080
#
#
#
# Elastic Compliance Matrix: (Units=1/GPa)
#
#
# Indices 1 2 3 4 5 6 
#
# 1 0.010724 -0.001371 -0.005306 0.000000 0.000000 0.000000
# 2 -0.001371 0.018605 -0.007451 0.000000 0.000000 0.000000
# 3 -0.005306 -0.007451 0.020893 0.000000 0.000000 0.000000
# 4 0.000000 0.000000 0.000000 0.037505 0.000000 0.000000
# 5 0.000000 0.000000 0.000000 0.000000 0.030820 0.000000
# 6 0.000000 0.000000 0.000000 0.000000 0.000000 0.043463
#
#
# Mechanical properties :
#
#
# Convention : Reuss Voigt Hill
#
# Bulk Modulus (GPa) = 45.52150 48.06450 46.79300
# Shear Modulus (GPa) = 25.30519 27.04820 26.17669
#
# Velocity S-wave (km/s) = 3.57634 3.69746 3.63740
# Velocity P-wave (km/s) = 6.32945 6.52088 6.42588
#
# Compressibility (1/GPa) = 0.02196764
#
# Stress axis : x y z
#
# Youngs Moduli (GPa) = 93.24975 53.74913 47.86252
#
# Poissons Ratio (x) = 0.07368 0.25394
# Poissons Ratio (y) = 0.12783 0.35661
# Poissons Ratio (z) = 0.49475 0.40047
#
# Static dielectric constant tensor:
#      x y z
#    x 3.722040 0.000000 0.000000 
#    y 0.000000 3.523350 0.000000 
#    z 0.000000 0.000000 3.556910 
# 
# 
# High freq. dielectric constant tensor:
#      x y z
#    x 1.775920 0.000000 0.000000 
#    y 0.000000 1.755710 0.000000 
#    z 0.000000 0.000000 1.773570 
# 
# From -- ./inp_files/6742.got.cif
#   From: 2010.06.25/outbox.cif.g09.slc.cpg/sg58_4_cif.got.tgz:6742.got - 2010.06.26 21:38:00.
