data_PCOD8238211
_publ_section_title
;
Structure prediction by ZEFSAII (Michael W. Deem and Ramdas Pophale) SiO2 
 PCOD8238211
Probable space group: P N N M
;
_chemical_formula_sum "Si O2"
_cell_formula_units_Z 56
_cell_length_a 21.493464
_cell_length_b 9.437861
_cell_length_c 14.308714
_cell_angle_alpha 90.000000
_cell_angle_beta 90.000000
_cell_angle_gamma 90.000000
_cell_volume 2902.555912
_symmetry_space_group_name_H-M "P N N M"
_symmetry_group_IT_number 58
_symmetry_cell_setting 'orthorhombic'
loop_
_space_group_symop_operation_xyz
x,y,z
-x,-y,z
1/2+x,1/2-y,1/2-z
1/2-x,1/2+y,1/2-z
-x,-y,-z
x,y,-z
1/2-x,1/2+y,1/2+z
1/2+x,1/2-y,1/2+z
loop_
_atom_site_type_symbol
_atom_site_label
_atom_site_fract_x
_atom_site_fract_y
_atom_site_fract_z
Si Si1 0.245156 0.082338 0.107933
Si Si2 0.071418 0.697197 0.750116
Si Si3 0.386711 0.967319 0.607839
Si Si4 0.382121 0.978613 0.891034
Si Si5 0.071186 0.249690 0.252414
Si Si6 0.253045 0.401967 0.106834
Si Si7 0.350259 0.476169 0.748961
O O1 0.308838 0.998479 0.126275
O O2 0.248965 0.242326 0.147808
O O3 0.189605 0.997860 0.155859
O O4 0.227686 0.089402 0.000000
O O5 0.079616 0.596698 0.840220
O O6 0.081439 0.609888 0.654761
O O7 0.002798 0.759631 0.746895
O O8 0.120505 0.821987 0.756684
O O9 0.407727 0.965470 0.500000
O O10 0.406828 0.820196 0.655449
O O11 0.312398 0.982814 0.617378
O O12 0.402964 0.834201 0.841884
O O13 0.399142 0.973241 0.000000
O O14 0.095658 0.090745 0.258721
O O15 0.304406 0.490239 0.162665
O O16 0.275289 0.396360 0.000000
#
# Coordination Sequence:
#
# PCOD8238211 Si02
#       7
#     8   8   8   8   8   8   8
#     4  10  21  38  62  90 119 152 193 243 302 358
#     4  11  24  39  58  87 119 158 204 241 285 352
#     4  10  21  40  64  87 114 153 200 248 294 346
#     4  10  21  40  64  87 114 153 200 248 294 346
#     4  11  24  39  58  87 119 158 204 241 285 352
#     4  10  21  38  62  90 119 152 193 243 302 358
#     4  12  23  38  62  86 125 158 188 242 310 348
#
# _framework density 19.293340000000001
#
# number of rings (size 3 to 8) (size 9 to 14) (size 15 to 20)
#    0.000    1.429    2.857    3.857    0.000    3.429 
#    0.000    2.857    0.000    5.143    0.000    0.000 
#    0.000    0.000    0.000    0.000    0.000    0.000 
#
# Total GULP energy -694671.422595 kJ/mol
# GULP energy per Si atom -12404.846832 kJ/mol
# Density = 1.924943 g / cm^3
# Si number density = 19.293340 Si / 1000 Ang^3
#
#
#
# Elastic Constant Matrix: (Units=GPa)
#
#
# Indices 1 2 3 4 5 6 
#
# 1 78.3764 -6.3619 28.0396 0.0000 0.0000 0.0000
# 2 -6.3619 41.1143 18.8929 0.0000 0.0000 0.0000
# 3 28.0396 18.8929 113.7821 0.0000 0.0000 0.0000
# 4 0.0000 0.0000 0.0000 5.9237 0.0000 0.0000
# 5 0.0000 0.0000 0.0000 0.0000 15.4533 0.0000
# 6 0.0000 0.0000 0.0000 0.0000 0.0000 33.5965
#
#
#
# Elastic Compliance Matrix: (Units=1/GPa)
#
#
# Indices 1 2 3 4 5 6 
#
# 1 0.014648 0.004250 -0.004315 0.000000 0.000000 0.000000
# 2 0.004250 0.027564 -0.005624 0.000000 0.000000 0.000000
# 3 -0.004315 -0.005624 0.010786 0.000000 0.000000 0.000000
# 4 0.000000 0.000000 0.000000 0.168813 0.000000 0.000000
# 5 0.000000 0.000000 0.000000 0.000000 0.064711 0.000000
# 6 0.000000 0.000000 0.000000 0.000000 0.000000 0.029765
#
#
# Mechanical properties :
#
#
# Convention : Reuss Voigt Hill
#
# Bulk Modulus (GPa) = 24.02788 34.93489 29.48138
# Shear Modulus (GPa) = 14.63959 23.84151 19.24055
#
# Velocity S-wave (km/s) = 2.75760 3.51912 3.16137
# Velocity P-wave (km/s) = 4.75607 5.88717 5.35159
#
# Compressibility (1/GPa) = 0.04161832
#
# Stress axis : x y z
#
# Youngs Moduli (GPa) = 68.27014 36.27863 92.71269
#
# Poissons Ratio (x) = -0.15417 0.40008
# Poissons Ratio (y) = -0.29011 0.52143
# Poissons Ratio (z) = 0.29460 0.20404
#
# Static dielectric constant tensor:
#      x y z
#    x 3.555800 0.000000 0.000000 
#    y 0.000000 3.467960 0.000000 
#    z 0.000000 0.000000 3.634700 
# 
# 
# High freq. dielectric constant tensor:
#      x y z
#    x 1.760480 0.000000 0.000000 
#    y 0.000000 1.744130 0.000000 
#    z 0.000000 0.000000 1.753550 
# 
# From -- ./inp_files/20112.got.cif
#   From: 2010.06.25/outbox.cif.g09.slc.cpg/sg58_11_cif.got.tgz:20112.got - 2010.06.26 21:38:00.
