data_PCOD8238652
_publ_section_title
;
Structure prediction by ZEFSAII (Michael W. Deem and Ramdas Pophale) SiO2 
 PCOD8238652
Probable space group: P N N M
;
_chemical_formula_sum "Si O2"
_cell_formula_units_Z 48
_cell_length_a 15.481366
_cell_length_b 18.580446
_cell_length_c 7.854171
_cell_angle_alpha 90.000000
_cell_angle_beta 90.000000
_cell_angle_gamma 90.000000
_cell_volume 2259.257668
_symmetry_space_group_name_H-M "P N N M"
_symmetry_group_IT_number 58
_symmetry_cell_setting 'orthorhombic'
loop_
_space_group_symop_operation_xyz
x,y,z
-x,-y,z
1/2+x,1/2-y,1/2-z
1/2-x,1/2+y,1/2-z
-x,-y,-z
x,y,-z
1/2-x,1/2+y,1/2+z
1/2+x,1/2-y,1/2+z
loop_
_atom_site_type_symbol
_atom_site_label
_atom_site_fract_x
_atom_site_fract_y
_atom_site_fract_z
Si Si1 0.089841 0.527232 0.804577
Si Si2 0.376142 0.183135 0.808566
Si Si3 0.042184 0.226653 0.300495
Si Si4 0.637055 0.512866 0.500000
Si Si5 0.729256 0.217797 0.192035
Si Si6 0.977070 0.882221 0.000000
Si Si7 0.746448 0.563512 0.188948
O O1 0.125926 0.597465 0.710747
O O2 0.155473 0.461444 0.781804
O O3 0.000000 0.500000 0.722796
O O4 0.075401 0.549136 0.000000
O O5 0.472025 0.211264 0.763296
O O6 0.301708 0.220019 0.696007
O O7 0.351994 0.203767 0.000000
O O8 0.040638 0.202371 0.500000
O O9 0.136681 0.253758 0.244681
O O10 0.018725 0.161706 0.175549
O O11 0.559275 0.567648 0.500000
O O12 0.609098 0.429896 0.500000
O O13 0.689364 0.524167 0.327814
O O14 0.758610 0.149813 0.302679
O O15 0.720030 0.189796 0.000000
O O16 0.714418 0.540527 0.000000
#
# Coordination Sequence:
#
# PCOD8238652 Si02
#       7
#     8   8   8   4   8   4   8
#     4  10  23  41  63  94 133 175 216 265 334 402
#     4  11  24  40  65  98 131 171 217 269 330 394
#     4  10  25  43  64  99 135 166 223 277 330 392
#     4  11  26  46  65  98 128 176 231 271 331 402
#     4  11  23  41  66  95 130 173 218 272 326 392
#     4  11  26  44  72  90 129 182 220 277 338 387
#     4  11  24  42  67  96 136 174 221 274 330 396
#
# _framework density 21.245916000000001
#
# number of rings (size 3 to 8) (size 9 to 14) (size 15 to 20)
#    0.000    1.333    0.833    3.000    8.167    3.000 
#    0.000    1.667    0.000    0.000    0.000    0.000 
#    0.000    0.000    0.000    0.000    0.000    0.000 
#
# Total GULP energy -595369.539548 kJ/mol
# GULP energy per Si atom -12403.532074 kJ/mol
# Density = 2.119756 g / cm^3
# Si number density = 21.245916 Si / 1000 Ang^3
#
#
#
# Elastic Constant Matrix: (Units=GPa)
#
#
# Indices 1 2 3 4 5 6 
#
# 1 100.1620 20.3855 21.0072 0.0000 0.0000 0.0000
# 2 20.3855 99.5286 21.9812 0.0000 0.0000 0.0000
# 3 21.0072 21.9812 93.6636 0.0000 0.0000 0.0000
# 4 0.0000 0.0000 0.0000 27.7470 0.0000 0.0000
# 5 0.0000 0.0000 0.0000 0.0000 97.2020 0.0000
# 6 0.0000 0.0000 0.0000 0.0000 0.0000 33.4027
#
#
#
# Elastic Compliance Matrix: (Units=1/GPa)
#
#
# Indices 1 2 3 4 5 6 
#
# 1 0.010762 -0.001763 -0.002000 0.000000 0.000000 0.000000
# 2 -0.001763 0.010885 -0.002159 0.000000 0.000000 0.000000
# 3 -0.002000 -0.002159 0.011632 0.000000 0.000000 0.000000
# 4 0.000000 0.000000 0.000000 0.036040 0.000000 0.000000
# 5 0.000000 0.000000 0.000000 0.000000 0.010288 0.000000
# 6 0.000000 0.000000 0.000000 0.000000 0.000000 0.029938
#
#
# Mechanical properties :
#
#
# Convention : Reuss Voigt Hill
#
# Bulk Modulus (GPa) = 46.65209 46.67801 46.66505
# Shear Modulus (GPa) = 38.90032 47.00234 42.95133
#
# Velocity S-wave (km/s) = 4.28361 4.70861 4.50113
# Velocity P-wave (km/s) = 6.81700 7.18188 7.00182
#
# Compressibility (1/GPa) = 0.02143527
#
# Stress axis : x y z
#
# Youngs Moduli (GPa) = 92.91917 91.86738 85.97091
#
# Poissons Ratio (x) = 0.16192 0.17195
# Poissons Ratio (y) = 0.16378 0.18563
# Poissons Ratio (z) = 0.18585 0.19837
#
# Static dielectric constant tensor:
#      x y z
#    x 3.986580 0.000000 0.000000 
#    y 0.000000 3.736310 0.000000 
#    z 0.000000 0.000000 3.865690 
# 
# 
# High freq. dielectric constant tensor:
#      x y z
#    x 1.843110 0.000000 0.000000 
#    y 0.000000 1.830830 0.000000 
#    z 0.000000 0.000000 1.841520 
# 
# From -- ./inp_files/5927.got.cif
#   From: 2010.06.25/outbox.cif.g09.slc.cpg/sg58_3_cif.got.tgz:5927.got - 2010.06.26 21:38:00.
