data_PCOD8238795
_publ_section_title
;
Structure prediction by ZEFSAII (Michael W. Deem and Ramdas Pophale) SiO2 
 PCOD8238795
Probable space group: P N N M
;
_chemical_formula_sum "Si O2"
_cell_formula_units_Z 64
_cell_length_a 30.010021
_cell_length_b 14.377196
_cell_length_c 8.531399
_cell_angle_alpha 90.000000
_cell_angle_beta 90.000000
_cell_angle_gamma 90.000000
_cell_volume 3680.957019
_symmetry_space_group_name_H-M "P N N M"
_symmetry_group_IT_number 58
_symmetry_cell_setting 'orthorhombic'
loop_
_space_group_symop_operation_xyz
x,y,z
-x,-y,z
1/2+x,1/2-y,1/2-z
1/2-x,1/2+y,1/2-z
-x,-y,-z
x,y,-z
1/2-x,1/2+y,1/2+z
1/2+x,1/2-y,1/2+z
loop_
_atom_site_type_symbol
_atom_site_label
_atom_site_fract_x
_atom_site_fract_y
_atom_site_fract_z
Si Si1 0.135124 0.830880 0.818505
Si Si2 0.706759 0.185873 0.816849
Si Si3 0.450079 0.391470 0.183565
Si Si4 0.674591 0.489701 0.824817
Si Si5 0.778263 0.491549 0.821719
Si Si6 0.135799 0.185343 0.179499
Si Si7 0.292213 0.206243 0.816660
Si Si8 0.550448 0.393961 0.816632
O O1 0.082434 0.821555 0.778966
O O2 0.163357 0.740637 0.771686
O O3 0.150935 0.914386 0.709985
O O4 0.142538 0.852913 0.000000
O O5 0.660476 0.238720 0.785905
O O6 0.747892 0.240942 0.739953
O O7 0.699046 0.083296 0.748215
O O8 0.716759 0.180358 0.000000
O O9 0.437491 0.498814 0.221038
O O10 0.500426 0.371490 0.240635
O O11 0.445852 0.371581 0.000000
O O12 0.726233 0.510168 0.813801
O O13 0.660725 0.412564 0.700196
O O14 0.660959 0.456173 0.000000
O O15 0.790044 0.402973 0.717096
O O16 0.794298 0.474970 0.000000
O O17 0.084176 0.174801 0.227788
O O18 0.139151 0.216586 0.000000
O O19 0.297294 0.224174 0.000000
O O20 0.554633 0.375705 0.000000
#
# Coordination Sequence:
#
# PCOD8238795 Si02
#       8
#     8   8   8   8   8   8   8   8
#     4  12  23  34  52  79 109 143 182 223 266 317
#     4  12  24  38  56  78 106 143 183 223 266 318
#     4   9  18  33  53  76 106 143 179 218 267 321
#     4  11  21  33  52  74 106 145 181 221 265 315
#     4  11  23  39  57  78 106 141 180 228 271 313
#     4  12  23  34  52  79 109 143 182 223 266 317
#     4  12  24  38  56  78 106 143 183 223 266 318
#     4   9  18  33  53  76 106 143 179 218 267 321
#
# _framework density 17.386780999999999
#
# number of rings (size 3 to 8) (size 9 to 14) (size 15 to 20)
#    0.000    1.000    3.750    6.000    0.000    1.500 
#    0.000    1.250    0.000    0.000    0.000    0.875 
#    0.000    7.000    0.000    0.000    0.000    0.000 
#
# Total GULP energy -793734.283454 kJ/mol
# GULP energy per Si atom -12402.098179 kJ/mol
# Density = 1.734721 g / cm^3
# Si number density = 17.386781 Si / 1000 Ang^3
#
#
#
# Elastic Constant Matrix: (Units=GPa)
#
#
# Indices 1 2 3 4 5 6 
#
# 1 99.6174 35.5527 35.4710 0.0000 0.0000 0.0000
# 2 35.5527 66.2955 10.7489 0.0000 0.0000 0.0000
# 3 35.4710 10.7489 73.4839 0.0000 0.0000 0.0000
# 4 0.0000 0.0000 0.0000 25.7281 0.0000 0.0000
# 5 0.0000 0.0000 0.0000 0.0000 23.1665 0.0000
# 6 0.0000 0.0000 0.0000 0.0000 0.0000 13.9235
#
#
#
# Elastic Compliance Matrix: (Units=1/GPa)
#
#
# Indices 1 2 3 4 5 6 
#
# 1 0.014652 -0.006874 -0.006067 0.000000 0.000000 0.000000
# 2 -0.006874 0.018675 0.000586 0.000000 0.000000 0.000000
# 3 -0.006067 0.000586 0.016451 0.000000 0.000000 0.000000
# 4 0.000000 0.000000 0.000000 0.038868 0.000000 0.000000
# 5 0.000000 0.000000 0.000000 0.000000 0.043166 0.000000
# 6 0.000000 0.000000 0.000000 0.000000 0.000000 0.071821
#
#
# Mechanical properties :
#
#
# Convention : Reuss Voigt Hill
#
# Bulk Modulus (GPa) = 39.88961 44.77135 42.33048
# Shear Modulus (GPa) = 21.12392 23.07192 22.09792
#
# Velocity S-wave (km/s) = 3.48938 3.64673 3.56892
# Velocity P-wave (km/s) = 6.26312 6.59830 6.43290
#
# Compressibility (1/GPa) = 0.02506919
#
# Stress axis : x y z
#
# Youngs Moduli (GPa) = 68.25046 53.54703 60.78564
#
# Poissons Ratio (x) = 0.36807 0.36879
# Poissons Ratio (y) = 0.46914 -0.03564
# Poissons Ratio (z) = 0.41408 -0.03139
#
# Static dielectric constant tensor:
#      x y z
#    x 3.474270 0.000000 0.000000 
#    y 0.000000 3.124840 0.000000 
#    z 0.000000 0.000000 3.254270 
# 
# 
# High freq. dielectric constant tensor:
#      x y z
#    x 1.669200 0.000000 0.000000 
#    y 0.000000 1.640940 0.000000 
#    z 0.000000 0.000000 1.682970 
# 
# From -- ./inp_files/11137.got.cif
#   From: 2010.06.25/outbox.cif.g09.slc.cpg/sg58_6_cif.got.tgz:11137.got - 2010.06.26 21:38:00.
