data_PCOD8238122
_publ_section_title
;
Structure prediction by ZEFSAII (Michael W. Deem and Ramdas Pophale) SiO2 
 PCOD8238122
Probable space group: P N N M
;
_chemical_formula_sum "Si O2"
_cell_formula_units_Z 48
_cell_length_a 9.131951
_cell_length_b 7.504683
_cell_length_c 32.759238
_cell_angle_alpha 90.000000
_cell_angle_beta 90.000000
_cell_angle_gamma 90.000000
_cell_volume 2245.069118
_symmetry_space_group_name_H-M "P N N M"
_symmetry_group_IT_number 58
_symmetry_cell_setting 'orthorhombic'
loop_
_space_group_symop_operation_xyz
x,y,z
-x,-y,z
1/2+x,1/2-y,1/2-z
1/2-x,1/2+y,1/2-z
-x,-y,-z
x,y,-z
1/2-x,1/2+y,1/2+z
1/2+x,1/2-y,1/2+z
loop_
_atom_site_type_symbol
_atom_site_label
_atom_site_fract_x
_atom_site_fract_y
_atom_site_fract_z
Si Si1 0.113259 0.835171 0.825763
Si Si2 0.327000 0.006252 0.954885
Si Si3 0.335394 0.529322 0.248856
Si Si4 0.675991 0.292502 0.895864
Si Si5 0.836974 0.661902 0.189546
Si Si6 0.666259 0.699468 0.890800
O O1 0.195781 0.877726 0.783516
O O2 0.231489 0.795632 0.859938
O O3 0.009078 0.658158 0.822123
O O4 0.000000 0.000000 0.835708
O O5 0.274134 0.168193 0.925865
O O6 0.500000 0.000000 0.958724
O O7 0.278663 0.815932 0.936372
O O8 0.256895 0.030096 0.000000
O O9 0.500000 0.500000 0.232210
O O10 0.230066 0.521657 0.208292
O O11 0.311530 0.715401 0.270925
O O12 0.709962 0.499152 0.904000
O O13 0.505956 0.269690 0.884563
O O14 0.743739 0.740450 0.151973
#
# Coordination Sequence:
#
# PCOD8238122 Si02
#       6
#     8   8   8   8   8   8
#     4   9  20  39  58  82 117 156 203 250 298 357
#     4   9  18  36  61  92 123 152 192 242 300 363
#     4   9  21  37  53  80 113 148 202 251 292 339
#     4  10  21  37  61  86 121 157 195 245 303 352
#     4  10  21  38  57  81 114 158 199 246 298 342
#     4  10  22  36  59  90 118 157 198 246 298 358
#
# _framework density 21.380189999999999
#
# number of rings (size 3 to 8) (size 9 to 14) (size 15 to 20)
#    0.000    2.833    0.000    2.000    4.667    2.667 
#    3.000   10.000    0.000    4.500    0.000    5.833 
#    0.000    0.000    0.000    0.000    0.000    0.000 
#
# Total GULP energy -594771.599230 kJ/mol
# GULP energy per Si atom -12391.074984 kJ/mol
# Density = 2.133153 g / cm^3
# Si number density = 21.380190 Si / 1000 Ang^3
#
#
#
# Elastic Constant Matrix: (Units=GPa)
#
#
# Indices 1 2 3 4 5 6 
#
# 1 56.2498 18.4976 51.6000 0.0000 0.0000 0.0000
# 2 18.4976 55.4375 21.9937 0.0000 0.0000 0.0000
# 3 51.6000 21.9937 130.5477 0.0000 0.0000 0.0000
# 4 0.0000 0.0000 0.0000 -7.3105 0.0000 0.0000
# 5 0.0000 0.0000 0.0000 0.0000 13.2764 0.0000
# 6 0.0000 0.0000 0.0000 0.0000 0.0000 22.1184
#
#
#
# Elastic Compliance Matrix: (Units=1/GPa)
#
#
# Indices 1 2 3 4 5 6 
#
# 1 0.029415 -0.005575 -0.010687 0.000000 0.000000 0.000000
# 2 -0.005575 0.020387 -0.001231 0.000000 0.000000 0.000000
# 3 -0.010687 -0.001231 0.012092 0.000000 0.000000 0.000000
# 4 0.000000 0.000000 0.000000 -0.136789 0.000000 0.000000
# 5 0.000000 0.000000 0.000000 0.000000 0.075322 0.000000
# 6 0.000000 0.000000 0.000000 0.000000 0.000000 0.045211
#
#
# Mechanical properties :
#
#
# Convention : Reuss Voigt Hill
#
# Bulk Modulus (GPa) = 37.16498 47.37971 42.27234
# Shear Modulus (GPa) = 55.80797 15.62643 35.71720
#
# Velocity S-wave (km/s) = 5.11462 2.70642 4.09170
# Velocity P-wave (km/s) = 7.23186 5.65464 6.49133
#
# Compressibility (1/GPa) = 0.02690705
#
# Stress axis : x y z
#
# Youngs Moduli (GPa) = 33.99637 49.05112 82.70153
#
# Poissons Ratio (x) = 0.27345 0.88385
# Poissons Ratio (y) = 0.18952 0.10182
# Poissons Ratio (z) = 0.36333 0.06039
#
# Static dielectric constant tensor:
#      x y z
#    x 3.859680 0.000000 0.000000 
#    y 0.000000 4.210690 0.000000 
#    z 0.000000 0.000000 3.963270 
# 
# 
# High freq. dielectric constant tensor:
#      x y z
#    x 1.818470 0.000000 0.000000 
#    y 0.000000 1.862560 0.000000 
#    z 0.000000 0.000000 1.825230 
# 
# From -- ./inp_files/34586.got.cif
#   From: 2010.06.25/outbox.cif.g09.slc.cpg/sg58_18_cif.got.tgz:34586.got - 2010.06.26 21:38:00.
