data_PCOD8238063
_publ_section_title
;
Structure prediction by ZEFSAII (Michael W. Deem and Ramdas Pophale) SiO2 
 PCOD8238063
Probable space group: P N N M
;
_chemical_formula_sum "Si O2"
_cell_formula_units_Z 40
_cell_length_a 13.467481
_cell_length_b 17.656214
_cell_length_c 8.586705
_cell_angle_alpha 90.000000
_cell_angle_beta 90.000000
_cell_angle_gamma 90.000000
_cell_volume 2041.787301
_symmetry_space_group_name_H-M "P N N M"
_symmetry_group_IT_number 58
_symmetry_cell_setting 'orthorhombic'
loop_
_space_group_symop_operation_xyz
x,y,z
-x,-y,z
1/2+x,1/2-y,1/2-z
1/2-x,1/2+y,1/2-z
-x,-y,-z
x,y,-z
1/2-x,1/2+y,1/2+z
1/2+x,1/2-y,1/2+z
loop_
_atom_site_type_symbol
_atom_site_label
_atom_site_fract_x
_atom_site_fract_y
_atom_site_fract_z
Si Si1 0.678738 0.308339 0.821229
Si Si2 0.628377 0.867057 0.179939
Si Si3 0.578969 0.166158 0.679084
Si Si4 0.197205 0.467829 0.679845
Si Si5 0.108435 0.025399 0.319366
O O1 0.794655 0.318851 0.781984
O O2 0.632660 0.245110 0.711186
O O3 0.619277 0.385462 0.787610
O O4 0.669140 0.282927 0.000000
O O5 0.518092 0.839531 0.214696
O O6 0.637108 0.955852 0.220925
O O7 0.653777 0.853106 0.000000
O O8 0.547057 0.161931 0.500000
O O9 0.654416 0.098612 0.715006
O O10 0.184861 0.445531 0.500000
O O11 0.313061 0.478364 0.718147
O O12 0.126788 0.006365 0.500000
O O13 0.000000 0.000000 0.263998
#
# Coordination Sequence:
#
# PCOD8238063 Si02
#       5
#     8   8   8   8   8
#     4  10  21  38  58  82 114 148 186 233 283 336
#     4  10  21  39  60  82 112 147 185 233 288 341
#     4  12  24  37  57  84 115 151 191 234 282 335
#     4  10  21  37  58  84 113 146 188 236 283 336
#     4   9  19  37  60  84 112 148 187 228 278 337
#
# _framework density 19.590679999999999
#
# number of rings (size 3 to 8) (size 9 to 14) (size 15 to 20)
#    0.000    1.800    0.000    4.200    0.000    7.600 
#    0.000    6.000    0.000    0.000    0.000    0.000 
#    0.000    0.000    0.000    0.000    0.000    0.000 
#
# Total GULP energy -496278.837574 kJ/mol
# GULP energy per Si atom -12406.970939 kJ/mol
# Density = 1.954609 g / cm^3
# Si number density = 19.590680 Si / 1000 Ang^3
#
#
#
# Elastic Constant Matrix: (Units=GPa)
#
#
# Indices 1 2 3 4 5 6 
#
# 1 107.5138 53.9542 19.2598 0.0000 0.0000 0.0000
# 2 53.9542 87.0029 26.8030 0.0000 0.0000 0.0000
# 3 19.2598 26.8030 62.8927 0.0000 0.0000 0.0000
# 4 0.0000 0.0000 0.0000 27.0506 0.0000 0.0000
# 5 0.0000 0.0000 0.0000 0.0000 35.1205 0.0000
# 6 0.0000 0.0000 0.0000 0.0000 0.0000 23.4421
#
#
#
# Elastic Compliance Matrix: (Units=1/GPa)
#
#
# Indices 1 2 3 4 5 6 
#
# 1 0.013527 -0.008187 -0.000653 0.000000 0.000000 0.000000
# 2 -0.008187 0.018187 -0.005243 0.000000 0.000000 0.000000
# 3 -0.000653 -0.005243 0.018335 0.000000 0.000000 0.000000
# 4 0.000000 0.000000 0.000000 0.036968 0.000000 0.000000
# 5 0.000000 0.000000 0.000000 0.000000 0.028473 0.000000
# 6 0.000000 0.000000 0.000000 0.000000 0.000000 0.042658
#
#
# Mechanical properties :
#
#
# Convention : Reuss Voigt Hill
#
# Bulk Modulus (GPa) = 45.70308 50.82704 48.26506
# Shear Modulus (GPa) = 25.82532 27.61548 26.72040
#
# Velocity S-wave (km/s) = 3.63470 3.75857 3.69715
# Velocity P-wave (km/s) = 6.40269 6.69601 6.55099
#
# Compressibility (1/GPa) = 0.02188036
#
# Stress axis : x y z
#
# Youngs Moduli (GPa) = 73.92712 54.98583 54.54153
#
# Poissons Ratio (x) = 0.45019 0.03562
# Poissons Ratio (y) = 0.60527 0.28598
# Poissons Ratio (z) = 0.04829 0.28831
#
# Static dielectric constant tensor:
#      x y z
#    x 3.523350 0.000000 0.000000 
#    y 0.000000 3.524660 0.000000 
#    z 0.000000 0.000000 3.557840 
# 
# 
# High freq. dielectric constant tensor:
#      x y z
#    x 1.768060 0.000000 0.000000 
#    y 0.000000 1.760130 0.000000 
#    z 0.000000 0.000000 1.770240 
# 
# From -- ./inp_files/3782.got.cif
#   From: 2010.06.25/outbox.cif.g09.slc.cpg/sg58_2_cif.got.tgz:3782.got - 2010.06.26 21:38:00.
