data_PCOD8238699
_publ_section_title
;
Structure prediction by ZEFSAII (Michael W. Deem and Ramdas Pophale) SiO2 
 PCOD8238699
Probable space group: P N N M
;
_chemical_formula_sum "Si O2"
_cell_formula_units_Z 32
_cell_length_a 9.910888
_cell_length_b 17.830854
_cell_length_c 8.005040
_cell_angle_alpha 90.000000
_cell_angle_beta 90.000000
_cell_angle_gamma 90.000000
_cell_volume 1414.647442
_symmetry_space_group_name_H-M "P N N M"
_symmetry_group_IT_number 58
_symmetry_cell_setting 'orthorhombic'
loop_
_space_group_symop_operation_xyz
x,y,z
-x,-y,z
1/2+x,1/2-y,1/2-z
1/2-x,1/2+y,1/2-z
-x,-y,-z
x,y,-z
1/2-x,1/2+y,1/2+z
1/2+x,1/2-y,1/2+z
loop_
_atom_site_type_symbol
_atom_site_label
_atom_site_fract_x
_atom_site_fract_y
_atom_site_fract_z
Si Si1 0.893092 0.567707 0.500000
Si Si2 0.470571 0.325164 0.191604
Si Si3 0.906770 0.070273 0.000000
Si Si4 0.725603 0.796015 0.688568
Si Si5 0.492096 0.089442 0.678640
O O1 0.743371 0.536625 0.500000
O O2 0.917533 0.618875 0.665889
O O3 0.000000 0.500000 0.500000
O O4 0.426809 0.385981 0.327095
O O5 0.364684 0.257068 0.194886
O O6 0.619810 0.298151 0.247775
O O7 0.474400 0.356865 0.000000
O O8 0.000000 0.000000 0.000000
O O9 0.717504 0.764290 0.500000
O O10 0.661033 0.880049 0.699130
O O11 0.550571 0.118887 0.500000
O O12 0.500000 0.000000 0.679136
#
# Coordination Sequence:
#
# PCOD8238699 Si02
#       5
#     4   8   4   8   8
#     4  10  24  42  70 102 132 179 238 274 355 418
#     4  11  27  46  72 104 142 193 235 300 361 430
#     4  12  30  50  70 106 151 185 245 300 366 432
#     4  10  23  44  68 102 142 180 242 285 357 431
#     4   9  20  38  66  99 135 178 230 290 343 415
#
# _framework density 22.620477999999999
#
# number of rings (size 3 to 8) (size 9 to 14) (size 15 to 20)
#    0.000    1.750    1.250    0.000   14.000    1.500 
#    0.000    0.000    0.000    0.000    0.000    0.000 
#    0.000    0.000    0.000    0.000    0.000    0.000 
#
# Total GULP energy -396487.516168 kJ/mol
# GULP energy per Si atom -12390.234880 kJ/mol
# Density = 2.256899 g / cm^3
# Si number density = 22.620478 Si / 1000 Ang^3
#
#
#
# Elastic Constant Matrix: (Units=GPa)
#
#
# Indices 1 2 3 4 5 6 
#
# 1 188.9966 48.6093 68.3501 0.0000 0.0000 0.0000
# 2 48.6093 81.2160 33.6839 0.0000 0.0000 0.0000
# 3 68.3501 33.6839 185.4265 0.0000 0.0000 0.0000
# 4 0.0000 0.0000 0.0000 0.7602 0.0000 0.0000
# 5 0.0000 0.0000 0.0000 0.0000 29.2437 0.0000
# 6 0.0000 0.0000 0.0000 0.0000 0.0000 34.1769
#
#
#
# Elastic Compliance Matrix: (Units=1/GPa)
#
#
# Indices 1 2 3 4 5 6 
#
# 1 0.006833 -0.003293 -0.001920 0.000000 0.000000 0.000000
# 2 -0.003293 0.014903 -0.001493 0.000000 0.000000 0.000000
# 3 -0.001920 -0.001493 0.006372 0.000000 0.000000 0.000000
# 4 0.000000 0.000000 0.000000 1.315521 0.000000 0.000000
# 5 0.000000 0.000000 0.000000 0.000000 0.034195 0.000000
# 6 0.000000 0.000000 0.000000 0.000000 0.000000 0.029260
#
#
# Mechanical properties :
#
#
# Convention : Reuss Voigt Hill
#
# Bulk Modulus (GPa) = 68.05351 84.10286 76.07818
# Shear Modulus (GPa) = 3.50780 33.16919 18.33850
#
# Velocity S-wave (km/s) = 1.24663 3.83343 2.85037
# Velocity P-wave (km/s) = 5.67647 7.54018 6.67370
#
# Compressibility (1/GPa) = 0.01469432
#
# Stress axis : x y z
#
# Youngs Moduli (GPa) = 146.35880 67.09996 156.93345
#
# Poissons Ratio (x) = 0.22096 0.30137
# Poissons Ratio (y) = 0.48195 0.23437
# Poissons Ratio (z) = 0.28106 0.10021
#
# Static dielectric constant tensor:
#      x y z
#    x 4.114210 0.000000 0.000000 
#    y 0.000000 3.866560 0.000000 
#    z 0.000000 0.000000 6.142090 
# 
# 
# High freq. dielectric constant tensor:
#      x y z
#    x 1.890570 0.000000 0.000000 
#    y 0.000000 1.865520 0.000000 
#    z 0.000000 0.000000 1.920650 
# 
# From -- ./inp_files/2200.got.cif
#   From: 2010.06.25/outbox.cif.g09.slc.cpg/sg58_2_cif.got.tgz:2200.got - 2010.06.26 21:38:00.
