data_PCOD8238118
_publ_section_title
;
Structure prediction by ZEFSAII (Michael W. Deem and Ramdas Pophale) SiO2 
 PCOD8238118
Probable space group: P N N M
;
_chemical_formula_sum "Si O2"
_cell_formula_units_Z 64
_cell_length_a 12.469918
_cell_length_b 15.148725
_cell_length_c 16.825676
_cell_angle_alpha 90.000000
_cell_angle_beta 90.000000
_cell_angle_gamma 90.000000
_cell_volume 3178.426706
_symmetry_space_group_name_H-M "P N N M"
_symmetry_group_IT_number 58
_symmetry_cell_setting 'orthorhombic'
loop_
_space_group_symop_operation_xyz
x,y,z
-x,-y,z
1/2+x,1/2-y,1/2-z
1/2-x,1/2+y,1/2-z
-x,-y,-z
x,y,-z
1/2-x,1/2+y,1/2+z
1/2+x,1/2-y,1/2+z
loop_
_atom_site_type_symbol
_atom_site_label
_atom_site_fract_x
_atom_site_fract_y
_atom_site_fract_z
Si Si1 0.699267 0.729666 0.093394
Si Si2 0.469997 0.747397 0.164572
Si Si3 0.940360 0.348125 0.911035
Si Si4 0.786186 0.053521 0.317237
Si Si5 0.476080 0.405762 0.275630
Si Si6 0.417219 0.678461 0.589022
Si Si7 0.558600 0.079728 0.739745
Si Si8 0.304851 0.622982 0.909582
O O1 0.588321 0.766108 0.129770
O O2 0.713863 0.626667 0.113259
O O3 0.803414 0.785043 0.124727
O O4 0.693025 0.739403 0.000000
O O5 0.469445 0.677603 0.235213
O O6 0.426972 0.838054 0.201643
O O7 0.387422 0.705010 0.101640
O O8 0.814033 0.340004 0.893189
O O9 0.991165 0.251837 0.908219
O O10 0.994764 0.404446 0.842218
O O11 0.959937 0.388969 0.000000
O O12 0.848698 0.095898 0.240809
O O13 0.669715 0.037134 0.284802
O O14 0.830735 0.960854 0.352771
O O15 0.500000 0.500000 0.235216
O O16 0.528935 0.403425 0.363348
O O17 0.396603 0.644573 0.500000
O O18 0.500000 0.000000 0.786608
O O19 0.316986 0.590179 0.000000
#
# Coordination Sequence:
#
# PCOD8238118 Si02
#       8
#     8   8   8   8   8   8   8   8
#     4  10  21  38  63  89 122 168 214 260 315 382
#     4  11  24  40  60  91 129 170 209 260 313 381
#     4  10  21  37  60  89 123 161 205 263 323 372
#     4  11  22  36  60  95 127 161 206 266 328 384
#     4  11  22  38  59  90 124 162 201 261 318 379
#     4  10  21  39  62  88 119 164 214 264 315 372
#     4  12  24  40  62  91 127 172 218 261 310 382
#     4  11  23  39  63  93 130 165 204 261 325 385
#
# _framework density 20.135749000000001
#
# number of rings (size 3 to 8) (size 9 to 14) (size 15 to 20)
#    0.000    1.250    5.000    0.750    1.750    3.000 
#    0.000    1.875    0.000    1.500    0.000    0.000 
#    0.000    0.000    0.000    0.000    0.000    0.000 
#
# Total GULP energy -792881.849511 kJ/mol
# GULP energy per Si atom -12388.778899 kJ/mol
# Density = 2.008992 g / cm^3
# Si number density = 20.135749 Si / 1000 Ang^3
#
#
#
# Elastic Constant Matrix: (Units=GPa)
#
#
# Indices 1 2 3 4 5 6 
#
# 1 117.3074 35.9590 50.7662 0.0000 0.0000 0.0000
# 2 35.9590 96.9613 36.1253 0.0000 0.0000 0.0000
# 3 50.7662 36.1253 72.9605 0.0000 0.0000 0.0000
# 4 0.0000 0.0000 0.0000 22.1472 0.0000 0.0000
# 5 0.0000 0.0000 0.0000 0.0000 23.3217 0.0000
# 6 0.0000 0.0000 0.0000 0.0000 0.0000 27.8091
#
#
#
# Elastic Compliance Matrix: (Units=1/GPa)
#
#
# Indices 1 2 3 4 5 6 
#
# 1 0.012422 -0.001700 -0.007801 0.000000 0.000000 0.000000
# 2 -0.001700 0.012879 -0.005194 0.000000 0.000000 0.000000
# 3 -0.007801 -0.005194 0.021706 0.000000 0.000000 0.000000
# 4 0.000000 0.000000 0.000000 0.045152 0.000000 0.000000
# 5 0.000000 0.000000 0.000000 0.000000 0.042879 0.000000
# 6 0.000000 0.000000 0.000000 0.000000 0.000000 0.035959
#
#
# Mechanical properties :
#
#
# Convention : Reuss Voigt Hill
#
# Bulk Modulus (GPa) = 56.76657 59.21448 57.99052
# Shear Modulus (GPa) = 24.24123 25.61418 24.92770
#
# Velocity S-wave (km/s) = 3.47348 3.57049 3.52231
# Velocity P-wave (km/s) = 6.65882 6.81684 6.73829
#
# Compressibility (1/GPa) = 0.01761600
#
# Stress axis : x y z
#
# Youngs Moduli (GPa) = 80.50276 77.64555 46.07030
#
# Poissons Ratio (x) = 0.13201 0.35941
# Poissons Ratio (y) = 0.13687 0.23928
# Poissons Ratio (z) = 0.62803 0.40328
#
# Static dielectric constant tensor:
#      x y z
#    x 4.009360 0.000000 0.000000 
#    y 0.000000 3.550840 0.000000 
#    z 0.000000 0.000000 3.630390 
# 
# 
# High freq. dielectric constant tensor:
#      x y z
#    x 1.802840 0.000000 0.000000 
#    y 0.000000 1.773170 0.000000 
#    z 0.000000 0.000000 1.770580 
# 
# From -- ./inp_files/26365.got.cif
#   From: 2010.06.25/outbox.cif.g09.slc.cpg/sg58_14_cif.got.tgz:26365.got - 2010.06.26 21:38:00.
