data_PCOD8238676
_publ_section_title
;
Structure prediction by ZEFSAII (Michael W. Deem and Ramdas Pophale) SiO2 
 PCOD8238676
Probable space group: P N N M
;
_chemical_formula_sum "Si O2"
_cell_formula_units_Z 48
_cell_length_a 20.245940
_cell_length_b 14.835483
_cell_length_c 7.766820
_cell_angle_alpha 90.000000
_cell_angle_beta 90.000000
_cell_angle_gamma 90.000000
_cell_volume 2332.828841
_symmetry_space_group_name_H-M "P N N M"
_symmetry_group_IT_number 58
_symmetry_cell_setting 'orthorhombic'
loop_
_space_group_symop_operation_xyz
x,y,z
-x,-y,z
1/2+x,1/2-y,1/2-z
1/2-x,1/2+y,1/2-z
-x,-y,-z
x,y,-z
1/2-x,1/2+y,1/2+z
1/2+x,1/2-y,1/2+z
loop_
_atom_site_type_symbol
_atom_site_label
_atom_site_fract_x
_atom_site_fract_y
_atom_site_fract_z
Si Si1 0.731643 0.723911 0.692501
Si Si2 0.960707 0.141982 0.000000
Si Si3 0.297221 0.950812 0.693590
Si Si4 0.909627 0.259888 0.695354
Si Si5 0.070239 0.534473 0.702773
Si Si6 0.100030 0.046768 0.000000
Si Si7 0.805766 0.898244 0.300963
O O1 0.706917 0.746422 0.500000
O O2 0.767520 0.627772 0.689386
O O3 0.666705 0.728502 0.810012
O O4 0.786019 0.796844 0.750151
O O5 0.951762 0.199519 0.826232
O O6 0.033129 0.102014 0.000000
O O7 0.908217 0.060833 0.000000
O O8 0.285446 0.918298 0.500000
O O9 0.374429 0.967781 0.722938
O O10 0.259015 0.042592 0.735220
O O11 0.937288 0.248594 0.500000
O O12 0.916382 0.362883 0.759638
O O13 0.072558 0.525779 0.500000
O O14 0.000000 0.500000 0.775616
O O15 0.136289 0.071377 0.823739
O O16 0.829430 0.906559 0.500000
#
# Coordination Sequence:
#
# PCOD8238676 Si02
#       7
#     8   4   8   8   8   4   8
#     4  11  22  39  65  95 132 170 219 274 324 392
#     4  11  26  46  65  98 132 170 231 264 327 410
#     4  11  23  38  62  99 131 167 219 273 332 394
#     4  11  23  42  69  95 131 178 219 269 331 397
#     4  10  23  42  64  93 131 176 221 268 334 402
#     4  11  26  44  70  94 129 178 216 278 331 388
#     4  10  24  42  64  96 131 167 218 277 329 386
#
# _framework density 20.575875
#
# number of rings (size 3 to 8) (size 9 to 14) (size 15 to 20)
#    0.000    1.333    2.500    2.000    5.833    4.333 
#    0.000    5.000    0.000    0.000    0.000    0.000 
#    0.000    0.000    0.000    0.000    0.000    0.000 
#
# Total GULP energy -595374.107582 kJ/mol
# GULP energy per Si atom -12403.627241 kJ/mol
# Density = 2.052904 g / cm^3
# Si number density = 20.575875 Si / 1000 Ang^3
#
#
#
# Elastic Constant Matrix: (Units=GPa)
#
#
# Indices 1 2 3 4 5 6 
#
# 1 100.4088 45.0138 31.7941 0.0000 0.0000 0.0000
# 2 45.0138 114.4744 33.1163 0.0000 0.0000 0.0000
# 3 31.7941 33.1163 84.6419 0.0000 0.0000 0.0000
# 4 0.0000 0.0000 0.0000 32.0020 0.0000 0.0000
# 5 0.0000 0.0000 0.0000 0.0000 23.9039 0.0000
# 6 0.0000 0.0000 0.0000 0.0000 0.0000 34.3228
#
#
#
# Elastic Compliance Matrix: (Units=1/GPa)
#
#
# Indices 1 2 3 4 5 6 
#
# 1 0.012818 -0.004113 -0.003206 0.000000 0.000000 0.000000
# 2 -0.004113 0.011170 -0.002825 0.000000 0.000000 0.000000
# 3 -0.003206 -0.002825 0.014124 0.000000 0.000000 0.000000
# 4 0.000000 0.000000 0.000000 0.031248 0.000000 0.000000
# 5 0.000000 0.000000 0.000000 0.000000 0.041834 0.000000
# 6 0.000000 0.000000 0.000000 0.000000 0.000000 0.029135
#
#
# Mechanical properties :
#
#
# Convention : Reuss Voigt Hill
#
# Bulk Modulus (GPa) = 56.10310 57.70818 56.90564
# Shear Modulus (GPa) = 30.01928 30.68582 30.35255
#
# Velocity S-wave (km/s) = 3.82377 3.86599 3.84494
# Velocity P-wave (km/s) = 6.84256 6.93075 6.88679
#
# Compressibility (1/GPa) = 0.01782433
#
# Stress axis : x y z
#
# Youngs Moduli (GPa) = 78.01366 89.52327 70.80107
#
# Poissons Ratio (x) = 0.36821 0.22697
# Poissons Ratio (y) = 0.32087 0.20004
# Poissons Ratio (z) = 0.25009 0.25294
#
# Static dielectric constant tensor:
#      x y z
#    x 3.605090 0.000000 0.000000 
#    y 0.000000 3.834430 0.000000 
#    z 0.000000 0.000000 3.703170 
# 
# 
# High freq. dielectric constant tensor:
#      x y z
#    x 1.795550 0.000000 0.000000 
#    y 0.000000 1.815120 0.000000 
#    z 0.000000 0.000000 1.813070 
# 
# From -- ./inp_files/7774.got.cif
#   From: 2010.06.25/outbox.cif.g09.slc.cpg/sg58_4_cif.got.tgz:7774.got - 2010.06.26 21:38:00.
