data_PCOD8238316
_publ_section_title
;
Structure prediction by ZEFSAII (Michael W. Deem and Ramdas Pophale) SiO2 
 PCOD8238316
Probable space group: P N N M
;
_chemical_formula_sum "Si O2"
_cell_formula_units_Z 40
_cell_length_a 14.657642
_cell_length_b 14.636522
_cell_length_c 8.490755
_cell_angle_alpha 90.000000
_cell_angle_beta 90.000000
_cell_angle_gamma 90.000000
_cell_volume 1821.580253
_symmetry_space_group_name_H-M "P N N M"
_symmetry_group_IT_number 58
_symmetry_cell_setting 'orthorhombic'
loop_
_space_group_symop_operation_xyz
x,y,z
-x,-y,z
1/2+x,1/2-y,1/2-z
1/2-x,1/2+y,1/2-z
-x,-y,-z
x,y,-z
1/2-x,1/2+y,1/2+z
1/2+x,1/2-y,1/2+z
loop_
_atom_site_type_symbol
_atom_site_label
_atom_site_fract_x
_atom_site_fract_y
_atom_site_fract_z
Si Si1 0.506840 0.747156 0.320206
Si Si2 0.687321 0.245037 0.816928
Si Si3 0.155244 0.629964 0.683464
Si Si4 0.087513 0.947509 0.179206
Si Si5 0.776478 0.551443 0.180917
O O1 0.487835 0.776288 0.500000
O O2 0.412232 0.721872 0.236690
O O3 0.557395 0.828527 0.229649
O O4 0.573477 0.660647 0.313030
O O5 0.763183 0.300772 0.722542
O O6 0.695764 0.137118 0.787362
O O7 0.701733 0.265712 0.000000
O O8 0.157200 0.608326 0.500000
O O9 0.161999 0.535308 0.777304
O O10 0.171855 0.976154 0.287249
O O11 0.106781 0.979564 0.000000
O O12 0.000000 0.000000 0.247091
O O13 0.790513 0.578094 0.000000
#
# Coordination Sequence:
#
# PCOD8238316 Si02
#       5
#     8   8   8   8   8
#     4  11  23  41  67  98 135 176 222 274 335 400
#     4  12  25  44  68  98 136 177 225 277 335 399
#     4  12  25  44  68  97 135 177 225 278 337 398
#     4  10  21  39  65  97 133 171 217 272 335 396
#     4  12  25  42  67  97 132 175 225 276 335 400
#
# _framework density 21.958956000000001
#
# number of rings (size 3 to 8) (size 9 to 14) (size 15 to 20)
#    0.000    0.600    2.000    7.200    0.000    3.600 
#    0.000    4.000    0.000    0.000    0.000    0.000 
#    0.000    0.000    0.000    0.000    0.000    0.000 
#
# Total GULP energy -496360.689227 kJ/mol
# GULP energy per Si atom -12409.017231 kJ/mol
# Density = 2.190898 g / cm^3
# Si number density = 21.958956 Si / 1000 Ang^3
#
#
#
# Elastic Constant Matrix: (Units=GPa)
#
#
# Indices 1 2 3 4 5 6 
#
# 1 55.3671 -14.9629 14.6729 0.0000 0.0000 0.0000
# 2 -14.9629 60.7516 -2.8653 0.0000 0.0000 0.0000
# 3 14.6729 -2.8653 106.9061 0.0000 0.0000 0.0000
# 4 0.0000 0.0000 0.0000 28.3420 0.0000 0.0000
# 5 0.0000 0.0000 0.0000 0.0000 31.8657 0.0000
# 6 0.0000 0.0000 0.0000 0.0000 0.0000 39.7268
#
#
#
# Elastic Compliance Matrix: (Units=1/GPa)
#
#
# Indices 1 2 3 4 5 6 
#
# 1 0.020058 0.004817 -0.002624 0.000000 0.000000 0.000000
# 2 0.004817 0.017638 -0.000188 0.000000 0.000000 0.000000
# 3 -0.002624 -0.000188 0.009709 0.000000 0.000000 0.000000
# 4 0.000000 0.000000 0.000000 0.035283 0.000000 0.000000
# 5 0.000000 0.000000 0.000000 0.000000 0.031382 0.000000
# 6 0.000000 0.000000 0.000000 0.000000 0.000000 0.025172
#
#
# Mechanical properties :
#
#
# Convention : Reuss Voigt Hill
#
# Bulk Modulus (GPa) = 19.45003 24.07935 21.76469
# Shear Modulus (GPa) = 32.81450 35.06556 33.94003
#
# Velocity S-wave (km/s) = 3.86988 4.00042 3.93569
# Velocity P-wave (km/s) = 5.37072 5.68570 5.53046
#
# Compressibility (1/GPa) = 0.05141381
#
# Stress axis : x y z
#
# Youngs Moduli (GPa) = 49.85467 56.69617 102.99624
#
# Poissons Ratio (x) = -0.27308 0.27025
# Poissons Ratio (y) = -0.24013 0.01940
# Poissons Ratio (z) = 0.13081 0.01068
#
# Static dielectric constant tensor:
#      x y z
#    x 3.993990 0.000000 0.000000 
#    y 0.000000 3.947990 0.000000 
#    z 0.000000 0.000000 3.927120 
# 
# 
# High freq. dielectric constant tensor:
#      x y z
#    x 1.869650 0.000000 0.000000 
#    y 0.000000 1.869660 0.000000 
#    z 0.000000 0.000000 1.866350 
# 
# From -- ./inp_files/5371.got.cif
#   From: 2010.06.25/outbox.cif.g09.slc.cpg/sg58_3_cif.got.tgz:5371.got - 2010.06.26 21:38:00.
