data_PCOD8238547
_publ_section_title
;
Structure prediction by ZEFSAII (Michael W. Deem and Ramdas Pophale) SiO2 
 PCOD8238547
Probable space group: P N N M
;
_chemical_formula_sum "Si O2"
_cell_formula_units_Z 40
_cell_length_a 24.574804
_cell_length_b 8.144577
_cell_length_c 9.578549
_cell_angle_alpha 90.000000
_cell_angle_beta 90.000000
_cell_angle_gamma 90.000000
_cell_volume 1917.159834
_symmetry_space_group_name_H-M "P N N M"
_symmetry_group_IT_number 58
_symmetry_cell_setting 'orthorhombic'
loop_
_space_group_symop_operation_xyz
x,y,z
-x,-y,z
1/2+x,1/2-y,1/2-z
1/2-x,1/2+y,1/2-z
-x,-y,-z
x,y,-z
1/2-x,1/2+y,1/2+z
1/2+x,1/2-y,1/2+z
loop_
_atom_site_type_symbol
_atom_site_label
_atom_site_fract_x
_atom_site_fract_y
_atom_site_fract_z
Si Si1 0.386834 0.753696 0.500000
Si Si2 0.435591 0.490461 0.000000
Si Si3 0.269753 0.116069 0.500000
Si Si4 0.662151 0.579451 0.500000
Si Si5 0.410411 0.279415 0.733242
Si Si6 0.494064 0.195311 0.500000
Si Si7 0.341148 0.747000 0.000000
Si Si8 0.844353 0.532300 0.234257
O O1 0.337706 0.618981 0.500000
O O2 0.450008 0.696885 0.500000
O O3 0.383047 0.861961 0.363039
O O4 0.500000 0.500000 0.000000
O O5 0.421465 0.392138 0.136869
O O6 0.401465 0.663707 0.000000
O O7 0.282483 0.313940 0.500000
O O8 0.204278 0.101334 0.500000
O O9 0.293104 0.029698 0.359627
O O10 0.631305 0.623363 0.639401
O O11 0.463746 0.243141 0.642529
O O12 0.381547 0.115487 0.789358
O O13 0.500000 0.000000 0.500000
O O14 0.327840 0.858676 0.134207
#
# Coordination Sequence:
#
# PCOD8238547 Si02
#       8
#     4   4   4   4   8   4   4   8
#     4  11  20  36  64 100 128 165 226 271 312 380
#     4  12  29  41  56  95 140 172 214 271 334 388
#     4   9  23  46  67  98 126 165 218 274 331 392
#     4   9  20  38  66  91 125 155 215 280 321 370
#     4  10  22  41  59  89 132 172 212 269 324 379
#     4  11  20  36  68  92 121 180 237 261 305 382
#     4  12  26  44  69  97 130 176 220 264 338 406
#     4  10  22  42  67  95 127 170 215 268 326 400
#
# _framework density 20.864196
#
# number of rings (size 3 to 8) (size 9 to 14) (size 15 to 20)
#    0.000    1.600    2.000    3.000    5.600    5.600 
#    0.000    4.500    0.000    0.000    0.000    0.000 
#    0.000    0.000    0.000    0.000    0.000    0.000 
#
# Total GULP energy -495653.142054 kJ/mol
# GULP energy per Si atom -12391.328551 kJ/mol
# Density = 2.081671 g / cm^3
# Si number density = 20.864196 Si / 1000 Ang^3
#
#
#
# Elastic Constant Matrix: (Units=GPa)
#
#
# Indices 1 2 3 4 5 6 
#
# 1 108.7685 26.1471 35.4538 0.0000 0.0000 0.0000
# 2 26.1471 97.8237 41.3965 0.0000 0.0000 0.0000
# 3 35.4538 41.3965 146.0756 0.0000 0.0000 0.0000
# 4 0.0000 0.0000 0.0000 156.1405 0.0000 0.0000
# 5 0.0000 0.0000 0.0000 0.0000 27.9659 0.0000
# 6 0.0000 0.0000 0.0000 0.0000 0.0000 30.7882
#
#
#
# Elastic Compliance Matrix: (Units=1/GPa)
#
#
# Indices 1 2 3 4 5 6 
#
# 1 0.010293 -0.001925 -0.001953 0.000000 0.000000 0.000000
# 2 -0.001925 0.011975 -0.002927 0.000000 0.000000 0.000000
# 3 -0.001953 -0.002927 0.008149 0.000000 0.000000 0.000000
# 4 0.000000 0.000000 0.000000 0.006404 0.000000 0.000000
# 5 0.000000 0.000000 0.000000 0.000000 0.035758 0.000000
# 6 0.000000 0.000000 0.000000 0.000000 0.000000 0.032480
#
#
# Mechanical properties :
#
#
# Convention : Reuss Voigt Hill
#
# Bulk Modulus (GPa) = 59.49097 62.07362 60.78230
# Shear Modulus (GPa) = 40.23462 59.62364 49.92913
#
# Velocity S-wave (km/s) = 4.39612 5.35155 4.89719
# Velocity P-wave (km/s) = 7.37178 8.24629 7.82127
#
# Compressibility (1/GPa) = 0.01680927
#
# Stress axis : x y z
#
# Youngs Moduli (GPa) = 97.15274 83.50456 122.71346
#
# Poissons Ratio (x) = 0.16074 0.23963
# Poissons Ratio (y) = 0.18701 0.35912
# Poissons Ratio (z) = 0.18971 0.24438
#
# Static dielectric constant tensor:
#      x y z
#    x 4.252780 0.000000 0.000000 
#    y 0.000000 4.033130 0.000000 
#    z 0.000000 0.000000 3.583530 
# 
# 
# High freq. dielectric constant tensor:
#      x y z
#    x 1.808000 0.000000 0.000000 
#    y 0.000000 1.822090 0.000000 
#    z 0.000000 0.000000 1.826500 
# 
# From -- ./inp_files/10317.got.cif
#   From: 2010.06.25/outbox.cif.g09.slc.cpg/sg58_6_cif.got.tgz:10317.got - 2010.06.26 21:38:00.
