data_PCOD8238783
_publ_section_title
;
Structure prediction by ZEFSAII (Michael W. Deem and Ramdas Pophale) SiO2 
 PCOD8238783
Probable space group: P N N M
;
_chemical_formula_sum "Si O2"
_cell_formula_units_Z 48
_cell_length_a 9.591738
_cell_length_b 15.706078
_cell_length_c 14.820041
_cell_angle_alpha 90.000000
_cell_angle_beta 90.000000
_cell_angle_gamma 90.000000
_cell_volume 2232.618209
_symmetry_space_group_name_H-M "P N N M"
_symmetry_group_IT_number 58
_symmetry_cell_setting 'orthorhombic'
loop_
_space_group_symop_operation_xyz
x,y,z
-x,-y,z
1/2+x,1/2-y,1/2-z
1/2-x,1/2+y,1/2-z
-x,-y,-z
x,y,-z
1/2-x,1/2+y,1/2+z
1/2+x,1/2-y,1/2+z
loop_
_atom_site_type_symbol
_atom_site_label
_atom_site_fract_x
_atom_site_fract_y
_atom_site_fract_z
Si Si1 0.843948 0.971967 0.283032
Si Si2 0.980587 0.255416 0.850939
Si Si3 0.194677 0.187542 0.403549
Si Si4 0.419590 0.241858 0.854949
Si Si5 0.711224 0.114292 0.602598
Si Si6 0.806030 0.890869 0.897856
O O1 0.816272 0.877797 0.321047
O O2 0.819095 0.967669 0.174707
O O3 0.736159 0.035400 0.330522
O O4 0.000000 0.000000 0.306033
O O5 0.842665 0.265535 0.910245
O O6 0.922360 0.243857 0.751236
O O7 0.073929 0.339699 0.859908
O O8 0.066101 0.173927 0.883912
O O9 0.171586 0.140708 0.500000
O O10 0.077139 0.260425 0.391681
O O11 0.341731 0.322377 0.898339
O O12 0.341775 0.155628 0.882991
O O13 0.686841 0.082034 0.500000
O O14 0.812355 0.927421 0.000000
#
# Coordination Sequence:
#
# PCOD8238783 Si02
#       6
#     8   8   8   8   8   8
#     4  12  24  40  62  94 129 171 210 259 314 378
#     4  11  21  41  64  97 128 161 207 262 318 376
#     4  12  22  36  63  97 128 158 204 259 316 378
#     4  11  20  40  66  94 125 162 207 260 312 374
#     4  11  23  40  64  94 131 169 207 256 321 379
#     4  11  23  43  67  91 124 169 216 262 315 374
#
# _framework density 21.499423
#
# number of rings (size 3 to 8) (size 9 to 14) (size 15 to 20)
#    0.000    0.667    5.000    5.500    0.000    1.667 
#    0.000    1.667    0.000    4.000    0.000    0.000 
#    0.000    0.000    0.000    0.000    0.000    0.000 
#
# Total GULP energy -595263.159544 kJ/mol
# GULP energy per Si atom -12401.315824 kJ/mol
# Density = 2.145049 g / cm^3
# Si number density = 21.499423 Si / 1000 Ang^3
#
#
#
# Elastic Constant Matrix: (Units=GPa)
#
#
# Indices 1 2 3 4 5 6 
#
# 1 129.2757 29.2756 5.8704 0.0000 0.0000 0.0000
# 2 29.2756 49.5946 14.1152 0.0000 0.0000 0.0000
# 3 5.8704 14.1152 147.5585 0.0000 0.0000 0.0000
# 4 0.0000 0.0000 0.0000 17.0673 0.0000 0.0000
# 5 0.0000 0.0000 0.0000 0.0000 70.9469 0.0000
# 6 0.0000 0.0000 0.0000 0.0000 0.0000 16.8393
#
#
#
# Elastic Compliance Matrix: (Units=1/GPa)
#
#
# Indices 1 2 3 4 5 6 
#
# 1 0.008932 -0.005316 0.000153 0.000000 0.000000 0.000000
# 2 -0.005316 0.023892 -0.002074 0.000000 0.000000 0.000000
# 3 0.000153 -0.002074 0.006969 0.000000 0.000000 0.000000
# 4 0.000000 0.000000 0.000000 0.058592 0.000000 0.000000
# 5 0.000000 0.000000 0.000000 0.000000 0.014095 0.000000
# 6 0.000000 0.000000 0.000000 0.000000 0.000000 0.059385
#
#
# Mechanical properties :
#
#
# Convention : Reuss Voigt Hill
#
# Bulk Modulus (GPa) = 39.49546 47.21678 43.35612
# Shear Modulus (GPa) = 25.67010 39.44855 32.55933
#
# Velocity S-wave (km/s) = 3.45916 4.28818 3.89579
# Velocity P-wave (km/s) = 5.86215 6.82111 6.35973
#
# Compressibility (1/GPa) = 0.02531937
#
# Stress axis : x y z
#
# Youngs Moduli (GPa) = 111.95214 41.85504 143.48699
#
# Poissons Ratio (x) = 0.22252 -0.02198
# Poissons Ratio (y) = 0.59518 0.29759
# Poissons Ratio (z) = -0.01715 0.08681
#
# Static dielectric constant tensor:
#      x y z
#    x 4.126080 0.000000 0.000000 
#    y 0.000000 3.540820 0.000000 
#    z 0.000000 0.000000 4.162750 
# 
# 
# High freq. dielectric constant tensor:
#      x y z
#    x 1.855530 0.000000 0.000000 
#    y 0.000000 1.801060 0.000000 
#    z 0.000000 0.000000 1.866460 
# 
# From -- ./inp_files/19825.got.cif
#   From: 2010.06.25/outbox.cif.g09.slc.cpg/sg58_10_cif.got.tgz:19825.got - 2010.06.26 21:38:00.
