data_PCOD8238766
_publ_section_title
;
Structure prediction by ZEFSAII (Michael W. Deem and Ramdas Pophale) SiO2 
 PCOD8238766
Probable space group: P N N M
;
_chemical_formula_sum "Si O2"
_cell_formula_units_Z 56
_cell_length_a 19.244855
_cell_length_b 19.247042
_cell_length_c 8.950050
_cell_angle_alpha 90.000000
_cell_angle_beta 90.000000
_cell_angle_gamma 90.000000
_cell_volume 3315.156986
_symmetry_space_group_name_H-M "P N N M"
_symmetry_group_IT_number 58
_symmetry_cell_setting 'orthorhombic'
loop_
_space_group_symop_operation_xyz
x,y,z
-x,-y,z
1/2+x,1/2-y,1/2-z
1/2-x,1/2+y,1/2-z
-x,-y,-z
x,y,-z
1/2-x,1/2+y,1/2+z
1/2+x,1/2-y,1/2+z
loop_
_atom_site_type_symbol
_atom_site_label
_atom_site_fract_x
_atom_site_fract_y
_atom_site_fract_z
Si Si1 0.942007 0.442060 0.827923
Si Si2 0.484228 0.200226 0.176183
Si Si3 0.299693 0.015829 0.823809
Si Si4 0.264172 0.655931 0.323459
Si Si5 0.655802 0.735748 0.823465
Si Si6 0.623840 0.239516 0.327627
Si Si7 0.260293 0.876283 0.672377
O O1 0.873057 0.470692 0.752008
O O2 0.000000 0.500000 0.808915
O O3 0.970564 0.373092 0.751999
O O4 0.926153 0.426217 0.000000
O O5 0.424299 0.255371 0.224851
O O6 0.556788 0.232218 0.225503
O O7 0.483910 0.188121 0.000000
O O8 0.244664 0.075846 0.775061
O O9 0.267552 0.943334 0.774504
O O10 0.311783 0.016151 0.000000
O O11 0.261691 0.663868 0.500000
O O12 0.199470 0.699573 0.255484
O O13 0.336935 0.690313 0.271242
O O14 0.690137 0.662975 0.771212
O O15 0.663797 0.738210 0.000000
O O16 0.600737 0.245017 0.500000
O O17 0.673773 0.173615 0.305048
O O18 0.254775 0.899375 0.500000
#
# Coordination Sequence:
#
# PCOD8238766 Si02
#       7
#     8   8   8   8   8   8   8
#     4  11  23  35  47  69 105 143 171 194 241 312
#     4  11  20  32  52  76 101 128 166 212 256 291
#     4  11  20  32  52  76 101 128 166 212 256 291
#     4   8  15  31  52  70  92 130 170 201 243 299
#     4   8  15  31  52  70  92 130 170 201 243 299
#     4   9  18  33  52  71  97 133 169 200 243 305
#     4   9  18  33  52  71  97 133 169 200 243 305
#
# _framework density 16.892111
#
# number of rings (size 3 to 8) (size 9 to 14) (size 15 to 20)
#    0.000    2.429    1.429    3.857    0.000    5.143 
#    0.000    2.857    0.000    0.857    0.000    6.000 
#    0.000    0.000    0.000    0.000    0.000    0.000 
#
# Total GULP energy -694134.757431 kJ/mol
# GULP energy per Si atom -12395.263526 kJ/mol
# Density = 1.685366 g / cm^3
# Si number density = 16.892111 Si / 1000 Ang^3
#
#
#
# Elastic Constant Matrix: (Units=GPa)
#
#
# Indices 1 2 3 4 5 6 
#
# 1 96.7267 88.1010 48.4424 0.0000 0.0000 0.0000
# 2 88.1010 97.9771 48.7546 0.0000 0.0000 0.0000
# 3 48.4424 48.7546 69.8537 0.0000 0.0000 0.0000
# 4 0.0000 0.0000 0.0000 2.6190 0.0000 0.0000
# 5 0.0000 0.0000 0.0000 0.0000 2.5671 0.0000
# 6 0.0000 0.0000 0.0000 0.0000 0.0000 23.8656
#
#
#
# Elastic Compliance Matrix: (Units=1/GPa)
#
#
# Indices 1 2 3 4 5 6 
#
# 1 0.058679 -0.049817 -0.005923 0.000000 0.000000 0.000000
# 2 -0.049817 0.057931 -0.005886 0.000000 0.000000 0.000000
# 3 -0.005923 -0.005886 0.022531 0.000000 0.000000 0.000000
# 4 0.000000 0.000000 0.000000 0.381832 0.000000 0.000000
# 5 0.000000 0.000000 0.000000 0.000000 0.389539 0.000000
# 6 0.000000 0.000000 0.000000 0.000000 0.000000 0.041901
#
#
# Mechanical properties :
#
#
# Convention : Reuss Voigt Hill
#
# Bulk Modulus (GPa) = 62.93464 70.57262 66.75363
# Shear Modulus (GPa) = 4.62551 11.09431 7.85991
#
# Velocity S-wave (km/s) = 1.65657 2.56554 2.15942
# Velocity P-wave (km/s) = 6.40286 7.11654 6.76911
#
# Compressibility (1/GPa) = 0.01588950
#
# Stress axis : x y z
#
# Youngs Moduli (GPa) = 17.04174 17.26198 44.38290
#
# Poissons Ratio (x) = 0.85994 0.26289
# Poissons Ratio (y) = 0.84897 0.26122
# Poissons Ratio (z) = 0.10094 0.10160
#
# Static dielectric constant tensor:
#      x y z
#    x 3.359670 0.000000 0.000000 
#    y 0.000000 3.360190 0.000000 
#    z 0.000000 0.000000 3.003680 
# 
# 
# High freq. dielectric constant tensor:
#      x y z
#    x 1.647580 0.000000 0.000000 
#    y 0.000000 1.647620 0.000000 
#    z 0.000000 0.000000 1.634930 
# 
# From -- ./inp_files/8173.got.cif
#   From: 2010.06.25/outbox.cif.g09.slc.cpg/sg58_5_cif.got.tgz:8173.got - 2010.06.26 21:38:00.
