data_PCOD8238794
_publ_section_title
;
Structure prediction by ZEFSAII (Michael W. Deem and Ramdas Pophale) SiO2 
 PCOD8238794
Probable space group: P N N M
;
_chemical_formula_sum "Si O2"
_cell_formula_units_Z 48
_cell_length_a 12.338987
_cell_length_b 17.696742
_cell_length_c 13.069619
_cell_angle_alpha 90.000000
_cell_angle_beta 90.000000
_cell_angle_gamma 90.000000
_cell_volume 2853.880299
_symmetry_space_group_name_H-M "P N N M"
_symmetry_group_IT_number 58
_symmetry_cell_setting 'orthorhombic'
loop_
_space_group_symop_operation_xyz
x,y,z
-x,-y,z
1/2+x,1/2-y,1/2-z
1/2-x,1/2+y,1/2-z
-x,-y,-z
x,y,-z
1/2-x,1/2+y,1/2+z
1/2+x,1/2-y,1/2+z
loop_
_atom_site_type_symbol
_atom_site_label
_atom_site_fract_x
_atom_site_fract_y
_atom_site_fract_z
Si Si1 0.063099 0.221104 0.235485
Si Si2 0.125349 0.498493 0.380040
Si Si3 0.375972 0.305572 0.883153
Si Si4 0.366766 0.237154 0.614656
Si Si5 0.286669 0.155184 0.197023
Si Si6 0.782114 0.648839 0.717775
O O1 0.156653 0.161424 0.207090
O O2 0.109393 0.304089 0.260093
O O3 0.995448 0.190212 0.333036
O O4 0.985997 0.230281 0.137202
O O5 0.137503 0.483547 0.500000
O O6 0.183175 0.575519 0.349425
O O7 0.187371 0.433714 0.319147
O O8 0.000000 0.500000 0.347530
O O9 0.332460 0.219628 0.878414
O O10 0.292271 0.358196 0.819830
O O11 0.382234 0.333390 0.000000
O O12 0.359968 0.206192 0.500000
O O13 0.339096 0.167886 0.690762
O O14 0.282824 0.305833 0.630277
#
# Coordination Sequence:
#
# PCOD8238794 Si02
#       6
#     8   8   8   8   8   8
#     4   8  17  31  50  72  96 124 162 202 233 279
#     4  11  21  33  51  73  99 128 155 191 244 299
#     4   9  17  32  53  73  95 128 167 204 240 278
#     4   9  17  31  50  70  94 127 163 198 236 276
#     4   9  19  32  47  74 103 125 158 201 240 284
#     4   9  19  33  48  73 103 126 156 199 241 284
#
# _framework density 16.819206000000001
#
# number of rings (size 3 to 8) (size 9 to 14) (size 15 to 20)
#    0.000    3.500    0.000    3.000    0.000    8.000 
#    0.000    4.167    0.000    8.000    0.000    0.000 
#    0.000    0.000    0.000    0.000    0.000    0.000 
#
# Total GULP energy -594986.583623 kJ/mol
# GULP energy per Si atom -12395.553825 kJ/mol
# Density = 1.678092 g / cm^3
# Si number density = 16.819206 Si / 1000 Ang^3
#
#
#
# Elastic Constant Matrix: (Units=GPa)
#
#
# Indices 1 2 3 4 5 6 
#
# 1 101.0394 23.1866 10.3574 0.0000 0.0000 0.0000
# 2 23.1866 75.7993 -13.0931 0.0000 0.0000 0.0000
# 3 10.3574 -13.0931 59.9943 0.0000 0.0000 0.0000
# 4 0.0000 0.0000 0.0000 19.6856 0.0000 0.0000
# 5 0.0000 0.0000 0.0000 0.0000 14.0123 0.0000
# 6 0.0000 0.0000 0.0000 0.0000 0.0000 17.0439
#
#
#
# Elastic Compliance Matrix: (Units=1/GPa)
#
#
# Indices 1 2 3 4 5 6 
#
# 1 0.011065 -0.003860 -0.002753 0.000000 0.000000 0.000000
# 2 -0.003860 0.015056 0.003952 0.000000 0.000000 0.000000
# 3 -0.002753 0.003952 0.018006 0.000000 0.000000 0.000000
# 4 0.000000 0.000000 0.000000 0.050799 0.000000 0.000000
# 5 0.000000 0.000000 0.000000 0.000000 0.071366 0.000000
# 6 0.000000 0.000000 0.000000 0.000000 0.000000 0.058672
#
#
# Mechanical properties :
#
#
# Convention : Reuss Voigt Hill
#
# Bulk Modulus (GPa) = 25.76921 30.85944 28.31432
# Shear Modulus (GPa) = 20.55747 24.57384 22.56565
#
# Velocity S-wave (km/s) = 3.49988 3.82653 3.66684
# Velocity P-wave (km/s) = 5.62910 6.15716 5.89904
#
# Compressibility (1/GPa) = 0.03880601
#
# Stress axis : x y z
#
# Youngs Moduli (GPa) = 90.37367 66.41758 55.53695
#
# Poissons Ratio (x) = 0.25639 0.15288
# Poissons Ratio (y) = 0.34887 -0.21950
# Poissons Ratio (z) = 0.24878 -0.26250
#
# Static dielectric constant tensor:
#      x y z
#    x 3.331350 0.000000 0.000000 
#    y 0.000000 2.783700 0.000000 
#    z 0.000000 0.000000 3.032160 
# 
# 
# High freq. dielectric constant tensor:
#      x y z
#    x 1.666650 0.000000 0.000000 
#    y 0.000000 1.612890 0.000000 
#    z 0.000000 0.000000 1.643840 
# 
# From -- ./inp_files/21358.got.cif
#   From: 2010.06.25/outbox.cif.g09.slc.cpg/sg58_11_cif.got.tgz:21358.got - 2010.06.26 21:38:00.
