data_PCOD8238678
_publ_section_title
;
Structure prediction by ZEFSAII (Michael W. Deem and Ramdas Pophale) SiO2 
 PCOD8238678
Probable space group: P N N M
;
_chemical_formula_sum "Si O2"
_cell_formula_units_Z 64
_cell_length_a 11.824789
_cell_length_b 30.385222
_cell_length_c 8.483660
_cell_angle_alpha 90.000000
_cell_angle_beta 90.000000
_cell_angle_gamma 90.000000
_cell_volume 3048.169187
_symmetry_space_group_name_H-M "P N N M"
_symmetry_group_IT_number 58
_symmetry_cell_setting 'orthorhombic'
loop_
_space_group_symop_operation_xyz
x,y,z
-x,-y,z
1/2+x,1/2-y,1/2-z
1/2-x,1/2+y,1/2-z
-x,-y,-z
x,y,-z
1/2-x,1/2+y,1/2+z
1/2+x,1/2-y,1/2+z
loop_
_atom_site_type_symbol
_atom_site_label
_atom_site_fract_x
_atom_site_fract_y
_atom_site_fract_z
Si Si1 0.223199 0.043069 0.180414
Si Si2 0.275795 0.444633 0.318564
Si Si3 0.782856 0.794667 0.313517
Si Si4 0.860541 0.378784 0.183871
Si Si5 0.105900 0.368756 0.684630
Si Si6 0.733729 0.702526 0.816181
Si Si7 0.509320 0.419224 0.818949
Si Si8 0.994931 0.172280 0.818259
O O1 0.319621 0.077403 0.228585
O O2 0.109378 0.046469 0.283705
O O3 0.272823 0.993844 0.204334
O O4 0.189423 0.050823 0.000000
O O5 0.307065 0.434706 0.500000
O O6 0.182559 0.409888 0.259954
O O7 0.388519 0.440281 0.216252
O O8 0.795371 0.793537 0.500000
O O9 0.710521 0.836657 0.256806
O O10 0.720213 0.751319 0.252672
O O11 0.906362 0.794801 0.234440
O O12 0.991029 0.370675 0.218571
O O13 0.841145 0.385900 0.000000
O O14 0.078988 0.370884 0.500000
O O15 0.167550 0.323160 0.724971
O O16 0.615255 0.678496 0.788327
O O17 0.762623 0.703364 0.000000
O O18 0.536383 0.377294 0.709978
O O19 0.515195 0.404642 0.000000
O O20 0.964302 0.180495 0.000000
#
# Coordination Sequence:
#
# PCOD8238678 Si02
#       8
#     8   8   8   8   8   8   8   8
#     4  11  23  41  66  94 128 169 217 265 321 387
#     4  10  23  42  65  94 127 171 218 264 319 386
#     4  11  25  45  68  96 131 171 215 264 319 382
#     4  11  25  44  66  93 130 168 215 269 322 381
#     4  11  24  44  68  92 128 172 218 266 320 381
#     4  12  26  44  68  99 133 170 215 265 321 381
#     4  12  23  38  63  97 133 169 211 265 326 383
#     4  12  24  42  69  98 132 172 214 264 321 379
#
# _framework density 20.996210000000001
#
# number of rings (size 3 to 8) (size 9 to 14) (size 15 to 20)
#    0.000    0.750    2.500    5.250    1.750    5.000 
#    0.000    2.500    0.000    0.000    0.000    0.000 
#    0.000    0.000    0.000    0.000    0.000    0.000 
#
# Total GULP energy -794100.768939 kJ/mol
# GULP energy per Si atom -12407.824515 kJ/mol
# Density = 2.094842 g / cm^3
# Si number density = 20.996210 Si / 1000 Ang^3
#
#
#
# Elastic Constant Matrix: (Units=GPa)
#
#
# Indices 1 2 3 4 5 6 
#
# 1 105.9905 25.0607 18.6420 0.0000 0.0000 0.0000
# 2 25.0607 110.4151 32.3011 0.0000 0.0000 0.0000
# 3 18.6420 32.3011 70.7199 0.0000 0.0000 0.0000
# 4 0.0000 0.0000 0.0000 31.5710 0.0000 0.0000
# 5 0.0000 0.0000 0.0000 0.0000 34.4761 0.0000
# 6 0.0000 0.0000 0.0000 0.0000 0.0000 20.6976
#
#
#
# Elastic Compliance Matrix: (Units=1/GPa)
#
#
# Indices 1 2 3 4 5 6 
#
# 1 0.010182 -0.001761 -0.001880 0.000000 0.000000 0.000000
# 2 -0.001761 0.010758 -0.004450 0.000000 0.000000 0.000000
# 3 -0.001880 -0.004450 0.016668 0.000000 0.000000 0.000000
# 4 0.000000 0.000000 0.000000 0.031675 0.000000 0.000000
# 5 0.000000 0.000000 0.000000 0.000000 0.029006 0.000000
# 6 0.000000 0.000000 0.000000 0.000000 0.000000 0.048315
#
#
# Mechanical properties :
#
#
# Convention : Reuss Voigt Hill
#
# Bulk Modulus (GPa) = 46.66878 48.79258 47.73068
# Shear Modulus (GPa) = 29.42461 31.42373 30.42417
#
# Velocity S-wave (km/s) = 3.74762 3.87284 3.81074
# Velocity P-wave (km/s) = 6.40326 6.57934 6.49190
#
# Compressibility (1/GPa) = 0.02142760
#
# Stress axis : x y z
#
# Youngs Moduli (GPa) = 98.21456 92.95313 59.99497
#
# Poissons Ratio (x) = 0.16370 0.11277
# Poissons Ratio (y) = 0.17296 0.26695
# Poissons Ratio (z) = 0.18460 0.41360
#
# Static dielectric constant tensor:
#      x y z
#    x 3.681810 0.000000 0.000000 
#    y 0.000000 3.936020 0.000000 
#    z 0.000000 0.000000 3.763120 
# 
# 
# High freq. dielectric constant tensor:
#      x y z
#    x 1.821180 0.000000 0.000000 
#    y 0.000000 1.832990 0.000000 
#    z 0.000000 0.000000 1.829010 
# 
# From -- ./inp_files/4673.got.cif
#   From: 2010.06.25/outbox.cif.g09.slc.cpg/sg58_3_cif.got.tgz:4673.got - 2010.06.26 21:38:00.
