data_PCOD8238152
_publ_section_title
;
Structure prediction by ZEFSAII (Michael W. Deem and Ramdas Pophale) SiO2 
 PCOD8238152
Probable space group: P N N M
;
_chemical_formula_sum "Si O2"
_cell_formula_units_Z 56
_cell_length_a 9.113596
_cell_length_b 22.761495
_cell_length_c 13.102656
_cell_angle_alpha 90.000000
_cell_angle_beta 90.000000
_cell_angle_gamma 90.000000
_cell_volume 2718.002772
_symmetry_space_group_name_H-M "P N N M"
_symmetry_group_IT_number 58
_symmetry_cell_setting 'orthorhombic'
loop_
_space_group_symop_operation_xyz
x,y,z
-x,-y,z
1/2+x,1/2-y,1/2-z
1/2-x,1/2+y,1/2-z
-x,-y,-z
x,y,-z
1/2-x,1/2+y,1/2+z
1/2+x,1/2-y,1/2+z
loop_
_atom_site_type_symbol
_atom_site_label
_atom_site_fract_x
_atom_site_fract_y
_atom_site_fract_z
Si Si1 0.249134 0.948276 0.789065
Si Si2 0.256949 0.649079 0.881920
Si Si3 0.437161 0.362044 0.386935
Si Si4 0.029604 0.931766 0.612879
Si Si5 0.717128 0.426344 0.382209
Si Si6 0.691370 0.218605 0.120737
Si Si7 0.978299 0.373257 0.285432
O O1 0.182807 0.914794 0.887321
O O2 0.159242 0.921328 0.693166
O O3 0.417216 0.930098 0.771872
O O4 0.229898 0.017327 0.808000
O O5 0.381709 0.602011 0.855028
O O6 0.320664 0.713069 0.853198
O O7 0.109575 0.635755 0.819435
O O8 0.210800 0.646537 0.000000
O O9 0.486514 0.345874 0.500000
O O10 0.586511 0.385782 0.334008
O O11 0.352583 0.305051 0.340903
O O12 0.079669 0.909772 0.500000
O O13 0.000000 0.000000 0.609379
O O14 0.687505 0.444690 0.500000
O O15 0.865345 0.388818 0.376120
O O16 0.564727 0.185504 0.183712
O O17 0.673221 0.205653 0.000000
#
# Coordination Sequence:
#
# PCOD8238152 Si02
#       7
#     8   8   8   8   8   8   8
#     4  11  21  34  54  82 114 149 188 233 284 343
#     4  10  22  41  62  83 113 155 199 242 291 345
#     4   9  18  33  54  80 111 149 189 228 274 338
#     4  10  21  38  59  80 106 145 192 239 284 336
#     4  11  22  36  57  86 120 155 189 229 286 355
#     4   9  20  39  59  82 114 150 190 238 290 341
#     4  11  23  35  56  86 116 149 188 238 292 341
#
# _framework density 20.603362000000001
#
# number of rings (size 3 to 8) (size 9 to 14) (size 15 to 20)
#    0.000    1.857    0.000    4.286    0.000    7.429 
#    0.000    0.000    0.000   10.286    0.000    0.000 
#    0.000    0.000    0.000    0.000    0.000    0.000 
#
# Total GULP energy -694023.574991 kJ/mol
# GULP energy per Si atom -12393.278125 kJ/mol
# Density = 2.055647 g / cm^3
# Si number density = 20.603362 Si / 1000 Ang^3
#
#
#
# Elastic Constant Matrix: (Units=GPa)
#
#
# Indices 1 2 3 4 5 6 
#
# 1 158.0398 69.8855 49.1508 0.0000 0.0000 0.0000
# 2 69.8855 126.0441 34.2451 0.0000 0.0000 0.0000
# 3 49.1508 34.2451 88.9171 0.0000 0.0000 0.0000
# 4 0.0000 0.0000 0.0000 22.4664 0.0000 0.0000
# 5 0.0000 0.0000 0.0000 0.0000 30.6969 0.0000
# 6 0.0000 0.0000 0.0000 0.0000 0.0000 33.9206
#
#
#
# Elastic Compliance Matrix: (Units=1/GPa)
#
#
# Indices 1 2 3 4 5 6 
#
# 1 0.009271 -0.004186 -0.003513 0.000000 0.000000 0.000000
# 2 -0.004186 0.010751 -0.001827 0.000000 0.000000 0.000000
# 3 -0.003513 -0.001827 0.013892 0.000000 0.000000 0.000000
# 4 0.000000 0.000000 0.000000 0.044511 0.000000 0.000000
# 5 0.000000 0.000000 0.000000 0.000000 0.032577 0.000000
# 6 0.000000 0.000000 0.000000 0.000000 0.000000 0.029481
#
#
# Mechanical properties :
#
#
# Convention : Reuss Voigt Hill
#
# Bulk Modulus (GPa) = 67.28084 75.50710 71.39397
# Shear Modulus (GPa) = 30.39766 32.06477 31.23121
#
# Velocity S-wave (km/s) = 3.84523 3.94926 3.89759
# Velocity P-wave (km/s) = 7.24158 7.58440 7.41497
#
# Compressibility (1/GPa) = 0.01486307
#
# Stress axis : x y z
#
# Youngs Moduli (GPa) = 107.86335 93.01497 71.98602
#
# Poissons Ratio (x) = 0.38936 0.25285
# Poissons Ratio (y) = 0.45152 0.13150
# Poissons Ratio (z) = 0.37888 0.16991
#
# Static dielectric constant tensor:
#      x y z
#    x 3.745170 0.000000 0.000000 
#    y 0.000000 3.691340 0.000000 
#    z 0.000000 0.000000 3.839290 
# 
# 
# High freq. dielectric constant tensor:
#      x y z
#    x 1.804970 0.000000 0.000000 
#    y 0.000000 1.802180 0.000000 
#    z 0.000000 0.000000 1.805360 
# 
# From -- ./inp_files/20127.got.cif
#   From: 2010.06.25/outbox.cif.g09.slc.cpg/sg58_11_cif.got.tgz:20127.got - 2010.06.26 21:38:00.
