data_PCOD8238324
_publ_section_title
;
Structure prediction by ZEFSAII (Michael W. Deem and Ramdas Pophale) SiO2 
 PCOD8238324
Probable space group: P N N M
;
_chemical_formula_sum "Si O2"
_cell_formula_units_Z 40
_cell_length_a 18.448247
_cell_length_b 12.378688
_cell_length_c 8.917783
_cell_angle_alpha 90.000000
_cell_angle_beta 90.000000
_cell_angle_gamma 90.000000
_cell_volume 2036.510351
_symmetry_space_group_name_H-M "P N N M"
_symmetry_group_IT_number 58
_symmetry_cell_setting 'orthorhombic'
loop_
_space_group_symop_operation_xyz
x,y,z
-x,-y,z
1/2+x,1/2-y,1/2-z
1/2-x,1/2+y,1/2-z
-x,-y,-z
x,y,-z
1/2-x,1/2+y,1/2+z
1/2+x,1/2-y,1/2+z
loop_
_atom_site_type_symbol
_atom_site_label
_atom_site_fract_x
_atom_site_fract_y
_atom_site_fract_z
Si Si1 0.886948 0.804604 0.823653
Si Si2 0.074785 0.545991 0.323211
Si Si3 0.040881 0.781889 0.676340
Si Si4 0.144343 0.949709 0.174941
Si Si5 0.804593 0.617211 0.322252
O O1 0.824223 0.728917 0.757704
O O2 0.962462 0.773881 0.749352
O O3 0.864937 0.925901 0.782653
O O4 0.892954 0.787176 0.000000
O O5 0.071716 0.530998 0.500000
O O6 0.084068 0.672118 0.281290
O O7 0.142847 0.478083 0.261098
O O8 0.000000 0.500000 0.252972
O O9 0.030010 0.793274 0.500000
O O10 0.084028 0.884200 0.735836
O O11 0.223575 0.912600 0.226372
O O12 0.131359 0.929249 0.000000
O O13 0.811550 0.631138 0.500000
#
# Coordination Sequence:
#
# PCOD8238324 Si02
#       5
#     8   8   8   8   8
#     4  11  23  40  61  87 123 159 197 244 301 356
#     4   9  17  34  60  86 113 150 195 241 290 346
#     4  11  22  38  65  91 116 155 206 249 291 354
#     4  10  24  41  59  85 123 162 194 242 305 359
#     4  10  21  40  62  85 117 157 200 244 297 356
#
# _framework density 19.641442000000001
#
# number of rings (size 3 to 8) (size 9 to 14) (size 15 to 20)
#    0.000    1.800    2.000    1.800    2.800    4.800 
#    0.000    3.000    0.000    0.000    0.000    0.000 
#    0.000    0.000    0.000    0.000    0.000    0.000 
#
# Total GULP energy -496122.617209 kJ/mol
# GULP energy per Si atom -12403.065430 kJ/mol
# Density = 1.959674 g / cm^3
# Si number density = 19.641442 Si / 1000 Ang^3
#
#
#
# Elastic Constant Matrix: (Units=GPa)
#
#
# Indices 1 2 3 4 5 6 
#
# 1 50.6449 11.5736 5.8211 0.0000 0.0000 0.0000
# 2 11.5736 106.0692 28.1288 0.0000 0.0000 0.0000
# 3 5.8211 28.1288 37.1787 0.0000 0.0000 0.0000
# 4 0.0000 0.0000 0.0000 27.8661 0.0000 0.0000
# 5 0.0000 0.0000 0.0000 0.0000 20.9023 0.0000
# 6 0.0000 0.0000 0.0000 0.0000 0.0000 26.3228
#
#
#
# Elastic Compliance Matrix: (Units=1/GPa)
#
#
# Indices 1 2 3 4 5 6 
#
# 1 0.020355 -0.001721 -0.001885 0.000000 0.000000 0.000000
# 2 -0.001721 0.011940 -0.008764 0.000000 0.000000 0.000000
# 3 -0.001885 -0.008764 0.033823 0.000000 0.000000 0.000000
# 4 0.000000 0.000000 0.000000 0.035886 0.000000 0.000000
# 5 0.000000 0.000000 0.000000 0.000000 0.047842 0.000000
# 6 0.000000 0.000000 0.000000 0.000000 0.000000 0.037990
#
#
# Mechanical properties :
#
#
# Convention : Reuss Voigt Hill
#
# Bulk Modulus (GPa) = 24.16738 31.65995 27.91367
# Shear Modulus (GPa) = 22.08795 24.90954 23.49874
#
# Velocity S-wave (km/s) = 3.35708 3.56506 3.46263
# Velocity P-wave (km/s) = 5.23045 5.75327 5.49808
#
# Compressibility (1/GPa) = 0.04137808
#
# Stress axis : x y z
#
# Youngs Moduli (GPa) = 49.12725 83.75392 29.56577
#
# Poissons Ratio (x) = 0.14416 0.05573
# Poissons Ratio (y) = 0.08456 0.25911
# Poissons Ratio (z) = 0.09260 0.73401
#
# Static dielectric constant tensor:
#      x y z
#    x 3.774500 0.000000 0.000000 
#    y 0.000000 3.775250 0.000000 
#    z 0.000000 0.000000 3.366230 
# 
# 
# High freq. dielectric constant tensor:
#      x y z
#    x 1.772730 0.000000 0.000000 
#    y 0.000000 1.783370 0.000000 
#    z 0.000000 0.000000 1.744010 
# 
# From -- ./inp_files/3800.got.cif
#   From: 2010.06.25/outbox.cif.g09.slc.cpg/sg58_2_cif.got.tgz:3800.got - 2010.06.26 21:38:00.
