data_PCOD8238482
_publ_section_title
;
Structure prediction by ZEFSAII (Michael W. Deem and Ramdas Pophale) SiO2 
 PCOD8238482
Probable space group: P N N M
;
_chemical_formula_sum "Si O2"
_cell_formula_units_Z 64
_cell_length_a 27.474282
_cell_length_b 12.724336
_cell_length_c 8.946036
_cell_angle_alpha 90.000000
_cell_angle_beta 90.000000
_cell_angle_gamma 90.000000
_cell_volume 3127.462577
_symmetry_space_group_name_H-M "P N N M"
_symmetry_group_IT_number 58
_symmetry_cell_setting 'orthorhombic'
loop_
_space_group_symop_operation_xyz
x,y,z
-x,-y,z
1/2+x,1/2-y,1/2-z
1/2-x,1/2+y,1/2-z
-x,-y,-z
x,y,-z
1/2-x,1/2+y,1/2+z
1/2+x,1/2-y,1/2+z
loop_
_atom_site_type_symbol
_atom_site_label
_atom_site_fract_x
_atom_site_fract_y
_atom_site_fract_z
Si Si1 0.358491 0.569055 0.823747
Si Si2 0.365970 0.361197 0.323718
Si Si3 0.192365 0.682434 0.671907
Si Si4 0.048582 0.767705 0.672189
Si Si5 0.051369 0.549416 0.826538
Si Si6 0.302420 0.749402 0.329632
Si Si7 0.465786 0.588816 0.827000
Si Si8 0.342185 0.977072 0.326272
O O1 0.338809 0.462337 0.746595
O O2 0.325676 0.666596 0.781628
O O3 0.412225 0.592943 0.756282
O O4 0.356684 0.553286 0.000000
O O5 0.364979 0.370302 0.500000
O O6 0.342239 0.252647 0.273177
O O7 0.420940 0.356628 0.260796
O O8 0.175393 0.684290 0.500000
O O9 0.245191 0.733524 0.688035
O O10 0.187552 0.563474 0.731688
O O11 0.064208 0.772859 0.500000
O O12 0.059819 0.653432 0.732797
O O13 0.991750 0.797702 0.693591
O O14 0.099077 0.477121 0.795353
O O15 0.000000 0.500000 0.772828
O O16 0.047601 0.579533 0.000000
O O17 0.319050 0.728453 0.500000
O O18 0.319691 0.865081 0.278671
O O19 0.500000 0.500000 0.751992
O O20 0.458884 0.559813 0.000000
O O21 0.332142 0.999853 0.500000
#
# Coordination Sequence:
#
# PCOD8238482 Si02
#       8
#     8   8   8   8   8   8   8   8
#     4  11  23  41  65  92 126 169 214 261 313 371
#     4  12  24  40  63  93 127 162 208 263 321 380
#     4  11  24  43  67  94 123 162 213 263 316 379
#     4  11  21  37  61  89 123 164 210 259 310 370
#     4  10  22  39  60  89 125 168 210 254 312 380
#     4  10  25  45  64  93 129 167 207 258 319 378
#     4   9  18  35  57  85 124 162 199 245 300 359
#     4  10  22  43  66  91 130 170 209 261 317 376
#
# _framework density 20.463874000000001
#
# number of rings (size 3 to 8) (size 9 to 14) (size 15 to 20)
#    0.000    1.500    2.500    2.250    3.500    1.750 
#    0.000    2.500    0.000    0.000    0.000    0.000 
#    0.000    0.000    0.000    0.000    0.000    0.000 
#
# Total GULP energy -793551.053502 kJ/mol
# GULP energy per Si atom -12399.235211 kJ/mol
# Density = 2.041730 g / cm^3
# Si number density = 20.463874 Si / 1000 Ang^3
#
#
#
# Elastic Constant Matrix: (Units=GPa)
#
#
# Indices 1 2 3 4 5 6 
#
# 1 74.0179 32.5293 32.1666 0.0000 0.0000 0.0000
# 2 32.5293 124.2448 53.4348 0.0000 0.0000 0.0000
# 3 32.1666 53.4348 107.1366 0.0000 0.0000 0.0000
# 4 0.0000 0.0000 0.0000 30.3770 0.0000 0.0000
# 5 0.0000 0.0000 0.0000 0.0000 25.4201 0.0000
# 6 0.0000 0.0000 0.0000 0.0000 0.0000 34.2888
#
#
#
# Elastic Compliance Matrix: (Units=1/GPa)
#
#
# Indices 1 2 3 4 5 6 
#
# 1 0.016240 -0.002743 -0.003508 0.000000 0.000000 0.000000
# 2 -0.002743 0.010710 -0.004518 0.000000 0.000000 0.000000
# 3 -0.003508 -0.004518 0.012640 0.000000 0.000000 0.000000
# 4 0.000000 0.000000 0.000000 0.032920 0.000000 0.000000
# 5 0.000000 0.000000 0.000000 0.000000 0.039339 0.000000
# 6 0.000000 0.000000 0.000000 0.000000 0.000000 0.029164
#
#
# Mechanical properties :
#
#
# Convention : Reuss Voigt Hill
#
# Bulk Modulus (GPa) = 55.39393 60.18454 57.78924
# Shear Modulus (GPa) = 29.66146 30.50174 30.08160
#
# Velocity S-wave (km/s) = 3.81130 3.86491 3.83820
# Velocity P-wave (km/s) = 6.81879 7.02785 6.92411
#
# Compressibility (1/GPa) = 0.01805252
#
# Stress axis : x y z
#
# Youngs Moduli (GPa) = 61.57531 93.37104 79.11160
#
# Poissons Ratio (x) = 0.25615 0.27750
# Poissons Ratio (y) = 0.16893 0.35742
# Poissons Ratio (z) = 0.21599 0.42185
#
# Static dielectric constant tensor:
#      x y z
#    x 3.967170 0.000000 0.000000 
#    y 0.000000 3.691030 0.000000 
#    z 0.000000 0.000000 3.544320 
# 
# 
# High freq. dielectric constant tensor:
#      x y z
#    x 1.806920 0.000000 0.000000 
#    y 0.000000 1.803740 0.000000 
#    z 0.000000 0.000000 1.787530 
# 
# From -- ./inp_files/11059.got.cif
#   From: 2010.06.25/outbox.cif.g09.slc.cpg/sg58_6_cif.got.tgz:11059.got - 2010.06.26 21:38:00.
