data_PCOD8238644
_publ_section_title
;
Structure prediction by ZEFSAII (Michael W. Deem and Ramdas Pophale) SiO2 
 PCOD8238644
Probable space group: P N N M
;
_chemical_formula_sum "Si O2"
_cell_formula_units_Z 48
_cell_length_a 30.586503
_cell_length_b 8.927043
_cell_length_c 8.316910
_cell_angle_alpha 90.000000
_cell_angle_beta 90.000000
_cell_angle_gamma 90.000000
_cell_volume 2270.907553
_symmetry_space_group_name_H-M "P N N M"
_symmetry_group_IT_number 58
_symmetry_cell_setting 'orthorhombic'
loop_
_space_group_symop_operation_xyz
x,y,z
-x,-y,z
1/2+x,1/2-y,1/2-z
1/2-x,1/2+y,1/2-z
-x,-y,-z
x,y,-z
1/2-x,1/2+y,1/2+z
1/2+x,1/2-y,1/2+z
loop_
_atom_site_type_symbol
_atom_site_label
_atom_site_fract_x
_atom_site_fract_y
_atom_site_fract_z
Si Si1 0.624375 0.401872 0.311457
Si Si2 0.710773 0.921355 0.314008
Si Si3 0.293667 0.413394 0.687114
Si Si4 0.127784 0.426252 0.683340
Si Si5 0.955167 0.088185 0.684996
Si Si6 0.544066 0.917052 0.687253
O O1 0.629202 0.368809 0.500000
O O2 0.666551 0.489588 0.240273
O O3 0.619883 0.247184 0.218136
O O4 0.581709 0.498827 0.279700
O O5 0.724531 0.917131 0.500000
O O6 0.747842 0.007460 0.216856
O O7 0.665316 0.008187 0.297235
O O8 0.706548 0.754309 0.239608
O O9 0.302655 0.396518 0.500000
O O10 0.142660 0.446683 0.500000
O O11 0.083308 0.515475 0.710322
O O12 0.941359 0.111753 0.500000
O O13 0.961655 0.243969 0.774241
O O14 0.000000 0.000000 0.698871
O O15 0.554141 0.941593 0.500000
O O16 0.500000 0.000000 0.740079
#
# Coordination Sequence:
#
# PCOD8238644 Si02
#       6
#     8   8   8   8   8   8
#     4  11  23  41  65  91 124 164 207 254 305 366
#     4  11  23  40  63  90 122 160 204 251 303 368
#     4  10  23  41  61  89 122 158 202 252 305 362
#     4  12  25  41  63  91 125 161 203 256 311 367
#     4  11  24  41  63  93 128 164 204 252 306 363
#     4  11  24  42  65  92 123 162 208 255 306 365
#
# _framework density 21.136921999999998
#
# number of rings (size 3 to 8) (size 9 to 14) (size 15 to 20)
#    0.000    1.000    0.000    6.500    0.000   12.000 
#    0.000    0.000    0.000    0.000    0.000    0.000 
#    0.000    0.000    0.000    0.000    0.000    0.000 
#
# Total GULP energy -595571.500368 kJ/mol
# GULP energy per Si atom -12407.739591 kJ/mol
# Density = 2.108881 g / cm^3
# Si number density = 21.136922 Si / 1000 Ang^3
#
#
#
# Elastic Constant Matrix: (Units=GPa)
#
#
# Indices 1 2 3 4 5 6 
#
# 1 124.3816 49.5235 8.6049 0.0000 0.0000 0.0000
# 2 49.5235 145.3999 6.8595 0.0000 0.0000 0.0000
# 3 8.6049 6.8595 45.5859 0.0000 0.0000 0.0000
# 4 0.0000 0.0000 0.0000 158.5360 0.0000 0.0000
# 5 0.0000 0.0000 0.0000 0.0000 32.0158 0.0000
# 6 0.0000 0.0000 0.0000 0.0000 0.0000 39.2808
#
#
#
# Elastic Compliance Matrix: (Units=1/GPa)
#
#
# Indices 1 2 3 4 5 6 
#
# 1 0.009377 -0.003133 -0.001299 0.000000 0.000000 0.000000
# 2 -0.003133 0.007973 -0.000608 0.000000 0.000000 0.000000
# 3 -0.001299 -0.000608 0.022273 0.000000 0.000000 0.000000
# 4 0.000000 0.000000 0.000000 0.006308 0.000000 0.000000
# 5 0.000000 0.000000 0.000000 0.000000 0.031235 0.000000
# 6 0.000000 0.000000 0.000000 0.000000 0.000000 0.025458
#
#
# Mechanical properties :
#
#
# Convention : Reuss Voigt Hill
#
# Bulk Modulus (GPa) = 33.84766 49.48261 41.66513
# Shear Modulus (GPa) = 40.79944 62.65847 51.72896
#
# Velocity S-wave (km/s) = 4.39822 5.45054 4.95241
# Velocity P-wave (km/s) = 6.46844 7.94182 7.24270
#
# Compressibility (1/GPa) = 0.02954414
#
# Stress axis : x y z
#
# Youngs Moduli (GPa) = 106.64563 125.41970 44.89684
#
# Poissons Ratio (x) = 0.39288 0.05830
# Poissons Ratio (y) = 0.33407 0.02732
# Poissons Ratio (z) = 0.13849 0.07631
#
# Static dielectric constant tensor:
#      x y z
#    x 3.819090 0.000000 0.000000 
#    y 0.000000 3.982230 0.000000 
#    z 0.000000 0.000000 3.770870 
# 
# 
# High freq. dielectric constant tensor:
#      x y z
#    x 1.842320 0.000000 0.000000 
#    y 0.000000 1.849170 0.000000 
#    z 0.000000 0.000000 1.827480 
# 
# From -- ./inp_files/10743.got.cif
#   From: 2010.06.25/outbox.cif.g09.slc.cpg/sg58_6_cif.got.tgz:10743.got - 2010.06.26 21:38:00.
