data_PCOD8238458
_publ_section_title
;
Structure prediction by ZEFSAII (Michael W. Deem and Ramdas Pophale) SiO2 
 PCOD8238458
Probable space group: P N N M
;
_chemical_formula_sum "Si O2"
_cell_formula_units_Z 48
_cell_length_a 30.566418
_cell_length_b 9.375020
_cell_length_c 8.808568
_cell_angle_alpha 90.000000
_cell_angle_beta 90.000000
_cell_angle_gamma 90.000000
_cell_volume 2524.190117
_symmetry_space_group_name_H-M "P N N M"
_symmetry_group_IT_number 58
_symmetry_cell_setting 'orthorhombic'
loop_
_space_group_symop_operation_xyz
x,y,z
-x,-y,z
1/2+x,1/2-y,1/2-z
1/2-x,1/2+y,1/2-z
-x,-y,-z
x,y,-z
1/2-x,1/2+y,1/2+z
1/2+x,1/2-y,1/2+z
loop_
_atom_site_type_symbol
_atom_site_label
_atom_site_fract_x
_atom_site_fract_y
_atom_site_fract_z
Si Si1 0.716212 0.585143 0.176781
Si Si2 0.039332 0.085856 0.327507
Si Si3 0.865011 0.891519 0.678353
Si Si4 0.132686 0.407343 0.821372
Si Si5 0.958893 0.585807 0.673344
Si Si6 0.206442 0.586617 0.322124
O O1 0.669418 0.514928 0.214163
O O2 0.752057 0.507519 0.277655
O O3 0.714792 0.749880 0.224593
O O4 0.728237 0.566541 0.000000
O O5 0.041629 0.030641 0.500000
O O6 0.087571 0.059289 0.255146
O O7 0.027429 0.250615 0.316608
O O8 0.000000 0.000000 0.242951
O O9 0.869586 0.859037 0.500000
O O10 0.850534 0.742952 0.753936
O O11 0.083709 0.447020 0.772175
O O12 0.163792 0.533520 0.765289
O O13 0.135391 0.395732 0.000000
O O14 0.949011 0.540085 0.500000
O O15 0.000000 0.500000 0.740601
O O16 0.197839 0.572461 0.500000
#
# Coordination Sequence:
#
# PCOD8238458 Si02
#       6
#     8   8   8   8   8   8
#     4  10  22  38  57  82 109 140 179 223 272 323
#     4   8  14  26  48  77 104 133 171 214 258 304
#     4   9  18  35  57  80 109 143 180 223 269 318
#     4  11  22  36  55  79 110 146 183 222 268 321
#     4   9  18  33  54  78 105 140 181 223 267 315
#     4  11  23  38  57  81 109 140 178 223 270 324
#
# _framework density 19.015999999999998
#
# number of rings (size 3 to 8) (size 9 to 14) (size 15 to 20)
#    0.000    2.333    0.000    4.000    0.000    6.333 
#    0.000    5.000    0.000    8.000    0.000    0.000 
#    0.000    0.000    0.000    0.000    0.000    0.000 
#
# Total GULP energy -595195.443828 kJ/mol
# GULP energy per Si atom -12399.905080 kJ/mol
# Density = 1.897272 g / cm^3
# Si number density = 19.016000 Si / 1000 Ang^3
#
#
#
# Elastic Constant Matrix: (Units=GPa)
#
#
# Indices 1 2 3 4 5 6 
#
# 1 124.9398 77.4426 41.3442 0.0000 0.0000 0.0000
# 2 77.4426 113.8163 41.5336 0.0000 0.0000 0.0000
# 3 41.3442 41.5336 70.2257 0.0000 0.0000 0.0000
# 4 0.0000 0.0000 0.0000 19.6171 0.0000 0.0000
# 5 0.0000 0.0000 0.0000 0.0000 27.2936 0.0000
# 6 0.0000 0.0000 0.0000 0.0000 0.0000 41.3563
#
#
#
# Elastic Compliance Matrix: (Units=1/GPa)
#
#
# Indices 1 2 3 4 5 6 
#
# 1 0.014464 -0.008587 -0.003436 0.000000 0.000000 0.000000
# 2 -0.008587 0.016303 -0.004586 0.000000 0.000000 0.000000
# 3 -0.003436 -0.004586 0.018975 0.000000 0.000000 0.000000
# 4 0.000000 0.000000 0.000000 0.050976 0.000000 0.000000
# 5 0.000000 0.000000 0.000000 0.000000 0.036639 0.000000
# 6 0.000000 0.000000 0.000000 0.000000 0.000000 0.024180
#
#
# Mechanical properties :
#
#
# Convention : Reuss Voigt Hill
#
# Bulk Modulus (GPa) = 60.52639 69.95806 65.24222
# Shear Modulus (GPa) = 24.96702 27.56415 26.26558
#
# Velocity S-wave (km/s) = 3.62739 3.81139 3.72053
# Velocity P-wave (km/s) = 7.03152 7.49919 7.26912
#
# Compressibility (1/GPa) = 0.01652172
#
# Stress axis : x y z
#
# Youngs Moduli (GPa) = 69.13782 61.33941 52.69978
#
# Poissons Ratio (x) = 0.52675 0.18110
# Poissons Ratio (y) = 0.59372 0.24169
# Poissons Ratio (z) = 0.23759 0.28132
#
# Static dielectric constant tensor:
#      x y z
#    x 3.764240 0.000000 0.000000 
#    y 0.000000 3.503480 0.000000 
#    z 0.000000 0.000000 3.247770 
# 
# 
# High freq. dielectric constant tensor:
#      x y z
#    x 1.755900 0.000000 0.000000 
#    y 0.000000 1.738140 0.000000 
#    z 0.000000 0.000000 1.711860 
# 
# From -- ./inp_files/2904.got.cif
#   From: 2010.06.25/outbox.cif.g09.slc.cpg/sg58_2_cif.got.tgz:2904.got - 2010.06.26 21:38:00.
