data_PCOD8238011
_publ_section_title
;
Structure prediction by ZEFSAII (Michael W. Deem and Ramdas Pophale) SiO2 
 PCOD8238011
Probable space group: P N N M
;
_chemical_formula_sum "Si O2"
_cell_formula_units_Z 64
_cell_length_a 11.324581
_cell_length_b 15.078582
_cell_length_c 19.053399
_cell_angle_alpha 90.000000
_cell_angle_beta 90.000000
_cell_angle_gamma 90.000000
_cell_volume 3253.532181
_symmetry_space_group_name_H-M "P N N M"
_symmetry_group_IT_number 58
_symmetry_cell_setting 'orthorhombic'
loop_
_space_group_symop_operation_xyz
x,y,z
-x,-y,z
1/2+x,1/2-y,1/2-z
1/2-x,1/2+y,1/2-z
-x,-y,-z
x,y,-z
1/2-x,1/2+y,1/2+z
1/2+x,1/2-y,1/2+z
loop_
_atom_site_type_symbol
_atom_site_label
_atom_site_fract_x
_atom_site_fract_y
_atom_site_fract_z
Si Si1 0.797283 0.344306 0.281785
Si Si2 0.870263 0.791797 0.580561
Si Si3 0.627854 0.775363 0.922099
Si Si4 0.679798 0.127691 0.575984
Si Si5 0.130082 0.010564 0.386764
Si Si6 0.630387 0.512964 0.273264
Si Si7 0.283334 0.823463 0.202318
Si Si8 0.480080 0.897449 0.293428
O O1 0.860353 0.344699 0.358332
O O2 0.707024 0.425506 0.286820
O O3 0.735837 0.251257 0.262325
O O4 0.893012 0.353414 0.219455
O O5 0.829693 0.782294 0.500000
O O6 0.833250 0.886541 0.612080
O O7 0.803616 0.717226 0.625536
O O8 0.010905 0.783040 0.588508
O O9 0.740883 0.713776 0.915474
O O10 0.624517 0.821180 0.000000
O O11 0.616607 0.128096 0.500000
O O12 0.577190 0.132440 0.633422
O O13 0.765077 0.041976 0.575918
O O14 0.122180 0.970238 0.309355
O O15 0.000000 0.000000 0.423171
O O16 0.500000 0.500000 0.305726
O O17 0.679761 0.604169 0.305940
O O18 0.397845 0.876925 0.227183
O O19 0.500000 0.000000 0.297132
#
# Coordination Sequence:
#
# PCOD8238011 Si02
#       8
#     8   8   8   8   8   8   8   8
#     4  12  23  41  68  91 127 173 209 272 316 380
#     4  11  23  38  60  95 133 170 215 270 329 382
#     4  10  21  36  60  95 128 165 210 261 322 381
#     4  11  22  37  57  90 137 174 205 255 324 402
#     4  11  19  34  60  96 132 168 212 264 324 394
#     4  11  25  41  65  97 126 162 221 270 324 387
#     4  12  24  41  65  95 126 170 212 269 321 385
#     4  12  24  41  61  93 128 166 216 262 313 382
#
# _framework density 19.670928
#
# number of rings (size 3 to 8) (size 9 to 14) (size 15 to 20)
#    0.000    0.750    7.500    0.375    3.500    0.750 
#    0.000    1.250    0.000    3.750    0.000    0.000 
#    0.000    0.000    0.000    0.000    0.000    0.000 
#
# Total GULP energy -793474.126597 kJ/mol
# GULP energy per Si atom -12398.033228 kJ/mol
# Density = 1.962616 g / cm^3
# Si number density = 19.670928 Si / 1000 Ang^3
#
#
#
# Elastic Constant Matrix: (Units=GPa)
#
#
# Indices 1 2 3 4 5 6 
#
# 1 93.9266 29.3587 42.7097 0.0000 0.0000 0.0000
# 2 29.3587 67.1933 29.3479 0.0000 0.0000 0.0000
# 3 42.7097 29.3479 109.1355 0.0000 0.0000 0.0000
# 4 0.0000 0.0000 0.0000 25.0836 0.0000 0.0000
# 5 0.0000 0.0000 0.0000 0.0000 29.8289 0.0000
# 6 0.0000 0.0000 0.0000 0.0000 0.0000 28.4177
#
#
#
# Elastic Compliance Matrix: (Units=1/GPa)
#
#
# Indices 1 2 3 4 5 6 
#
# 1 0.013923 -0.004196 -0.004320 0.000000 0.000000 0.000000
# 2 -0.004196 0.018128 -0.003233 0.000000 0.000000 0.000000
# 3 -0.004320 -0.003233 0.011723 0.000000 0.000000 0.000000
# 4 0.000000 0.000000 0.000000 0.039867 0.000000 0.000000
# 5 0.000000 0.000000 0.000000 0.000000 0.033525 0.000000
# 6 0.000000 0.000000 0.000000 0.000000 0.000000 0.035189
#
#
# Mechanical properties :
#
#
# Convention : Reuss Voigt Hill
#
# Bulk Modulus (GPa) = 49.32114 52.56534 50.94324
# Shear Modulus (GPa) = 27.38070 27.92200 27.65135
#
# Velocity S-wave (km/s) = 3.73492 3.77165 3.75333
# Velocity P-wave (km/s) = 6.61264 6.76369 6.68859
#
# Compressibility (1/GPa) = 0.02027528
#
# Stress axis : x y z
#
# Youngs Moduli (GPa) = 71.82516 55.16378 85.30334
#
# Poissons Ratio (x) = 0.23149 0.36852
# Poissons Ratio (y) = 0.30140 0.27575
# Poissons Ratio (z) = 0.31029 0.17832
#
# Static dielectric constant tensor:
#      x y z
#    x 3.620360 0.000000 0.000000 
#    y 0.000000 3.482060 0.000000 
#    z 0.000000 0.000000 3.735070 
# 
# 
# High freq. dielectric constant tensor:
#      x y z
#    x 1.765980 0.000000 0.000000 
#    y 0.000000 1.759350 0.000000 
#    z 0.000000 0.000000 1.761150 
# 
# From -- ./inp_files/26404.got.cif
#   From: 2010.06.25/outbox.cif.g09.slc.cpg/sg58_14_cif.got.tgz:26404.got - 2010.06.26 21:38:00.
