data_PCOD8238964
_publ_section_title
;
Structure prediction by ZEFSAII (Michael W. Deem and Ramdas Pophale) SiO2 
 PCOD8238964
Probable space group: P N N M
;
_chemical_formula_sum "Si O2"
_cell_formula_units_Z 64
_cell_length_a 21.645164
_cell_length_b 16.886605
_cell_length_c 8.976262
_cell_angle_alpha 90.000000
_cell_angle_beta 90.000000
_cell_angle_gamma 90.000000
_cell_volume 3280.943456
_symmetry_space_group_name_H-M "P N N M"
_symmetry_group_IT_number 58
_symmetry_cell_setting 'orthorhombic'
loop_
_space_group_symop_operation_xyz
x,y,z
-x,-y,z
1/2+x,1/2-y,1/2-z
1/2-x,1/2+y,1/2-z
-x,-y,-z
x,y,-z
1/2-x,1/2+y,1/2+z
1/2+x,1/2-y,1/2+z
loop_
_atom_site_type_symbol
_atom_site_label
_atom_site_fract_x
_atom_site_fract_y
_atom_site_fract_z
Si Si1 0.226572 0.161544 0.674008
Si Si2 0.421624 0.923469 0.329193
Si Si3 0.368714 0.526035 0.829413
Si Si4 0.106082 0.866469 0.175905
Si Si5 0.436398 0.099660 0.672367
Si Si6 0.024863 0.150210 0.326751
Si Si7 0.121826 0.276804 0.675531
Si Si8 0.347437 0.214079 0.824464
O O1 0.242556 0.169746 0.500000
O O2 0.183713 0.233580 0.731439
O O3 0.288988 0.164057 0.768030
O O4 0.191247 0.079324 0.704756
O O5 0.410118 0.902745 0.500000
O O6 0.492201 0.907404 0.286217
O O7 0.377861 0.866385 0.233792
O O8 0.404237 0.014566 0.296842
O O9 0.366514 0.451290 0.720982
O O10 0.431475 0.574610 0.800812
O O11 0.367681 0.496715 0.000000
O O12 0.149757 0.800049 0.248911
O O13 0.035815 0.858280 0.228896
O O14 0.108686 0.856764 0.000000
O O15 0.426957 0.123908 0.500000
O O16 0.408437 0.165478 0.779906
O O17 0.005973 0.156881 0.500000
O O18 0.061197 0.228526 0.270873
O O19 0.122354 0.275383 0.500000
O O20 0.344805 0.224710 0.000000
#
# Coordination Sequence:
#
# PCOD8238964 Si02
#       8
#     8   8   8   8   8   8   8   8
#     4   9  20  41  62  79 107 147 186 230 283 331
#     4   9  18  33  56  85 114 145 184 224 272 334
#     4   9  19  38  62  85 113 150 188 228 280 337
#     4  12  24  36  55  85 118 150 186 231 280 331
#     4   9  19  37  57  80 113 149 182 225 281 333
#     4   9  18  34  57  86 120 153 184 224 278 335
#     4   9  18  33  56  84 112 145 184 227 275 327
#     4  12  25  40  58  81 109 147 194 236 281 334
#
# _framework density 19.506584
#
# number of rings (size 3 to 8) (size 9 to 14) (size 15 to 20)
#    0.000    2.250    0.000    5.625    0.000    6.500 
#    2.250    3.750    0.000    0.000    0.000    0.000 
#    0.000    0.000    0.000    0.000    0.000    0.000 
#
# Total GULP energy -793687.031657 kJ/mol
# GULP energy per Si atom -12401.359870 kJ/mol
# Density = 1.946219 g / cm^3
# Si number density = 19.506584 Si / 1000 Ang^3
#
#
#
# Elastic Constant Matrix: (Units=GPa)
#
#
# Indices 1 2 3 4 5 6 
#
# 1 59.2042 13.0558 32.7675 0.0000 0.0000 0.0000
# 2 13.0558 83.1051 34.2558 0.0000 0.0000 0.0000
# 3 32.7675 34.2558 92.5849 0.0000 0.0000 0.0000
# 4 0.0000 0.0000 0.0000 32.6240 0.0000 0.0000
# 5 0.0000 0.0000 0.0000 0.0000 23.3416 0.0000
# 6 0.0000 0.0000 0.0000 0.0000 0.0000 17.9513
#
#
#
# Elastic Compliance Matrix: (Units=1/GPa)
#
#
# Indices 1 2 3 4 5 6 
#
# 1 0.021011 -0.000278 -0.007333 0.000000 0.000000 0.000000
# 2 -0.000278 0.014202 -0.005156 0.000000 0.000000 0.000000
# 3 -0.007333 -0.005156 0.015304 0.000000 0.000000 0.000000
# 4 0.000000 0.000000 0.000000 0.030652 0.000000 0.000000
# 5 0.000000 0.000000 0.000000 0.000000 0.042842 0.000000
# 6 0.000000 0.000000 0.000000 0.000000 0.000000 0.055706
#
#
# Mechanical properties :
#
#
# Convention : Reuss Voigt Hill
#
# Bulk Modulus (GPa) = 40.02920 43.89471 41.96195
# Shear Modulus (GPa) = 23.41048 25.10439 24.25744
#
# Velocity S-wave (km/s) = 3.46805 3.59133 3.53023
# Velocity P-wave (km/s) = 6.04995 6.30462 6.17860
#
# Compressibility (1/GPa) = 0.02498177
#
# Stress axis : x y z
#
# Youngs Moduli (GPa) = 47.59487 70.41242 65.34228
#
# Poissons Ratio (x) = 0.01958 0.47917
# Poissons Ratio (y) = 0.01323 0.33692
# Poissons Ratio (z) = 0.34902 0.36306
#
# Static dielectric constant tensor:
#      x y z
#    x 3.428940 0.000000 0.000000 
#    y 0.000000 3.714500 0.000000 
#    z 0.000000 0.000000 3.349090 
# 
# 
# High freq. dielectric constant tensor:
#      x y z
#    x 1.748440 0.000000 0.000000 
#    y 0.000000 1.769210 0.000000 
#    z 0.000000 0.000000 1.746690 
# 
# From -- ./inp_files/9964.got.cif
#   From: 2010.06.25/outbox.cif.g09.slc.cpg/sg58_5_cif.got.tgz:9964.got - 2010.06.26 21:38:00.
