data_PCOD8238923
_publ_section_title
;
Structure prediction by ZEFSAII (Michael W. Deem and Ramdas Pophale) SiO2 
 PCOD8238923
Probable space group: P N N M
;
_chemical_formula_sum "Si O2"
_cell_formula_units_Z 40
_cell_length_a 8.872782
_cell_length_b 25.589553
_cell_length_c 8.923240
_cell_angle_alpha 90.000000
_cell_angle_beta 90.000000
_cell_angle_gamma 90.000000
_cell_volume 2026.026329
_symmetry_space_group_name_H-M "P N N M"
_symmetry_group_IT_number 58
_symmetry_cell_setting 'orthorhombic'
loop_
_space_group_symop_operation_xyz
x,y,z
-x,-y,z
1/2+x,1/2-y,1/2-z
1/2-x,1/2+y,1/2-z
-x,-y,-z
x,y,-z
1/2-x,1/2+y,1/2+z
1/2+x,1/2-y,1/2+z
loop_
_atom_site_type_symbol
_atom_site_label
_atom_site_fract_x
_atom_site_fract_y
_atom_site_fract_z
Si Si1 0.242979 0.403630 0.677659
Si Si2 0.596662 0.876501 0.822225
Si Si3 0.825875 0.486128 0.664458
Si Si4 0.232462 0.217779 0.323494
Si Si5 0.894706 0.188711 0.323588
O O1 0.271674 0.403020 0.500000
O O2 0.255197 0.463747 0.741935
O O3 0.368420 0.369714 0.761997
O O4 0.079604 0.379961 0.715144
O O5 0.658321 0.826486 0.738533
O O6 0.683545 0.928778 0.758001
O O7 0.621846 0.871065 0.000000
O O8 0.754055 0.480210 0.500000
O O9 0.000000 0.500000 0.646357
O O10 0.252408 0.221653 0.500000
O O11 0.274421 0.273066 0.252289
O O12 0.061935 0.205530 0.277165
O O13 0.870748 0.190010 0.500000
#
# Coordination Sequence:
#
# PCOD8238923 Si02
#       5
#     8   8   8   8   8
#     4   9  17  32  56  83 108 136 172 212 253 299
#     4   9  17  32  56  83 108 136 172 212 253 299
#     4   7  12  26  50  79 108 136 168 207 248 293
#     4  11  24  39  54  75 103 135 172 214 261 311
#     4  11  24  39  54  75 103 135 172 214 261 311
#
# _framework density 19.743081
#
# number of rings (size 3 to 8) (size 9 to 14) (size 15 to 20)
#    0.000    2.600    0.000    4.800    0.000    8.800 
#    0.000    2.000    0.000    9.600    0.000    0.000 
#    0.000    0.000    0.000    0.000    0.000    0.000 
#
# Total GULP energy -495659.789184 kJ/mol
# GULP energy per Si atom -12391.494730 kJ/mol
# Density = 1.969814 g / cm^3
# Si number density = 19.743081 Si / 1000 Ang^3
#
#
#
# Elastic Constant Matrix: (Units=GPa)
#
#
# Indices 1 2 3 4 5 6 
#
# 1 32.4026 -14.7911 14.9276 0.0000 0.0000 0.0000
# 2 -14.7911 57.7846 -2.7179 0.0000 0.0000 0.0000
# 3 14.9276 -2.7179 33.5455 0.0000 0.0000 0.0000
# 4 0.0000 0.0000 0.0000 -14.1856 0.0000 0.0000
# 5 0.0000 0.0000 0.0000 0.0000 139.1430 0.0000
# 6 0.0000 0.0000 0.0000 0.0000 0.0000 28.3393
#
#
#
# Elastic Compliance Matrix: (Units=1/GPa)
#
#
# Indices 1 2 3 4 5 6 
#
# 1 0.044335 0.010460 -0.018881 0.000000 0.000000 0.000000
# 2 0.010460 0.019840 -0.003047 0.000000 0.000000 0.000000
# 3 -0.018881 -0.003047 0.037965 0.000000 0.000000 0.000000
# 4 0.000000 0.000000 0.000000 -0.070494 0.000000 0.000000
# 5 0.000000 0.000000 0.000000 0.000000 0.007187 0.000000
# 6 0.000000 0.000000 0.000000 0.000000 0.000000 0.035287
#
#
# Mechanical properties :
#
#
# Convention : Reuss Voigt Hill
#
# Bulk Modulus (GPa) = 12.62571 13.17446 12.90009
# Shear Modulus (GPa) = 40.49952 39.08026 39.78989
#
# Velocity S-wave (km/s) = 4.53407 4.45392 4.49417
# Velocity P-wave (km/s) = 5.81544 5.75650 5.78604
#
# Compressibility (1/GPa) = 0.07920346
#
# Stress axis : x y z
#
# Youngs Moduli (GPa) = 22.55549 50.40366 26.33972
#
# Poissons Ratio (x) = -0.52724 0.49733
# Poissons Ratio (y) = -0.23594 0.08027
# Poissons Ratio (z) = 0.42588 0.15360
#
# Static dielectric constant tensor:
#      x y z
#    x 3.387760 0.000000 0.000000 
#    y 0.000000 4.077280 0.000000 
#    z 0.000000 0.000000 3.251380 
# 
# 
# High freq. dielectric constant tensor:
#      x y z
#    x 1.746300 0.000000 0.000000 
#    y 0.000000 1.797470 0.000000 
#    z 0.000000 0.000000 1.735010 
# 
# From -- ./inp_files/2606.got.cif
#   From: 2010.06.25/outbox.cif.g09.slc.cpg/sg58_2_cif.got.tgz:2606.got - 2010.06.26 21:38:00.
