data_PCOD8238669
_publ_section_title
;
Structure prediction by ZEFSAII (Michael W. Deem and Ramdas Pophale) SiO2 
 PCOD8238669
Probable space group: P N N M
;
_chemical_formula_sum "Si O2"
_cell_formula_units_Z 64
_cell_length_a 23.566941
_cell_length_b 15.292754
_cell_length_c 8.568619
_cell_angle_alpha 90.000000
_cell_angle_beta 90.000000
_cell_angle_gamma 90.000000
_cell_volume 3088.159689
_symmetry_space_group_name_H-M "P N N M"
_symmetry_group_IT_number 58
_symmetry_cell_setting 'orthorhombic'
loop_
_space_group_symop_operation_xyz
x,y,z
-x,-y,z
1/2+x,1/2-y,1/2-z
1/2-x,1/2+y,1/2-z
-x,-y,-z
x,y,-z
1/2-x,1/2+y,1/2+z
1/2+x,1/2-y,1/2+z
loop_
_atom_site_type_symbol
_atom_site_label
_atom_site_fract_x
_atom_site_fract_y
_atom_site_fract_z
Si Si1 0.246075 0.345395 0.179841
Si Si2 0.371327 0.893254 0.179257
Si Si3 0.247801 0.161323 0.320404
Si Si4 0.141643 0.905514 0.178471
Si Si5 0.071957 0.751957 0.318700
Si Si6 0.049108 0.252710 0.180297
Si Si7 0.645929 0.912337 0.818779
Si Si8 0.866630 0.898194 0.178645
O O1 0.194522 0.375064 0.287994
O O2 0.260775 0.244649 0.212641
O O3 0.301919 0.401292 0.217307
O O4 0.229478 0.358363 0.000000
O O5 0.410451 0.835357 0.290338
O O6 0.384545 0.995001 0.213412
O O7 0.384043 0.869080 0.000000
O O8 0.251753 0.188832 0.500000
O O9 0.295898 0.090170 0.279844
O O10 0.186347 0.121706 0.288609
O O11 0.094628 0.835268 0.225511
O O12 0.114256 0.001470 0.201030
O O13 0.159299 0.889199 0.000000
O O14 0.082579 0.768840 0.500000
O O15 0.103881 0.664265 0.262929
O O16 0.005817 0.739245 0.287160
O O17 0.081278 0.163554 0.227474
O O18 0.031018 0.251691 0.000000
O O19 0.661728 0.903563 0.000000
O O20 0.848846 0.878624 0.000000
#
# Coordination Sequence:
#
# PCOD8238669 Si02
#       8
#     8   8   8   8   8   8   8   8
#     4  12  23  38  61  92 130 166 199 247 314 371
#     4  11  23  41  65  94 124 162 208 254 306 371
#     4  12  23  36  63  96 126 162 207 253 302 365
#     4  11  23  41  65  94 124 162 208 254 306 371
#     4  11  24  43  65  89 122 166 209 261 312 364
#     4  11  24  43  65  89 122 166 209 261 312 364
#     4  10  23  42  64  90 127 166 201 249 315 372
#     4  10  23  42  64  90 127 166 201 249 315 372
#
# _framework density 20.724319000000001
#
# number of rings (size 3 to 8) (size 9 to 14) (size 15 to 20)
#    0.000    1.000    2.500    4.500    0.000    7.000 
#    0.000    5.000    0.000    0.000    0.000    0.000 
#    0.000    0.000    0.000    0.000    0.000    0.000 
#
# Total GULP energy -794074.132434 kJ/mol
# GULP energy per Si atom -12407.408319 kJ/mol
# Density = 2.067715 g / cm^3
# Si number density = 20.724319 Si / 1000 Ang^3
#
#
#
# Elastic Constant Matrix: (Units=GPa)
#
#
# Indices 1 2 3 4 5 6 
#
# 1 93.1765 29.4712 13.3416 0.0000 0.0000 0.0000
# 2 29.4712 114.7070 31.9085 0.0000 0.0000 0.0000
# 3 13.3416 31.9085 67.5874 0.0000 0.0000 0.0000
# 4 0.0000 0.0000 0.0000 24.3375 0.0000 0.0000
# 5 0.0000 0.0000 0.0000 0.0000 34.0524 0.0000
# 6 0.0000 0.0000 0.0000 0.0000 0.0000 12.4327
#
#
#
# Elastic Compliance Matrix: (Units=1/GPa)
#
#
# Indices 1 2 3 4 5 6 
#
# 1 0.011743 -0.002731 -0.001029 0.000000 0.000000 0.000000
# 2 -0.002731 0.010671 -0.004499 0.000000 0.000000 0.000000
# 3 -0.001029 -0.004499 0.017123 0.000000 0.000000 0.000000
# 4 0.000000 0.000000 0.000000 0.041089 0.000000 0.000000
# 5 0.000000 0.000000 0.000000 0.000000 0.029366 0.000000
# 6 0.000000 0.000000 0.000000 0.000000 0.000000 0.080433
#
#
# Mechanical properties :
#
#
# Convention : Reuss Voigt Hill
#
# Bulk Modulus (GPa) = 43.44062 47.21260 45.32661
# Shear Modulus (GPa) = 23.29746 27.54783 25.42265
#
# Velocity S-wave (km/s) = 3.35649 3.64985 3.50624
# Velocity P-wave (km/s) = 6.00234 6.37123 6.18953
#
# Compressibility (1/GPa) = 0.02301993
#
# Stress axis : x y z
#
# Youngs Moduli (GPa) = 85.15398 93.71226 58.40222
#
# Poissons Ratio (x) = 0.25593 0.06008
# Poissons Ratio (y) = 0.23256 0.26274
# Poissons Ratio (z) = 0.08761 0.42159
#
# Static dielectric constant tensor:
#      x y z
#    x 3.539640 0.000000 0.000000 
#    y 0.000000 3.952380 0.000000 
#    z 0.000000 0.000000 3.708020 
# 
# 
# High freq. dielectric constant tensor:
#      x y z
#    x 1.800690 0.000000 0.000000 
#    y 0.000000 1.824160 0.000000 
#    z 0.000000 0.000000 1.813670 
# 
# From -- ./inp_files/9974.got.cif
#   From: 2010.06.25/outbox.cif.g09.slc.cpg/sg58_5_cif.got.tgz:9974.got - 2010.06.26 21:38:00.
