data_PCOD8238952
_publ_section_title
;
Structure prediction by ZEFSAII (Michael W. Deem and Ramdas Pophale) SiO2 
 PCOD8238952
Probable space group: P N N M
;
_chemical_formula_sum "Si O2"
_cell_formula_units_Z 40
_cell_length_a 12.407267
_cell_length_b 16.995466
_cell_length_c 8.689771
_cell_angle_alpha 90.000000
_cell_angle_beta 90.000000
_cell_angle_gamma 90.000000
_cell_volume 1832.388413
_symmetry_space_group_name_H-M "P N N M"
_symmetry_group_IT_number 58
_symmetry_cell_setting 'orthorhombic'
loop_
_space_group_symop_operation_xyz
x,y,z
-x,-y,z
1/2+x,1/2-y,1/2-z
1/2-x,1/2+y,1/2-z
-x,-y,-z
x,y,-z
1/2-x,1/2+y,1/2+z
1/2+x,1/2-y,1/2+z
loop_
_atom_site_type_symbol
_atom_site_label
_atom_site_fract_x
_atom_site_fract_y
_atom_site_fract_z
Si Si1 0.284131 0.317381 0.322050
Si Si2 0.860762 0.424618 0.170671
Si Si3 0.193134 0.164008 0.177233
Si Si4 0.406592 0.893787 0.328820
Si Si5 0.515309 0.591078 0.817537
O O1 0.315393 0.312136 0.500000
O O2 0.269516 0.230618 0.252498
O O3 0.166457 0.355138 0.300979
O O4 0.371772 0.372124 0.237428
O O5 0.767017 0.412710 0.296319
O O6 0.890863 0.514388 0.173130
O O7 0.968626 0.374379 0.209092
O O8 0.817906 0.401506 0.000000
O O9 0.077901 0.148937 0.255405
O O10 0.172129 0.181772 0.000000
O O11 0.377686 0.860613 0.500000
O O12 0.500000 0.500000 0.759420
O O13 0.512856 0.592217 0.000000
#
# Coordination Sequence:
#
# PCOD8238952 Si02
#       5
#     8   8   8   8   8
#     4  12  26  42  64  94 132 173 217 271 327 387
#     4   9  19  38  64  92 125 165 208 257 316 381
#     4  12  26  42  64  94 132 173 217 271 327 387
#     4   9  19  38  64  92 125 165 208 257 316 381
#     4  11  25  47  73  99 132 175 224 277 337 403
#
# _framework density 21.829433999999999
#
# number of rings (size 3 to 8) (size 9 to 14) (size 15 to 20)
#    0.000    1.400    0.000    6.600    2.800    8.000 
#    0.000    2.000    0.000    0.000    0.000    0.000 
#    0.000    0.000    0.000    0.000    0.000    0.000 
#
# Total GULP energy -495791.770127 kJ/mol
# GULP energy per Si atom -12394.794253 kJ/mol
# Density = 2.177975 g / cm^3
# Si number density = 21.829434 Si / 1000 Ang^3
#
#
#
# Elastic Constant Matrix: (Units=GPa)
#
#
# Indices 1 2 3 4 5 6 
#
# 1 77.7432 13.4156 27.8119 0.0000 0.0000 0.0000
# 2 13.4156 56.0094 27.7591 0.0000 0.0000 0.0000
# 3 27.8119 27.7591 108.2892 0.0000 0.0000 0.0000
# 4 0.0000 0.0000 0.0000 23.3987 0.0000 0.0000
# 5 0.0000 0.0000 0.0000 0.0000 32.4003 0.0000
# 6 0.0000 0.0000 0.0000 0.0000 0.0000 41.7546
#
#
#
# Elastic Compliance Matrix: (Units=1/GPa)
#
#
# Indices 1 2 3 4 5 6 
#
# 1 0.014328 -0.001842 -0.003208 0.000000 0.000000 0.000000
# 2 -0.001842 0.020689 -0.004830 0.000000 0.000000 0.000000
# 3 -0.003208 -0.004830 0.011297 0.000000 0.000000 0.000000
# 4 0.000000 0.000000 0.000000 0.042737 0.000000 0.000000
# 5 0.000000 0.000000 0.000000 0.000000 0.030864 0.000000
# 6 0.000000 0.000000 0.000000 0.000000 0.000000 0.023949
#
#
# Mechanical properties :
#
#
# Convention : Reuss Voigt Hill
#
# Bulk Modulus (GPa) = 37.65959 42.22387 39.94173
# Shear Modulus (GPa) = 28.98938 31.04773 30.01855
#
# Velocity S-wave (km/s) = 3.64812 3.77541 3.71231
# Velocity P-wave (km/s) = 5.91897 6.19594 6.05904
#
# Compressibility (1/GPa) = 0.02655366
#
# Stress axis : x y z
#
# Youngs Moduli (GPa) = 69.79211 48.33391 88.52218
#
# Poissons Ratio (x) = 0.08904 0.28395
# Poissons Ratio (y) = 0.12857 0.42760
# Poissons Ratio (z) = 0.22387 0.23347
#
# Static dielectric constant tensor:
#      x y z
#    x 5.432320 0.000000 0.000000 
#    y 0.000000 4.294340 0.000000 
#    z 0.000000 0.000000 4.117360 
# 
# 
# High freq. dielectric constant tensor:
#      x y z
#    x 1.874730 0.000000 0.000000 
#    y 0.000000 1.862490 0.000000 
#    z 0.000000 0.000000 1.845990 
# 
# From -- ./inp_files/3818.got.cif
#   From: 2010.06.25/outbox.cif.g09.slc.cpg/sg58_2_cif.got.tgz:3818.got - 2010.06.26 21:38:00.
