data_PCOD8238561
_publ_section_title
;
Structure prediction by ZEFSAII (Michael W. Deem and Ramdas Pophale) SiO2 
 PCOD8238561
Probable space group: P N N M
;
_chemical_formula_sum "Si O2"
_cell_formula_units_Z 64
_cell_length_a 22.058307
_cell_length_b 16.459772
_cell_length_c 8.576823
_cell_angle_alpha 90.000000
_cell_angle_beta 90.000000
_cell_angle_gamma 90.000000
_cell_volume 3114.027471
_symmetry_space_group_name_H-M "P N N M"
_symmetry_group_IT_number 58
_symmetry_cell_setting 'orthorhombic'
loop_
_space_group_symop_operation_xyz
x,y,z
-x,-y,z
1/2+x,1/2-y,1/2-z
1/2-x,1/2+y,1/2-z
-x,-y,-z
x,y,-z
1/2-x,1/2+y,1/2+z
1/2+x,1/2-y,1/2+z
loop_
_atom_site_type_symbol
_atom_site_label
_atom_site_fract_x
_atom_site_fract_y
_atom_site_fract_z
Si Si1 0.725828 0.093456 0.679593
Si Si2 0.138826 0.144148 0.178366
Si Si3 0.378248 0.174743 0.680472
Si Si4 0.616826 0.185552 0.179414
Si Si5 0.932623 0.000672 0.683019
Si Si6 0.006305 0.593815 0.319039
Si Si7 0.268542 0.079652 0.179527
Si Si8 0.858009 0.153981 0.316915
O O1 0.707428 0.105486 0.500000
O O2 0.673352 0.127075 0.789249
O O3 0.787158 0.141725 0.718065
O O4 0.735067 0.998550 0.711041
O O5 0.119445 0.235468 0.213850
O O6 0.210060 0.134979 0.214286
O O7 0.100247 0.083521 0.282959
O O8 0.124297 0.124004 0.000000
O O9 0.361568 0.164721 0.500000
O O10 0.442298 0.133060 0.712962
O O11 0.327123 0.132850 0.784528
O O12 0.382830 0.269037 0.724165
O O13 0.556479 0.137035 0.222074
O O14 0.617713 0.212410 0.000000
O O15 0.937129 0.011825 0.500000
O O16 0.894395 0.076321 0.750436
O O17 0.000000 0.000000 0.757065
O O18 0.023744 0.604437 0.500000
O O19 0.000000 0.500000 0.274005
O O20 0.270925 0.051673 0.000000
O O21 0.869731 0.166603 0.500000
#
# Coordination Sequence:
#
# PCOD8238561 Si02
#       8
#     8   8   8   8   8   8   8   8
#     4  11  22  39  65  95 127 162 205 262 317 364
#     4  11  24  41  63  93 128 165 208 262 314 365
#     4  12  26  40  63  95 127 163 208 263 312 364
#     4  11  24  40  64  93 125 166 210 256 309 378
#     4  10  22  41  66  93 125 169 214 255 308 377
#     4  10  23  45  68  90 121 164 209 253 310 378
#     4  11  23  41  64  90 125 168 210 253 312 376
#     4  10  22  41  63  91 129 167 207 255 310 374
#
# _framework density 20.552163
#
# number of rings (size 3 to 8) (size 9 to 14) (size 15 to 20)
#    0.000    1.250    1.250    4.125    1.750    8.500 
#    0.000    0.000    0.000    0.000    0.000    0.000 
#    0.000    0.000    0.000    0.000    0.000    0.000 
#
# Total GULP energy -794077.617971 kJ/mol
# GULP energy per Si atom -12407.462781 kJ/mol
# Density = 2.050539 g / cm^3
# Si number density = 20.552163 Si / 1000 Ang^3
#
#
#
# Elastic Constant Matrix: (Units=GPa)
#
#
# Indices 1 2 3 4 5 6 
#
# 1 136.4023 46.1312 36.5916 0.0000 0.0000 0.0000
# 2 46.1312 127.3156 17.4164 0.0000 0.0000 0.0000
# 3 36.5916 17.4164 36.0258 0.0000 0.0000 0.0000
# 4 0.0000 0.0000 0.0000 32.2090 0.0000 0.0000
# 5 0.0000 0.0000 0.0000 0.0000 27.9875 0.0000
# 6 0.0000 0.0000 0.0000 0.0000 0.0000 31.5693
#
#
#
# Elastic Compliance Matrix: (Units=1/GPa)
#
#
# Indices 1 2 3 4 5 6 
#
# 1 0.010819 -0.002588 -0.009737 0.000000 0.000000 0.000000
# 2 -0.002588 0.009030 -0.001737 0.000000 0.000000 0.000000
# 3 -0.009737 -0.001737 0.038488 0.000000 0.000000 0.000000
# 4 0.000000 0.000000 0.000000 0.031047 0.000000 0.000000
# 5 0.000000 0.000000 0.000000 0.000000 0.035730 0.000000
# 6 0.000000 0.000000 0.000000 0.000000 0.000000 0.031676
#
#
# Mechanical properties :
#
#
# Convention : Reuss Voigt Hill
#
# Bulk Modulus (GPa) = 33.09948 55.55805 44.32876
# Shear Modulus (GPa) = 25.64296 31.66013 28.65154
#
# Velocity S-wave (km/s) = 3.53611 3.92915 3.73780
# Velocity P-wave (km/s) = 5.72819 6.90476 6.34381
#
# Compressibility (1/GPa) = 0.03021196
#
# Stress axis : x y z
#
# Youngs Moduli (GPa) = 92.43249 110.74444 25.98218
#
# Poissons Ratio (x) = 0.28660 0.25300
# Poissons Ratio (y) = 0.23921 0.04513
# Poissons Ratio (z) = 0.90006 0.19234
#
# Static dielectric constant tensor:
#      x y z
#    x 3.894550 0.000000 0.000000 
#    y 0.000000 3.590530 0.000000 
#    z 0.000000 0.000000 3.578740 
# 
# 
# High freq. dielectric constant tensor:
#      x y z
#    x 1.816270 0.000000 0.000000 
#    y 0.000000 1.815940 0.000000 
#    z 0.000000 0.000000 1.798120 
# 
# From -- ./inp_files/9218.got.cif
#   From: 2010.06.25/outbox.cif.g09.slc.cpg/sg58_5_cif.got.tgz:9218.got - 2010.06.26 21:38:00.
