data_PCOD8238801
_publ_section_title
;
Structure prediction by ZEFSAII (Michael W. Deem and Ramdas Pophale) SiO2 
 PCOD8238801
Probable space group: P N N M
;
_chemical_formula_sum "Si O2"
_cell_formula_units_Z 64
_cell_length_a 29.021123
_cell_length_b 12.770331
_cell_length_c 8.961817
_cell_angle_alpha 90.000000
_cell_angle_beta 90.000000
_cell_angle_gamma 90.000000
_cell_volume 3321.333144
_symmetry_space_group_name_H-M "P N N M"
_symmetry_group_IT_number 58
_symmetry_cell_setting 'orthorhombic'
loop_
_space_group_symop_operation_xyz
x,y,z
-x,-y,z
1/2+x,1/2-y,1/2-z
1/2-x,1/2+y,1/2-z
-x,-y,-z
x,y,-z
1/2-x,1/2+y,1/2+z
1/2+x,1/2-y,1/2+z
loop_
_atom_site_type_symbol
_atom_site_label
_atom_site_fract_x
_atom_site_fract_y
_atom_site_fract_z
Si Si1 0.631831 0.253193 0.675050
Si Si2 0.357473 0.514417 0.324654
Si Si3 0.061969 0.404780 0.672867
Si Si4 0.722704 0.180163 0.831995
Si Si5 0.891594 0.206799 0.822905
Si Si6 0.198596 0.725791 0.322326
Si Si7 0.244154 0.035638 0.832285
Si Si8 0.956280 0.361784 0.673093
O O1 0.635900 0.235959 0.500000
O O2 0.617682 0.374120 0.712821
O O3 0.595636 0.170173 0.736338
O O4 0.681936 0.235778 0.744476
O O5 0.353911 0.497174 0.500000
O O6 0.386849 0.414175 0.263788
O O7 0.305620 0.513309 0.254751
O O8 0.075221 0.394760 0.500000
O O9 0.066264 0.526681 0.723021
O O10 0.010557 0.365399 0.702390
O O11 0.771224 0.179738 0.742078
O O12 0.717257 0.055297 0.836770
O O13 0.725986 0.226120 0.000000
O O14 0.851083 0.276248 0.752720
O O15 0.938117 0.262375 0.766420
O O16 0.890006 0.212569 0.000000
O O17 0.192980 0.727196 0.500000
O O18 0.228602 0.629819 0.254892
O O19 0.231827 0.071562 0.000000
O O20 0.945527 0.342940 0.500000
#
# Coordination Sequence:
#
# PCOD8238801 Si02
#       8
#     8   8   8   8   8   8   8   8
#     4  11  22  37  58  84 113 149 191 235 279 332
#     4   9  18  36  55  75 112 156 190 222 276 335
#     4   9  20  41  65  86 112 146 180 222 285 350
#     4  11  21  35  54  78 109 150 193 235 280 330
#     4  11  22  37  58  84 113 149 191 235 279 332
#     4  11  21  35  54  78 109 150 193 235 280 330
#     4   9  18  34  52  69 104 153 189 222 275 333
#     4   9  20  41  65  86 112 146 180 222 285 350
#
# _framework density 19.269371
#
# number of rings (size 3 to 8) (size 9 to 14) (size 15 to 20)
#    0.000    2.000    2.500    2.250    1.750    1.000 
#    0.000    7.500    0.000    3.750    0.000    0.000 
#    0.000    0.000    0.000    0.000    0.000    0.000 
#
# Total GULP energy -792977.070591 kJ/mol
# GULP energy per Si atom -12390.266728 kJ/mol
# Density = 1.922551 g / cm^3
# Si number density = 19.269371 Si / 1000 Ang^3
#
#
#
# Elastic Constant Matrix: (Units=GPa)
#
#
# Indices 1 2 3 4 5 6 
#
# 1 49.3709 19.4456 25.5616 0.0000 0.0000 0.0000
# 2 19.4456 84.7667 25.6135 0.0000 0.0000 0.0000
# 3 25.5616 25.6135 68.6657 0.0000 0.0000 0.0000
# 4 0.0000 0.0000 0.0000 21.4139 0.0000 0.0000
# 5 0.0000 0.0000 0.0000 0.0000 21.2752 0.0000
# 6 0.0000 0.0000 0.0000 0.0000 0.0000 36.3524
#
#
#
# Elastic Compliance Matrix: (Units=1/GPa)
#
#
# Indices 1 2 3 4 5 6 
#
# 1 0.025941 -0.003418 -0.008382 0.000000 0.000000 0.000000
# 2 -0.003418 0.013746 -0.003855 0.000000 0.000000 0.000000
# 3 -0.008382 -0.003855 0.019122 0.000000 0.000000 0.000000
# 4 0.000000 0.000000 0.000000 0.046699 0.000000 0.000000
# 5 0.000000 0.000000 0.000000 0.000000 0.047003 0.000000
# 6 0.000000 0.000000 0.000000 0.000000 0.000000 0.027509
#
#
# Mechanical properties :
#
#
# Convention : Reuss Voigt Hill
#
# Bulk Modulus (GPa) = 36.36571 38.22718 37.29645
# Shear Modulus (GPa) = 22.67629 24.62048 23.64839
#
# Velocity S-wave (km/s) = 3.43418 3.57837 3.50702
# Velocity P-wave (km/s) = 5.88541 6.07901 5.98299
#
# Compressibility (1/GPa) = 0.02749843
#
# Stress axis : x y z
#
# Youngs Moduli (GPa) = 38.54937 72.74798 52.29708
#
# Poissons Ratio (x) = 0.24867 0.43834
# Poissons Ratio (y) = 0.13177 0.20161
# Poissons Ratio (z) = 0.32311 0.28045
#
# Static dielectric constant tensor:
#      x y z
#    x 3.392440 0.000000 0.000000 
#    y 0.000000 3.815580 0.000000 
#    z 0.000000 0.000000 3.342180 
# 
# 
# High freq. dielectric constant tensor:
#      x y z
#    x 1.733770 0.000000 0.000000 
#    y 0.000000 1.764750 0.000000 
#    z 0.000000 0.000000 1.729930 
# 
# From -- ./inp_files/11084.got.cif
#   From: 2010.06.25/outbox.cif.g09.slc.cpg/sg58_6_cif.got.tgz:11084.got - 2010.06.26 21:38:00.
