data_PCOD8238885
_publ_section_title
;
Structure prediction by ZEFSAII (Michael W. Deem and Ramdas Pophale) SiO2 
 PCOD8238885
Probable space group: P N N M
;
_chemical_formula_sum "Si O2"
_cell_formula_units_Z 32
_cell_length_a 15.897532
_cell_length_b 9.388342
_cell_length_c 10.265685
_cell_angle_alpha 90.000000
_cell_angle_beta 90.000000
_cell_angle_gamma 90.000000
_cell_volume 1532.168550
_symmetry_space_group_name_H-M "P N N M"
_symmetry_group_IT_number 58
_symmetry_cell_setting 'orthorhombic'
loop_
_space_group_symop_operation_xyz
x,y,z
-x,-y,z
1/2+x,1/2-y,1/2-z
1/2-x,1/2+y,1/2-z
-x,-y,-z
x,y,-z
1/2-x,1/2+y,1/2+z
1/2+x,1/2-y,1/2+z
loop_
_atom_site_type_symbol
_atom_site_label
_atom_site_fract_x
_atom_site_fract_y
_atom_site_fract_z
Si Si1 0.356405 0.799559 0.742751
Si Si2 0.044091 0.222408 0.000000
Si Si3 0.201139 0.983529 0.260877
Si Si4 0.582927 0.594020 0.000000
Si Si5 0.536166 0.155236 0.000000
Si Si6 0.122928 0.912848 0.000000
O O1 0.425206 0.802147 0.628931
O O2 0.301971 0.653728 0.743127
O O3 0.295683 0.932448 0.709502
O O4 0.405284 0.814805 0.877001
O O5 0.942993 0.217691 0.000000
O O6 0.076414 0.062399 0.000000
O O7 0.137090 0.935949 0.372437
O O8 0.179274 0.900339 0.128211
O O9 0.500000 0.500000 0.000000
O O10 0.549637 0.754263 0.000000
O O11 0.500000 0.000000 0.000000
#
# Coordination Sequence:
#
# PCOD8238885 Si02
#       6
#     8   4   8   4   4   4
#     4  11  23  42  63  96 128 167 208 262 321 386
#     4   9  19  37  63  86 120 154 208 251 300 366
#     4  11  23  39  66  93 129 166 211 257 323 387
#     4  12  23  43  67  94 124 173 218 266 320 387
#     4  12  27  43  67  94 132 168 225 277 322 375
#     4   9  19  35  62  89 115 160 204 249 299 372
#
# _framework density 20.885429999999999
#
# number of rings (size 3 to 8) (size 9 to 14) (size 15 to 20)
#    0.000    1.250    2.500    3.000    7.000    0.000 
#    0.000    0.625    0.000    0.000    0.000    0.000 
#    0.000    0.000    0.000    0.000    0.000    0.000 
#
# Total GULP energy -396853.131719 kJ/mol
# GULP energy per Si atom -12401.660366 kJ/mol
# Density = 2.083789 g / cm^3
# Si number density = 20.885430 Si / 1000 Ang^3
#
#
#
# Elastic Constant Matrix: (Units=GPa)
#
#
# Indices 1 2 3 4 5 6 
#
# 1 61.1478 13.5990 37.8400 0.0000 0.0000 0.0000
# 2 13.5990 77.7021 19.7405 0.0000 0.0000 0.0000
# 3 37.8400 19.7405 166.5187 0.0000 0.0000 0.0000
# 4 0.0000 0.0000 0.0000 33.1309 0.0000 0.0000
# 5 0.0000 0.0000 0.0000 0.0000 -21.4268 0.0000
# 6 0.0000 0.0000 0.0000 0.0000 0.0000 47.8197
#
#
#
# Elastic Compliance Matrix: (Units=1/GPa)
#
#
# Indices 1 2 3 4 5 6 
#
# 1 0.019437 -0.002350 -0.004138 0.000000 0.000000 0.000000
# 2 -0.002350 0.013554 -0.001073 0.000000 0.000000 0.000000
# 3 -0.004138 -0.001073 0.007073 0.000000 0.000000 0.000000
# 4 0.000000 0.000000 0.000000 0.030183 0.000000 0.000000
# 5 0.000000 0.000000 0.000000 0.000000 -0.046671 0.000000
# 6 0.000000 0.000000 0.000000 0.000000 0.000000 0.020912
#
#
# Mechanical properties :
#
#
# Convention : Reuss Voigt Hill
#
# Bulk Modulus (GPa) = 40.09461 49.74751 44.92106
# Shear Modulus (GPa) = 73.61048 27.51739 50.56394
#
# Velocity S-wave (km/s) = 5.94318 3.63373 4.92572
# Velocity P-wave (km/s) = 8.14459 6.44021 7.34202
#
# Compressibility (1/GPa) = 0.02494101
#
# Stress axis : x y z
#
# Youngs Moduli (GPa) = 51.44696 73.78153 141.38478
#
# Poissons Ratio (x) = 0.17342 0.58510
# Poissons Ratio (y) = 0.12092 0.15165
# Poissons Ratio (z) = 0.21291 0.07914
#
# Static dielectric constant tensor:
#      x y z
#    x 2.643990 0.000000 0.000000 
#    y 0.000000 3.745910 0.000000 
#    z 0.000000 0.000000 4.056530 
# 
# 
# High freq. dielectric constant tensor:
#      x y z
#    x 1.819410 0.000000 0.000000 
#    y 0.000000 1.805960 0.000000 
#    z 0.000000 0.000000 1.838370 
# 
# From -- ./inp_files/15212.got.cif
#   From: 2010.06.25/outbox.cif.g09.slc.cpg/sg58_8_cif.got.tgz:15212.got - 2010.06.26 21:38:00.
