data_PCOD8238976
_publ_section_title
;
Structure prediction by ZEFSAII (Michael W. Deem and Ramdas Pophale) SiO2 
 PCOD8238976
Probable space group: P N N M
;
_chemical_formula_sum "Si O2"
_cell_formula_units_Z 56
_cell_length_a 18.751667
_cell_length_b 18.477804
_cell_length_c 9.775127
_cell_angle_alpha 90.000000
_cell_angle_beta 90.000000
_cell_angle_gamma 90.000000
_cell_volume 3386.980113
_symmetry_space_group_name_H-M "P N N M"
_symmetry_group_IT_number 58
_symmetry_cell_setting 'orthorhombic'
loop_
_space_group_symop_operation_xyz
x,y,z
-x,-y,z
1/2+x,1/2-y,1/2-z
1/2-x,1/2+y,1/2-z
-x,-y,-z
x,y,-z
1/2-x,1/2+y,1/2+z
1/2+x,1/2-y,1/2+z
loop_
_atom_site_type_symbol
_atom_site_label
_atom_site_fract_x
_atom_site_fract_y
_atom_site_fract_z
Si Si1 0.278336 0.508826 0.847952
Si Si2 0.887513 0.193227 0.337183
Si Si3 0.612080 0.123100 0.841840
Si Si4 0.929484 0.037680 0.662850
Si Si5 0.455115 0.160018 0.162712
Si Si6 0.734093 0.157135 0.347928
Si Si7 0.655780 0.958949 0.841959
O O1 0.360399 0.510317 0.795792
O O2 0.254035 0.426460 0.854572
O O3 0.228607 0.552536 0.742923
O O4 0.271911 0.543268 0.000000
O O5 0.891286 0.191028 0.500000
O O6 0.922726 0.119484 0.278008
O O7 0.929913 0.262360 0.278846
O O8 0.804147 0.199883 0.294473
O O9 0.534396 0.143616 0.783758
O O10 0.669310 0.169917 0.756720
O O11 0.622518 0.037889 0.820213
O O12 0.620924 0.144719 0.000000
O O13 0.933845 0.041703 0.500000
O O14 0.000000 0.000000 0.725002
O O15 0.401670 0.097996 0.215354
O O16 0.455165 0.159203 0.000000
O O17 0.711637 0.183708 0.500000
O O18 0.674490 0.944838 0.000000
#
# Coordination Sequence:
#
# PCOD8238976 Si02
#       7
#     8   8   8   8   8   8   8
#     4   8  14  25  41  61  82 102 129 166 203 239
#     4   8  14  25  41  59  78 105 139 168 197 239
#     4   9  16  26  42  63  83 104 134 170 202 231
#     4   8  13  23  41  62  81 103 134 172 209 241
#     4   9  16  26  40  58  81 108 138 169 198 235
#     4   8  14  26  43  59  76 102 135 165 195 238
#     4   9  16  26  41  60  82 109 138 166 197 235
#
# _framework density 16.533902999999999
#
# number of rings (size 3 to 8) (size 9 to 14) (size 15 to 20)
#    0.000    3.571    0.000    2.143    0.000    1.714 
#    0.000    2.143    0.000    7.286    0.000    0.000 
#    0.000    0.000    0.000    0.000    0.000    0.000 
#
# Total GULP energy -694019.173841 kJ/mol
# GULP energy per Si atom -12393.199533 kJ/mol
# Density = 1.649627 g / cm^3
# Si number density = 16.533903 Si / 1000 Ang^3
#
#
#
# Elastic Constant Matrix: (Units=GPa)
#
#
# Indices 1 2 3 4 5 6 
#
# 1 172.6048 59.6057 50.5395 0.0000 0.0000 0.0000
# 2 59.6057 62.2126 22.5992 0.0000 0.0000 0.0000
# 3 50.5395 22.5992 40.2491 0.0000 0.0000 0.0000
# 4 0.0000 0.0000 0.0000 8.9214 0.0000 0.0000
# 5 0.0000 0.0000 0.0000 0.0000 22.8600 0.0000
# 6 0.0000 0.0000 0.0000 0.0000 0.0000 20.2942
#
#
#
# Elastic Compliance Matrix: (Units=1/GPa)
#
#
# Indices 1 2 3 4 5 6 
#
# 1 0.011179 -0.007049 -0.010079 0.000000 0.000000 0.000000
# 2 -0.007049 0.024638 -0.004982 0.000000 0.000000 0.000000
# 3 -0.010079 -0.004982 0.040299 0.000000 0.000000 0.000000
# 4 0.000000 0.000000 0.000000 0.112090 0.000000 0.000000
# 5 0.000000 0.000000 0.000000 0.000000 0.043744 0.000000
# 6 0.000000 0.000000 0.000000 0.000000 0.000000 0.049275
#
#
# Mechanical properties :
#
#
# Convention : Reuss Voigt Hill
#
# Bulk Modulus (GPa) = 31.35345 60.06170 45.70757
# Shear Modulus (GPa) = 14.87750 19.90326 17.39038
#
# Velocity S-wave (km/s) = 3.00295 3.47332 3.24667
# Velocity P-wave (km/s) = 5.57027 7.24504 6.46214
#
# Compressibility (1/GPa) = 0.03189442
#
# Stress axis : x y z
#
# Youngs Moduli (GPa) = 89.45177 40.58831 24.81470
#
# Poissons Ratio (x) = 0.28612 0.25011
# Poissons Ratio (y) = 0.63058 0.12362
# Poissons Ratio (z) = 0.90161 0.20221
#
# Static dielectric constant tensor:
#      x y z
#    x 3.479370 0.000000 0.000000 
#    y 0.000000 3.049570 0.000000 
#    z 0.000000 0.000000 2.857920 
# 
# 
# High freq. dielectric constant tensor:
#      x y z
#    x 1.647460 0.000000 0.000000 
#    y 0.000000 1.610200 0.000000 
#    z 0.000000 0.000000 1.587950 
# 
# From -- ./inp_files/16571.got.cif
#   From: 2010.06.25/outbox.cif.g09.slc.cpg/sg58_9_cif.got.tgz:16571.got - 2010.06.26 21:38:00.
