data_PCOD8238881
_publ_section_title
;
Structure prediction by ZEFSAII (Michael W. Deem and Ramdas Pophale) SiO2 
 PCOD8238881
Probable space group: P N N M
;
_chemical_formula_sum "Si O2"
_cell_formula_units_Z 40
_cell_length_a 8.625995
_cell_length_b 28.089850
_cell_length_c 7.677157
_cell_angle_alpha 90.000000
_cell_angle_beta 90.000000
_cell_angle_gamma 90.000000
_cell_volume 1860.197448
_symmetry_space_group_name_H-M "P N N M"
_symmetry_group_IT_number 58
_symmetry_cell_setting 'orthorhombic'
loop_
_space_group_symop_operation_xyz
x,y,z
-x,-y,z
1/2+x,1/2-y,1/2-z
1/2-x,1/2+y,1/2-z
-x,-y,-z
x,y,-z
1/2-x,1/2+y,1/2+z
1/2+x,1/2-y,1/2+z
loop_
_atom_site_type_symbol
_atom_site_label
_atom_site_fract_x
_atom_site_fract_y
_atom_site_fract_z
Si Si1 0.787522 0.622786 0.302154
Si Si2 0.639946 0.717015 0.206379
Si Si3 0.799595 0.811503 0.300542
Si Si4 0.866502 0.066335 0.500000
Si Si5 0.865632 0.403172 0.695102
Si Si6 0.778172 0.960502 0.500000
O O1 0.755401 0.606076 0.500000
O O2 0.760386 0.679233 0.285836
O O3 0.963047 0.612356 0.246289
O O4 0.671320 0.595608 0.173811
O O5 0.678981 0.768600 0.281001
O O6 0.467188 0.704204 0.270249
O O7 0.652055 0.717359 0.000000
O O8 0.808831 0.827950 0.500000
O O9 0.743399 0.856891 0.192711
O O10 0.048543 0.058608 0.500000
O O11 0.771416 0.017420 0.500000
O O12 0.865030 0.424721 0.500000
O O13 0.808055 0.443521 0.826238
#
# Coordination Sequence:
#
# PCOD8238881 Si02
#       6
#     8   8   8   4   8   4
#     4  11  24  42  66  96 130 169 215 266 323 386
#     4  11  23  38  59  90 128 171 218 264 317 380
#     4  11  23  38  59  90 128 171 218 264 317 380
#     4  11  25  45  69  97 129 169 217 269 328 389
#     4  11  24  42  66  96 130 169 215 266 323 386
#     4  11  25  45  69  97 129 169 217 269 328 389
#
# _framework density 21.503091999999999
#
# number of rings (size 3 to 8) (size 9 to 14) (size 15 to 20)
#    0.000    1.000    2.000    4.200    0.000   12.800 
#    0.000    4.000    0.000    0.000    0.000    0.000 
#    0.000    0.000    0.000    0.000    0.000    0.000 
#
# Total GULP energy -496305.830717 kJ/mol
# GULP energy per Si atom -12407.645768 kJ/mol
# Density = 2.145415 g / cm^3
# Si number density = 21.503092 Si / 1000 Ang^3
#
#
#
# Elastic Constant Matrix: (Units=GPa)
#
#
# Indices 1 2 3 4 5 6 
#
# 1 52.3258 -16.8095 8.8981 0.0000 0.0000 0.0000
# 2 -16.8095 61.7727 15.5196 0.0000 0.0000 0.0000
# 3 8.8981 15.5196 95.4569 0.0000 0.0000 0.0000
# 4 0.0000 0.0000 0.0000 13.2189 0.0000 0.0000
# 5 0.0000 0.0000 0.0000 0.0000 26.1509 0.0000
# 6 0.0000 0.0000 0.0000 0.0000 0.0000 36.7627
#
#
#
# Elastic Compliance Matrix: (Units=1/GPa)
#
#
# Indices 1 2 3 4 5 6 
#
# 1 0.021800 0.006717 -0.003124 0.000000 0.000000 0.000000
# 2 0.006717 0.018948 -0.003707 0.000000 0.000000 0.000000
# 3 -0.003124 -0.003707 0.011370 0.000000 0.000000 0.000000
# 4 0.000000 0.000000 0.000000 0.075649 0.000000 0.000000
# 5 0.000000 0.000000 0.000000 0.000000 0.038240 0.000000
# 6 0.000000 0.000000 0.000000 0.000000 0.000000 0.027202
#
#
# Mechanical properties :
#
#
# Convention : Reuss Voigt Hill
#
# Bulk Modulus (GPa) = 19.27152 24.97464 22.12308
# Shear Modulus (GPa) = 23.72678 28.68962 26.20820
#
# Velocity S-wave (km/s) = 3.32537 3.65665 3.49493
# Velocity P-wave (km/s) = 4.87091 5.42842 5.15720
#
# Compressibility (1/GPa) = 0.05189003
#
# Stress axis : x y z
#
# Youngs Moduli (GPa) = 45.87117 52.77736 87.95226
#
# Poissons Ratio (x) = -0.35451 0.27478
# Poissons Ratio (y) = -0.30812 0.32601
# Poissons Ratio (z) = 0.14331 0.19563
#
# Static dielectric constant tensor:
#      x y z
#    x 4.016650 0.000000 0.000000 
#    y 0.000000 3.829650 0.000000 
#    z 0.000000 0.000000 3.879040 
# 
# 
# High freq. dielectric constant tensor:
#      x y z
#    x 1.856210 0.000000 0.000000 
#    y 0.000000 1.838970 0.000000 
#    z 0.000000 0.000000 1.853630 
# 
# From -- ./inp_files/2647.got.cif
#   From: 2010.06.25/outbox.cif.g09.slc.cpg/sg58_2_cif.got.tgz:2647.got - 2010.06.26 21:38:00.
