data_PCOD8238273
_publ_section_title
;
Structure prediction by ZEFSAII (Michael W. Deem and Ramdas Pophale) SiO2 
 PCOD8238273
Probable space group: P N N M
;
_chemical_formula_sum "Si O2"
_cell_formula_units_Z 48
_cell_length_a 11.778217
_cell_length_b 23.258116
_cell_length_c 8.962148
_cell_angle_alpha 90.000000
_cell_angle_beta 90.000000
_cell_angle_gamma 90.000000
_cell_volume 2455.083091
_symmetry_space_group_name_H-M "P N N M"
_symmetry_group_IT_number 58
_symmetry_cell_setting 'orthorhombic'
loop_
_space_group_symop_operation_xyz
x,y,z
-x,-y,z
1/2+x,1/2-y,1/2-z
1/2-x,1/2+y,1/2-z
-x,-y,-z
x,y,-z
1/2-x,1/2+y,1/2+z
1/2+x,1/2-y,1/2+z
loop_
_atom_site_type_symbol
_atom_site_label
_atom_site_fract_x
_atom_site_fract_y
_atom_site_fract_z
Si Si1 0.511110 0.067284 0.676703
Si Si2 0.525976 0.565497 0.837595
Si Si3 0.613018 0.721456 0.677990
Si Si4 0.752390 0.625326 0.173883
Si Si5 0.854093 0.340168 0.321456
Si Si6 0.897823 0.849078 0.173260
O O1 0.495141 0.073395 0.500000
O O2 0.630637 0.095796 0.728632
O O3 0.412813 0.102320 0.760193
O O4 0.500000 0.000000 0.723307
O O5 0.500000 0.500000 0.851224
O O6 0.655669 0.578145 0.789818
O O7 0.436188 0.587171 0.716709
O O8 0.505404 0.594799 0.000000
O O9 0.623859 0.725222 0.500000
O O10 0.721241 0.685006 0.740260
O O11 0.593547 0.783440 0.749783
O O12 0.496394 0.692314 0.733891
O O13 0.761518 0.640922 0.000000
O O14 0.863647 0.339311 0.500000
O O15 0.725442 0.337680 0.258935
O O16 0.886610 0.842635 0.000000
#
# Coordination Sequence:
#
# PCOD8238273 Si02
#       6
#     8   8   8   8   8   8
#     4  10  23  41  62  87 120 163 204 242 294 356
#     4   9  18  32  57  87 112 143 187 236 280 333
#     4  10  21  39  62  88 114 150 196 239 296 357
#     4   9  19  37  58  85 120 153 189 241 294 341
#     4  11  24  40  60  87 119 154 194 244 297 347
#     4   9  21  39  56  80 115 149 185 235 289 344
#
# _framework density 19.551273999999999
#
# number of rings (size 3 to 8) (size 9 to 14) (size 15 to 20)
#    0.000    2.333    0.000    1.000    4.667    3.333 
#    0.000    0.000    0.000    0.000    0.000    0.000 
#    0.000    0.000    0.000    0.000    0.000    0.000 
#
# Total GULP energy -594873.531784 kJ/mol
# GULP energy per Si atom -12393.198579 kJ/mol
# Density = 1.950677 g / cm^3
# Si number density = 19.551274 Si / 1000 Ang^3
#
#
#
# Elastic Constant Matrix: (Units=GPa)
#
#
# Indices 1 2 3 4 5 6 
#
# 1 115.5105 55.2410 43.3204 0.0000 0.0000 0.0000
# 2 55.2410 132.0480 45.0597 0.0000 0.0000 0.0000
# 3 43.3204 45.0597 35.3545 0.0000 0.0000 0.0000
# 4 0.0000 0.0000 0.0000 33.2622 0.0000 0.0000
# 5 0.0000 0.0000 0.0000 0.0000 24.7829 0.0000
# 6 0.0000 0.0000 0.0000 0.0000 0.0000 24.7041
#
#
#
# Elastic Compliance Matrix: (Units=1/GPa)
#
#
# Indices 1 2 3 4 5 6 
#
# 1 0.016018 -0.000006 -0.019619 0.000000 0.000000 0.000000
# 2 -0.000006 0.013401 -0.017073 0.000000 0.000000 0.000000
# 3 -0.019619 -0.017073 0.074084 0.000000 0.000000 0.000000
# 4 0.000000 0.000000 0.000000 0.030064 0.000000 0.000000
# 5 0.000000 0.000000 0.000000 0.000000 0.040350 0.000000
# 6 0.000000 0.000000 0.000000 0.000000 0.000000 0.040479
#
#
# Mechanical properties :
#
#
# Convention : Reuss Voigt Hill
#
# Bulk Modulus (GPa) = 33.21454 63.35056 48.28255
# Shear Modulus (GPa) = 16.78812 25.83599 21.31206
#
# Velocity S-wave (km/s) = 2.93349 3.63912 3.30519
# Velocity P-wave (km/s) = 5.33846 7.08027 6.27014
#
# Compressibility (1/GPa) = 0.03010730
#
# Stress axis : x y z
#
# Youngs Moduli (GPa) = 62.42938 74.61891 13.49813
#
# Poissons Ratio (x) = 0.00046 0.26483
# Poissons Ratio (y) = 0.00038 0.23045
# Poissons Ratio (z) = 1.22483 1.27395
#
# Static dielectric constant tensor:
#      x y z
#    x 3.970300 0.000000 0.000000 
#    y 0.000000 3.561540 0.000000 
#    z 0.000000 0.000000 3.704600 
# 
# 
# High freq. dielectric constant tensor:
#      x y z
#    x 1.769380 0.000000 0.000000 
#    y 0.000000 1.763040 0.000000 
#    z 0.000000 0.000000 1.753920 
# 
# From -- ./inp_files/4171.got.cif
#   From: 2010.06.25/outbox.cif.g09.slc.cpg/sg58_3_cif.got.tgz:4171.got - 2010.06.26 21:38:00.
