data_PCOD8238298
_publ_section_title
;
Structure prediction by ZEFSAII (Michael W. Deem and Ramdas Pophale) SiO2 
 PCOD8238298
Probable space group: P N N M
;
_chemical_formula_sum "Si O2"
_cell_formula_units_Z 48
_cell_length_a 30.951411
_cell_length_b 9.355652
_cell_length_c 7.908472
_cell_angle_alpha 90.000000
_cell_angle_beta 90.000000
_cell_angle_gamma 90.000000
_cell_volume 2290.061221
_symmetry_space_group_name_H-M "P N N M"
_symmetry_group_IT_number 58
_symmetry_cell_setting 'orthorhombic'
loop_
_space_group_symop_operation_xyz
x,y,z
-x,-y,z
1/2+x,1/2-y,1/2-z
1/2-x,1/2+y,1/2-z
-x,-y,-z
x,y,-z
1/2-x,1/2+y,1/2+z
1/2+x,1/2-y,1/2+z
loop_
_atom_site_type_symbol
_atom_site_label
_atom_site_fract_x
_atom_site_fract_y
_atom_site_fract_z
Si Si1 0.529041 0.634277 0.816911
Si Si2 0.632616 0.970802 0.192394
Si Si3 0.212522 0.365492 0.806711
Si Si4 0.703731 0.457390 0.801207
Si Si5 0.373431 0.354486 0.802461
Si Si6 0.924311 0.516236 0.000000
Si Si7 0.008755 0.700973 0.000000
O O1 0.500000 0.500000 0.852977
O O2 0.577789 0.599228 0.754116
O O3 0.502792 0.715006 0.673612
O O4 0.532439 0.717015 0.000000
O O5 0.677711 0.054289 0.190453
O O6 0.601579 0.050233 0.327557
O O7 0.637534 0.807293 0.256967
O O8 0.613707 0.977029 0.000000
O O9 0.258730 0.430054 0.755744
O O10 0.212429 0.194954 0.784460
O O11 0.201473 0.402005 0.000000
O O12 0.659996 0.529666 0.724487
O O13 0.700329 0.429698 0.000000
O O14 0.365334 0.359762 0.000000
O O15 0.941647 0.354088 0.000000
O O16 0.969388 0.595080 0.000000
#
# Coordination Sequence:
#
# PCOD8238298 Si02
#       7
#     8   8   8   8   8   4   4
#     4  10  21  39  63  91 125 169 216 262 321 384
#     4  11  22  42  68  90 128 171 210 263 323 378
#     4  11  23  40  61  95 131 163 215 263 310 383
#     4  10  22  40  62  90 128 168 209 262 316 376
#     4   9  19  38  63  90 121 166 217 260 315 383
#     4  11  24  40  62  98 124 168 214 260 317 394
#     4  11  23  40  62  92 135 157 214 272 318 375
#
# _framework density 20.960137
#
# number of rings (size 3 to 8) (size 9 to 14) (size 15 to 20)
#    0.000    1.667    2.500    1.750    0.000    4.667 
#    3.000    3.333    0.000    0.000    0.000    0.000 
#    0.000    0.000    0.000    0.000    0.000    0.000 
#
# Total GULP energy -594846.614323 kJ/mol
# GULP energy per Si atom -12392.637798 kJ/mol
# Density = 2.091243 g / cm^3
# Si number density = 20.960137 Si / 1000 Ang^3
#
#
#
# Elastic Constant Matrix: (Units=GPa)
#
#
# Indices 1 2 3 4 5 6 
#
# 1 124.9996 57.4014 33.5533 0.0000 0.0000 0.0000
# 2 57.4014 102.1580 22.2825 0.0000 0.0000 0.0000
# 3 33.5533 22.2825 105.7864 0.0000 0.0000 0.0000
# 4 0.0000 0.0000 0.0000 30.5820 0.0000 0.0000
# 5 0.0000 0.0000 0.0000 0.0000 9.9993 0.0000
# 6 0.0000 0.0000 0.0000 0.0000 0.0000 34.1080
#
#
#
# Elastic Compliance Matrix: (Units=1/GPa)
#
#
# Indices 1 2 3 4 5 6 
#
# 1 0.011317 -0.005844 -0.002358 0.000000 0.000000 0.000000
# 2 -0.005844 0.013278 -0.000943 0.000000 0.000000 0.000000
# 3 -0.002358 -0.000943 0.010400 0.000000 0.000000 0.000000
# 4 0.000000 0.000000 0.000000 0.032699 0.000000 0.000000
# 5 0.000000 0.000000 0.000000 0.000000 0.100007 0.000000
# 6 0.000000 0.000000 0.000000 0.000000 0.000000 0.029319
#
#
# Mechanical properties :
#
#
# Convention : Reuss Voigt Hill
#
# Bulk Modulus (GPa) = 59.86971 62.15760 61.01366
# Shear Modulus (GPa) = 22.63682 29.58498 26.11090
#
# Velocity S-wave (km/s) = 3.28989 3.76105 3.53333
# Velocity P-wave (km/s) = 6.56177 6.96995 6.76894
#
# Compressibility (1/GPa) = 0.01670294
#
# Stress axis : x y z
#
# Youngs Moduli (GPa) = 88.36311 75.31020 96.15637
#
# Poissons Ratio (x) = 0.44015 0.22678
# Poissons Ratio (y) = 0.51643 0.09069
# Poissons Ratio (z) = 0.20840 0.07103
#
# Static dielectric constant tensor:
#      x y z
#    x 3.903100 0.000000 0.000000 
#    y 0.000000 3.771710 0.000000 
#    z 0.000000 0.000000 3.341100 
# 
# 
# High freq. dielectric constant tensor:
#      x y z
#    x 1.828280 0.000000 0.000000 
#    y 0.000000 1.806450 0.000000 
#    z 0.000000 0.000000 1.821970 
# 
# From -- ./inp_files/3076.got.cif
#   From: 2010.06.25/outbox.cif.g09.slc.cpg/sg58_2_cif.got.tgz:3076.got - 2010.06.26 21:38:00.
