data_PCOD8238161
_publ_section_title
;
Structure prediction by ZEFSAII (Michael W. Deem and Ramdas Pophale) SiO2 
 PCOD8238161
Probable space group: P N N M
;
_chemical_formula_sum "Si O2"
_cell_formula_units_Z 56
_cell_length_a 10.847988
_cell_length_b 15.683673
_cell_length_c 15.663486
_cell_angle_alpha 90.000000
_cell_angle_beta 90.000000
_cell_angle_gamma 90.000000
_cell_volume 2664.927498
_symmetry_space_group_name_H-M "P N N M"
_symmetry_group_IT_number 58
_symmetry_cell_setting 'orthorhombic'
loop_
_space_group_symop_operation_xyz
x,y,z
-x,-y,z
1/2+x,1/2-y,1/2-z
1/2-x,1/2+y,1/2-z
-x,-y,-z
x,y,-z
1/2-x,1/2+y,1/2+z
1/2+x,1/2-y,1/2+z
loop_
_atom_site_type_symbol
_atom_site_label
_atom_site_fract_x
_atom_site_fract_y
_atom_site_fract_z
Si Si1 0.621226 0.687019 0.179965
Si Si2 0.355086 0.069798 0.401947
Si Si3 0.930029 0.916181 0.401481
Si Si4 0.827583 0.573518 0.769340
Si Si5 0.000332 0.283219 0.821495
Si Si6 0.647162 0.989457 0.096976
Si Si7 0.785929 0.816034 0.903712
O O1 0.485218 0.665269 0.147253
O O2 0.694537 0.599137 0.194718
O O3 0.609249 0.743505 0.265228
O O4 0.694627 0.736932 0.106904
O O5 0.372666 0.036664 0.500000
O O6 0.213343 0.087476 0.381759
O O7 0.434522 0.156651 0.392411
O O8 0.391053 0.996849 0.332426
O O9 0.959787 0.904842 0.500000
O O10 0.000000 0.000000 0.367398
O O11 0.914965 0.655777 0.764091
O O12 0.801600 0.548916 0.671325
O O13 0.084729 0.204781 0.856021
O O14 0.705885 0.898447 0.124127
O O15 0.500000 0.000000 0.102427
O O16 0.689201 0.014242 0.000000
O O17 0.827141 0.826551 0.000000
#
# Coordination Sequence:
#
# PCOD8238161 Si02
#       7
#     8   8   8   8   8   8   8
#     4  11  23  37  61  87 124 163 207 260 318 384
#     4  11  23  40  64  93 128 165 208 264 321 391
#     4  10  21  38  59  88 122 159 210 263 315 376
#     4  11  23  39  64  91 119 165 212 261 312 388
#     4  11  25  39  60  94 130 165 205 260 331 392
#     4  10  21  41  66  90 120 161 215 269 309 368
#     4  10  22  40  63  89 123 164 211 264 320 382
#
# _framework density 21.013705000000002
#
# number of rings (size 3 to 8) (size 9 to 14) (size 15 to 20)
#    0.000    1.429    1.429    3.857    6.000    3.429 
#    0.000    2.143    0.000    1.714    0.000    0.000 
#    0.000    0.000    0.000    0.000    0.000    0.000 
#
# Total GULP energy -693920.985321 kJ/mol
# GULP energy per Si atom -12391.446166 kJ/mol
# Density = 2.096588 g / cm^3
# Si number density = 21.013705 Si / 1000 Ang^3
#
#
#
# Elastic Constant Matrix: (Units=GPa)
#
#
# Indices 1 2 3 4 5 6 
#
# 1 100.1610 38.8403 9.7184 0.0000 0.0000 0.0000
# 2 38.8403 78.8380 35.8471 0.0000 0.0000 0.0000
# 3 9.7184 35.8471 74.5398 0.0000 0.0000 0.0000
# 4 0.0000 0.0000 0.0000 15.4172 0.0000 0.0000
# 5 0.0000 0.0000 0.0000 0.0000 23.4975 0.0000
# 6 0.0000 0.0000 0.0000 0.0000 0.0000 47.7754
#
#
#
# Elastic Compliance Matrix: (Units=1/GPa)
#
#
# Indices 1 2 3 4 5 6 
#
# 1 0.012509 -0.006938 0.001706 0.000000 0.000000 0.000000
# 2 -0.006938 0.020083 -0.008753 0.000000 0.000000 0.000000
# 3 0.001706 -0.008753 0.017403 0.000000 0.000000 0.000000
# 4 0.000000 0.000000 0.000000 0.064863 0.000000 0.000000
# 5 0.000000 0.000000 0.000000 0.000000 0.042558 0.000000
# 6 0.000000 0.000000 0.000000 0.000000 0.000000 0.020931
#
#
# Mechanical properties :
#
#
# Convention : Reuss Voigt Hill
#
# Bulk Modulus (GPa) = 45.40768 46.92781 46.16774
# Shear Modulus (GPa) = 23.40184 28.61355 26.00770
#
# Velocity S-wave (km/s) = 3.34075 3.69407 3.52185
# Velocity P-wave (km/s) = 6.04453 6.36988 6.20934
#
# Compressibility (1/GPa) = 0.02202271
#
# Stress axis : x y z
#
# Youngs Moduli (GPa) = 79.94293 49.79452 57.46189
#
# Poissons Ratio (x) = 0.34549 -0.09802
# Poissons Ratio (y) = 0.55466 0.50298
# Poissons Ratio (z) = -0.13637 0.43587
#
# Static dielectric constant tensor:
#      x y z
#    x 3.837990 0.000000 0.000000 
#    y 0.000000 3.785720 0.000000 
#    z 0.000000 0.000000 3.743900 
# 
# 
# High freq. dielectric constant tensor:
#      x y z
#    x 1.832560 0.000000 0.000000 
#    y 0.000000 1.813950 0.000000 
#    z 0.000000 0.000000 1.820630 
# 
# From -- ./inp_files/21258.got.cif
#   From: 2010.06.25/outbox.cif.g09.slc.cpg/sg58_11_cif.got.tgz:21258.got - 2010.06.26 21:38:00.
