data_PCOD8238098
_publ_section_title
;
Structure prediction by ZEFSAII (Michael W. Deem and Ramdas Pophale) SiO2 
 PCOD8238098
Probable space group: P N N M
;
_chemical_formula_sum "Si O2"
_cell_formula_units_Z 56
_cell_length_a 16.543197
_cell_length_b 19.751973
_cell_length_c 9.002596
_cell_angle_alpha 90.000000
_cell_angle_beta 90.000000
_cell_angle_gamma 90.000000
_cell_volume 2941.695295
_symmetry_space_group_name_H-M "P N N M"
_symmetry_group_IT_number 58
_symmetry_cell_setting 'orthorhombic'
loop_
_space_group_symop_operation_xyz
x,y,z
-x,-y,z
1/2+x,1/2-y,1/2-z
1/2-x,1/2+y,1/2-z
-x,-y,-z
x,y,-z
1/2-x,1/2+y,1/2+z
1/2+x,1/2-y,1/2+z
loop_
_atom_site_type_symbol
_atom_site_label
_atom_site_fract_x
_atom_site_fract_y
_atom_site_fract_z
Si Si1 0.070948 0.201118 0.171089
Si Si2 0.071285 0.048634 0.174819
Si Si3 0.260083 0.524046 0.825439
Si Si4 0.981746 0.668074 0.675762
Si Si5 0.825651 0.613184 0.172995
Si Si6 0.855044 0.353937 0.174474
Si Si7 0.750239 0.752341 0.831294
O O1 0.046942 0.125267 0.218822
O O2 0.021805 0.253876 0.271308
O O3 0.166161 0.208871 0.198313
O O4 0.049305 0.216542 0.000000
O O5 0.153592 0.025497 0.249393
O O6 0.084315 0.042880 0.000000
O O7 0.000000 0.000000 0.231685
O O8 0.214235 0.456325 0.774494
O O9 0.206135 0.587343 0.774645
O O10 0.274486 0.524615 0.000000
O O11 0.984401 0.666078 0.500000
O O12 0.905871 0.625027 0.732190
O O13 0.061316 0.633010 0.741448
O O14 0.761183 0.672919 0.203003
O O15 0.850652 0.612507 0.000000
O O16 0.817301 0.281783 0.221431
O O17 0.871297 0.354694 0.000000
O O18 0.721087 0.763983 0.000000
#
# Coordination Sequence:
#
# PCOD8238098 Si02
#       7
#     8   8   8   8   8   8   8
#     4   9  18  36  58  80 112 149 184 230 288 341
#     4  10  21  37  59  87 119 154 190 234 290 345
#     4  10  22  39  60  85 115 156 196 236 287 348
#     4  11  23  37  57  85 113 148 196 244 289 339
#     4   9  20  40  60  82 118 155 191 236 294 346
#     4  11  22  36  57  84 115 151 194 238 288 347
#     4   9  17  33  58  81 106 147 190 235 284 337
#
# _framework density 19.036640999999999
#
# number of rings (size 3 to 8) (size 9 to 14) (size 15 to 20)
#    0.000    2.143    1.429    2.571    0.000    6.000 
#    0.000    5.714    0.000    0.000    0.000    0.000 
#    0.000    0.000    0.000    0.000    0.000    0.000 
#
# Total GULP energy -694587.391528 kJ/mol
# GULP energy per Si atom -12403.346277 kJ/mol
# Density = 1.899331 g / cm^3
# Si number density = 19.036641 Si / 1000 Ang^3
#
#
#
# Elastic Constant Matrix: (Units=GPa)
#
#
# Indices 1 2 3 4 5 6 
#
# 1 125.2544 69.8458 60.8775 0.0000 0.0000 0.0000
# 2 69.8458 108.4813 47.0581 0.0000 0.0000 0.0000
# 3 60.8775 47.0581 86.1470 0.0000 0.0000 0.0000
# 4 0.0000 0.0000 0.0000 25.3747 0.0000 0.0000
# 5 0.0000 0.0000 0.0000 0.0000 36.2273 0.0000
# 6 0.0000 0.0000 0.0000 0.0000 0.0000 25.3447
#
#
#
# Elastic Compliance Matrix: (Units=1/GPa)
#
#
# Indices 1 2 3 4 5 6 
#
# 1 0.015138 -0.006692 -0.007042 0.000000 0.000000 0.000000
# 2 -0.006692 0.015039 -0.003486 0.000000 0.000000 0.000000
# 3 -0.007042 -0.003486 0.018489 0.000000 0.000000 0.000000
# 4 0.000000 0.000000 0.000000 0.039409 0.000000 0.000000
# 5 0.000000 0.000000 0.000000 0.000000 0.027603 0.000000
# 6 0.000000 0.000000 0.000000 0.000000 0.000000 0.039456
#
#
# Mechanical properties :
#
#
# Convention : Reuss Voigt Hill
#
# Bulk Modulus (GPa) = 70.29597 75.04951 72.67274
# Shear Modulus (GPa) = 25.73116 26.86276 26.29696
#
# Velocity S-wave (km/s) = 3.68049 3.76055 3.72073
# Velocity P-wave (km/s) = 7.42079 7.63969 7.53104
#
# Compressibility (1/GPa) = 0.01422557
#
# Stress axis : x y z
#
# Youngs Moduli (GPa) = 66.05878 66.49377 54.08649
#
# Poissons Ratio (x) = 0.44496 0.38089
# Poissons Ratio (y) = 0.44205 0.18856
# Poissons Ratio (z) = 0.46520 0.23181
#
# Static dielectric constant tensor:
#      x y z
#    x 3.365750 0.000000 0.000000 
#    y 0.000000 3.663630 0.000000 
#    z 0.000000 0.000000 3.350030 
# 
# 
# High freq. dielectric constant tensor:
#      x y z
#    x 1.736520 0.000000 0.000000 
#    y 0.000000 1.746540 0.000000 
#    z 0.000000 0.000000 1.732770 
# 
# From -- ./inp_files/6478.got.cif
#   From: 2010.06.25/outbox.cif.g09.slc.cpg/sg58_4_cif.got.tgz:6478.got - 2010.06.26 21:38:00.
