data_PCOD8238262
_publ_section_title
;
Structure prediction by ZEFSAII (Michael W. Deem and Ramdas Pophale) SiO2 
 PCOD8238262
Probable space group: P N N M
;
_chemical_formula_sum "Si O2"
_cell_formula_units_Z 56
_cell_length_a 18.204459
_cell_length_b 13.184669
_cell_length_c 12.675959
_cell_angle_alpha 90.000000
_cell_angle_beta 90.000000
_cell_angle_gamma 90.000000
_cell_volume 3042.480716
_symmetry_space_group_name_H-M "P N N M"
_symmetry_group_IT_number 58
_symmetry_cell_setting 'orthorhombic'
loop_
_space_group_symop_operation_xyz
x,y,z
-x,-y,z
1/2+x,1/2-y,1/2-z
1/2-x,1/2+y,1/2-z
-x,-y,-z
x,y,-z
1/2-x,1/2+y,1/2+z
1/2+x,1/2-y,1/2+z
loop_
_atom_site_type_symbol
_atom_site_label
_atom_site_fract_x
_atom_site_fract_y
_atom_site_fract_z
Si Si1 0.527222 0.113480 0.378585
Si Si2 0.834538 0.622615 0.734839
Si Si3 0.563713 0.577242 0.878772
Si Si4 0.920210 0.459264 0.378143
Si Si5 0.760592 0.277553 0.876675
Si Si6 0.274018 0.491041 0.119292
Si Si7 0.090578 0.732759 0.236959
O O1 0.549368 0.120511 0.500000
O O2 0.597908 0.144613 0.311690
O O3 0.464589 0.195681 0.354225
O O4 0.500000 0.000000 0.350729
O O5 0.858238 0.542086 0.646335
O O6 0.810492 0.723822 0.673901
O O7 0.765799 0.584641 0.802084
O O8 0.500000 0.500000 0.846706
O O9 0.639289 0.516871 0.863493
O O10 0.558289 0.672142 0.800383
O O11 0.554521 0.614513 0.000000
O O12 0.920311 0.432607 0.500000
O O13 0.897969 0.357549 0.318984
O O14 0.000000 0.500000 0.341607
O O15 0.752895 0.396299 0.856387
O O16 0.833637 0.237340 0.819318
O O17 0.764810 0.251264 0.000000
O O18 0.252622 0.460771 0.000000
#
# Coordination Sequence:
#
# PCOD8238262 Si02
#       7
#     8   8   8   8   8   8   8
#     4  11  22  38  63  91 118 153 198 245 299 360
#     4  12  20  39  59  90 123 151 188 251 304 351
#     4  10  23  40  60  84 114 159 206 244 286 349
#     4  11  22  36  57  89 121 151 189 242 309 364
#     4  11  24  38  61  89 119 159 200 242 294 356
#     4  10  21  39  61  86 116 154 200 245 291 348
#     4  12  20  40  61  85 118 156 200 246 293 346
#
# _framework density 18.406033000000001
#
# number of rings (size 3 to 8) (size 9 to 14) (size 15 to 20)
#    0.000    1.000    5.714    1.714    2.000    2.286 
#    0.000    0.000    0.000    3.429    0.000    0.000 
#    0.000    0.000    0.000    0.000    0.000    0.000 
#
# Total GULP energy -694598.703736 kJ/mol
# GULP energy per Si atom -12403.548281 kJ/mol
# Density = 1.836414 g / cm^3
# Si number density = 18.406033 Si / 1000 Ang^3
#
#
#
# Elastic Constant Matrix: (Units=GPa)
#
#
# Indices 1 2 3 4 5 6 
#
# 1 93.3351 22.7767 34.5010 0.0000 0.0000 0.0000
# 2 22.7767 62.4776 35.5336 0.0000 0.0000 0.0000
# 3 34.5010 35.5336 102.0654 0.0000 0.0000 0.0000
# 4 0.0000 0.0000 0.0000 17.0295 0.0000 0.0000
# 5 0.0000 0.0000 0.0000 0.0000 32.6577 0.0000
# 6 0.0000 0.0000 0.0000 0.0000 0.0000 36.4832
#
#
#
# Elastic Compliance Matrix: (Units=1/GPa)
#
#
# Indices 1 2 3 4 5 6 
#
# 1 0.012601 -0.002707 -0.003317 0.000000 0.000000 0.000000
# 2 -0.002707 0.020539 -0.006235 0.000000 0.000000 0.000000
# 3 -0.003317 -0.006235 0.013090 0.000000 0.000000 0.000000
# 4 0.000000 0.000000 0.000000 0.058722 0.000000 0.000000
# 5 0.000000 0.000000 0.000000 0.000000 0.030621 0.000000
# 6 0.000000 0.000000 0.000000 0.000000 0.000000 0.027410
#
#
# Mechanical properties :
#
#
# Convention : Reuss Voigt Hill
#
# Bulk Modulus (GPa) = 46.06107 49.27788 47.66948
# Shear Modulus (GPa) = 25.67555 28.23853 26.95704
#
# Velocity S-wave (km/s) = 3.73896 3.92114 3.83113
# Velocity P-wave (km/s) = 6.61204 6.87977 6.74723
#
# Compressibility (1/GPa) = 0.02171031
#
# Stress axis : x y z
#
# Youngs Moduli (GPa) = 79.35985 48.68778 76.39602
#
# Poissons Ratio (x) = 0.13181 0.25340
# Poissons Ratio (y) = 0.21485 0.47636
# Poissons Ratio (z) = 0.26323 0.30359
#
# Static dielectric constant tensor:
#      x y z
#    x 3.437660 0.000000 0.000000 
#    y 0.000000 3.248140 0.000000 
#    z 0.000000 0.000000 3.476090 
# 
# 
# High freq. dielectric constant tensor:
#      x y z
#    x 1.722040 0.000000 0.000000 
#    y 0.000000 1.701840 0.000000 
#    z 0.000000 0.000000 1.726690 
# 
# From -- ./inp_files/22207.got.cif
#   From: 2010.06.25/outbox.cif.g09.slc.cpg/sg58_12_cif.got.tgz:22207.got - 2010.06.26 21:38:00.
