data_PCOD8238629
_publ_section_title
;
Structure prediction by ZEFSAII (Michael W. Deem and Ramdas Pophale) SiO2 
 PCOD8238629
Probable space group: P N N M
;
_chemical_formula_sum "Si O2"
_cell_formula_units_Z 40
_cell_length_a 8.977659
_cell_length_b 7.964224
_cell_length_c 26.244017
_cell_angle_alpha 90.000000
_cell_angle_beta 90.000000
_cell_angle_gamma 90.000000
_cell_volume 1876.449506
_symmetry_space_group_name_H-M "P N N M"
_symmetry_group_IT_number 58
_symmetry_cell_setting 'orthorhombic'
loop_
_space_group_symop_operation_xyz
x,y,z
-x,-y,z
1/2+x,1/2-y,1/2-z
1/2-x,1/2+y,1/2-z
-x,-y,-z
x,y,-z
1/2-x,1/2+y,1/2+z
1/2+x,1/2-y,1/2+z
loop_
_atom_site_type_symbol
_atom_site_label
_atom_site_fract_x
_atom_site_fract_y
_atom_site_fract_z
Si Si1 0.846671 0.574916 0.222004
Si Si2 0.673186 0.004243 0.606369
Si Si3 0.656622 0.439002 0.307389
Si Si4 0.851678 0.698980 0.558162
Si Si5 0.823402 0.348264 0.594643
O O1 0.798088 0.498945 0.167096
O O2 0.715131 0.559808 0.262994
O O3 0.883698 0.767716 0.219228
O O4 0.000000 0.500000 0.242865
O O5 0.734560 0.177257 0.581255
O O6 0.500000 0.000000 0.593549
O O7 0.744628 0.838186 0.582259
O O8 0.500000 0.500000 0.331870
O O9 0.784343 0.412849 0.349050
O O10 0.885753 0.748594 0.500000
O O11 0.782738 0.509115 0.558886
O O12 0.002843 0.697426 0.590922
#
# Coordination Sequence:
#
# PCOD8238629 Si02
#       5
#     8   8   8   8   8
#     4  10  23  39  61  94 133 174 219 263 327 411
#     4  10  24  43  67 101 139 174 222 284 341 404
#     4  11  24  39  64  96 132 176 217 274 337 398
#     4  11  25  45  72  96 131 182 233 284 338 404
#     4  10  24  42  67  97 132 174 227 280 338 402
#
# _framework density 21.316855
#
# number of rings (size 3 to 8) (size 9 to 14) (size 15 to 20)
#    0.000    1.600    0.000    3.000   14.000    6.000 
#    0.000    1.000    0.000    0.000    0.000    0.000 
#    0.000    0.000    0.000    0.000    0.000    0.000 
#
# Total GULP energy -495815.579290 kJ/mol
# GULP energy per Si atom -12395.389482 kJ/mol
# Density = 2.126834 g / cm^3
# Si number density = 21.316855 Si / 1000 Ang^3
#
#
#
# Elastic Constant Matrix: (Units=GPa)
#
#
# Indices 1 2 3 4 5 6 
#
# 1 138.7825 61.8133 63.3595 0.0000 0.0000 0.0000
# 2 61.8133 130.7665 29.5311 0.0000 0.0000 0.0000
# 3 63.3595 29.5311 80.3920 0.0000 0.0000 0.0000
# 4 0.0000 0.0000 0.0000 36.3342 0.0000 0.0000
# 5 0.0000 0.0000 0.0000 0.0000 16.1949 0.0000
# 6 0.0000 0.0000 0.0000 0.0000 0.0000 41.1998
#
#
#
# Elastic Compliance Matrix: (Units=1/GPa)
#
#
# Indices 1 2 3 4 5 6 
#
# 1 0.013078 -0.004203 -0.008764 0.000000 0.000000 0.000000
# 2 -0.004203 0.009690 -0.000247 0.000000 0.000000 0.000000
# 3 -0.008764 -0.000247 0.019437 0.000000 0.000000 0.000000
# 4 0.000000 0.000000 0.000000 0.027522 0.000000 0.000000
# 5 0.000000 0.000000 0.000000 0.000000 0.061748 0.000000
# 6 0.000000 0.000000 0.000000 0.000000 0.000000 0.024272
#
#
# Mechanical properties :
#
#
# Convention : Reuss Voigt Hill
#
# Bulk Modulus (GPa) = 63.38032 73.26099 68.32065
# Shear Modulus (GPa) = 26.67614 31.76158 29.21886
#
# Velocity S-wave (km/s) = 3.54137 3.86421 3.70630
# Velocity P-wave (km/s) = 6.82046 7.37236 7.10178
#
# Compressibility (1/GPa) = 0.01577777
#
# Stress axis : x y z
#
# Youngs Moduli (GPa) = 76.46138 103.20162 51.44927
#
# Poissons Ratio (x) = 0.43377 0.45088
# Poissons Ratio (y) = 0.32138 0.01270
# Poissons Ratio (z) = 0.67008 0.02547
#
# Static dielectric constant tensor:
#      x y z
#    x 3.536480 0.000000 0.000000 
#    y 0.000000 4.262110 0.000000 
#    z 0.000000 0.000000 3.777950 
# 
# 
# High freq. dielectric constant tensor:
#      x y z
#    x 1.834510 0.000000 0.000000 
#    y 0.000000 1.860150 0.000000 
#    z 0.000000 0.000000 1.820790 
# 
# From -- ./inp_files/31283.got.cif
#   From: 2010.06.25/outbox.cif.g09.slc.cpg/sg58_16_cif.got.tgz:31283.got - 2010.06.26 21:38:00.
