data_PCOD8238196
_publ_section_title
;
Structure prediction by ZEFSAII (Michael W. Deem and Ramdas Pophale) SiO2 
 PCOD8238196
Probable space group: P N N M
;
_chemical_formula_sum "Si O2"
_cell_formula_units_Z 64
_cell_length_a 15.384567
_cell_length_b 24.072097
_cell_length_c 8.633860
_cell_angle_alpha 90.000000
_cell_angle_beta 90.000000
_cell_angle_gamma 90.000000
_cell_volume 3197.453258
_symmetry_space_group_name_H-M "P N N M"
_symmetry_group_IT_number 58
_symmetry_cell_setting 'orthorhombic'
loop_
_space_group_symop_operation_xyz
x,y,z
-x,-y,z
1/2+x,1/2-y,1/2-z
1/2-x,1/2+y,1/2-z
-x,-y,-z
x,y,-z
1/2-x,1/2+y,1/2+z
1/2+x,1/2-y,1/2+z
loop_
_atom_site_type_symbol
_atom_site_label
_atom_site_fract_x
_atom_site_fract_y
_atom_site_fract_z
Si Si1 0.904186 0.772670 0.821543
Si Si2 0.250348 0.427638 0.684444
Si Si3 0.746956 0.199211 0.818089
Si Si4 0.596855 0.994427 0.183744
Si Si5 0.669360 0.876667 0.820247
Si Si6 0.348324 0.619229 0.178379
Si Si7 0.592387 0.775330 0.322631
Si Si8 0.403384 0.505583 0.317826
O O1 0.829994 0.730454 0.768723
O O2 0.908718 0.829130 0.722820
O O3 0.996476 0.745631 0.792806
O O4 0.888138 0.787986 0.000000
O O5 0.252167 0.430526 0.500000
O O6 0.251044 0.364281 0.743025
O O7 0.162626 0.458049 0.746469
O O8 0.336101 0.459647 0.749912
O O9 0.838788 0.227516 0.777517
O O10 0.727124 0.200846 0.000000
O O11 0.632219 0.935059 0.237430
O O12 0.500000 0.000000 0.255117
O O13 0.591515 0.998183 0.000000
O O14 0.751173 0.860611 0.714854
O O15 0.600061 0.828360 0.789374
O O16 0.695378 0.878937 0.000000
O O17 0.368030 0.566429 0.283371
O O18 0.360781 0.603637 0.000000
O O19 0.606362 0.793528 0.500000
O O20 0.500000 0.500000 0.243792
O O21 0.409394 0.497233 0.500000
#
# Coordination Sequence:
#
# PCOD8238196 Si02
#       8
#     8   8   8   8   8   8   8   8
#     4  11  24  41  62  88 120 160 206 250 298 364
#     4   9  18  34  56  84 118 154 194 236 287 352
#     4  10  21  38  61  87 119 158 197 245 301 354
#     4   9  18  32  54  87 119 148 190 242 286 340
#     4  11  21  37  64  90 116 153 203 249 297 359
#     4  12  24  40  62  87 122 160 200 254 308 354
#     4  10  23  40  59  87 123 157 196 248 305 355
#     4  10  21  38  64  91 116 154 202 247 294 356
#
# _framework density 20.015930000000001
#
# number of rings (size 3 to 8) (size 9 to 14) (size 15 to 20)
#    0.000    1.750    2.500    1.875    3.500    1.250 
#    0.000    0.625    0.000    1.500    0.000    0.000 
#    0.000    0.000    0.000    0.000    0.000    0.000 
#
# Total GULP energy -793694.110262 kJ/mol
# GULP energy per Si atom -12401.470473 kJ/mol
# Density = 1.997037 g / cm^3
# Si number density = 20.015930 Si / 1000 Ang^3
#
#
#
# Elastic Constant Matrix: (Units=GPa)
#
#
# Indices 1 2 3 4 5 6 
#
# 1 109.3314 16.9919 17.9440 0.0000 0.0000 0.0000
# 2 16.9919 101.4700 6.0318 0.0000 0.0000 0.0000
# 3 17.9440 6.0318 25.8716 0.0000 0.0000 0.0000
# 4 0.0000 0.0000 0.0000 22.9822 0.0000 0.0000
# 5 0.0000 0.0000 0.0000 0.0000 20.6248 0.0000
# 6 0.0000 0.0000 0.0000 0.0000 0.0000 24.6401
#
#
#
# Elastic Compliance Matrix: (Units=1/GPa)
#
#
# Indices 1 2 3 4 5 6 
#
# 1 0.010499 -0.001344 -0.006969 0.000000 0.000000 0.000000
# 2 -0.001344 0.010166 -0.001438 0.000000 0.000000 0.000000
# 3 -0.006969 -0.001438 0.043821 0.000000 0.000000 0.000000
# 4 0.000000 0.000000 0.000000 0.043512 0.000000 0.000000
# 5 0.000000 0.000000 0.000000 0.000000 0.048485 0.000000
# 6 0.000000 0.000000 0.000000 0.000000 0.000000 0.040584
#
#
# Mechanical properties :
#
#
# Convention : Reuss Voigt Hill
#
# Bulk Modulus (GPa) = 22.22977 35.40092 28.81535
# Shear Modulus (GPa) = 21.59240 26.69645 24.14442
#
# Velocity S-wave (km/s) = 3.28801 3.65603 3.47689
# Velocity P-wave (km/s) = 5.05419 5.96212 5.52683
#
# Compressibility (1/GPa) = 0.04498473
#
# Stress axis : x y z
#
# Youngs Moduli (GPa) = 95.24640 98.37043 22.82013
#
# Poissons Ratio (x) = 0.13220 0.15902
# Poissons Ratio (y) = 0.12800 0.03281
# Poissons Ratio (z) = 0.66373 0.14145
#
# Static dielectric constant tensor:
#      x y z
#    x 3.964970 0.000000 0.000000 
#    y 0.000000 3.748530 0.000000 
#    z 0.000000 0.000000 3.277290 
# 
# 
# High freq. dielectric constant tensor:
#      x y z
#    x 1.792750 0.000000 0.000000 
#    y 0.000000 1.794150 0.000000 
#    z 0.000000 0.000000 1.745960 
# 
# From -- ./inp_files/6796.got.cif
#   From: 2010.06.25/outbox.cif.g09.slc.cpg/sg58_4_cif.got.tgz:6796.got - 2010.06.26 21:38:00.
