data_PCOD8238600
_publ_section_title
;
Structure prediction by ZEFSAII (Michael W. Deem and Ramdas Pophale) SiO2 
 PCOD8238600
Probable space group: P N N M
;
_chemical_formula_sum "Si O2"
_cell_formula_units_Z 56
_cell_length_a 14.577098
_cell_length_b 21.507449
_cell_length_c 8.454313
_cell_angle_alpha 90.000000
_cell_angle_beta 90.000000
_cell_angle_gamma 90.000000
_cell_volume 2650.564016
_symmetry_space_group_name_H-M "P N N M"
_symmetry_group_IT_number 58
_symmetry_cell_setting 'orthorhombic'
loop_
_space_group_symop_operation_xyz
x,y,z
-x,-y,z
1/2+x,1/2-y,1/2-z
1/2-x,1/2+y,1/2-z
-x,-y,-z
x,y,-z
1/2-x,1/2+y,1/2+z
1/2+x,1/2-y,1/2+z
loop_
_atom_site_type_symbol
_atom_site_label
_atom_site_fract_x
_atom_site_fract_y
_atom_site_fract_z
Si Si1 0.393504 0.397000 0.817790
Si Si2 0.898161 0.886028 0.317480
Si Si3 0.717384 0.491443 0.682359
Si Si4 0.435218 0.177463 0.686998
Si Si5 0.409961 0.038522 0.313088
Si Si6 0.110545 0.249311 0.815952
Si Si7 0.204466 0.781269 0.183309
O O1 0.499619 0.409014 0.775058
O O2 0.337544 0.459467 0.787731
O O3 0.357640 0.341616 0.708410
O O4 0.383316 0.377155 0.000000
O O5 0.874692 0.898199 0.500000
O O6 0.824885 0.923514 0.213389
O O7 0.886765 0.813614 0.283086
O O8 0.707025 0.509556 0.500000
O O9 0.823890 0.493458 0.728853
O O10 0.442581 0.173694 0.500000
O O11 0.422107 0.108291 0.755156
O O12 0.528893 0.207833 0.751866
O O13 0.350048 0.219966 0.739769
O O14 0.392528 0.038543 0.500000
O O15 0.500000 0.000000 0.267468
O O16 0.204349 0.286941 0.788208
O O17 0.096185 0.234036 0.000000
O O18 0.230901 0.776538 0.000000
#
# Coordination Sequence:
#
# PCOD8238600 Si02
#       7
#     8   8   8   8   8   8   8
#     4  11  24  42  65  93 126 165 214 268 322 384
#     4  11  23  42  66  95 128 166 215 265 320 381
#     4  12  26  42  64  94 129 170 212 262 324 386
#     4   9  20  39  62  90 126 166 208 255 310 372
#     4  10  22  42  68  94 127 173 219 261 312 377
#     4  11  22  38  63  94 129 168 211 257 316 380
#     4  11  22  39  62  92 130 170 213 263 320 380
#
# _framework density 21.127578
#
# number of rings (size 3 to 8) (size 9 to 14) (size 15 to 20)
#    0.000    1.286    1.429    4.286    2.000    4.857 
#    0.000    2.143    0.000    0.000    0.000    0.000 
#    0.000    0.000    0.000    0.000    0.000    0.000 
#
# Total GULP energy -694797.991038 kJ/mol
# GULP energy per Si atom -12407.106983 kJ/mol
# Density = 2.107949 g / cm^3
# Si number density = 21.127578 Si / 1000 Ang^3
#
#
#
# Elastic Constant Matrix: (Units=GPa)
#
#
# Indices 1 2 3 4 5 6 
#
# 1 122.0631 19.8404 35.3128 0.0000 0.0000 0.0000
# 2 19.8404 79.2342 11.3430 0.0000 0.0000 0.0000
# 3 35.3128 11.3430 51.4242 0.0000 0.0000 0.0000
# 4 0.0000 0.0000 0.0000 28.3077 0.0000 0.0000
# 5 0.0000 0.0000 0.0000 0.0000 29.2418 0.0000
# 6 0.0000 0.0000 0.0000 0.0000 0.0000 35.0109
#
#
#
# Elastic Compliance Matrix: (Units=1/GPa)
#
#
# Indices 1 2 3 4 5 6 
#
# 1 0.010425 -0.001637 -0.006798 0.000000 0.000000 0.000000
# 2 -0.001637 0.013289 -0.001807 0.000000 0.000000 0.000000
# 3 -0.006798 -0.001807 0.024513 0.000000 0.000000 0.000000
# 4 0.000000 0.000000 0.000000 0.035326 0.000000 0.000000
# 5 0.000000 0.000000 0.000000 0.000000 0.034198 0.000000
# 6 0.000000 0.000000 0.000000 0.000000 0.000000 0.028563
#
#
# Mechanical properties :
#
#
# Convention : Reuss Voigt Hill
#
# Bulk Modulus (GPa) = 36.04493 42.85708 39.45101
# Shear Modulus (GPa) = 28.40171 30.92709 29.66440
#
# Velocity S-wave (km/s) = 3.67044 3.83015 3.75114
# Velocity P-wave (km/s) = 5.92119 6.31577 6.12166
#
# Compressibility (1/GPa) = 0.02774315
#
# Stress axis : x y z
#
# Youngs Moduli (GPa) = 95.92117 75.24739 40.79518
#
# Poissons Ratio (x) = 0.12321 0.27732
# Poissons Ratio (y) = 0.15706 0.07372
# Poissons Ratio (z) = 0.65205 0.13597
#
# Static dielectric constant tensor:
#      x y z
#    x 3.987130 0.000000 0.000000 
#    y 0.000000 3.880400 0.000000 
#    z 0.000000 0.000000 3.549130 
# 
# 
# High freq. dielectric constant tensor:
#      x y z
#    x 1.843970 0.000000 0.000000 
#    y 0.000000 1.833030 0.000000 
#    z 0.000000 0.000000 1.812920 
# 
# From -- ./inp_files/6456.got.cif
#   From: 2010.06.25/outbox.cif.g09.slc.cpg/sg58_4_cif.got.tgz:6456.got - 2010.06.26 21:38:00.
