data_PCOD8238924
_publ_section_title
;
Structure prediction by ZEFSAII (Michael W. Deem and Ramdas Pophale) SiO2 
 PCOD8238924
Probable space group: P N N M
;
_chemical_formula_sum "Si O2"
_cell_formula_units_Z 64
_cell_length_a 20.302300
_cell_length_b 8.922624
_cell_length_c 19.372787
_cell_angle_alpha 90.000000
_cell_angle_beta 90.000000
_cell_angle_gamma 90.000000
_cell_volume 3509.376282
_symmetry_space_group_name_H-M "P N N M"
_symmetry_group_IT_number 58
_symmetry_cell_setting 'orthorhombic'
loop_
_space_group_symop_operation_xyz
x,y,z
-x,-y,z
1/2+x,1/2-y,1/2-z
1/2-x,1/2+y,1/2-z
-x,-y,-z
x,y,-z
1/2-x,1/2+y,1/2+z
1/2+x,1/2-y,1/2+z
loop_
_atom_site_type_symbol
_atom_site_label
_atom_site_fract_x
_atom_site_fract_y
_atom_site_fract_z
Si Si1 0.117689 0.171728 0.422032
Si Si2 0.310924 0.676311 0.289105
Si Si3 0.574793 0.171173 0.208998
Si Si4 0.771940 0.328017 0.077886
Si Si5 0.771940 0.671983 0.922114
Si Si6 0.689076 0.676311 0.710895
Si Si7 0.574793 0.828827 0.208998
Si Si8 0.117689 0.828272 0.577968
O O1 0.100211 0.219824 0.500000
O O2 0.077998 0.278140 0.370678
O O3 0.194860 0.191331 0.407784
O O4 0.096929 1.000000 0.409424
O O5 0.379732 0.724928 0.255999
O O6 0.311880 0.724322 0.369239
O O7 0.303547 0.500000 0.282461
O O8 0.250000 0.750000 0.250000
O O9 0.500000 0.187654 0.235159
O O10 0.598947 0.000000 0.214420
O O11 0.792740 0.500000 0.089317
O O12 0.811880 0.224322 0.130761
O O13 0.789327 0.277419 0.000000
O O14 0.694860 0.691331 0.907784
O O15 0.789327 0.722581 0.000000
O O16 0.620268 0.724928 0.744001
O O17 0.577998 0.778140 0.129322
O O18 0.100211 0.780176 0.500000
#
# Coordination Sequence:
#
# PCOD8238924 Si02
#       8
#     8   8   8   8   8   8   8   8
#     4   9  18  33  54  80 111 149 188 225 271 329
#     4  12  23  36  58  85 113 146 187 232 279 329
#     4  11  24  39  55  79 112 150 191 233 279 330
#     4   9  18  34  57  85 115 145 180 225 277 331
#     4   9  18  34  57  85 115 145 180 225 277 331
#     4  12  23  36  58  85 113 146 187 232 279 329
#     4  11  24  39  55  79 112 150 191 233 279 330
#     4   9  18  33  54  80 111 149 188 225 271 329
#
# _framework density 18.236858999999999
#
# number of rings (size 3 to 8) (size 9 to 14) (size 15 to 20)
#    0.000    1.750    2.500    4.500    0.000    3.500 
#    0.000    5.000    0.000    0.750    0.000    5.250 
#    0.000    0.000    0.000    0.000    0.000    0.000 
#
# Total GULP energy -793771.040026 kJ/mol
# GULP energy per Si atom -12402.672500 kJ/mol
# Density = 1.819535 g / cm^3
# Si number density = 18.236859 Si / 1000 Ang^3
#
#
#
# Elastic Constant Matrix: (Units=GPa)
#
#
# Indices 1 2 3 4 5 6 
#
# 1 70.7125 45.9105 43.1709 0.0000 0.0000 0.0000
# 2 45.9105 125.6469 58.2984 0.0000 0.0000 0.0000
# 3 43.1709 58.2984 110.0906 0.0000 0.0000 0.0000
# 4 0.0000 0.0000 0.0000 37.0804 0.0000 0.0000
# 5 0.0000 0.0000 0.0000 0.0000 22.8883 0.0000
# 6 0.0000 0.0000 0.0000 0.0000 0.0000 25.6730
#
#
#
# Elastic Compliance Matrix: (Units=1/GPa)
#
#
# Indices 1 2 3 4 5 6 
#
# 1 0.020756 -0.005048 -0.005466 0.000000 0.000000 0.000000
# 2 -0.005048 0.011779 -0.004258 0.000000 0.000000 0.000000
# 3 -0.005466 -0.004258 0.013482 0.000000 0.000000 0.000000
# 4 0.000000 0.000000 0.000000 0.026968 0.000000 0.000000
# 5 0.000000 0.000000 0.000000 0.000000 0.043690 0.000000
# 6 0.000000 0.000000 0.000000 0.000000 0.000000 0.038951
#
#
# Mechanical properties :
#
#
# Convention : Reuss Voigt Hill
#
# Bulk Modulus (GPa) = 60.70669 66.80107 63.75388
# Shear Modulus (GPa) = 26.22428 27.73302 26.97865
#
# Velocity S-wave (km/s) = 3.79619 3.90386 3.85040
# Velocity P-wave (km/s) = 7.25085 7.55178 7.40285
#
# Compressibility (1/GPa) = 0.01647265
#
# Stress axis : x y z
#
# Youngs Moduli (GPa) = 48.17780 84.89705 74.17403
#
# Poissons Ratio (x) = 0.42856 0.40546
# Poissons Ratio (y) = 0.24320 0.31584
# Poissons Ratio (z) = 0.26335 0.36149
#
# Static dielectric constant tensor:
#      x y z
#    x 3.108620 0.000000 0.000000 
#    y 0.000000 3.361060 0.000000 
#    z 0.000000 0.000000 3.542170 
# 
# 
# High freq. dielectric constant tensor:
#      x y z
#    x 1.680080 0.000000 0.000000 
#    y 0.000000 1.708690 0.000000 
#    z 0.000000 0.000000 1.712630 
# 
# From -- ./inp_files/25676.got.cif
#   From: 2010.06.25/outbox.cif.g09.slc.cpg/sg58_13_cif.got.tgz:25676.got - 2010.06.26 21:38:00.
