data_PCOD8238955
_publ_section_title
;
Structure prediction by ZEFSAII (Michael W. Deem and Ramdas Pophale) SiO2 
 PCOD8238955
Probable space group: P N N M
;
_chemical_formula_sum "Si O2"
_cell_formula_units_Z 56
_cell_length_a 27.099425
_cell_length_b 9.638802
_cell_length_c 14.187196
_cell_angle_alpha 90.000000
_cell_angle_beta 90.000000
_cell_angle_gamma 90.000000
_cell_volume 3705.780603
_symmetry_space_group_name_H-M "P N N M"
_symmetry_group_IT_number 58
_symmetry_cell_setting 'orthorhombic'
loop_
_space_group_symop_operation_xyz
x,y,z
-x,-y,z
1/2+x,1/2-y,1/2-z
1/2-x,1/2+y,1/2-z
-x,-y,-z
x,y,-z
1/2-x,1/2+y,1/2+z
1/2+x,1/2-y,1/2+z
loop_
_atom_site_type_symbol
_atom_site_label
_atom_site_fract_x
_atom_site_fract_y
_atom_site_fract_z
Si Si1 0.303779 0.572766 0.608773
Si Si2 0.033621 0.689446 0.111219
Si Si3 0.625136 0.656224 0.612108
Si Si4 0.326219 0.846928 0.704074
Si Si5 0.780798 0.651747 0.605019
Si Si6 0.298619 0.120775 0.607645
Si Si7 0.429302 0.890044 0.611818
O O1 0.310351 0.615193 0.500000
O O2 0.352939 0.490823 0.646378
O O3 0.296928 0.710837 0.669596
O O4 0.256761 0.474561 0.622378
O O5 0.068155 0.818562 0.144920
O O6 0.059105 0.546632 0.143816
O O7 0.976750 0.702893 0.144623
O O8 0.031769 0.683132 0.000000
O O9 0.630616 0.658811 0.500000
O O10 0.658008 0.783444 0.650898
O O11 0.324352 0.853332 0.817946
O O12 0.382344 0.837284 0.669248
O O13 0.296486 0.978746 0.665283
O O14 0.803840 0.639662 0.500000
O O15 0.752934 0.798550 0.615067
O O16 0.310918 0.081770 0.500000
O O17 0.418969 0.877131 0.500000
#
# Coordination Sequence:
#
# PCOD8238955 Si02
#       7
#     8   8   8   8   8   8   8
#     4   9  18  29  42  63  90 110 131 170 216 251
#     4   8  13  24  39  59  90 119 136 157 197 253
#     4   8  13  25  41  57  86 122 135 144 193 262
#     4  12  18  26  44  66  83 106 143 182 206 234
#     4   9  20  34  42  54  82 118 144 169 209 255
#     4   9  16  27  44  62  80 107 142 166 196 250
#     4   9  16  23  38  66  91 108 137 174 200 236
#
# _framework density 15.111526
#
# number of rings (size 3 to 8) (size 9 to 14) (size 15 to 20)
#    0.000    2.857    1.429    4.714    0.000    0.000 
#    0.000    0.714    0.000    3.429    0.000    2.000 
#    0.000    1.143    0.000    0.000    0.000    0.000 
#
# Total GULP energy -693847.113864 kJ/mol
# GULP energy per Si atom -12390.127033 kJ/mol
# Density = 1.507713 g / cm^3
# Si number density = 15.111526 Si / 1000 Ang^3
#
#
#
# Elastic Constant Matrix: (Units=GPa)
#
#
# Indices 1 2 3 4 5 6 
#
# 1 63.6489 15.7717 37.8467 0.0000 0.0000 0.0000
# 2 15.7717 78.2122 31.4612 0.0000 0.0000 0.0000
# 3 37.8467 31.4612 73.7746 0.0000 0.0000 0.0000
# 4 0.0000 0.0000 0.0000 10.7436 0.0000 0.0000
# 5 0.0000 0.0000 0.0000 0.0000 16.3424 0.0000
# 6 0.0000 0.0000 0.0000 0.0000 0.0000 12.0828
#
#
#
# Elastic Compliance Matrix: (Units=1/GPa)
#
#
# Indices 1 2 3 4 5 6 
#
# 1 0.022608 0.000128 -0.011653 0.000000 0.000000 0.000000
# 2 0.000128 0.015434 -0.006648 0.000000 0.000000 0.000000
# 3 -0.011653 -0.006648 0.022368 0.000000 0.000000 0.000000
# 4 0.000000 0.000000 0.000000 0.093078 0.000000 0.000000
# 5 0.000000 0.000000 0.000000 0.000000 0.061190 0.000000
# 6 0.000000 0.000000 0.000000 0.000000 0.000000 0.082762
#
#
# Mechanical properties :
#
#
# Convention : Reuss Voigt Hill
#
# Bulk Modulus (GPa) = 41.55312 42.86610 42.20961
# Shear Modulus (GPa) = 14.62812 16.53751 15.58282
#
# Velocity S-wave (km/s) = 3.11466 3.31171 3.21469
# Velocity P-wave (km/s) = 6.36335 6.56135 6.46310
#
# Compressibility (1/GPa) = 0.02406558
#
# Stress axis : x y z
#
# Youngs Moduli (GPa) = 44.23131 64.79248 44.70734
#
# Poissons Ratio (x) = -0.00832 0.52097
# Poissons Ratio (y) = -0.00568 0.29720
# Poissons Ratio (z) = 0.51543 0.43072
#
# Static dielectric constant tensor:
#      x y z
#    x 2.946420 0.000000 0.000000 
#    y 0.000000 2.947120 0.000000 
#    z 0.000000 0.000000 2.564420 
# 
# 
# High freq. dielectric constant tensor:
#      x y z
#    x 1.565570 0.000000 0.000000 
#    y 0.000000 1.580670 0.000000 
#    z 0.000000 0.000000 1.525880 
# 
# From -- ./inp_files/20389.got.cif
#   From: 2010.06.25/outbox.cif.g09.slc.cpg/sg58_11_cif.got.tgz:20389.got - 2010.06.26 21:38:00.
