data_PCOD8238583
_publ_section_title
;
Structure prediction by ZEFSAII (Michael W. Deem and Ramdas Pophale) SiO2 
 PCOD8238583
Probable space group: P N N M
;
_chemical_formula_sum "Si O2"
_cell_formula_units_Z 40
_cell_length_a 14.692327
_cell_length_b 14.790166
_cell_length_c 9.093687
_cell_angle_alpha 90.000000
_cell_angle_beta 90.000000
_cell_angle_gamma 90.000000
_cell_volume 1976.075966
_symmetry_space_group_name_H-M "P N N M"
_symmetry_group_IT_number 58
_symmetry_cell_setting 'orthorhombic'
loop_
_space_group_symop_operation_xyz
x,y,z
-x,-y,z
1/2+x,1/2-y,1/2-z
1/2-x,1/2+y,1/2-z
-x,-y,-z
x,y,-z
1/2-x,1/2+y,1/2+z
1/2+x,1/2-y,1/2+z
loop_
_atom_site_type_symbol
_atom_site_label
_atom_site_fract_x
_atom_site_fract_y
_atom_site_fract_z
Si Si1 0.914168 0.063916 0.331378
Si Si2 0.492193 0.268867 0.330305
Si Si3 0.322585 0.769128 0.828803
Si Si4 0.161645 0.633283 0.168173
Si Si5 0.236236 0.469961 0.327331
O O1 0.890836 0.084985 0.500000
O O2 0.930539 0.156900 0.248050
O O3 0.830495 0.011723 0.256681
O O4 0.000000 0.000000 0.316159
O O5 0.501144 0.296080 0.500000
O O6 0.591415 0.264932 0.261473
O O7 0.439179 0.174213 0.311749
O O8 0.236582 0.707808 0.786115
O O9 0.302139 0.872019 0.784357
O O10 0.346454 0.760789 0.000000
O O11 0.165972 0.546276 0.273296
O O12 0.177620 0.603165 0.000000
O O13 0.252787 0.478478 0.500000
#
# Coordination Sequence:
#
# PCOD8238583 Si02
#       5
#     8   8   8   8   8
#     4  11  23  39  61  91 125 162 205 256 317 371
#     4  11  23  40  63  91 123 162 209 258 306 368
#     4  10  22  42  62  86 126 165 202 255 315 369
#     4  10  22  42  62  86 126 165 202 255 315 369
#     4  11  23  40  63  91 123 162 209 258 306 368
#
# _framework density 20.242137
#
# number of rings (size 3 to 8) (size 9 to 14) (size 15 to 20)
#    0.000    1.400    2.000    3.000    0.000   11.200 
#    0.000    4.000    0.000    0.000    0.000    0.000 
#    0.000    0.000    0.000    0.000    0.000    0.000 
#
# Total GULP energy -496255.840350 kJ/mol
# GULP energy per Si atom -12406.396009 kJ/mol
# Density = 2.019606 g / cm^3
# Si number density = 20.242137 Si / 1000 Ang^3
#
#
#
# Elastic Constant Matrix: (Units=GPa)
#
#
# Indices 1 2 3 4 5 6 
#
# 1 54.0883 -14.6683 15.7537 0.0000 0.0000 0.0000
# 2 -14.6683 75.1489 23.2311 0.0000 0.0000 0.0000
# 3 15.7537 23.2311 74.9124 0.0000 0.0000 0.0000
# 4 0.0000 0.0000 0.0000 28.8217 0.0000 0.0000
# 5 0.0000 0.0000 0.0000 0.0000 16.2873 0.0000
# 6 0.0000 0.0000 0.0000 0.0000 0.0000 24.6617
#
#
#
# Elastic Compliance Matrix: (Units=1/GPa)
#
#
# Indices 1 2 3 4 5 6 
#
# 1 0.022149 0.006374 -0.006635 0.000000 0.000000 0.000000
# 2 0.006374 0.016552 -0.006474 0.000000 0.000000 0.000000
# 3 -0.006635 -0.006474 0.016752 0.000000 0.000000 0.000000
# 4 0.000000 0.000000 0.000000 0.034696 0.000000 0.000000
# 5 0.000000 0.000000 0.000000 0.000000 0.061397 0.000000
# 6 0.000000 0.000000 0.000000 0.000000 0.000000 0.040549
#
#
# Mechanical properties :
#
#
# Convention : Reuss Voigt Hill
#
# Bulk Modulus (GPa) = 23.81764 28.08693 25.95229
# Shear Modulus (GPa) = 22.77297 25.94301 24.35799
#
# Velocity S-wave (km/s) = 3.35778 3.58388 3.47267
# Velocity P-wave (km/s) = 5.17927 5.57056 5.37848
#
# Compressibility (1/GPa) = 0.04198568
#
# Stress axis : x y z
#
# Youngs Moduli (GPa) = 45.14801 60.41447 59.69552
#
# Poissons Ratio (x) = -0.38510 0.39606
# Poissons Ratio (y) = -0.28779 0.38644
# Poissons Ratio (z) = 0.29954 0.39110
#
# Static dielectric constant tensor:
#      x y z
#    x 3.644760 0.000000 0.000000 
#    y 0.000000 3.818950 0.000000 
#    z 0.000000 0.000000 3.717070 
# 
# 
# High freq. dielectric constant tensor:
#      x y z
#    x 1.793490 0.000000 0.000000 
#    y 0.000000 1.796130 0.000000 
#    z 0.000000 0.000000 1.796050 
# 
# From -- ./inp_files/5367.got.cif
#   From: 2010.06.25/outbox.cif.g09.slc.cpg/sg58_3_cif.got.tgz:5367.got - 2010.06.26 21:38:00.
