data_PCOD8238695
_publ_section_title
;
Structure prediction by ZEFSAII (Michael W. Deem and Ramdas Pophale) SiO2 
 PCOD8238695
Probable space group: P N N M
;
_chemical_formula_sum "Si O2"
_cell_formula_units_Z 32
_cell_length_a 8.161470
_cell_length_b 9.084596
_cell_length_c 19.007015
_cell_angle_alpha 90.000000
_cell_angle_beta 90.000000
_cell_angle_gamma 90.000000
_cell_volume 1409.249614
_symmetry_space_group_name_H-M "P N N M"
_symmetry_group_IT_number 58
_symmetry_cell_setting 'orthorhombic'
loop_
_space_group_symop_operation_xyz
x,y,z
-x,-y,z
1/2+x,1/2-y,1/2-z
1/2-x,1/2+y,1/2-z
-x,-y,-z
x,y,-z
1/2-x,1/2+y,1/2+z
1/2+x,1/2-y,1/2+z
loop_
_atom_site_type_symbol
_atom_site_label
_atom_site_fract_x
_atom_site_fract_y
_atom_site_fract_z
Si Si1 0.608505 0.876432 0.697403
Si Si2 0.677175 0.066020 0.079861
Si Si3 0.378520 0.613743 0.693349
Si Si4 0.163841 0.091537 0.419187
O O1 0.494212 0.746584 0.667738
O O2 0.743194 0.821388 0.753550
O O3 0.691618 0.963735 0.631656
O O4 0.500000 0.000000 0.736838
O O5 0.651821 0.236125 0.101879
O O6 0.500000 0.000000 0.088108
O O7 0.803401 0.973938 0.127201
O O8 0.741883 0.053838 0.000000
O O9 0.500000 0.500000 0.733749
O O10 0.213657 0.068217 0.500000
O O11 0.000000 0.000000 0.402466
#
# Coordination Sequence:
#
# PCOD8238695 Si02
#       4
#     8   8   8   8
#     4  12  27  42  66  99 134 181 226 283 342 402
#     4  10  23  43  72 103 134 176 223 279 343 409
#     4  12  25  45  68  97 137 178 230 286 339 409
#     4  10  23  45  71 101 138 177 221 277 345 413
#
# _framework density 22.70712
#
# number of rings (size 3 to 8) (size 9 to 14) (size 15 to 20)
#    0.000    1.000    2.500    3.000    7.000    2.000 
#    0.000    0.000    0.000    0.000    0.000    0.000 
#    0.000    0.000    0.000    0.000    0.000    0.000 
#
# Total GULP energy -396633.451305 kJ/mol
# GULP energy per Si atom -12394.795353 kJ/mol
# Density = 2.265544 g / cm^3
# Si number density = 22.707120 Si / 1000 Ang^3
#
#
#
# Elastic Constant Matrix: (Units=GPa)
#
#
# Indices 1 2 3 4 5 6 
#
# 1 132.5389 66.5482 69.5513 0.0000 0.0000 0.0000
# 2 66.5482 112.8812 44.0074 0.0000 0.0000 0.0000
# 3 69.5513 44.0074 112.6607 0.0000 0.0000 0.0000
# 4 0.0000 0.0000 0.0000 27.5664 0.0000 0.0000
# 5 0.0000 0.0000 0.0000 0.0000 25.3617 0.0000
# 6 0.0000 0.0000 0.0000 0.0000 0.0000 57.3160
#
#
#
# Elastic Compliance Matrix: (Units=1/GPa)
#
#
# Indices 1 2 3 4 5 6 
#
# 1 0.013625 -0.005607 -0.006221 0.000000 0.000000 0.000000
# 2 -0.005607 0.012758 -0.001522 0.000000 0.000000 0.000000
# 3 -0.006221 -0.001522 0.013311 0.000000 0.000000 0.000000
# 4 0.000000 0.000000 0.000000 0.036276 0.000000 0.000000
# 5 0.000000 0.000000 0.000000 0.000000 0.039429 0.000000
# 6 0.000000 0.000000 0.000000 0.000000 0.000000 0.017447
#
#
# Mechanical properties :
#
#
# Convention : Reuss Voigt Hill
#
# Bulk Modulus (GPa) = 76.95977 79.81050 78.38513
# Shear Modulus (GPa) = 30.51047 33.91375 32.21211
#
# Velocity S-wave (km/s) = 3.66956 3.86881 3.77050
# Velocity P-wave (km/s) = 7.20557 7.42839 7.31783
#
# Compressibility (1/GPa) = 0.01299380
#
# Stress axis : x y z
#
# Youngs Moduli (GPa) = 73.39500 78.38341 75.12408
#
# Poissons Ratio (x) = 0.43950 0.46736
# Poissons Ratio (y) = 0.41153 0.11433
# Poissons Ratio (z) = 0.45660 0.11929
#
# Static dielectric constant tensor:
#      x y z
#    x 4.353540 0.000000 0.000000 
#    y 0.000000 4.234610 0.000000 
#    z 0.000000 0.000000 4.028900 
# 
# 
# High freq. dielectric constant tensor:
#      x y z
#    x 1.910110 0.000000 0.000000 
#    y 0.000000 1.902800 0.000000 
#    z 0.000000 0.000000 1.892090 
# 
# From -- ./inp_files/28437.got.cif
#   From: 2010.06.25/outbox.cif.g09.slc.cpg/sg58_15_cif.got.tgz:28437.got - 2010.06.26 21:38:00.
