data_PCOD8238240
_publ_section_title
;
Structure prediction by ZEFSAII (Michael W. Deem and Ramdas Pophale) SiO2 
 PCOD8238240
Probable space group: P N N M
;
_chemical_formula_sum "Si O2"
_cell_formula_units_Z 48
_cell_length_a 8.236856
_cell_length_b 19.983489
_cell_length_c 13.677356
_cell_angle_alpha 90.000000
_cell_angle_beta 90.000000
_cell_angle_gamma 90.000000
_cell_volume 2251.308134
_symmetry_space_group_name_H-M "P N N M"
_symmetry_group_IT_number 58
_symmetry_cell_setting 'orthorhombic'
loop_
_space_group_symop_operation_xyz
x,y,z
-x,-y,z
1/2+x,1/2-y,1/2-z
1/2-x,1/2+y,1/2-z
-x,-y,-z
x,y,-z
1/2-x,1/2+y,1/2+z
1/2+x,1/2-y,1/2+z
loop_
_atom_site_type_symbol
_atom_site_label
_atom_site_fract_x
_atom_site_fract_y
_atom_site_fract_z
Si Si1 0.086489 0.689813 0.605093
Si Si2 0.884450 0.561596 0.109943
Si Si3 0.570986 0.571822 0.765102
Si Si4 0.908513 0.824338 0.390327
Si Si5 0.939043 0.316676 0.184587
Si Si6 0.036618 0.176470 0.109138
O O1 0.006790 0.666755 0.500000
O O2 0.014425 0.658332 0.704568
O O3 0.271861 0.666856 0.600528
O O4 0.054449 0.769967 0.615621
O O5 0.753588 0.563996 0.196346
O O6 0.000000 0.500000 0.133758
O O7 0.992486 0.628751 0.110453
O O8 0.809638 0.555522 0.000000
O O9 0.500000 0.500000 0.737441
O O10 0.472037 0.604279 0.854136
O O11 0.555329 0.618123 0.668790
O O12 0.845132 0.833235 0.500000
O O13 0.754365 0.805190 0.323988
O O14 0.017909 0.245547 0.165518
O O15 0.959386 0.178405 0.000000
#
# Coordination Sequence:
#
# PCOD8238240 Si02
#       6
#     8   8   8   8   8   8
#     4  10  21  38  64  95 129 164 207 261 317 374
#     4  11  26  45  67  95 132 170 210 269 335 395
#     4  12  25  42  64  91 126 175 220 269 323 381
#     4  11  22  37  63  98 129 162 209 265 322 387
#     4  12  21  41  65  97 131 168 210 263 325 385
#     4  11  24  42  65  95 129 172 217 264 319 379
#
# _framework density 21.320936
#
# number of rings (size 3 to 8) (size 9 to 14) (size 15 to 20)
#    0.000    0.833    3.333    4.000    2.333    4.333 
#    0.000    0.000    0.000    1.000    0.000    0.000 
#    0.000    0.000    0.000    0.000    0.000    0.000 
#
# Total GULP energy -594868.660089 kJ/mol
# GULP energy per Si atom -12393.097085 kJ/mol
# Density = 2.127241 g / cm^3
# Si number density = 21.320936 Si / 1000 Ang^3
#
#
#
# Elastic Constant Matrix: (Units=GPa)
#
#
# Indices 1 2 3 4 5 6 
#
# 1 71.4061 25.1818 29.3225 0.0000 0.0000 0.0000
# 2 25.1818 87.8033 27.4437 0.0000 0.0000 0.0000
# 3 29.3225 27.4437 169.0858 0.0000 0.0000 0.0000
# 4 0.0000 0.0000 0.0000 184.3555 0.0000 0.0000
# 5 0.0000 0.0000 0.0000 0.0000 31.1023 0.0000
# 6 0.0000 0.0000 0.0000 0.0000 0.0000 28.4827
#
#
#
# Elastic Compliance Matrix: (Units=1/GPa)
#
#
# Indices 1 2 3 4 5 6 
#
# 1 0.016309 -0.003996 -0.002180 0.000000 0.000000 0.000000
# 2 -0.003996 0.012977 -0.001413 0.000000 0.000000 0.000000
# 3 -0.002180 -0.001413 0.006522 0.000000 0.000000 0.000000
# 4 0.000000 0.000000 0.000000 0.005424 0.000000 0.000000
# 5 0.000000 0.000000 0.000000 0.000000 0.032152 0.000000
# 6 0.000000 0.000000 0.000000 0.000000 0.000000 0.035109
#
#
# Mechanical properties :
#
#
# Convention : Reuss Voigt Hill
#
# Bulk Modulus (GPa) = 48.47486 54.68791 51.58139
# Shear Modulus (GPa) = 38.30050 65.21124 51.75587
#
# Velocity S-wave (km/s) = 4.24297 5.53642 4.93228
# Velocity P-wave (km/s) = 6.84024 8.15934 7.52873
#
# Compressibility (1/GPa) = 0.02062925
#
# Stress axis : x y z
#
# Youngs Moduli (GPa) = 61.31706 77.06022 153.33838
#
# Poissons Ratio (x) = 0.30793 0.33422
# Poissons Ratio (y) = 0.24502 0.21670
# Poissons Ratio (z) = 0.13365 0.10890
#
# Static dielectric constant tensor:
#      x y z
#    x 3.861920 0.000000 0.000000 
#    y 0.000000 3.685310 0.000000 
#    z 0.000000 0.000000 4.407060 
# 
# 
# High freq. dielectric constant tensor:
#      x y z
#    x 1.827860 0.000000 0.000000 
#    y 0.000000 1.811510 0.000000 
#    z 0.000000 0.000000 1.861820 
# 
# From -- ./inp_files/19831.got.cif
#   From: 2010.06.25/outbox.cif.g09.slc.cpg/sg58_10_cif.got.tgz:19831.got - 2010.06.26 21:38:00.
