data_PCOD8238670
_publ_section_title
;
Structure prediction by ZEFSAII (Michael W. Deem and Ramdas Pophale) SiO2 
 PCOD8238670
Probable space group: P N N M
;
_chemical_formula_sum "Si O2"
_cell_formula_units_Z 48
_cell_length_a 18.395918
_cell_length_b 14.806766
_cell_length_c 8.888328
_cell_angle_alpha 90.000000
_cell_angle_beta 90.000000
_cell_angle_gamma 90.000000
_cell_volume 2421.038807
_symmetry_space_group_name_H-M "P N N M"
_symmetry_group_IT_number 58
_symmetry_cell_setting 'orthorhombic'
loop_
_space_group_symop_operation_xyz
x,y,z
-x,-y,z
1/2+x,1/2-y,1/2-z
1/2-x,1/2+y,1/2-z
-x,-y,-z
x,y,-z
1/2-x,1/2+y,1/2+z
1/2+x,1/2-y,1/2+z
loop_
_atom_site_type_symbol
_atom_site_label
_atom_site_fract_x
_atom_site_fract_y
_atom_site_fract_z
Si Si1 0.212285 0.499980 0.675164
Si Si2 0.739534 0.699036 0.323724
Si Si3 0.410468 0.248490 0.175948
Si Si4 0.566772 0.937278 0.323053
Si Si5 0.973797 0.899976 0.673672
Si Si6 0.672751 0.346788 0.675580
O O1 0.191604 0.503786 0.500000
O O2 0.246764 0.404369 0.719789
O O3 0.140413 0.515039 0.771052
O O4 0.270845 0.575083 0.719172
O O5 0.728410 0.711931 0.500000
O O6 0.668898 0.735269 0.240760
O O7 0.808380 0.756859 0.268394
O O8 0.445628 0.159302 0.246312
O O9 0.460857 0.333102 0.214962
O O10 0.401927 0.232563 0.000000
O O11 0.569690 0.922445 0.500000
O O12 0.500000 0.000000 0.274000
O O13 0.950216 0.889935 0.500000
O O14 0.907064 0.878480 0.780818
O O15 0.000000 0.000000 0.710920
O O16 0.674982 0.324360 0.500000
#
# Coordination Sequence:
#
# PCOD8238670 Si02
#       6
#     8   8   8   8   8   8
#     4  10  23  42  64  91 124 163 205 253 313 372
#     4  11  23  40  64  93 124 162 206 255 311 369
#     4  11  23  41  65  93 126 167 209 255 314 370
#     4  11  25  42  62  91 124 164 212 260 313 372
#     4  10  23  42  64  92 126 165 207 254 310 372
#     4  11  23  40  63  93 126 162 206 256 308 369
#
# _framework density 19.8262
#
# number of rings (size 3 to 8) (size 9 to 14) (size 15 to 20)
#    0.000    1.333    1.667    3.000    2.333    5.000 
#    0.000    0.000    0.000    0.000    0.000    0.000 
#    0.000    0.000    0.000    0.000    0.000    0.000 
#
# Total GULP energy -595562.088975 kJ/mol
# GULP energy per Si atom -12407.543520 kJ/mol
# Density = 1.978107 g / cm^3
# Si number density = 19.826200 Si / 1000 Ang^3
#
#
#
# Elastic Constant Matrix: (Units=GPa)
#
#
# Indices 1 2 3 4 5 6 
#
# 1 87.4985 33.3010 31.4896 0.0000 0.0000 0.0000
# 2 33.3010 129.9916 49.8921 0.0000 0.0000 0.0000
# 3 31.4896 49.8921 66.6557 0.0000 0.0000 0.0000
# 4 0.0000 0.0000 0.0000 25.6688 0.0000 0.0000
# 5 0.0000 0.0000 0.0000 0.0000 42.4887 0.0000
# 6 0.0000 0.0000 0.0000 0.0000 0.0000 34.1814
#
#
#
# Elastic Compliance Matrix: (Units=1/GPa)
#
#
# Indices 1 2 3 4 5 6 
#
# 1 0.013966 -0.001467 -0.005500 0.000000 0.000000 0.000000
# 2 -0.001467 0.010948 -0.007501 0.000000 0.000000 0.000000
# 3 -0.005500 -0.007501 0.023216 0.000000 0.000000 0.000000
# 4 0.000000 0.000000 0.000000 0.038958 0.000000 0.000000
# 5 0.000000 0.000000 0.000000 0.000000 0.023536 0.000000
# 6 0.000000 0.000000 0.000000 0.000000 0.000000 0.029256
#
#
# Mechanical properties :
#
#
# Convention : Reuss Voigt Hill
#
# Bulk Modulus (GPa) = 52.10217 57.05678 54.57948
# Shear Modulus (GPa) = 28.53663 31.76533 30.15098
#
# Velocity S-wave (km/s) = 3.79798 4.00708 3.90393
# Velocity P-wave (km/s) = 6.75051 7.08871 6.92168
#
# Compressibility (1/GPa) = 0.01919306
#
# Stress axis : x y z
#
# Youngs Moduli (GPa) = 71.60009 91.34325 43.07437
#
# Poissons Ratio (x) = 0.13399 0.23691
# Poissons Ratio (y) = 0.10503 0.32312
# Poissons Ratio (z) = 0.39380 0.68520
#
# Static dielectric constant tensor:
#      x y z
#    x 3.652800 0.000000 0.000000 
#    y 0.000000 3.874820 0.000000 
#    z 0.000000 0.000000 3.630100 
# 
# 
# High freq. dielectric constant tensor:
#      x y z
#    x 1.780320 0.000000 0.000000 
#    y 0.000000 1.792750 0.000000 
#    z 0.000000 0.000000 1.779770 
# 
# From -- ./inp_files/7732.got.cif
#   From: 2010.06.25/outbox.cif.g09.slc.cpg/sg58_4_cif.got.tgz:7732.got - 2010.06.26 21:38:00.
