data_PCOD8238913
_publ_section_title
;
Structure prediction by ZEFSAII (Michael W. Deem and Ramdas Pophale) SiO2 
 PCOD8238913
Probable space group: P N N M
;
_chemical_formula_sum "Si O2"
_cell_formula_units_Z 40
_cell_length_a 9.804654
_cell_length_b 11.417846
_cell_length_c 16.683701
_cell_angle_alpha 90.000000
_cell_angle_beta 90.000000
_cell_angle_gamma 90.000000
_cell_volume 1867.707451
_symmetry_space_group_name_H-M "P N N M"
_symmetry_group_IT_number 58
_symmetry_cell_setting 'orthorhombic'
loop_
_space_group_symop_operation_xyz
x,y,z
-x,-y,z
1/2+x,1/2-y,1/2-z
1/2-x,1/2+y,1/2-z
-x,-y,-z
x,y,-z
1/2-x,1/2+y,1/2+z
1/2+x,1/2-y,1/2+z
loop_
_atom_site_type_symbol
_atom_site_label
_atom_site_fract_x
_atom_site_fract_y
_atom_site_fract_z
Si Si1 0.982537 0.867893 0.592456
Si Si2 0.735323 0.738056 0.653024
Si Si3 0.730449 0.755347 0.837724
Si Si4 0.982379 0.633039 0.093200
Si Si5 0.157859 0.505623 0.405865
O O1 0.023227 0.851461 0.500000
O O2 0.826761 0.832466 0.606323
O O3 0.076259 0.785260 0.646469
O O4 0.000000 0.000000 0.621207
O O5 0.772398 0.736240 0.746253
O O6 0.579942 0.778337 0.641358
O O7 0.761164 0.611601 0.615128
O O8 0.828838 0.676198 0.892345
O O9 0.738535 0.891938 0.859966
O O10 0.000000 0.500000 0.124907
O O11 0.018959 0.639283 0.000000
O O12 0.164962 0.530666 0.500000
O O13 0.000000 0.500000 0.377847
#
# Coordination Sequence:
#
# PCOD8238913 Si02
#       5
#     8   8   8   8   8
#     4  11  23  43  71  95 127 175 229 273 323 401
#     4  12  26  42  68 101 139 174 223 280 337 396
#     4  12  26  42  68 101 139 174 223 280 337 396
#     4  11  25  45  69  97 137 177 219 275 341 405
#     4  11  24  45  73  99 134 181 231 277 333 409
#
# _framework density 21.416630999999999
#
# number of rings (size 3 to 8) (size 9 to 14) (size 15 to 20)
#    0.000    0.600    2.000    6.000    5.600    4.000 
#    0.000    2.000    0.000    0.000    0.000    0.000 
#    0.000    0.000    0.000    0.000    0.000    0.000 
#
# Total GULP energy -496392.317147 kJ/mol
# GULP energy per Si atom -12409.807929 kJ/mol
# Density = 2.136789 g / cm^3
# Si number density = 21.416631 Si / 1000 Ang^3
#
#
#
# Elastic Constant Matrix: (Units=GPa)
#
#
# Indices 1 2 3 4 5 6 
#
# 1 71.3499 13.1459 14.1197 0.0000 0.0000 0.0000
# 2 13.1459 89.2469 30.9675 0.0000 0.0000 0.0000
# 3 14.1197 30.9675 59.9373 0.0000 0.0000 0.0000
# 4 0.0000 0.0000 0.0000 27.0472 0.0000 0.0000
# 5 0.0000 0.0000 0.0000 0.0000 19.7073 0.0000
# 6 0.0000 0.0000 0.0000 0.0000 0.0000 42.7190
#
#
#
# Elastic Compliance Matrix: (Units=1/GPa)
#
#
# Indices 1 2 3 4 5 6 
#
# 1 0.014802 -0.001182 -0.002876 0.000000 0.000000 0.000000
# 2 -0.001182 0.013747 -0.006824 0.000000 0.000000 0.000000
# 3 -0.002876 -0.006824 0.020887 0.000000 0.000000 0.000000
# 4 0.000000 0.000000 0.000000 0.036972 0.000000 0.000000
# 5 0.000000 0.000000 0.000000 0.000000 0.050743 0.000000
# 6 0.000000 0.000000 0.000000 0.000000 0.000000 0.023409
#
#
# Mechanical properties :
#
#
# Convention : Reuss Voigt Hill
#
# Bulk Modulus (GPa) = 36.13813 37.44448 36.79130
# Shear Modulus (GPa) = 26.10292 28.71476 27.40884
#
# Velocity S-wave (km/s) = 3.49494 3.66562 3.58130
# Velocity P-wave (km/s) = 5.76165 5.95294 5.85808
#
# Compressibility (1/GPa) = 0.02767160
#
# Stress axis : x y z
#
# Youngs Moduli (GPa) = 67.55636 72.74377 47.87580
#
# Poissons Ratio (x) = 0.08601 0.13770
# Poissons Ratio (y) = 0.07988 0.32670
# Poissons Ratio (z) = 0.19430 0.49640
#
# Static dielectric constant tensor:
#      x y z
#    x 3.744520 0.000000 0.000000 
#    y 0.000000 3.984990 0.000000 
#    z 0.000000 0.000000 3.689840 
# 
# 
# High freq. dielectric constant tensor:
#      x y z
#    x 1.841690 0.000000 0.000000 
#    y 0.000000 1.855420 0.000000 
#    z 0.000000 0.000000 1.843810 
# 
# From -- ./inp_files/24962.got.cif
#   From: 2010.06.25/outbox.cif.g09.slc.cpg/sg58_13_cif.got.tgz:24962.got - 2010.06.26 21:38:00.
