data_PCOD8238806
_publ_section_title
;
Structure prediction by ZEFSAII (Michael W. Deem and Ramdas Pophale) SiO2 
 PCOD8238806
Probable space group: P N N M
;
_chemical_formula_sum "Si O2"
_cell_formula_units_Z 48
_cell_length_a 14.478817
_cell_length_b 20.683580
_cell_length_c 8.345150
_cell_angle_alpha 90.000000
_cell_angle_beta 90.000000
_cell_angle_gamma 90.000000
_cell_volume 2499.153529
_symmetry_space_group_name_H-M "P N N M"
_symmetry_group_IT_number 58
_symmetry_cell_setting 'orthorhombic'
loop_
_space_group_symop_operation_xyz
x,y,z
-x,-y,z
1/2+x,1/2-y,1/2-z
1/2-x,1/2+y,1/2-z
-x,-y,-z
x,y,-z
1/2-x,1/2+y,1/2+z
1/2+x,1/2-y,1/2+z
loop_
_atom_site_type_symbol
_atom_site_label
_atom_site_fract_x
_atom_site_fract_y
_atom_site_fract_z
Si Si1 0.182409 0.812083 0.187342
Si Si2 0.689405 0.927714 0.809575
Si Si3 0.699606 0.304796 0.313213
Si Si4 0.305093 0.929455 0.190637
Si Si5 0.508723 0.270753 0.813516
Si Si6 0.496990 0.875706 0.809320
O O1 0.251906 0.753043 0.217957
O O2 0.229475 0.878127 0.251013
O O3 0.087425 0.806677 0.283468
O O4 0.160361 0.815439 0.000000
O O5 0.760698 0.873223 0.749645
O O6 0.587237 0.912076 0.742010
O O7 0.720414 0.998595 0.746807
O O8 0.686297 0.928417 0.000000
O O9 0.722019 0.295666 0.500000
O O10 0.590395 0.306103 0.282281
O O11 0.405814 0.910320 0.259335
O O12 0.309572 0.927029 0.000000
O O13 0.500291 0.197912 0.748260
O O14 0.533450 0.272416 0.000000
O O15 0.497638 0.876777 0.000000
#
# Coordination Sequence:
#
# PCOD8238806 Si02
#       6
#     8   8   8   8   8   8
#     4  11  21  35  56  83 112 145 183 225 274 326
#     4   9  17  30  51  80 111 141 179 226 271 319
#     4  11  21  35  56  83 112 145 183 225 274 326
#     4   9  17  30  51  80 111 141 179 226 271 319
#     4  11  21  36  56  82 110 144 187 229 271 321
#     4   9  15  27  50  81 109 133 169 220 273 320
#
# _framework density 19.206503999999999
#
# number of rings (size 3 to 8) (size 9 to 14) (size 15 to 20)
#    0.000    2.000    3.333    2.000    0.000    2.000 
#    0.000    0.833    0.000    9.000    0.000    2.333 
#    0.000    0.000    0.000    0.000    0.000    0.000 
#
# Total GULP energy -595192.721620 kJ/mol
# GULP energy per Si atom -12399.848367 kJ/mol
# Density = 1.916279 g / cm^3
# Si number density = 19.206504 Si / 1000 Ang^3
#
#
#
# Elastic Constant Matrix: (Units=GPa)
#
#
# Indices 1 2 3 4 5 6 
#
# 1 120.4494 69.1196 -0.5194 0.0000 0.0000 0.0000
# 2 69.1196 173.5990 9.7522 0.0000 0.0000 0.0000
# 3 -0.5194 9.7522 23.1781 0.0000 0.0000 0.0000
# 4 0.0000 0.0000 0.0000 19.0074 0.0000 0.0000
# 5 0.0000 0.0000 0.0000 0.0000 18.7682 0.0000
# 6 0.0000 0.0000 0.0000 0.0000 0.0000 36.7733
#
#
#
# Elastic Compliance Matrix: (Units=1/GPa)
#
#
# Indices 1 2 3 4 5 6 
#
# 1 0.010861 -0.004443 0.002113 0.000000 0.000000 0.000000
# 2 -0.004443 0.007717 -0.003347 0.000000 0.000000 0.000000
# 3 0.002113 -0.003347 0.044600 0.000000 0.000000 0.000000
# 4 0.000000 0.000000 0.000000 0.052611 0.000000 0.000000
# 5 0.000000 0.000000 0.000000 0.000000 0.053282 0.000000
# 6 0.000000 0.000000 0.000000 0.000000 0.000000 0.027194
#
#
# Mechanical properties :
#
#
# Convention : Reuss Voigt Hill
#
# Bulk Modulus (GPa) = 19.29599 52.65903 35.97751
# Shear Modulus (GPa) = 22.23278 30.83471 26.53375
#
# Velocity S-wave (km/s) = 3.40599 4.01113 3.72088
# Velocity P-wave (km/s) = 5.05333 6.99493 6.10185
#
# Compressibility (1/GPa) = 0.05182425
#
# Stress axis : x y z
#
# Youngs Moduli (GPa) = 92.07252 129.57647 22.42167
#
# Poissons Ratio (x) = 0.57572 -0.04737
# Poissons Ratio (y) = 0.40909 0.07504
# Poissons Ratio (z) = -0.19453 0.43365
#
# Static dielectric constant tensor:
#      x y z
#    x 3.569950 0.000000 0.000000 
#    y 0.000000 3.798900 0.000000 
#    z 0.000000 0.000000 3.041660 
# 
# 
# High freq. dielectric constant tensor:
#      x y z
#    x 1.749740 0.000000 0.000000 
#    y 0.000000 1.749170 0.000000 
#    z 0.000000 0.000000 1.705860 
# 
# From -- ./inp_files/5778.got.cif
#   From: 2010.06.25/outbox.cif.g09.slc.cpg/sg58_3_cif.got.tgz:5778.got - 2010.06.26 21:38:00.
