data_PCOD8238744
_publ_section_title
;
Structure prediction by ZEFSAII (Michael W. Deem and Ramdas Pophale) SiO2 
 PCOD8238744
Probable space group: P N N M
;
_chemical_formula_sum "Si O2"
_cell_formula_units_Z 56
_cell_length_a 8.038248
_cell_length_b 18.314541
_cell_length_c 19.965730
_cell_angle_alpha 90.000000
_cell_angle_beta 90.000000
_cell_angle_gamma 90.000000
_cell_volume 2939.291331
_symmetry_space_group_name_H-M "P N N M"
_symmetry_group_IT_number 58
_symmetry_cell_setting 'orthorhombic'
loop_
_space_group_symop_operation_xyz
x,y,z
-x,-y,z
1/2+x,1/2-y,1/2-z
1/2-x,1/2+y,1/2-z
-x,-y,-z
x,y,-z
1/2-x,1/2+y,1/2+z
1/2+x,1/2-y,1/2+z
loop_
_atom_site_type_symbol
_atom_site_label
_atom_site_fract_x
_atom_site_fract_y
_atom_site_fract_z
Si Si1 0.961012 0.079322 0.806118
Si Si2 0.168550 0.465682 0.127685
Si Si3 0.103461 0.090181 0.658992
Si Si4 0.641080 0.278062 0.334112
Si Si5 0.904325 0.570078 0.719480
Si Si6 0.629576 0.817996 0.723582
Si Si7 0.833556 0.171853 0.423049
O O1 0.764474 0.091814 0.819564
O O2 0.997384 0.079323 0.726514
O O3 0.077588 0.138455 0.844479
O O4 0.000000 0.000000 0.836495
O O5 0.339589 0.514392 0.122574
O O6 0.143492 0.447844 0.204835
O O7 0.199064 0.392325 0.085767
O O8 0.000000 0.500000 0.096905
O O9 0.282602 0.123528 0.676233
O O10 0.004778 0.146403 0.611845
O O11 0.476468 0.230338 0.326680
O O12 0.739263 0.268677 0.263929
O O13 0.758307 0.247401 0.393059
O O14 0.000000 0.500000 0.687262
O O15 0.024557 0.639972 0.718947
O O16 0.871703 0.187565 0.500000
#
# Coordination Sequence:
#
# PCOD8238744 Si02
#       7
#     8   8   8   8   8   8   8
#     4  11  19  32  55  84 110 137 177 233 295 354
#     4  11  19  34  55  79 114 148 189 225 274 325
#     4  11  19  33  56  79 114 148 184 232 279 332
#     4  11  22  35  54  81 110 146 187 237 291 339
#     4  11  17  30  52  86 116 144 168 221 286 347
#     4  11  19  32  56  81 111 141 177 231 293 352
#     4  12  25  39  52  74 113 158 204 235 265 321
#
# _framework density 19.052211
#
# number of rings (size 3 to 8) (size 9 to 14) (size 15 to 20)
#    0.000    0.857    7.143    3.857    0.000    1.429 
#    0.000    2.143    0.000    0.429    0.000    0.000 
#    0.000    3.429    0.000    0.000    0.000    0.000 
#
# Total GULP energy -694178.587290 kJ/mol
# GULP energy per Si atom -12396.046202 kJ/mol
# Density = 1.900885 g / cm^3
# Si number density = 19.052211 Si / 1000 Ang^3
#
#
#
# Elastic Constant Matrix: (Units=GPa)
#
#
# Indices 1 2 3 4 5 6 
#
# 1 96.2107 28.2189 10.4147 0.0000 0.0000 0.0000
# 2 28.2189 101.1927 25.2960 0.0000 0.0000 0.0000
# 3 10.4147 25.2960 42.9304 0.0000 0.0000 0.0000
# 4 0.0000 0.0000 0.0000 13.3546 0.0000 0.0000
# 5 0.0000 0.0000 0.0000 0.0000 8.8955 0.0000
# 6 0.0000 0.0000 0.0000 0.0000 0.0000 39.0359
#
#
#
# Elastic Compliance Matrix: (Units=1/GPa)
#
#
# Indices 1 2 3 4 5 6 
#
# 1 0.011359 -0.002907 -0.001043 0.000000 0.000000 0.000000
# 2 -0.002907 0.012333 -0.006562 0.000000 0.000000 0.000000
# 3 -0.001043 -0.006562 0.027413 0.000000 0.000000 0.000000
# 4 0.000000 0.000000 0.000000 0.074881 0.000000 0.000000
# 5 0.000000 0.000000 0.000000 0.000000 0.112416 0.000000
# 6 0.000000 0.000000 0.000000 0.000000 0.000000 0.025617
#
#
# Mechanical properties :
#
#
# Convention : Reuss Voigt Hill
#
# Bulk Modulus (GPa) = 33.24236 40.91032 37.07634
# Shear Modulus (GPa) = 16.94508 24.01747 20.48128
#
# Velocity S-wave (km/s) = 2.98552 3.55436 3.28229
# Velocity P-wave (km/s) = 5.41944 6.19387 5.81955
#
# Compressibility (1/GPa) = 0.03008210
#
# Stress axis : x y z
#
# Youngs Moduli (GPa) = 88.03292 81.08245 36.47908
#
# Poissons Ratio (x) = 0.23571 0.03804
# Poissons Ratio (y) = 0.25592 0.23937
# Poissons Ratio (z) = 0.09180 0.53205
#
# Static dielectric constant tensor:
#      x y z
#    x 3.919990 0.000000 0.000000 
#    y 0.000000 3.835350 0.000000 
#    z 0.000000 0.000000 2.763940 
# 
# 
# High freq. dielectric constant tensor:
#      x y z
#    x 1.772830 0.000000 0.000000 
#    y 0.000000 1.752180 0.000000 
#    z 0.000000 0.000000 1.644700 
# 
# From -- ./inp_files/29042.got.cif
#   From: 2010.06.25/outbox.cif.g09.slc.cpg/sg58_15_cif.got.tgz:29042.got - 2010.06.26 21:38:00.
