data_PCOD8238096
_publ_section_title
;
Structure prediction by ZEFSAII (Michael W. Deem and Ramdas Pophale) SiO2 
 PCOD8238096
Probable space group: P N N M
;
_chemical_formula_sum "Si O2"
_cell_formula_units_Z 48
_cell_length_a 23.452345
_cell_length_b 11.906399
_cell_length_c 8.891498
_cell_angle_alpha 90.000000
_cell_angle_beta 90.000000
_cell_angle_gamma 90.000000
_cell_volume 2482.799457
_symmetry_space_group_name_H-M "P N N M"
_symmetry_group_IT_number 58
_symmetry_cell_setting 'orthorhombic'
loop_
_space_group_symop_operation_xyz
x,y,z
-x,-y,z
1/2+x,1/2-y,1/2-z
1/2-x,1/2+y,1/2-z
-x,-y,-z
x,y,-z
1/2-x,1/2+y,1/2+z
1/2+x,1/2-y,1/2+z
loop_
_atom_site_type_symbol
_atom_site_label
_atom_site_fract_x
_atom_site_fract_y
_atom_site_fract_z
Si Si1 0.035600 0.780059 0.674977
Si Si2 0.147094 0.642582 0.323300
Si Si3 0.419443 0.724641 0.323596
Si Si4 0.099301 0.972490 0.825353
Si Si5 0.211991 0.836862 0.823916
Si Si6 0.328160 0.909427 0.677577
O O1 0.026441 0.793667 0.500000
O O2 0.084854 0.691217 0.714120
O O3 0.051033 0.902183 0.739921
O O4 0.977504 0.734055 0.746425
O O5 0.160682 0.645847 0.500000
O O6 0.195151 0.714417 0.237550
O O7 0.147983 0.517212 0.262872
O O8 0.429652 0.727095 0.500000
O O9 0.402502 0.600217 0.267879
O O10 0.368646 0.806657 0.275929
O O11 0.161775 0.924833 0.790385
O O12 0.084566 0.963204 0.000000
O O13 0.265213 0.881955 0.732158
O O14 0.226325 0.828583 0.000000
O O15 0.328007 0.931236 0.500000
#
# Coordination Sequence:
#
# PCOD8238096 Si02
#       6
#     8   8   8   8   8   8
#     4  10  21  37  59  87 116 150 193 245 292 338
#     4  10  22  41  61  82 116 156 195 242 295 349
#     4  10  22  38  57  84 119 156 191 236 290 351
#     4   9  19  37  60  85 115 154 192 231 291 354
#     4  10  21  38  62  88 115 152 195 241 296 353
#     4  11  24  39  58  87 119 155 199 243 292 350
#
# _framework density 19.333015
#
# number of rings (size 3 to 8) (size 9 to 14) (size 15 to 20)
#    0.000    2.000    0.000    2.500    2.333    7.333 
#    0.000    3.333    0.000    0.000    0.000    0.000 
#    0.000    0.000    0.000    0.000    0.000    0.000 
#
# Total GULP energy -595461.759308 kJ/mol
# GULP energy per Si atom -12405.453319 kJ/mol
# Density = 1.928901 g / cm^3
# Si number density = 19.333015 Si / 1000 Ang^3
#
#
#
# Elastic Constant Matrix: (Units=GPa)
#
#
# Indices 1 2 3 4 5 6 
#
# 1 96.0540 32.2473 34.7038 0.0000 0.0000 0.0000
# 2 32.2473 92.7228 23.8580 0.0000 0.0000 0.0000
# 3 34.7038 23.8580 26.7755 0.0000 0.0000 0.0000
# 4 0.0000 0.0000 0.0000 28.6372 0.0000 0.0000
# 5 0.0000 0.0000 0.0000 0.0000 38.1876 0.0000
# 6 0.0000 0.0000 0.0000 0.0000 0.0000 17.5344
#
#
#
# Elastic Compliance Matrix: (Units=1/GPa)
#
#
# Indices 1 2 3 4 5 6 
#
# 1 0.019589 -0.000363 -0.025065 0.000000 0.000000 0.000000
# 2 -0.000363 0.014000 -0.012004 0.000000 0.000000 0.000000
# 3 -0.025065 -0.012004 0.080530 0.000000 0.000000 0.000000
# 4 0.000000 0.000000 0.000000 0.034920 0.000000 0.000000
# 5 0.000000 0.000000 0.000000 0.000000 0.026186 0.000000
# 6 0.000000 0.000000 0.000000 0.000000 0.000000 0.057031
#
#
# Mechanical properties :
#
#
# Convention : Reuss Voigt Hill
#
# Bulk Modulus (GPa) = 25.47471 44.13008 34.80239
# Shear Modulus (GPa) = 15.61500 25.18806 20.40153
#
# Velocity S-wave (km/s) = 2.84506 3.61342 3.25201
# Velocity P-wave (km/s) = 4.89877 6.34704 5.66934
#
# Compressibility (1/GPa) = 0.03925462
#
# Stress axis : x y z
#
# Youngs Moduli (GPa) = 51.04981 71.43004 12.41767
#
# Poissons Ratio (x) = 0.02594 0.31125
# Poissons Ratio (y) = 0.01854 0.14906
# Poissons Ratio (z) = 1.27958 0.85742
#
# Static dielectric constant tensor:
#      x y z
#    x 3.586270 0.000000 0.000000 
#    y 0.000000 3.686760 0.000000 
#    z 0.000000 0.000000 3.550060 
# 
# 
# High freq. dielectric constant tensor:
#      x y z
#    x 1.759970 0.000000 0.000000 
#    y 0.000000 1.755400 0.000000 
#    z 0.000000 0.000000 1.758280 
# 
# From -- ./inp_files/4258.got.cif
#   From: 2010.06.25/outbox.cif.g09.slc.cpg/sg58_3_cif.got.tgz:4258.got - 2010.06.26 21:38:00.
