data_PCOD8238809
_publ_section_title
;
Structure prediction by ZEFSAII (Michael W. Deem and Ramdas Pophale) SiO2 
 PCOD8238809
Probable space group: P N N M
;
_chemical_formula_sum "Si O2"
_cell_formula_units_Z 64
_cell_length_a 23.969227
_cell_length_b 16.890060
_cell_length_c 8.764338
_cell_angle_alpha 90.000000
_cell_angle_beta 90.000000
_cell_angle_gamma 90.000000
_cell_volume 3548.169339
_symmetry_space_group_name_H-M "P N N M"
_symmetry_group_IT_number 58
_symmetry_cell_setting 'orthorhombic'
loop_
_space_group_symop_operation_xyz
x,y,z
-x,-y,z
1/2+x,1/2-y,1/2-z
1/2-x,1/2+y,1/2-z
-x,-y,-z
x,y,-z
1/2-x,1/2+y,1/2+z
1/2+x,1/2-y,1/2+z
loop_
_atom_site_type_symbol
_atom_site_label
_atom_site_fract_x
_atom_site_fract_y
_atom_site_fract_z
Si Si1 0.411858 0.470629 0.819384
Si Si2 0.290322 0.900573 0.673865
Si Si3 0.878072 0.292392 0.319334
Si Si4 0.324813 0.363322 0.320892
Si Si5 0.854802 0.450587 0.173290
Si Si6 0.901560 0.592874 0.681344
Si Si7 0.495590 0.790202 0.181334
Si Si8 0.477659 0.617777 0.819382
O O1 0.356546 0.442578 0.732785
O O2 0.426937 0.560553 0.766936
O O3 0.462578 0.414874 0.764560
O O4 0.401345 0.464593 0.000000
O O5 0.282872 0.871138 0.500000
O O6 0.239245 0.871855 0.774739
O O7 0.346983 0.863510 0.746913
O O8 0.297754 0.996851 0.678923
O O9 0.875486 0.289698 0.500000
O O10 0.850984 0.212837 0.258415
O O11 0.843908 0.368104 0.258741
O O12 0.941510 0.301065 0.258347
O O13 0.329415 0.352775 0.500000
O O14 0.903686 0.501898 0.257921
O O15 0.873247 0.434198 0.000000
O O16 0.897271 0.593363 0.500000
O O17 0.956557 0.638702 0.740199
O O18 0.470296 0.706853 0.243338
O O19 0.496174 0.788278 0.000000
O O20 0.478993 0.615764 0.000000
#
# Coordination Sequence:
#
# PCOD8238809 Si02
#       8
#     8   8   8   8   8   8   8   8
#     4   9  16  30  54  76 103 144 187 224 272 328
#     4   9  20  39  59  75 101 143 188 232 281 337
#     4  11  21  35  58  85 115 147 187 232 279 331
#     4  12  23  35  55  83 114 146 188 237 286 338
#     4   9  20  38  56  78 110 145 185 226 276 332
#     4   9  17  33  57  81 108 145 185 226 276 329
#     4   9  17  30  53  85 116 146 186 231 276 337
#     4   8  14  28  51  78 106 142 185 224 261 322
#
# _framework density 18.037469999999999
#
# number of rings (size 3 to 8) (size 9 to 14) (size 15 to 20)
#    0.750    1.750    1.250    3.000    0.000    0.500 
#    0.000    7.500    0.000    6.000    0.000    0.000 
#    0.000    0.000    0.000    0.000    0.000    0.000 
#
# Total GULP energy -793083.190066 kJ/mol
# GULP energy per Si atom -12391.924845 kJ/mol
# Density = 1.799642 g / cm^3
# Si number density = 18.037470 Si / 1000 Ang^3
#
#
#
# Elastic Constant Matrix: (Units=GPa)
#
#
# Indices 1 2 3 4 5 6 
#
# 1 86.7498 28.6637 27.2771 0.0000 0.0000 0.0000
# 2 28.6637 76.1377 31.0353 0.0000 0.0000 0.0000
# 3 27.2771 31.0353 78.1724 0.0000 0.0000 0.0000
# 4 0.0000 0.0000 0.0000 23.6825 0.0000 0.0000
# 5 0.0000 0.0000 0.0000 0.0000 19.7759 0.0000
# 6 0.0000 0.0000 0.0000 0.0000 0.0000 23.3366
#
#
#
# Elastic Compliance Matrix: (Units=1/GPa)
#
#
# Indices 1 2 3 4 5 6 
#
# 1 0.013841 -0.003868 -0.003294 0.000000 0.000000 0.000000
# 2 -0.003868 0.016751 -0.005301 0.000000 0.000000 0.000000
# 3 -0.003294 -0.005301 0.016046 0.000000 0.000000 0.000000
# 4 0.000000 0.000000 0.000000 0.042225 0.000000 0.000000
# 5 0.000000 0.000000 0.000000 0.000000 0.050566 0.000000
# 6 0.000000 0.000000 0.000000 0.000000 0.000000 0.042851
#
#
# Mechanical properties :
#
#
# Convention : Reuss Voigt Hill
#
# Bulk Modulus (GPa) = 46.05582 46.11245 46.08413
# Shear Modulus (GPa) = 23.31611 23.63128 23.47369
#
# Velocity S-wave (km/s) = 3.59924 3.62349 3.61139
# Velocity P-wave (km/s) = 6.54687 6.56708 6.55698
#
# Compressibility (1/GPa) = 0.02171278
#
# Stress axis : x y z
#
# Youngs Moduli (GPa) = 72.24784 59.69810 62.32078
#
# Poissons Ratio (x) = 0.23092 0.20528
# Poissons Ratio (y) = 0.27946 0.33034
# Poissons Ratio (z) = 0.23798 0.31643
#
# Static dielectric constant tensor:
#      x y z
#    x 3.223090 0.000000 0.000000 
#    y 0.000000 3.485990 0.000000 
#    z 0.000000 0.000000 3.118230 
# 
# 
# High freq. dielectric constant tensor:
#      x y z
#    x 1.679570 0.000000 0.000000 
#    y 0.000000 1.695150 0.000000 
#    z 0.000000 0.000000 1.684320 
# 
# From -- ./inp_files/9467.got.cif
#   From: 2010.06.25/outbox.cif.g09.slc.cpg/sg58_5_cif.got.tgz:9467.got - 2010.06.26 21:38:00.
