data_PCOD8238251
_publ_section_title
;
Structure prediction by ZEFSAII (Michael W. Deem and Ramdas Pophale) SiO2 
 PCOD8238251
Probable space group: P N N M
;
_chemical_formula_sum "Si O2"
_cell_formula_units_Z 64
_cell_length_a 28.101861
_cell_length_b 9.137761
_cell_length_c 12.470417
_cell_angle_alpha 90.000000
_cell_angle_beta 90.000000
_cell_angle_gamma 90.000000
_cell_volume 3202.254556
_symmetry_space_group_name_H-M "P N N M"
_symmetry_group_IT_number 58
_symmetry_cell_setting 'orthorhombic'
loop_
_space_group_symop_operation_xyz
x,y,z
-x,-y,z
1/2+x,1/2-y,1/2-z
1/2-x,1/2+y,1/2-z
-x,-y,-z
x,y,-z
1/2-x,1/2+y,1/2+z
1/2+x,1/2-y,1/2+z
loop_
_atom_site_type_symbol
_atom_site_label
_atom_site_fract_x
_atom_site_fract_y
_atom_site_fract_z
Si Si1 0.446809 0.734092 0.119918
Si Si2 0.948858 0.227218 0.622258
Si Si3 0.206332 0.374338 0.256613
Si Si4 0.771366 0.344604 0.377847
Si Si5 0.850789 0.173696 0.710389
Si Si6 0.346565 0.624186 0.877853
Si Si7 0.643865 0.906608 0.375450
Si Si8 0.051516 0.501817 0.237424
O O1 0.498360 0.656976 0.141373
O O2 0.404184 0.617154 0.122696
O O3 0.434119 0.846093 0.214428
O O4 0.448725 0.805787 0.000000
O O5 0.933050 0.216644 0.500000
O O6 0.952496 0.395204 0.658548
O O7 0.907073 0.152991 0.690624
O O8 0.233639 0.490313 0.332879
O O9 0.242819 0.269741 0.195608
O O10 0.172231 0.276350 0.330958
O O11 0.176319 0.463888 0.169838
O O12 0.752933 0.342682 0.500000
O O13 0.826418 0.289445 0.372523
O O14 0.827796 0.012148 0.694818
O O15 0.842635 0.246360 0.827417
O O16 0.327816 0.606041 0.000000
O O17 0.652812 0.895578 0.500000
O O18 0.589264 0.944411 0.349809
O O19 0.000000 0.500000 0.178957
#
# Coordination Sequence:
#
# PCOD8238251 Si02
#       8
#     8   8   8   8   8   8   8   8
#     4   9  17  28  49  83 120 154 186 225 282 344
#     4   9  16  28  49  80 117 154 189 227 278 343
#     4  11  23  41  62  89 116 147 190 239 289 346
#     4  11  23  41  63  87 116 151 189 236 290 345
#     4  10  22  37  56  83 116 154 194 234 285 338
#     4  11  21  36  58  87 122 154 184 227 284 349
#     4  10  21  39  59  81 110 151 199 246 288 328
#     4   9  16  29  50  81 113 149 190 238 283 337
#
# _framework density 19.985918999999999
#
# number of rings (size 3 to 8) (size 9 to 14) (size 15 to 20)
#    0.000    2.000    1.250    3.000    0.000    2.250 
#    0.000   11.250    0.000    0.000    0.000    2.625 
#    0.000    0.000    0.000    0.000    0.000    0.000 
#
# Total GULP energy -793074.388058 kJ/mol
# GULP energy per Si atom -12391.787313 kJ/mol
# Density = 1.994043 g / cm^3
# Si number density = 19.985919 Si / 1000 Ang^3
#
#
#
# Elastic Constant Matrix: (Units=GPa)
#
#
# Indices 1 2 3 4 5 6 
#
# 1 77.8800 33.2539 34.2448 0.0000 0.0000 0.0000
# 2 33.2539 124.3039 60.9998 0.0000 0.0000 0.0000
# 3 34.2448 60.9998 122.1693 0.0000 0.0000 0.0000
# 4 0.0000 0.0000 0.0000 24.4442 0.0000 0.0000
# 5 0.0000 0.0000 0.0000 0.0000 19.1757 0.0000
# 6 0.0000 0.0000 0.0000 0.0000 0.0000 19.9966
#
#
#
# Elastic Compliance Matrix: (Units=1/GPa)
#
#
# Indices 1 2 3 4 5 6 
#
# 1 0.015267 -0.002628 -0.002967 0.000000 0.000000 0.000000
# 2 -0.002628 0.011108 -0.004810 0.000000 0.000000 0.000000
# 3 -0.002967 -0.004810 0.011419 0.000000 0.000000 0.000000
# 4 0.000000 0.000000 0.000000 0.040909 0.000000 0.000000
# 5 0.000000 0.000000 0.000000 0.000000 0.052149 0.000000
# 6 0.000000 0.000000 0.000000 0.000000 0.000000 0.050008
#
#
# Mechanical properties :
#
#
# Convention : Reuss Voigt Hill
#
# Bulk Modulus (GPa) = 58.87969 64.59447 61.73708
# Shear Modulus (GPa) = 24.11584 25.78029 24.94806
#
# Velocity S-wave (km/s) = 3.47744 3.59545 3.53694
# Velocity P-wave (km/s) = 6.75633 7.04461 6.90197
#
# Compressibility (1/GPa) = 0.01698378
#
# Stress axis : x y z
#
# Youngs Moduli (GPa) = 65.49993 90.02402 87.57647
#
# Poissons Ratio (x) = 0.23660 0.25986
# Poissons Ratio (y) = 0.17215 0.42121
# Poissons Ratio (z) = 0.19435 0.43299
#
# Static dielectric constant tensor:
#      x y z
#    x 3.844360 0.000000 0.000000 
#    y 0.000000 3.560390 0.000000 
#    z 0.000000 0.000000 3.275690 
# 
# 
# High freq. dielectric constant tensor:
#      x y z
#    x 1.792860 0.000000 0.000000 
#    y 0.000000 1.778830 0.000000 
#    z 0.000000 0.000000 1.747080 
# 
# From -- ./inp_files/18008.got.cif
#   From: 2010.06.25/outbox.cif.g09.slc.cpg/sg58_10_cif.got.tgz:18008.got - 2010.06.26 21:38:00.
