data_PCOD8238361
_publ_section_title
;
Structure prediction by ZEFSAII (Michael W. Deem and Ramdas Pophale) SiO2 
 PCOD8238361
Probable space group: P N N M
;
_chemical_formula_sum "Si O2"
_cell_formula_units_Z 56
_cell_length_a 15.109263
_cell_length_b 11.578500
_cell_length_c 15.324693
_cell_angle_alpha 90.000000
_cell_angle_beta 90.000000
_cell_angle_gamma 90.000000
_cell_volume 2680.941663
_symmetry_space_group_name_H-M "P N N M"
_symmetry_group_IT_number 58
_symmetry_cell_setting 'orthorhombic'
loop_
_space_group_symop_operation_xyz
x,y,z
-x,-y,z
1/2+x,1/2-y,1/2-z
1/2-x,1/2+y,1/2-z
-x,-y,-z
x,y,-z
1/2-x,1/2+y,1/2+z
1/2+x,1/2-y,1/2+z
loop_
_atom_site_type_symbol
_atom_site_label
_atom_site_fract_x
_atom_site_fract_y
_atom_site_fract_z
Si Si1 0.851605 0.751692 0.900804
Si Si2 0.006804 0.244982 0.597177
Si Si3 0.493172 0.864378 0.279375
Si Si4 0.325176 0.365451 0.864424
Si Si5 0.160584 0.779636 0.825356
Si Si6 0.811016 0.870606 0.598447
Si Si7 0.596199 0.496666 0.400426
O O1 0.749594 0.716389 0.903948
O O2 0.851852 0.884124 0.865061
O O3 0.905917 0.675899 0.830924
O O4 0.889950 0.738030 0.000000
O O5 0.018027 0.302757 0.500000
O O6 0.006851 0.338524 0.675182
O O7 0.918416 0.168442 0.593238
O O8 0.087263 0.158733 0.616719
O O9 0.576803 0.804960 0.325596
O O10 0.500000 0.000000 0.291320
O O11 0.330640 0.351541 0.762035
O O12 0.297323 0.495416 0.884011
O O13 0.248741 0.706620 0.840519
O O14 0.148503 0.882718 0.894685
O O15 0.782712 0.842104 0.500000
O O16 0.500000 0.500000 0.352146
O O17 0.578991 0.469319 0.500000
#
# Coordination Sequence:
#
# PCOD8238361 Si02
#       7
#     8   8   8   8   8   8   8
#     4  11  23  41  66  94 130 168 209 264 317 382
#     4  10  23  44  66  91 125 169 218 265 313 373
#     4  11  24  41  63  96 129 164 210 258 325 388
#     4  11  24  39  65  95 127 168 214 259 318 376
#     4  11  24  38  64  94 129 167 205 266 316 379
#     4  11  23  41  65  92 126 166 212 265 314 374
#     4  10  21  40  66  93 125 166 213 258 315 384
#
# _framework density 20.888183999999999
#
# number of rings (size 3 to 8) (size 9 to 14) (size 15 to 20)
#    0.000    1.286    1.429    3.857    4.000    2.286 
#    2.571    0.000    0.000    0.000    0.000    0.000 
#    0.000    0.000    0.000    0.000    0.000    0.000 
#
# Total GULP energy -694301.571239 kJ/mol
# GULP energy per Si atom -12398.242344 kJ/mol
# Density = 2.084064 g / cm^3
# Si number density = 20.888184 Si / 1000 Ang^3
#
#
#
# Elastic Constant Matrix: (Units=GPa)
#
#
# Indices 1 2 3 4 5 6 
#
# 1 138.4752 57.4298 26.5108 0.0000 0.0000 0.0000
# 2 57.4298 151.8179 13.8582 0.0000 0.0000 0.0000
# 3 26.5108 13.8582 56.5618 0.0000 0.0000 0.0000
# 4 0.0000 0.0000 0.0000 26.0260 0.0000 0.0000
# 5 0.0000 0.0000 0.0000 0.0000 30.3541 0.0000
# 6 0.0000 0.0000 0.0000 0.0000 0.0000 27.4172
#
#
#
# Elastic Compliance Matrix: (Units=1/GPa)
#
#
# Indices 1 2 3 4 5 6 
#
# 1 0.009211 -0.003161 -0.003543 0.000000 0.000000 0.000000
# 2 -0.003161 0.007822 -0.000435 0.000000 0.000000 0.000000
# 3 -0.003543 -0.000435 0.019447 0.000000 0.000000 0.000000
# 4 0.000000 0.000000 0.000000 0.038423 0.000000 0.000000
# 5 0.000000 0.000000 0.000000 0.000000 0.032944 0.000000
# 6 0.000000 0.000000 0.000000 0.000000 0.000000 0.036473
#
#
# Mechanical properties :
#
#
# Convention : Reuss Voigt Hill
#
# Bulk Modulus (GPa) = 45.03956 60.27250 52.65603
# Shear Modulus (GPa) = 30.12073 33.36320 31.74196
#
# Velocity S-wave (km/s) = 3.80149 4.00087 3.90245
# Velocity P-wave (km/s) = 6.39355 7.08943 6.75046
#
# Compressibility (1/GPa) = 0.02220270
#
# Stress axis : x y z
#
# Youngs Moduli (GPa) = 108.57023 127.84079 51.42226
#
# Poissons Ratio (x) = 0.40408 0.18217
# Poissons Ratio (y) = 0.34317 0.02237
# Poissons Ratio (z) = 0.38463 0.05561
#
# Static dielectric constant tensor:
#      x y z
#    x 3.856510 0.000000 0.000000 
#    y 0.000000 3.676080 0.000000 
#    z 0.000000 0.000000 3.947910 
# 
# 
# High freq. dielectric constant tensor:
#      x y z
#    x 1.822190 0.000000 0.000000 
#    y 0.000000 1.815760 0.000000 
#    z 0.000000 0.000000 1.828650 
# 
# From -- ./inp_files/21295.got.cif
#   From: 2010.06.25/outbox.cif.g09.slc.cpg/sg58_11_cif.got.tgz:21295.got - 2010.06.26 21:38:00.
