data_PCOD8238765
_publ_section_title
;
Structure prediction by ZEFSAII (Michael W. Deem and Ramdas Pophale) SiO2 
 PCOD8238765
Probable space group: P N N M
;
_chemical_formula_sum "Si O2"
_cell_formula_units_Z 40
_cell_length_a 8.358044
_cell_length_b 13.013499
_cell_length_c 17.697659
_cell_angle_alpha 90.000000
_cell_angle_beta 90.000000
_cell_angle_gamma 90.000000
_cell_volume 1924.928307
_symmetry_space_group_name_H-M "P N N M"
_symmetry_group_IT_number 58
_symmetry_cell_setting 'orthorhombic'
loop_
_space_group_symop_operation_xyz
x,y,z
-x,-y,z
1/2+x,1/2-y,1/2-z
1/2-x,1/2+y,1/2-z
-x,-y,-z
x,y,-z
1/2-x,1/2+y,1/2+z
1/2+x,1/2-y,1/2+z
loop_
_atom_site_type_symbol
_atom_site_label
_atom_site_fract_x
_atom_site_fract_y
_atom_site_fract_z
Si Si1 0.807923 0.874601 0.500000
Si Si2 0.500000 0.000000 0.752420
Si Si3 0.326205 0.134798 0.867559
Si Si4 0.000000 0.000000 0.381872
Si Si5 0.227037 0.359359 0.154539
Si Si6 0.050831 0.383569 0.000000
Si Si7 0.323039 0.528201 0.500000
Si Si8 0.428760 0.847256 0.000000
O O1 0.624738 0.832461 0.500000
O O2 0.904041 0.771988 0.500000
O O3 0.860394 0.941647 0.428115
O O4 0.637520 0.944554 0.800487
O O5 0.412362 0.910365 0.704596
O O6 0.270070 0.240826 0.827244
O O7 0.480312 0.135807 0.921721
O O8 0.189864 0.094272 0.923385
O O9 0.104909 0.920117 0.333363
O O10 0.163738 0.356244 0.069335
O O11 0.000000 0.500000 0.000000
O O12 0.500000 0.500000 0.500000
O O13 0.216413 0.425997 0.500000
#
# Coordination Sequence:
#
# PCOD8238765 Si02
#       8
#     4   4   8   4   8   4   4   4
#     4  11  20  31  66  99 132 159 216 277 334 378
#     4  12  26  50  62  94 146 184 218 284 344 412
#     4  11  24  48  69  95 134 180 225 274 348 403
#     4  11  20  38  60 102 128 163 222 276 316 395
#     4  12  25  43  71  96 138 180 226 278 338 398
#     4  12  20  40  65 102 133 173 220 281 327 380
#     4  11  24  45  75 105 127 168 232 294 328 404
#     4  11  20  43  75  92 129 178 216 285 337 395
#
# _framework density 20.779997000000002
#
# number of rings (size 3 to 8) (size 9 to 14) (size 15 to 20)
#    0.000    0.600    7.000    2.400    2.800    1.600 
#    9.000    0.000    0.000    0.000    0.000    0.000 
#    0.000    0.000    0.000    0.000    0.000    0.000 
#
# Total GULP energy -495597.158234 kJ/mol
# GULP energy per Si atom -12389.928956 kJ/mol
# Density = 2.073270 g / cm^3
# Si number density = 20.779997 Si / 1000 Ang^3
#
#
#
# Elastic Constant Matrix: (Units=GPa)
#
#
# Indices 1 2 3 4 5 6 
#
# 1 123.1089 38.5979 26.2098 0.0000 0.0000 0.0000
# 2 38.5979 137.7403 39.3456 0.0000 0.0000 0.0000
# 3 26.2098 39.3456 90.1315 0.0000 0.0000 0.0000
# 4 0.0000 0.0000 0.0000 20.5025 0.0000 0.0000
# 5 0.0000 0.0000 0.0000 0.0000 86.2561 0.0000
# 6 0.0000 0.0000 0.0000 0.0000 0.0000 39.0495
#
#
#
# Elastic Compliance Matrix: (Units=1/GPa)
#
#
# Indices 1 2 3 4 5 6 
#
# 1 0.009143 -0.002059 -0.001760 0.000000 0.000000 0.000000
# 2 -0.002059 0.008758 -0.003224 0.000000 0.000000 0.000000
# 3 -0.001760 -0.003224 0.013014 0.000000 0.000000 0.000000
# 4 0.000000 0.000000 0.000000 0.048774 0.000000 0.000000
# 5 0.000000 0.000000 0.000000 0.000000 0.011593 0.000000
# 6 0.000000 0.000000 0.000000 0.000000 0.000000 0.025609
#
#
# Mechanical properties :
#
#
# Convention : Reuss Voigt Hill
#
# Bulk Modulus (GPa) = 59.42342 62.14303 60.78322
# Shear Modulus (GPa) = 36.60625 45.61679 41.11152
#
# Velocity S-wave (km/s) = 4.20171 4.69041 4.45277
# Velocity P-wave (km/s) = 7.22479 7.70087 7.46663
#
# Compressibility (1/GPa) = 0.01682838
#
# Stress axis : x y z
#
# Youngs Moduli (GPa) = 109.37044 114.17889 76.83917
#
# Poissons Ratio (x) = 0.23515 0.13522
# Poissons Ratio (y) = 0.22524 0.24776
# Poissons Ratio (z) = 0.19247 0.36816
#
# Static dielectric constant tensor:
#      x y z
#    x 3.319840 0.000000 0.000000 
#    y 0.000000 3.810070 0.000000 
#    z 0.000000 0.000000 3.591390 
# 
# 
# High freq. dielectric constant tensor:
#      x y z
#    x 1.818900 0.000000 0.000000 
#    y 0.000000 1.831820 0.000000 
#    z 0.000000 0.000000 1.791330 
# 
# From -- ./inp_files/28783.got.cif
#   From: 2010.06.25/outbox.cif.g09.slc.cpg/sg58_15_cif.got.tgz:28783.got - 2010.06.26 21:38:00.
