data_PCOD8238290
_publ_section_title
;
Structure prediction by ZEFSAII (Michael W. Deem and Ramdas Pophale) SiO2 
 PCOD8238290
Probable space group: P N N M
;
_chemical_formula_sum "Si O2"
_cell_formula_units_Z 48
_cell_length_a 8.948899
_cell_length_b 30.584850
_cell_length_c 8.331378
_cell_angle_alpha 90.000000
_cell_angle_beta 90.000000
_cell_angle_gamma 90.000000
_cell_volume 2280.304270
_symmetry_space_group_name_H-M "P N N M"
_symmetry_group_IT_number 58
_symmetry_cell_setting 'orthorhombic'
loop_
_space_group_symop_operation_xyz
x,y,z
-x,-y,z
1/2+x,1/2-y,1/2-z
1/2-x,1/2+y,1/2-z
-x,-y,-z
x,y,-z
1/2-x,1/2+y,1/2+z
1/2+x,1/2-y,1/2+z
loop_
_atom_site_type_symbol
_atom_site_label
_atom_site_fract_x
_atom_site_fract_y
_atom_site_fract_z
Si Si1 0.069122 0.793545 0.685130
Si Si2 0.590537 0.210966 0.685800
Si Si3 0.906055 0.043311 0.187473
Si Si4 0.070178 0.628230 0.686426
Si Si5 0.420209 0.955615 0.314547
Si Si6 0.404518 0.624164 0.313750
O O1 0.061706 0.807300 0.500000
O O2 0.239064 0.791246 0.745697
O O3 0.994115 0.746656 0.708530
O O4 0.983215 0.829644 0.787233
O O5 0.582262 0.224629 0.500000
O O6 0.515964 0.164184 0.710550
O O7 0.755399 0.039718 0.287620
O O8 0.998251 0.084528 0.259093
O O9 0.868050 0.049422 0.000000
O O10 0.000000 0.000000 0.218955
O O11 0.070905 0.642106 0.500000
O O12 0.237582 0.624736 0.758987
O O13 0.986297 0.582499 0.704720
O O14 0.452714 0.945076 0.500000
O O15 0.500000 0.000000 0.259755
O O16 0.387423 0.614491 0.500000
#
# Coordination Sequence:
#
# PCOD8238290 Si02
#       6
#     8   8   8   8   8   8
#     4  11  24  40  60  87 118 155 197 240 290 348
#     4  11  24  41  61  88 121 154 194 243 293 348
#     4  10  21  39  63  89 118 155 199 246 296 349
#     4  11  23  40  63  89 118 154 197 242 291 349
#     4  11  24  40  59  87 122 158 197 242 293 348
#     4  10  22  39  60  88 119 152 194 244 295 348
#
# _framework density 21.049821000000001
#
# number of rings (size 3 to 8) (size 9 to 14) (size 15 to 20)
#    0.000    1.333    0.000    5.000    0.000   14.333 
#    0.000    0.000    0.000    0.000    0.000    0.000 
#    0.000    0.000    0.000    0.000    0.000    0.000 
#
# Total GULP energy -595568.392389 kJ/mol
# GULP energy per Si atom -12407.674841 kJ/mol
# Density = 2.100191 g / cm^3
# Si number density = 21.049821 Si / 1000 Ang^3
#
#
#
# Elastic Constant Matrix: (Units=GPa)
#
#
# Indices 1 2 3 4 5 6 
#
# 1 173.0028 61.9621 15.9169 0.0000 0.0000 0.0000
# 2 61.9621 136.0324 5.0332 0.0000 0.0000 0.0000
# 3 15.9169 5.0332 30.1968 0.0000 0.0000 0.0000
# 4 0.0000 0.0000 0.0000 6.0379 0.0000 0.0000
# 5 0.0000 0.0000 0.0000 0.0000 2.0505 0.0000
# 6 0.0000 0.0000 0.0000 0.0000 0.0000 44.6308
#
#
#
# Elastic Compliance Matrix: (Units=1/GPa)
#
#
# Indices 1 2 3 4 5 6 
#
# 1 0.007215 -0.003165 -0.003276 0.000000 0.000000 0.000000
# 2 -0.003165 0.008785 0.000204 0.000000 0.000000 0.000000
# 3 -0.003276 0.000204 0.034809 0.000000 0.000000 0.000000
# 4 0.000000 0.000000 0.000000 0.165621 0.000000 0.000000
# 5 0.000000 0.000000 0.000000 0.000000 0.487676 0.000000
# 6 0.000000 0.000000 0.000000 0.000000 0.000000 0.022406
#
#
# Mechanical properties :
#
#
# Convention : Reuss Voigt Hill
#
# Bulk Modulus (GPa) = 26.08534 56.11738 41.10136
# Shear Modulus (GPa) = 6.65101 27.63184 17.14143
#
# Velocity S-wave (km/s) = 1.77947 3.62703 2.85674
# Velocity P-wave (km/s) = 4.07935 6.65264 5.51810
#
# Compressibility (1/GPa) = 0.03833571
#
# Stress axis : x y z
#
# Youngs Moduli (GPa) = 138.59414 113.82476 28.72846
#
# Poissons Ratio (x) = 0.36029 0.09410
# Poissons Ratio (y) = 0.43870 -0.00586
# Poissons Ratio (z) = 0.45399 -0.02323
#
# Static dielectric constant tensor:
#      x y z
#    x 4.018910 0.000000 0.000000 
#    y 0.000000 3.785560 0.000000 
#    z 0.000000 0.000000 3.545720 
# 
# 
# High freq. dielectric constant tensor:
#      x y z
#    x 1.843980 0.000000 0.000000 
#    y 0.000000 1.837780 0.000000 
#    z 0.000000 0.000000 1.813640 
# 
# From -- ./inp_files/2989.got.cif
#   From: 2010.06.25/outbox.cif.g09.slc.cpg/sg58_2_cif.got.tgz:2989.got - 2010.06.26 21:38:00.
