data_PCOD8238819
_publ_section_title
;
Structure prediction by ZEFSAII (Michael W. Deem and Ramdas Pophale) SiO2 
 PCOD8238819
Probable space group: P N N M
;
_chemical_formula_sum "Si O2"
_cell_formula_units_Z 64
_cell_length_a 11.959118
_cell_length_b 13.966856
_cell_length_c 20.319666
_cell_angle_alpha 90.000000
_cell_angle_beta 90.000000
_cell_angle_gamma 90.000000
_cell_volume 3394.019801
_symmetry_space_group_name_H-M "P N N M"
_symmetry_group_IT_number 58
_symmetry_cell_setting 'orthorhombic'
loop_
_space_group_symop_operation_xyz
x,y,z
-x,-y,z
1/2+x,1/2-y,1/2-z
1/2-x,1/2+y,1/2-z
-x,-y,-z
x,y,-z
1/2-x,1/2+y,1/2+z
1/2+x,1/2-y,1/2+z
loop_
_atom_site_type_symbol
_atom_site_label
_atom_site_fract_x
_atom_site_fract_y
_atom_site_fract_z
Si Si1 0.996731 0.886942 0.117921
Si Si2 0.630473 0.992850 0.876443
Si Si3 0.369875 0.011840 0.722498
Si Si4 0.266420 0.327592 0.573815
Si Si5 0.236903 0.186295 0.074828
Si Si6 0.768797 0.167605 0.312504
Si Si7 0.496294 0.612044 0.234493
Si Si8 0.269038 0.692602 0.807155
O O1 0.886890 0.855888 0.079433
O O2 0.102592 0.848755 0.078652
O O3 0.997616 0.843015 0.191920
O O4 0.000000 0.000000 0.120943
O O5 0.655329 0.000407 0.799341
O O6 0.695933 0.077396 0.911908
O O7 0.500000 0.000000 0.892685
O O8 0.672800 0.891188 0.901947
O O9 0.299546 0.931265 0.684692
O O10 0.500000 0.000000 0.705692
O O11 0.332457 0.117571 0.699975
O O12 0.239409 0.293381 0.500000
O O13 0.234625 0.242251 0.622307
O O14 0.246671 0.280325 0.118980
O O15 0.262131 0.215664 0.000000
O O16 0.900488 0.149961 0.307500
O O17 0.730294 0.229435 0.250341
O O18 0.500000 0.500000 0.242657
O O19 0.385499 0.637599 0.195245
#
# Coordination Sequence:
#
# PCOD8238819 Si02
#       8
#     8   8   8   8   8   8   8   8
#     4  11  21  38  65  95 128 161 203 264 325 375
#     4  11  23  41  63  93 130 166 206 260 321 378
#     4  11  24  42  66  97 126 159 213 271 314 360
#     4  12  26  41  62  94 132 171 208 254 317 383
#     4  12  26  41  62  94 132 171 208 254 317 383
#     4  12  24  41  66  94 126 168 211 259 310 372
#     4  11  22  41  67  95 125 157 214 271 311 361
#     4  12  24  41  66  94 126 168 211 259 310 372
#
# _framework density 18.856697
#
# number of rings (size 3 to 8) (size 9 to 14) (size 15 to 20)
#    0.000    0.500    7.500    0.750    5.250    1.500 
#    0.000    0.625    0.000    1.500    0.000    0.000 
#    0.000    0.000    0.000    0.000    0.000    0.000 
#
# Total GULP energy -793970.529436 kJ/mol
# GULP energy per Si atom -12405.789522 kJ/mol
# Density = 1.881378 g / cm^3
# Si number density = 18.856697 Si / 1000 Ang^3
#
#
#
# Elastic Constant Matrix: (Units=GPa)
#
#
# Indices 1 2 3 4 5 6 
#
# 1 87.6892 9.3440 30.4822 0.0000 0.0000 0.0000
# 2 9.3440 59.0609 23.1625 0.0000 0.0000 0.0000
# 3 30.4822 23.1625 99.3259 0.0000 0.0000 0.0000
# 4 0.0000 0.0000 0.0000 16.3013 0.0000 0.0000
# 5 0.0000 0.0000 0.0000 0.0000 21.2505 0.0000
# 6 0.0000 0.0000 0.0000 0.0000 0.0000 29.1353
#
#
#
# Elastic Compliance Matrix: (Units=1/GPa)
#
#
# Indices 1 2 3 4 5 6 
#
# 1 0.012781 -0.000532 -0.003798 0.000000 0.000000 0.000000
# 2 -0.000532 0.018658 -0.004188 0.000000 0.000000 0.000000
# 3 -0.003798 -0.004188 0.012210 0.000000 0.000000 0.000000
# 4 0.000000 0.000000 0.000000 0.061345 0.000000 0.000000
# 5 0.000000 0.000000 0.000000 0.000000 0.047058 0.000000
# 6 0.000000 0.000000 0.000000 0.000000 0.000000 0.034323
#
#
# Mechanical properties :
#
#
# Convention : Reuss Voigt Hill
#
# Bulk Modulus (GPa) = 37.57615 41.33927 39.45771
# Shear Modulus (GPa) = 23.55359 25.54323 24.54841
#
# Velocity S-wave (km/s) = 3.53807 3.68448 3.61202
# Velocity P-wave (km/s) = 6.05484 6.33016 6.19403
#
# Compressibility (1/GPa) = 0.02661262
#
# Stress axis : x y z
#
# Youngs Moduli (GPa) = 78.24131 53.59563 81.89987
#
# Poissons Ratio (x) = 0.02854 0.31107
# Poissons Ratio (y) = 0.04166 0.34297
# Poissons Ratio (z) = 0.29718 0.22444
#
# Static dielectric constant tensor:
#      x y z
#    x 3.584400 0.000000 0.000000 
#    y 0.000000 3.475740 0.000000 
#    z 0.000000 0.000000 3.458060 
# 
# 
# High freq. dielectric constant tensor:
#      x y z
#    x 1.751990 0.000000 0.000000 
#    y 0.000000 1.730540 0.000000 
#    z 0.000000 0.000000 1.718180 
# 
# From -- ./inp_files/26384.got.cif
#   From: 2010.06.25/outbox.cif.g09.slc.cpg/sg58_14_cif.got.tgz:26384.got - 2010.06.26 21:38:00.
