data_PCOD8238389
_publ_section_title
;
Structure prediction by ZEFSAII (Michael W. Deem and Ramdas Pophale) SiO2 
 PCOD8238389
Probable space group: P N N M
;
_chemical_formula_sum "Si O2"
_cell_formula_units_Z 48
_cell_length_a 10.288626
_cell_length_b 8.555414
_cell_length_c 25.427729
_cell_angle_alpha 90.000000
_cell_angle_beta 90.000000
_cell_angle_gamma 90.000000
_cell_volume 2238.236557
_symmetry_space_group_name_H-M "P N N M"
_symmetry_group_IT_number 58
_symmetry_cell_setting 'orthorhombic'
loop_
_space_group_symop_operation_xyz
x,y,z
-x,-y,z
1/2+x,1/2-y,1/2-z
1/2-x,1/2+y,1/2-z
-x,-y,-z
x,y,-z
1/2-x,1/2+y,1/2+z
1/2+x,1/2-y,1/2+z
loop_
_atom_site_type_symbol
_atom_site_label
_atom_site_fract_x
_atom_site_fract_y
_atom_site_fract_z
Si Si1 0.805069 0.202469 0.302177
Si Si2 0.282839 0.148678 0.695276
Si Si3 0.220403 0.367434 0.440985
Si Si4 0.937431 0.342607 0.909502
Si Si5 0.044584 0.327738 0.647797
Si Si6 0.617305 0.397908 0.370723
O O1 0.848814 0.281614 0.247508
O O2 0.683380 0.299739 0.324525
O O3 0.925021 0.210361 0.342939
O O4 0.772788 0.022393 0.293817
O O5 0.393058 0.136484 0.650970
O O6 0.170208 0.271397 0.680148
O O7 0.197048 0.429395 0.500000
O O8 0.314644 0.215660 0.443636
O O9 0.082086 0.323561 0.414421
O O10 0.279811 0.498817 0.402655
O O11 0.000000 0.500000 0.932754
O O12 0.052499 0.216494 0.913448
O O13 0.000000 0.500000 0.666520
O O14 0.500000 0.500000 0.345207
#
# Coordination Sequence:
#
# PCOD8238389 Si02
#       6
#     8   8   8   8   8   8
#     4  12  24  41  62  95 131 181 217 269 321 396
#     4  11  26  39  65  93 134 178 222 263 328 386
#     4  10  23  44  69  95 125 169 220 278 337 393
#     4  10  21  41  64  94 130 166 212 275 326 397
#     4  11  23  43  64  95 131 169 220 270 318 399
#     4  10  22  39  65  91 130 161 217 274 327 390
#
# _framework density 21.445454999999999
#
# number of rings (size 3 to 8) (size 9 to 14) (size 15 to 20)
#    0.000    1.333    3.333    1.500    7.000    4.333 
#    0.000    0.000    0.000    8.000    0.000    0.000 
#    0.000    0.000    0.000    0.000    0.000    0.000 
#
# Total GULP energy -595171.616554 kJ/mol
# GULP energy per Si atom -12399.408678 kJ/mol
# Density = 2.139664 g / cm^3
# Si number density = 21.445455 Si / 1000 Ang^3
#
#
#
# Elastic Constant Matrix: (Units=GPa)
#
#
# Indices 1 2 3 4 5 6 
#
# 1 81.3968 23.8799 23.6057 0.0000 0.0000 0.0000
# 2 23.8799 126.2040 24.6795 0.0000 0.0000 0.0000
# 3 23.6057 24.6795 96.9529 0.0000 0.0000 0.0000
# 4 0.0000 0.0000 0.0000 15.1100 0.0000 0.0000
# 5 0.0000 0.0000 0.0000 0.0000 13.0912 0.0000
# 6 0.0000 0.0000 0.0000 0.0000 0.0000 35.2568
#
#
#
# Elastic Compliance Matrix: (Units=1/GPa)
#
#
# Indices 1 2 3 4 5 6 
#
# 1 0.013701 -0.002042 -0.002816 0.000000 0.000000 0.000000
# 2 -0.002042 0.008643 -0.001703 0.000000 0.000000 0.000000
# 3 -0.002816 -0.001703 0.011433 0.000000 0.000000 0.000000
# 4 0.000000 0.000000 0.000000 0.066181 0.000000 0.000000
# 5 0.000000 0.000000 0.000000 0.000000 0.076387 0.000000
# 6 0.000000 0.000000 0.000000 0.000000 0.000000 0.028363
#
#
# Mechanical properties :
#
#
# Convention : Reuss Voigt Hill
#
# Bulk Modulus (GPa) = 48.41246 49.87599 49.14422
# Shear Modulus (GPa) = 22.25023 28.18418 25.21720
#
# Velocity S-wave (km/s) = 3.22456 3.62916 3.43283
# Velocity P-wave (km/s) = 6.04048 6.39286 6.21917
#
# Compressibility (1/GPa) = 0.02065584
#
# Stress axis : x y z
#
# Youngs Moduli (GPa) = 72.98614 115.70011 87.46267
#
# Poissons Ratio (x) = 0.23623 0.24631
# Poissons Ratio (y) = 0.14902 0.14895
# Poissons Ratio (z) = 0.20554 0.19703
#
# Static dielectric constant tensor:
#      x y z
#    x 3.985980 0.000000 0.000000 
#    y 0.000000 4.073740 0.000000 
#    z 0.000000 0.000000 3.563480 
# 
# 
# High freq. dielectric constant tensor:
#      x y z
#    x 1.846910 0.000000 0.000000 
#    y 0.000000 1.851670 0.000000 
#    z 0.000000 0.000000 1.813660 
# 
# From -- ./inp_files/31886.got.cif
#   From: 2010.06.25/outbox.cif.g09.slc.cpg/sg58_16_cif.got.tgz:31886.got - 2010.06.26 21:38:00.
