data_PCOD8238441
_publ_section_title
;
Structure prediction by ZEFSAII (Michael W. Deem and Ramdas Pophale) SiO2 
 PCOD8238441
Probable space group: P N N M
;
_chemical_formula_sum "Si O2"
_cell_formula_units_Z 56
_cell_length_a 12.023914
_cell_length_b 13.163937
_cell_length_c 19.445283
_cell_angle_alpha 90.000000
_cell_angle_beta 90.000000
_cell_angle_gamma 90.000000
_cell_volume 3077.839186
_symmetry_space_group_name_H-M "P N N M"
_symmetry_group_IT_number 58
_symmetry_cell_setting 'orthorhombic'
loop_
_space_group_symop_operation_xyz
x,y,z
-x,-y,z
1/2+x,1/2-y,1/2-z
1/2-x,1/2+y,1/2-z
-x,-y,-z
x,y,-z
1/2-x,1/2+y,1/2+z
1/2+x,1/2-y,1/2+z
loop_
_atom_site_type_symbol
_atom_site_label
_atom_site_fract_x
_atom_site_fract_y
_atom_site_fract_z
Si Si1 0.405368 0.361214 0.576821
Si Si2 0.947996 0.608120 0.578303
Si Si3 0.734555 0.192630 0.822708
Si Si4 0.891089 0.889148 0.277098
Si Si5 0.835647 0.264709 0.577738
Si Si6 0.641555 0.411921 0.618144
Si Si7 0.641988 0.609677 0.805321
O O1 0.377923 0.325722 0.500000
O O2 0.342173 0.287231 0.629640
O O3 0.536507 0.349910 0.589447
O O4 0.360880 0.475570 0.587458
O O5 0.900677 0.609365 0.500000
O O6 0.851782 0.626084 0.633521
O O7 0.000000 0.500000 0.595851
O O8 0.039472 0.695554 0.586945
O O9 0.688353 0.301448 0.802839
O O10 0.768757 0.131983 0.754377
O O11 0.864916 0.920347 0.199634
O O12 0.018944 0.853711 0.282843
O O13 0.863724 0.989563 0.321997
O O14 0.814836 0.227832 0.500000
O O15 0.753233 0.356694 0.595166
O O16 0.817050 0.168420 0.626901
#
# Coordination Sequence:
#
# PCOD8238441 Si02
#       7
#     8   8   8   8   8   8   8
#     4  11  21  34  56  91 122 150 187 235 295 350
#     4  10  22  37  55  87 125 154 187 238 297 353
#     4  12  21  36  62  86 115 153 191 238 292 347
#     4  11  22  39  60  86 114 151 196 238 287 337
#     4  11  22  37  58  83 114 158 198 235 289 343
#     4  11  19  36  60  87 119 150 189 239 288 351
#     4  11  22  41  59  81 117 152 196 242 279 346
#
# _framework density 18.194583999999999
#
# number of rings (size 3 to 8) (size 9 to 14) (size 15 to 20)
#    0.000    1.000    5.714    3.857    0.000    1.143 
#    0.000    2.857    0.000    0.000    0.000    2.000 
#    0.000    0.000    0.000    0.000    0.000    0.000 
#
# Total GULP energy -694517.135309 kJ/mol
# GULP energy per Si atom -12402.091702 kJ/mol
# Density = 1.815317 g / cm^3
# Si number density = 18.194584 Si / 1000 Ang^3
#
#
#
# Elastic Constant Matrix: (Units=GPa)
#
#
# Indices 1 2 3 4 5 6 
#
# 1 73.2522 18.7517 14.5840 0.0000 0.0000 0.0000
# 2 18.7517 64.2781 20.5292 0.0000 0.0000 0.0000
# 3 14.5840 20.5292 88.5707 0.0000 0.0000 0.0000
# 4 0.0000 0.0000 0.0000 28.7639 0.0000 0.0000
# 5 0.0000 0.0000 0.0000 0.0000 39.0668 0.0000
# 6 0.0000 0.0000 0.0000 0.0000 0.0000 31.5677
#
#
#
# Elastic Compliance Matrix: (Units=1/GPa)
#
#
# Indices 1 2 3 4 5 6 
#
# 1 0.014952 -0.003861 -0.001567 0.000000 0.000000 0.000000
# 2 -0.003861 0.017798 -0.003490 0.000000 0.000000 0.000000
# 3 -0.001567 -0.003490 0.012357 0.000000 0.000000 0.000000
# 4 0.000000 0.000000 0.000000 0.034766 0.000000 0.000000
# 5 0.000000 0.000000 0.000000 0.000000 0.025597 0.000000
# 6 0.000000 0.000000 0.000000 0.000000 0.000000 0.031678
#
#
# Mechanical properties :
#
#
# Convention : Reuss Voigt Hill
#
# Bulk Modulus (GPa) = 36.66809 37.09231 36.88020
# Shear Modulus (GPa) = 30.47389 31.36209 30.91799
#
# Velocity S-wave (km/s) = 4.09698 4.15626 4.12672
# Velocity P-wave (km/s) = 6.52513 6.59267 6.55899
#
# Compressibility (1/GPa) = 0.02727167
#
# Stress axis : x y z
#
# Youngs Moduli (GPa) = 66.88104 56.18487 80.92414
#
# Poissons Ratio (x) = 0.21695 0.12680
# Poissons Ratio (y) = 0.25826 0.28239
# Poissons Ratio (z) = 0.10480 0.19606
#
# Static dielectric constant tensor:
#      x y z
#    x 3.860410 0.000000 0.000000 
#    y 0.000000 3.163150 0.000000 
#    z 0.000000 0.000000 3.482530 
# 
# 
# High freq. dielectric constant tensor:
#      x y z
#    x 1.715740 0.000000 0.000000 
#    y 0.000000 1.680320 0.000000 
#    z 0.000000 0.000000 1.712970 
# 
# From -- ./inp_files/29599.got.cif
#   From: 2010.06.25/outbox.cif.g09.slc.cpg/sg58_15_cif.got.tgz:29599.got - 2010.06.26 21:38:00.
