data_PCOD8238180
_publ_section_title
;
Structure prediction by ZEFSAII (Michael W. Deem and Ramdas Pophale) SiO2 
 PCOD8238180
Probable space group: P N N M
;
_chemical_formula_sum "Si O2"
_cell_formula_units_Z 36
_cell_length_a 22.511898
_cell_length_b 6.047488
_cell_length_c 12.676393
_cell_angle_alpha 90.000000
_cell_angle_beta 90.000000
_cell_angle_gamma 90.000000
_cell_volume 1725.769632
_symmetry_space_group_name_H-M "P N N M"
_symmetry_group_IT_number 58
_symmetry_cell_setting 'orthorhombic'
loop_
_space_group_symop_operation_xyz
x,y,z
-x,-y,z
1/2+x,1/2-y,1/2-z
1/2-x,1/2+y,1/2-z
-x,-y,-z
x,y,-z
1/2-x,1/2+y,1/2+z
1/2+x,1/2-y,1/2+z
loop_
_atom_site_type_symbol
_atom_site_label
_atom_site_fract_x
_atom_site_fract_y
_atom_site_fract_z
Si Si1 0.065578 0.910591 0.290642
Si Si2 0.237001 0.942928 0.118065
Si Si3 0.338347 0.752678 0.240405
Si Si4 0.968868 0.254519 0.500000
Si Si5 0.128514 0.636034 0.119426
O O1 0.068529 0.744347 0.391286
O O2 0.084037 0.794860 0.182159
O O3 0.112186 0.104527 0.316419
O O4 0.000000 0.000000 0.271977
O O5 0.304815 0.888866 0.149402
O O6 0.195773 0.725841 0.122165
O O7 0.212830 0.122655 0.198391
O O8 0.237636 0.042263 0.000000
O O9 0.373022 0.899349 0.325513
O O10 0.000000 0.500000 0.500000
O O11 0.000000 0.000000 0.500000
O O12 0.104887 0.615435 0.000000
#
# Coordination Sequence:
#
# PCOD8238180 Si02
#       5
#     8   8   8   4   8
#     4  10  25  43  66  97 134 174 227 279 343 414
#     4  10  21  38  60  91 128 168 218 272 334 407
#     4  11  21  40  63  96 130 170 219 277 343 408
#     4  10  24  46  74  98 142 184 226 294 345 402
#     4  10  22  41  67  92 132 174 219 282 339 407
#
# _framework density 20.860257000000001
#
# number of rings (size 3 to 8) (size 9 to 14) (size 15 to 20)
#    0.000    1.778    2.222    0.667    7.778    1.333 
#    2.000    1.111    0.000    0.000    0.000    0.000 
#    0.000    0.000    0.000    0.000    0.000    0.000 
#
# Total GULP energy -446187.171416 kJ/mol
# GULP energy per Si atom -12394.088095 kJ/mol
# Density = 2.081278 g / cm^3
# Si number density = 20.860257 Si / 1000 Ang^3
#
#
#
# Elastic Constant Matrix: (Units=GPa)
#
#
# Indices 1 2 3 4 5 6 
#
# 1 114.5448 27.9254 45.7741 0.0000 0.0000 0.0000
# 2 27.9254 79.9676 16.7138 0.0000 0.0000 0.0000
# 3 45.7741 16.7138 121.5231 0.0000 0.0000 0.0000
# 4 0.0000 0.0000 0.0000 27.3597 0.0000 0.0000
# 5 0.0000 0.0000 0.0000 0.0000 27.0385 0.0000
# 6 0.0000 0.0000 0.0000 0.0000 0.0000 28.6694
#
#
#
# Elastic Compliance Matrix: (Units=1/GPa)
#
#
# Indices 1 2 3 4 5 6 
#
# 1 0.010955 -0.003051 -0.003707 0.000000 0.000000 0.000000
# 2 -0.003051 0.013725 -0.000738 0.000000 0.000000 0.000000
# 3 -0.003707 -0.000738 0.009727 0.000000 0.000000 0.000000
# 4 0.000000 0.000000 0.000000 0.036550 0.000000 0.000000
# 5 0.000000 0.000000 0.000000 0.000000 0.036984 0.000000
# 6 0.000000 0.000000 0.000000 0.000000 0.000000 0.034880
#
#
# Mechanical properties :
#
#
# Convention : Reuss Voigt Hill
#
# Bulk Modulus (GPa) = 51.50855 55.20690 53.35773
# Shear Modulus (GPa) = 30.43475 31.65499 31.04487
#
# Velocity S-wave (km/s) = 3.82381 3.89971 3.86194
# Velocity P-wave (km/s) = 6.65140 6.84102 6.74688
#
# Compressibility (1/GPa) = 0.01941425
#
# Stress axis : x y z
#
# Youngs Moduli (GPa) = 91.27951 72.86075 102.80929
#
# Poissons Ratio (x) = 0.22229 0.38111
# Poissons Ratio (y) = 0.27849 0.07592
# Poissons Ratio (z) = 0.33837 0.05381
#
# Static dielectric constant tensor:
#      x y z
#    x 3.588270 0.000000 0.000000 
#    y 0.000000 3.927540 0.000000 
#    z 0.000000 0.000000 4.174870 
# 
# 
# High freq. dielectric constant tensor:
#      x y z
#    x 1.801010 0.000000 0.000000 
#    y 0.000000 1.816420 0.000000 
#    z 0.000000 0.000000 1.831640 
# 
# From -- ./inp_files/11688.got.cif
#   From: 2010.06.25/outbox.cif.g09.slc.cpg/sg58_6_cif.got.tgz:11688.got - 2010.06.26 21:38:00.
