data_PCOD8238810
_publ_section_title
;
Structure prediction by ZEFSAII (Michael W. Deem and Ramdas Pophale) SiO2 
 PCOD8238810
Probable space group: P N N M
;
_chemical_formula_sum "Si O2"
_cell_formula_units_Z 56
_cell_length_a 14.794766
_cell_length_b 10.484839
_cell_length_c 17.726575
_cell_angle_alpha 90.000000
_cell_angle_beta 90.000000
_cell_angle_gamma 90.000000
_cell_volume 2749.759424
_symmetry_space_group_name_H-M "P N N M"
_symmetry_group_IT_number 58
_symmetry_cell_setting 'orthorhombic'
loop_
_space_group_symop_operation_xyz
x,y,z
-x,-y,z
1/2+x,1/2-y,1/2-z
1/2-x,1/2+y,1/2-z
-x,-y,-z
x,y,-z
1/2-x,1/2+y,1/2+z
1/2+x,1/2-y,1/2+z
loop_
_atom_site_type_symbol
_atom_site_label
_atom_site_fract_x
_atom_site_fract_y
_atom_site_fract_z
Si Si1 0.958536 0.861567 0.678221
Si Si2 0.207744 0.210802 0.585885
Si Si3 0.073081 0.607632 0.671466
Si Si4 0.765948 0.497095 0.413787
Si Si5 0.588182 0.414708 0.655949
Si Si6 0.560380 0.158630 0.586547
Si Si7 0.376076 0.082771 0.658624
O O1 0.885117 0.850318 0.613084
O O2 0.912589 0.853993 0.760643
O O3 0.032772 0.750150 0.669797
O O4 0.000000 0.000000 0.667102
O O5 0.226724 0.169306 0.500000
O O6 0.195320 0.361353 0.593617
O O7 0.287930 0.161437 0.638134
O O8 0.155790 0.600627 0.612285
O O9 0.115076 0.575697 0.752162
O O10 0.000000 0.500000 0.650002
O O11 0.739169 0.465193 0.500000
O O12 0.678539 0.495022 0.359115
O O13 0.500000 0.500000 0.641268
O O14 0.595113 0.301601 0.595256
O O15 0.554045 0.119392 0.500000
O O16 0.461885 0.153373 0.623450
O O17 0.629205 0.061632 0.627487
#
# Coordination Sequence:
#
# PCOD8238810 Si02
#       7
#     8   8   8   8   8   8   8
#     4  11  25  44  67  97 129 176 224 276 337 393
#     4  11  24  42  65  96 133 171 220 279 338 401
#     4  12  22  45  71  91 132 178 227 277 323 389
#     4  11  26  42  67 101 130 177 230 272 332 403
#     4  11  23  43  65  95 139 172 217 279 338 406
#     4  11  21  35  61  94 129 168 209 262 336 401
#     4  11  21  39  63  92 129 168 215 268 331 397
#
# _framework density 20.365417000000001
#
# number of rings (size 3 to 8) (size 9 to 14) (size 15 to 20)
#    0.000    0.857    4.286    3.857    2.000    4.571 
#    0.000    1.429    0.000    0.000    0.000    0.000 
#    0.000    0.000    0.000    0.000    0.000    0.000 
#
# Total GULP energy -694639.025575 kJ/mol
# GULP energy per Si atom -12404.268314 kJ/mol
# Density = 2.031906 g / cm^3
# Si number density = 20.365417 Si / 1000 Ang^3
#
#
#
# Elastic Constant Matrix: (Units=GPa)
#
#
# Indices 1 2 3 4 5 6 
#
# 1 102.9749 29.7080 46.6021 0.0000 0.0000 0.0000
# 2 29.7080 106.8628 34.6878 0.0000 0.0000 0.0000
# 3 46.6021 34.6878 46.4095 0.0000 0.0000 0.0000
# 4 0.0000 0.0000 0.0000 23.4648 0.0000 0.0000
# 5 0.0000 0.0000 0.0000 0.0000 61.9598 0.0000
# 6 0.0000 0.0000 0.0000 0.0000 0.0000 32.1305
#
#
#
# Elastic Compliance Matrix: (Units=1/GPa)
#
#
# Indices 1 2 3 4 5 6 
#
# 1 0.017903 0.001133 -0.018825 0.000000 0.000000 0.000000
# 2 0.001133 0.012427 -0.010427 0.000000 0.000000 0.000000
# 3 -0.018825 -0.010427 0.048243 0.000000 0.000000 0.000000
# 4 0.000000 0.000000 0.000000 0.042617 0.000000 0.000000
# 5 0.000000 0.000000 0.000000 0.000000 0.016140 0.000000
# 6 0.000000 0.000000 0.000000 0.000000 0.000000 0.031123
#
#
# Mechanical properties :
#
#
# Convention : Reuss Voigt Hill
#
# Bulk Modulus (GPa) = 44.76676 53.13811 48.95244
# Shear Modulus (GPa) = 21.53911 33.19431 27.36671
#
# Velocity S-wave (km/s) = 3.25565 4.04163 3.66974
# Velocity P-wave (km/s) = 6.01347 6.92305 6.48423
#
# Compressibility (1/GPa) = 0.02233800
#
# Stress axis : x y z
#
# Youngs Moduli (GPa) = 55.85501 80.46887 20.72820
#
# Poissons Ratio (x) = -0.09120 0.39021
# Poissons Ratio (y) = -0.06331 0.21612
# Poissons Ratio (z) = 1.05147 0.83901
#
# Static dielectric constant tensor:
#      x y z
#    x 3.589900 0.000000 0.000000 
#    y 0.000000 3.729550 0.000000 
#    z 0.000000 0.000000 3.765610 
# 
# 
# High freq. dielectric constant tensor:
#      x y z
#    x 1.791750 0.000000 0.000000 
#    y 0.000000 1.803370 0.000000 
#    z 0.000000 0.000000 1.801790 
# 
# From -- ./inp_files/22195.got.cif
#   From: 2010.06.25/outbox.cif.g09.slc.cpg/sg58_12_cif.got.tgz:22195.got - 2010.06.26 21:38:00.
