data_PCOD8238761
_publ_section_title
;
Structure prediction by ZEFSAII (Michael W. Deem and Ramdas Pophale) SiO2 
 PCOD8238761
Probable space group: P N N M
;
_chemical_formula_sum "Si O2"
_cell_formula_units_Z 64
_cell_length_a 24.816008
_cell_length_b 15.206439
_cell_length_c 9.206289
_cell_angle_alpha 90.000000
_cell_angle_beta 90.000000
_cell_angle_gamma 90.000000
_cell_volume 3474.113866
_symmetry_space_group_name_H-M "P N N M"
_symmetry_group_IT_number 58
_symmetry_cell_setting 'orthorhombic'
loop_
_space_group_symop_operation_xyz
x,y,z
-x,-y,z
1/2+x,1/2-y,1/2-z
1/2-x,1/2+y,1/2-z
-x,-y,-z
x,y,-z
1/2-x,1/2+y,1/2+z
1/2+x,1/2-y,1/2+z
loop_
_atom_site_type_symbol
_atom_site_label
_atom_site_fract_x
_atom_site_fract_y
_atom_site_fract_z
Si Si1 0.316777 0.806718 0.829368
Si Si2 0.081720 0.057323 0.172239
Si Si3 0.188672 0.109739 0.328539
Si Si4 0.967245 0.119749 0.830105
Si Si5 0.108993 0.554531 0.337833
Si Si6 0.568333 0.137580 0.166037
Si Si7 0.272726 0.987914 0.831008
Si Si8 0.460858 0.185798 0.329526
O O1 0.292682 0.710501 0.791983
O O2 0.377739 0.816766 0.767922
O O3 0.277847 0.886168 0.774430
O O4 0.323056 0.822959 0.000000
O O5 0.130129 0.098250 0.261729
O O6 0.028120 0.107321 0.228364
O O7 0.074575 0.955140 0.221084
O O8 0.092766 0.067601 0.000000
O O9 0.186241 0.095437 0.500000
O O10 0.228457 0.038415 0.261610
O O11 0.944555 0.214747 0.786328
O O12 0.973618 0.107377 0.000000
O O13 0.102677 0.592758 0.500000
O O14 0.073945 0.467028 0.323240
O O15 0.171042 0.536309 0.303085
O O16 0.087468 0.625615 0.225317
O O17 0.518165 0.164136 0.262133
O O18 0.557824 0.166636 0.000000
O O19 0.255924 0.991198 0.000000
O O20 0.466549 0.173467 0.500000
#
# Coordination Sequence:
#
# PCOD8238761 Si02
#       8
#     8   8   8   8   8   8   8   8
#     4   8  17  35  57  77 100 135 175 213 258 312
#     4   9  17  35  58  74  98 139 179 209 245 305
#     4  11  21  34  55  85 110 128 165 224 276 306
#     4   8  17  33  52  75 103 137 176 210 242 301
#     4   9  19  35  52  69  96 136 179 213 246 303
#     4   9  17  32  53  73  97 134 177 211 244 303
#     4   9  19  39  59  73  97 141 185 213 249 314
#     4  11  20  29  46  77 109 134 165 208 262 308
#
# _framework density 18.421963999999999
#
# number of rings (size 3 to 8) (size 9 to 14) (size 15 to 20)
#    0.000    2.750    0.000    4.125    0.000    2.500 
#    2.250    6.875    0.000    0.000    0.000    0.000 
#    0.000    0.000    0.000    0.000    0.000    0.000 
#
# Total GULP energy -793272.611513 kJ/mol
# GULP energy per Si atom -12394.884555 kJ/mol
# Density = 1.838003 g / cm^3
# Si number density = 18.421964 Si / 1000 Ang^3
#
#
#
# Elastic Constant Matrix: (Units=GPa)
#
#
# Indices 1 2 3 4 5 6 
#
# 1 54.1812 47.9806 31.1172 0.0000 0.0000 0.0000
# 2 47.9806 119.7861 47.8845 0.0000 0.0000 0.0000
# 3 31.1172 47.8845 66.2977 0.0000 0.0000 0.0000
# 4 0.0000 0.0000 0.0000 22.6842 0.0000 0.0000
# 5 0.0000 0.0000 0.0000 0.0000 25.2365 0.0000
# 6 0.0000 0.0000 0.0000 0.0000 0.0000 24.9107
#
#
#
# Elastic Compliance Matrix: (Units=1/GPa)
#
#
# Indices 1 2 3 4 5 6 
#
# 1 0.031308 -0.009372 -0.007925 0.000000 0.000000 0.000000
# 2 -0.009372 0.014543 -0.006105 0.000000 0.000000 0.000000
# 3 -0.007925 -0.006105 0.023212 0.000000 0.000000 0.000000
# 4 0.000000 0.000000 0.000000 0.044084 0.000000 0.000000
# 5 0.000000 0.000000 0.000000 0.000000 0.039625 0.000000
# 6 0.000000 0.000000 0.000000 0.000000 0.000000 0.040143
#
#
# Mechanical properties :
#
#
# Convention : Reuss Voigt Hill
#
# Bulk Modulus (GPa) = 44.92664 54.91438 49.92051
# Shear Modulus (GPa) = 20.23148 22.11843 21.17496
#
# Velocity S-wave (km/s) = 3.31754 3.46881 3.39402
# Velocity P-wave (km/s) = 6.25422 6.77624 6.52046
#
# Compressibility (1/GPa) = 0.02225851
#
# Stress axis : x y z
#
# Youngs Moduli (GPa) = 31.94072 68.76297 43.08035
#
# Poissons Ratio (x) = 0.64447 0.34142
# Poissons Ratio (y) = 0.29936 0.26299
# Poissons Ratio (z) = 0.25314 0.41978
#
# Static dielectric constant tensor:
#      x y z
#    x 3.218700 0.000000 0.000000 
#    y 0.000000 3.843310 0.000000 
#    z 0.000000 0.000000 3.138210 
# 
# 
# High freq. dielectric constant tensor:
#      x y z
#    x 1.703230 0.000000 0.000000 
#    y 0.000000 1.726980 0.000000 
#    z 0.000000 0.000000 1.689010 
# 
# From -- ./inp_files/9930.got.cif
#   From: 2010.06.25/outbox.cif.g09.slc.cpg/sg58_5_cif.got.tgz:9930.got - 2010.06.26 21:38:00.
