data_PCOD8238987
_publ_section_title
;
Structure prediction by ZEFSAII (Michael W. Deem and Ramdas Pophale) SiO2 
 PCOD8238987
Probable space group: P N N M
;
_chemical_formula_sum "Si O2"
_cell_formula_units_Z 64
_cell_length_a 10.135945
_cell_length_b 32.917531
_cell_length_c 13.465493
_cell_angle_alpha 90.000000
_cell_angle_beta 90.000000
_cell_angle_gamma 90.000000
_cell_volume 4492.765560
_symmetry_space_group_name_H-M "P N N M"
_symmetry_group_IT_number 58
_symmetry_cell_setting 'orthorhombic'
loop_
_space_group_symop_operation_xyz
x,y,z
-x,-y,z
1/2+x,1/2-y,1/2-z
1/2-x,1/2+y,1/2-z
-x,-y,-z
x,y,-z
1/2-x,1/2+y,1/2+z
1/2+x,1/2-y,1/2+z
loop_
_atom_site_type_symbol
_atom_site_label
_atom_site_fract_x
_atom_site_fract_y
_atom_site_fract_z
Si Si1 0.714622 0.392696 0.613245
Si Si2 0.295750 0.692591 0.302339
Si Si3 0.004225 0.255028 0.888413
Si Si4 0.507967 0.196586 0.197354
Si Si5 0.868500 0.979711 0.881568
Si Si6 0.520969 0.111792 0.113058
Si Si7 0.618070 0.026905 0.881620
Si Si8 0.705840 0.259074 0.111104
O O1 0.672935 0.382715 0.500000
O O2 0.673263 0.354910 0.682413
O O3 0.641787 0.432974 0.654250
O O4 0.869436 0.401784 0.618524
O O5 0.396602 0.717961 0.369613
O O6 0.317070 0.703598 0.186726
O O7 0.145014 0.702314 0.335231
O O8 0.032616 0.291845 0.812346
O O9 0.852653 0.240182 0.874093
O O10 0.026820 0.271401 0.000000
O O11 0.551258 0.150005 0.183552
O O12 0.597814 0.224333 0.127370
O O13 0.751659 0.007660 0.839135
O O14 0.864218 0.979912 0.000000
O O15 0.000000 0.000000 0.838936
O O16 0.606762 0.073839 0.152695
O O17 0.558064 0.123597 0.000000
O O18 0.500000 0.000000 0.837140
O O19 0.612515 0.025773 0.000000
O O20 0.689442 0.276488 0.000000
#
# Coordination Sequence:
#
# PCOD8238987 Si02
#       8
#     8   8   8   8   8   8   8   8
#     4   9  15  24  38  55  76 100 130 163 186 218
#     4   9  17  28  43  60  77 105 139 163 189 236
#     4   9  17  29  42  57  81 108 131 160 202 239
#     4   9  17  28  42  60  79 102 137 168 191 229
#     4   9  16  25  35  51  75 101 126 151 186 231
#     4   9  15  23  38  57  75  98 130 163 189 220
#     4   9  14  23  37  51  71  99 125 151 187 226
#     4   9  17  29  42  58  83 106 127 165 206 231
#
# _framework density 14.245122
#
# number of rings (size 3 to 8) (size 9 to 14) (size 15 to 20)
#    0.000    3.000    1.250    0.750    0.000    1.500 
#    2.250    0.000    0.000    0.000    0.000    0.000 
#    0.000    2.000    0.000    0.125    0.000    0.125 
#
# Total GULP energy -793289.633623 kJ/mol
# GULP energy per Si atom -12395.150525 kJ/mol
# Density = 1.421270 g / cm^3
# Si number density = 14.245122 Si / 1000 Ang^3
#
#
#
# Elastic Constant Matrix: (Units=GPa)
#
#
# Indices 1 2 3 4 5 6 
#
# 1 78.3475 60.2182 28.9941 0.0000 0.0000 0.0000
# 2 60.2182 131.9619 42.2328 0.0000 0.0000 0.0000
# 3 28.9941 42.2328 59.7399 0.0000 0.0000 0.0000
# 4 0.0000 0.0000 0.0000 16.0408 0.0000 0.0000
# 5 0.0000 0.0000 0.0000 0.0000 12.5496 0.0000
# 6 0.0000 0.0000 0.0000 0.0000 0.0000 23.7126
#
#
#
# Elastic Compliance Matrix: (Units=1/GPa)
#
#
# Indices 1 2 3 4 5 6 
#
# 1 0.020482 -0.007968 -0.004308 0.000000 0.000000 0.000000
# 2 -0.007968 0.012893 -0.005248 0.000000 0.000000 0.000000
# 3 -0.004308 -0.005248 0.022540 0.000000 0.000000 0.000000
# 4 0.000000 0.000000 0.000000 0.062341 0.000000 0.000000
# 5 0.000000 0.000000 0.000000 0.000000 0.079684 0.000000
# 6 0.000000 0.000000 0.000000 0.000000 0.000000 0.042172
#
#
# Mechanical properties :
#
#
# Convention : Reuss Voigt Hill
#
# Bulk Modulus (GPa) = 47.91976 59.21551 53.56763
# Shear Modulus (GPa) = 17.72328 19.70089 18.71208
#
# Velocity S-wave (km/s) = 3.53110 3.72289 3.62826
# Velocity P-wave (km/s) = 7.09488 7.75494 7.43224
#
# Compressibility (1/GPa) = 0.02086822
#
# Stress axis : x y z
#
# Youngs Moduli (GPa) = 48.82327 77.55892 44.36575
#
# Poissons Ratio (x) = 0.61798 0.19112
# Poissons Ratio (y) = 0.38902 0.23282
# Poissons Ratio (z) = 0.21033 0.40701
#
# Static dielectric constant tensor:
#      x y z
#    x 2.906970 0.000000 0.000000 
#    y 0.000000 2.797810 0.000000 
#    z 0.000000 0.000000 2.529660 
# 
# 
# High freq. dielectric constant tensor:
#      x y z
#    x 1.546550 0.000000 0.000000 
#    y 0.000000 1.540730 0.000000 
#    z 0.000000 0.000000 1.499210 
# 
# From -- ./inp_files/20426.got.cif
#   From: 2010.06.25/outbox.cif.g09.slc.cpg/sg58_11_cif.got.tgz:20426.got - 2010.06.26 21:38:00.
