data_PCOD8238256
_publ_section_title
;
Structure prediction by ZEFSAII (Michael W. Deem and Ramdas Pophale) SiO2 
 PCOD8238256
Probable space group: P N N M
;
_chemical_formula_sum "Si O2"
_cell_formula_units_Z 48
_cell_length_a 18.573623
_cell_length_b 15.033361
_cell_length_c 8.939082
_cell_angle_alpha 90.000000
_cell_angle_beta 90.000000
_cell_angle_gamma 90.000000
_cell_volume 2496.006050
_symmetry_space_group_name_H-M "P N N M"
_symmetry_group_IT_number 58
_symmetry_cell_setting 'orthorhombic'
loop_
_space_group_symop_operation_xyz
x,y,z
-x,-y,z
1/2+x,1/2-y,1/2-z
1/2-x,1/2+y,1/2-z
-x,-y,-z
x,y,-z
1/2-x,1/2+y,1/2+z
1/2+x,1/2-y,1/2+z
loop_
_atom_site_type_symbol
_atom_site_label
_atom_site_fract_x
_atom_site_fract_y
_atom_site_fract_z
Si Si1 0.065378 0.856802 0.325735
Si Si2 0.835574 0.496560 0.827121
Si Si3 0.583221 0.335749 0.323562
Si Si4 0.922360 0.650616 0.673344
Si Si5 0.411994 0.156858 0.828641
Si Si6 0.831020 0.984324 0.327037
O O1 0.045089 0.861792 0.500000
O O2 0.098343 0.760422 0.287667
O O3 0.992121 0.874212 0.236436
O O4 0.123282 0.929809 0.277595
O O5 0.876361 0.567714 0.726871
O O6 0.860254 0.398086 0.779984
O O7 0.751432 0.507289 0.796080
O O8 0.854487 0.512277 0.000000
O O9 0.580404 0.331351 0.500000
O O10 0.600845 0.238005 0.262885
O O11 0.647093 0.400403 0.272448
O O12 0.907303 0.669057 0.500000
O O13 0.005830 0.628017 0.700481
O O14 0.390157 0.138195 0.000000
O O15 0.844707 0.960895 0.500000
#
# Coordination Sequence:
#
# PCOD8238256 Si02
#       6
#     8   8   8   8   8   8
#     4   9  19  38  61  80 106 147 189 227 273 333
#     4  11  23  36  54  84 117 148 185 230 275 321
#     4  11  22  36  58  87 113 139 182 236 280 322
#     4  10  21  39  61  82 108 146 188 227 276 336
#     4   9  19  36  58  82 107 144 189 228 275 333
#     4  10  22  39  56  79 115 155 187 219 273 337
#
# _framework density 19.230720999999999
#
# number of rings (size 3 to 8) (size 9 to 14) (size 15 to 20)
#    0.000    2.000    0.000    4.500    0.000   10.667 
#    0.000    1.667    0.000    0.000    0.000    0.000 
#    0.000    0.000    0.000    0.000    0.000    0.000 
#
# Total GULP energy -595459.274706 kJ/mol
# GULP energy per Si atom -12405.401556 kJ/mol
# Density = 1.918695 g / cm^3
# Si number density = 19.230721 Si / 1000 Ang^3
#
#
#
# Elastic Constant Matrix: (Units=GPa)
#
#
# Indices 1 2 3 4 5 6 
#
# 1 49.8374 27.0462 27.8503 0.0000 0.0000 0.0000
# 2 27.0462 80.2383 28.1832 0.0000 0.0000 0.0000
# 3 27.8503 28.1832 83.3291 0.0000 0.0000 0.0000
# 4 0.0000 0.0000 0.0000 30.2818 0.0000 0.0000
# 5 0.0000 0.0000 0.0000 0.0000 29.0434 0.0000
# 6 0.0000 0.0000 0.0000 0.0000 0.0000 12.8920
#
#
#
# Elastic Compliance Matrix: (Units=1/GPa)
#
#
# Indices 1 2 3 4 5 6 
#
# 1 0.027674 -0.006899 -0.006916 0.000000 0.000000 0.000000
# 2 -0.006899 0.015863 -0.003059 0.000000 0.000000 0.000000
# 3 -0.006916 -0.003059 0.015347 0.000000 0.000000 0.000000
# 4 0.000000 0.000000 0.000000 0.033023 0.000000 0.000000
# 5 0.000000 0.000000 0.000000 0.000000 0.034431 0.000000
# 6 0.000000 0.000000 0.000000 0.000000 0.000000 0.077567
#
#
# Mechanical properties :
#
#
# Convention : Reuss Voigt Hill
#
# Bulk Modulus (GPa) = 39.78466 42.17380 40.97923
# Shear Modulus (GPa) = 20.32255 23.13179 21.72717
#
# Velocity S-wave (km/s) = 3.25433 3.47198 3.36492
# Velocity P-wave (km/s) = 5.90372 6.16854 6.03758
#
# Compressibility (1/GPa) = 0.02513532
#
# Stress axis : x y z
#
# Youngs Moduli (GPa) = 36.13497 63.04017 65.16045
#
# Poissons Ratio (x) = 0.43491 0.45064
# Poissons Ratio (y) = 0.24930 0.19935
# Poissons Ratio (z) = 0.24990 0.19286
#
# Static dielectric constant tensor:
#      x y z
#    x 3.426230 0.000000 0.000000 
#    y 0.000000 3.628840 0.000000 
#    z 0.000000 0.000000 3.478230 
# 
# 
# High freq. dielectric constant tensor:
#      x y z
#    x 1.740670 0.000000 0.000000 
#    y 0.000000 1.760740 0.000000 
#    z 0.000000 0.000000 1.747920 
# 
# From -- ./inp_files/5893.got.cif
#   From: 2010.06.25/outbox.cif.g09.slc.cpg/sg58_3_cif.got.tgz:5893.got - 2010.06.26 21:38:00.
