data_PCOD8238439
_publ_section_title
;
Structure prediction by ZEFSAII (Michael W. Deem and Ramdas Pophale) SiO2 
 PCOD8238439
Probable space group: P N N M
;
_chemical_formula_sum "Si O2"
_cell_formula_units_Z 64
_cell_length_a 11.001810
_cell_length_b 31.488505
_cell_length_c 8.990161
_cell_angle_alpha 90.000000
_cell_angle_beta 90.000000
_cell_angle_gamma 90.000000
_cell_volume 3114.466413
_symmetry_space_group_name_H-M "P N N M"
_symmetry_group_IT_number 58
_symmetry_cell_setting 'orthorhombic'
loop_
_space_group_symop_operation_xyz
x,y,z
-x,-y,z
1/2+x,1/2-y,1/2-z
1/2-x,1/2+y,1/2-z
-x,-y,-z
x,y,-z
1/2-x,1/2+y,1/2+z
1/2+x,1/2-y,1/2+z
loop_
_atom_site_type_symbol
_atom_site_label
_atom_site_fract_x
_atom_site_fract_y
_atom_site_fract_z
Si Si1 0.442676 0.897598 0.837204
Si Si2 0.124515 0.668855 0.675401
Si Si3 0.623329 0.524454 0.676335
Si Si4 0.584799 0.612796 0.168747
Si Si5 0.559233 0.236745 0.824404
Si Si6 0.626648 0.021620 0.325144
Si Si7 0.125616 0.172667 0.669168
Si Si8 0.253185 0.325812 0.663133
O O1 0.568616 0.877193 0.778394
O O2 0.386880 0.929053 0.715231
O O3 0.356669 0.857941 0.858709
O O4 0.457238 0.920294 0.000000
O O5 0.122272 0.672734 0.500000
O O6 0.260472 0.668333 0.727495
O O7 0.050206 0.708792 0.747065
O O8 0.500000 0.500000 0.728221
O O9 0.638232 0.522170 0.500000
O O10 0.610273 0.573466 0.723495
O O11 0.747636 0.504603 0.748056
O O12 0.446106 0.628242 0.181184
O O13 0.656841 0.655121 0.214994
O O14 0.618427 0.599632 0.000000
O O15 0.548903 0.285975 0.774613
O O16 0.692393 0.217977 0.776939
O O17 0.549427 0.232123 0.000000
O O18 0.642801 0.015077 0.500000
O O19 0.500000 0.000000 0.269062
O O20 0.166867 0.180777 0.500000
O O21 0.316471 0.319895 0.500000
#
# Coordination Sequence:
#
# PCOD8238439 Si02
#       8
#     8   8   8   8   8   8   8   8
#     4   9  18  35  59  84 110 146 190 238 288 342
#     4   9  19  36  57  80 109 149 196 245 293 345
#     4  11  25  45  68  92 121 163 215 263 310 375
#     4  11  23  37  58  88 121 156 194 245 307 366
#     4   8  17  35  56  79 113 154 192 239 294 343
#     4  11  24  40  62  95 128 157 194 246 312 380
#     4  10  22  37  53  81 122 160 195 242 301 361
#     4   9  17  33  59  83 107 146 194 237 281 340
#
# _framework density 20.549268000000001
#
# number of rings (size 3 to 8) (size 9 to 14) (size 15 to 20)
#    0.000    2.250    1.250    2.625    1.750    4.500 
#    0.000    7.500    0.000    0.000    0.000    0.000 
#    0.000    0.000    0.000    0.000    0.000    0.000 
#
# Total GULP energy -793017.820389 kJ/mol
# GULP energy per Si atom -12390.903444 kJ/mol
# Density = 2.050250 g / cm^3
# Si number density = 20.549268 Si / 1000 Ang^3
#
#
#
# Elastic Constant Matrix: (Units=GPa)
#
#
# Indices 1 2 3 4 5 6 
#
# 1 116.8651 27.8414 33.2938 0.0000 0.0000 0.0000
# 2 27.8414 53.6236 17.7850 0.0000 0.0000 0.0000
# 3 33.2938 17.7850 49.7252 0.0000 0.0000 0.0000
# 4 0.0000 0.0000 0.0000 4.5959 0.0000 0.0000
# 5 0.0000 0.0000 0.0000 0.0000 33.0441 0.0000
# 6 0.0000 0.0000 0.0000 0.0000 0.0000 27.4591
#
#
#
# Elastic Compliance Matrix: (Units=1/GPa)
#
#
# Indices 1 2 3 4 5 6 
#
# 1 0.011211 -0.003779 -0.006154 0.000000 0.000000 0.000000
# 2 -0.003779 0.022433 -0.005493 0.000000 0.000000 0.000000
# 3 -0.006154 -0.005493 0.026196 0.000000 0.000000 0.000000
# 4 0.000000 0.000000 0.000000 0.217583 0.000000 0.000000
# 5 0.000000 0.000000 0.000000 0.000000 0.030263 0.000000
# 6 0.000000 0.000000 0.000000 0.000000 0.000000 0.036418
#
#
# Mechanical properties :
#
#
# Convention : Reuss Voigt Hill
#
# Bulk Modulus (GPa) = 34.49965 42.00603 38.25284
# Shear Modulus (GPa) = 12.99992 22.43940 17.71966
#
# Velocity S-wave (km/s) = 2.51793 3.30810 2.93968
# Velocity P-wave (km/s) = 5.02777 5.92261 5.49344
#
# Compressibility (1/GPa) = 0.02898580
#
# Stress axis : x y z
#
# Youngs Moduli (GPa) = 89.20146 44.57812 38.17406
#
# Poissons Ratio (x) = 0.16848 0.23494
# Poissons Ratio (y) = 0.33713 0.20968
# Poissons Ratio (z) = 0.54898 0.24486
#
# Static dielectric constant tensor:
#      x y z
#    x 3.977030 0.000000 0.000000 
#    y 0.000000 3.854500 0.000000 
#    z 0.000000 0.000000 3.468180 
# 
# 
# High freq. dielectric constant tensor:
#      x y z
#    x 1.807790 0.000000 0.000000 
#    y 0.000000 1.795490 0.000000 
#    z 0.000000 0.000000 1.783400 
# 
# From -- ./inp_files/4700.got.cif
#   From: 2010.06.25/outbox.cif.g09.slc.cpg/sg58_3_cif.got.tgz:4700.got - 2010.06.26 21:38:00.
