data_PCOD8238336
_publ_section_title
;
Structure prediction by ZEFSAII (Michael W. Deem and Ramdas Pophale) SiO2 
 PCOD8238336
Probable space group: P N N M
;
_chemical_formula_sum "Si O2"
_cell_formula_units_Z 40
_cell_length_a 12.079805
_cell_length_b 18.467898
_cell_length_c 8.972535
_cell_angle_alpha 90.000000
_cell_angle_beta 90.000000
_cell_angle_gamma 90.000000
_cell_volume 2001.670331
_symmetry_space_group_name_H-M "P N N M"
_symmetry_group_IT_number 58
_symmetry_cell_setting 'orthorhombic'
loop_
_space_group_symop_operation_xyz
x,y,z
-x,-y,z
1/2+x,1/2-y,1/2-z
1/2-x,1/2+y,1/2-z
-x,-y,-z
x,y,-z
1/2-x,1/2+y,1/2+z
1/2+x,1/2-y,1/2+z
loop_
_atom_site_type_symbol
_atom_site_label
_atom_site_fract_x
_atom_site_fract_y
_atom_site_fract_z
Si Si1 0.408391 0.186372 0.824794
Si Si2 0.188429 0.955144 0.673475
Si Si3 0.186051 0.105192 0.829188
Si Si4 0.057906 0.426998 0.826365
Si Si5 0.950434 0.165313 0.828793
O O1 0.294103 0.148695 0.777799
O O2 0.511046 0.142307 0.758438
O O3 0.406009 0.267059 0.762871
O O4 0.422639 0.190464 0.000000
O O5 0.159916 0.947756 0.500000
O O6 0.312713 0.930040 0.707665
O O7 0.104998 0.907254 0.768098
O O8 0.171282 0.037613 0.720890
O O9 0.082459 0.158803 0.810746
O O10 0.196722 0.078202 0.000000
O O11 0.000000 0.500000 0.765412
O O12 0.031659 0.417441 0.000000
O O13 0.916867 0.175671 0.000000
#
# Coordination Sequence:
#
# PCOD8238336 Si02
#       5
#     8   8   8   8   8
#     4  11  24  41  63  93 124 160 210 259 305 365
#     4  11  23  40  66  95 124 159 208 258 303 366
#     4  10  23  43  64  88 124 164 203 253 310 369
#     4  10  21  40  63  90 124 163 202 249 311 366
#     4  11  25  43  63  89 127 169 204 250 317 373
#
# _framework density 19.983311
#
# number of rings (size 3 to 8) (size 9 to 14) (size 15 to 20)
#    0.000    1.400    2.000    2.400    2.800    6.800 
#    0.000    0.000    0.000    0.000    0.000    0.000 
#    0.000    0.000    0.000    0.000    0.000    0.000 
#
# Total GULP energy -496308.594346 kJ/mol
# GULP energy per Si atom -12407.714859 kJ/mol
# Density = 1.993783 g / cm^3
# Si number density = 19.983311 Si / 1000 Ang^3
#
#
#
# Elastic Constant Matrix: (Units=GPa)
#
#
# Indices 1 2 3 4 5 6 
#
# 1 69.8211 25.4162 24.5472 0.0000 0.0000 0.0000
# 2 25.4162 105.0908 31.3000 0.0000 0.0000 0.0000
# 3 24.5472 31.3000 58.2967 0.0000 0.0000 0.0000
# 4 0.0000 0.0000 0.0000 43.1500 0.0000 0.0000
# 5 0.0000 0.0000 0.0000 0.0000 21.5186 0.0000
# 6 0.0000 0.0000 0.0000 0.0000 0.0000 32.2455
#
#
#
# Elastic Compliance Matrix: (Units=1/GPa)
#
#
# Indices 1 2 3 4 5 6 
#
# 1 0.017304 -0.002398 -0.005999 0.000000 0.000000 0.000000
# 2 -0.002398 0.011659 -0.005250 0.000000 0.000000 0.000000
# 3 -0.005999 -0.005250 0.022498 0.000000 0.000000 0.000000
# 4 0.000000 0.000000 0.000000 0.023175 0.000000 0.000000
# 5 0.000000 0.000000 0.000000 0.000000 0.046471 0.000000
# 6 0.000000 0.000000 0.000000 0.000000 0.000000 0.031012
#
#
# Mechanical properties :
#
#
# Convention : Reuss Voigt Hill
#
# Bulk Modulus (GPa) = 41.37762 43.97060 42.67411
# Shear Modulus (GPa) = 26.67084 29.51250 28.09167
#
# Velocity S-wave (km/s) = 3.65726 3.84716 3.75341
# Velocity P-wave (km/s) = 6.21169 6.46418 6.33919
#
# Compressibility (1/GPa) = 0.02416765
#
# Stress axis : x y z
#
# Youngs Moduli (GPa) = 57.78890 85.76837 44.44781
#
# Poissons Ratio (x) = 0.20571 0.26663
# Poissons Ratio (y) = 0.13860 0.23335
# Poissons Ratio (z) = 0.34666 0.45029
#
# Static dielectric constant tensor:
#      x y z
#    x 3.791880 0.000000 0.000000 
#    y 0.000000 3.575620 0.000000 
#    z 0.000000 0.000000 3.658800 
# 
# 
# High freq. dielectric constant tensor:
#      x y z
#    x 1.792990 0.000000 0.000000 
#    y 0.000000 1.784420 0.000000 
#    z 0.000000 0.000000 1.784940 
# 
# From -- ./inp_files/3774.got.cif
#   From: 2010.06.25/outbox.cif.g09.slc.cpg/sg58_2_cif.got.tgz:3774.got - 2010.06.26 21:38:00.
