data_PCOD8238989
_publ_section_title
;
Structure prediction by ZEFSAII (Michael W. Deem and Ramdas Pophale) SiO2 
 PCOD8238989
Probable space group: P N N M
;
_chemical_formula_sum "Si O2"
_cell_formula_units_Z 48
_cell_length_a 14.881093
_cell_length_b 19.881481
_cell_length_c 9.604244
_cell_angle_alpha 90.000000
_cell_angle_beta 90.000000
_cell_angle_gamma 90.000000
_cell_volume 2841.494032
_symmetry_space_group_name_H-M "P N N M"
_symmetry_group_IT_number 58
_symmetry_cell_setting 'orthorhombic'
loop_
_space_group_symop_operation_xyz
x,y,z
-x,-y,z
1/2+x,1/2-y,1/2-z
1/2-x,1/2+y,1/2-z
-x,-y,-z
x,y,-z
1/2-x,1/2+y,1/2+z
1/2+x,1/2-y,1/2+z
loop_
_atom_site_type_symbol
_atom_site_label
_atom_site_fract_x
_atom_site_fract_y
_atom_site_fract_z
Si Si1 0.707788 0.669508 0.839125
Si Si2 0.490878 0.304332 0.165185
Si Si3 0.622220 0.188172 0.837523
Si Si4 0.065598 0.056516 0.334801
Si Si5 0.242694 0.985051 0.340510
Si Si6 0.408948 0.965224 0.161341
O O1 0.612865 0.699767 0.785608
O O2 0.786437 0.702090 0.746859
O O3 0.703023 0.589391 0.817999
O O4 0.726143 0.687707 0.000000
O O5 0.545565 0.239145 0.216485
O O6 0.539267 0.370762 0.227282
O O7 0.491396 0.308915 0.000000
O O8 0.584732 0.113960 0.806977
O O9 0.643650 0.198910 0.000000
O O10 0.054434 0.056577 0.500000
O O11 0.167703 0.038785 0.293955
O O12 0.000000 0.000000 0.270458
O O13 0.271433 0.995441 0.500000
O O14 0.328667 0.999231 0.245985
O O15 0.500000 0.000000 0.212417
O O16 0.390842 0.979608 0.000000
#
# Coordination Sequence:
#
# PCOD8238989 Si02
#       6
#     8   8   8   8   8   8
#     4   9  16  29  49  69  89 118 151 183 223 269
#     4   9  16  28  47  68  92 121 151 182 222 275
#     4   9  18  32  48  66  90 122 155 185 220 266
#     4   9  14  24  45  73  96 113 141 182 227 272
#     4   9  16  27  48  73  92 112 144 188 230 266
#     4   9  18  33  49  63  87 125 161 186 216 263
#
# _framework density 16.892522
#
# number of rings (size 3 to 8) (size 9 to 14) (size 15 to 20)
#    0.000    3.000    1.667    0.000    0.000    0.333 
#    3.000    0.833    0.000    1.500    0.000    0.000 
#    0.000    0.000    0.000    0.000    0.000    0.000 
#
# Total GULP energy -595113.797941 kJ/mol
# GULP energy per Si atom -12398.204124 kJ/mol
# Density = 1.685407 g / cm^3
# Si number density = 16.892522 Si / 1000 Ang^3
#
#
#
# Elastic Constant Matrix: (Units=GPa)
#
#
# Indices 1 2 3 4 5 6 
#
# 1 174.3584 76.6007 53.8427 0.0000 0.0000 0.0000
# 2 76.6007 78.0037 26.8632 0.0000 0.0000 0.0000
# 3 53.8427 26.8632 38.1805 0.0000 0.0000 0.0000
# 4 0.0000 0.0000 0.0000 13.0399 0.0000 0.0000
# 5 0.0000 0.0000 0.0000 0.0000 27.4947 0.0000
# 6 0.0000 0.0000 0.0000 0.0000 0.0000 32.6388
#
#
#
# Elastic Compliance Matrix: (Units=1/GPa)
#
#
# Indices 1 2 3 4 5 6 
#
# 1 0.013686 -0.008966 -0.012993 0.000000 0.000000 0.000000
# 2 -0.008966 0.022793 -0.003393 0.000000 0.000000 0.000000
# 3 -0.012993 -0.003393 0.046901 0.000000 0.000000 0.000000
# 4 0.000000 0.000000 0.000000 0.076688 0.000000 0.000000
# 5 0.000000 0.000000 0.000000 0.000000 0.036371 0.000000
# 6 0.000000 0.000000 0.000000 0.000000 0.000000 0.030638
#
#
# Mechanical properties :
#
#
# Convention : Reuss Voigt Hill
#
# Bulk Modulus (GPa) = 30.60214 67.23954 48.92084
# Shear Modulus (GPa) = 17.32066 23.51709 20.41887
#
# Velocity S-wave (km/s) = 3.20557 3.73521 3.48048
# Velocity P-wave (km/s) = 5.64412 7.64808 6.72121
#
# Compressibility (1/GPa) = 0.03267746
#
# Stress axis : x y z
#
# Youngs Moduli (GPa) = 73.06509 43.87318 21.32153
#
# Poissons Ratio (x) = 0.39336 0.27702
# Poissons Ratio (y) = 0.65509 0.07235
# Poissons Ratio (z) = 0.94930 0.14886
#
# Static dielectric constant tensor:
#      x y z
#    x 3.302290 0.000000 0.000000 
#    y 0.000000 3.196950 0.000000 
#    z 0.000000 0.000000 2.840500 
# 
# 
# High freq. dielectric constant tensor:
#      x y z
#    x 1.660240 0.000000 0.000000 
#    y 0.000000 1.640410 0.000000 
#    z 0.000000 0.000000 1.611560 
# 
# From -- ./inp_files/4221.got.cif
#   From: 2010.06.25/outbox.cif.g09.slc.cpg/sg58_3_cif.got.tgz:4221.got - 2010.06.26 21:38:00.
