data_PCOD8238041
_publ_section_title
;
Structure prediction by ZEFSAII (Michael W. Deem and Ramdas Pophale) SiO2 
 PCOD8238041
Probable space group: P N N M
;
_chemical_formula_sum "Si O2"
_cell_formula_units_Z 64
_cell_length_a 15.185615
_cell_length_b 23.508139
_cell_length_c 9.058770
_cell_angle_alpha 90.000000
_cell_angle_beta 90.000000
_cell_angle_gamma 90.000000
_cell_volume 3233.849975
_symmetry_space_group_name_H-M "P N N M"
_symmetry_group_IT_number 58
_symmetry_cell_setting 'orthorhombic'
loop_
_space_group_symop_operation_xyz
x,y,z
-x,-y,z
1/2+x,1/2-y,1/2-z
1/2-x,1/2+y,1/2-z
-x,-y,-z
x,y,-z
1/2-x,1/2+y,1/2+z
1/2+x,1/2-y,1/2+z
loop_
_atom_site_type_symbol
_atom_site_label
_atom_site_fract_x
_atom_site_fract_y
_atom_site_fract_z
Si Si1 0.326974 0.367565 0.672219
Si Si2 0.431022 0.748921 0.672892
Si Si3 0.923613 0.459063 0.323970
Si Si4 0.587237 0.470901 0.165655
Si Si5 0.065443 0.671016 0.325953
Si Si6 0.749159 0.016438 0.828963
Si Si7 0.002471 0.857790 0.333698
Si Si8 0.226844 0.753497 0.672323
O O1 0.351524 0.363769 0.500000
O O2 0.252575 0.415680 0.700465
O O3 0.410680 0.387765 0.767815
O O4 0.294201 0.307329 0.728106
O O5 0.444590 0.756827 0.500000
O O6 0.478171 0.802236 0.751668
O O7 0.482136 0.693800 0.726591
O O8 0.328114 0.739096 0.712167
O O9 0.924026 0.459120 0.500000
O O10 0.929627 0.393966 0.267577
O O11 0.836478 0.488275 0.256372
O O12 0.000000 0.500000 0.262522
O O13 0.500000 0.500000 0.231131
O O14 0.667307 0.483906 0.269201
O O15 0.576246 0.402823 0.165029
O O16 0.604286 0.494024 0.000000
O O17 0.049956 0.673019 0.500000
O O18 0.157756 0.703198 0.285765
O O19 0.747392 0.003153 0.000000
O O20 0.020686 0.835169 0.500000
O O21 0.217825 0.768881 0.500000
#
# Coordination Sequence:
#
# PCOD8238041 Si02
#       8
#     8   8   8   8   8   8   8   8
#     4  11  22  36  59  91 121 151 197 252 298 352
#     4  11  24  40  61  89 120 155 197 250 306 359
#     4   9  20  39  63  88 117 157 205 254 298 348
#     4  10  21  37  56  82 119 160 195 230 286 359
#     4  10  21  40  65  88 118 161 203 248 301 363
#     4  10  22  37  59  90 118 152 200 249 297 347
#     4  11  22  38  59  84 119 161 200 238 295 364
#     4  10  23  40  59  87 121 160 198 240 305 369
#
# _framework density 19.790651
#
# number of rings (size 3 to 8) (size 9 to 14) (size 15 to 20)
#    0.000    1.750    2.500    1.125    3.500    2.750 
#    0.000    0.625    0.000    0.750    0.000    0.000 
#    0.000    0.000    0.000    0.000    0.000    0.000 
#
# Total GULP energy -793441.246653 kJ/mol
# GULP energy per Si atom -12397.519479 kJ/mol
# Density = 1.974561 g / cm^3
# Si number density = 19.790651 Si / 1000 Ang^3
#
#
#
# Elastic Constant Matrix: (Units=GPa)
#
#
# Indices 1 2 3 4 5 6 
#
# 1 130.8120 65.9322 30.8421 0.0000 0.0000 0.0000
# 2 65.9322 141.2065 38.0728 0.0000 0.0000 0.0000
# 3 30.8421 38.0728 43.3066 0.0000 0.0000 0.0000
# 4 0.0000 0.0000 0.0000 32.6687 0.0000 0.0000
# 5 0.0000 0.0000 0.0000 0.0000 67.5161 0.0000
# 6 0.0000 0.0000 0.0000 0.0000 0.0000 29.7873
#
#
#
# Elastic Compliance Matrix: (Units=1/GPa)
#
#
# Indices 1 2 3 4 5 6 
#
# 1 0.010542 -0.003798 -0.004168 0.000000 0.000000 0.000000
# 2 -0.003798 0.010651 -0.006658 0.000000 0.000000 0.000000
# 3 -0.004168 -0.006658 0.031914 0.000000 0.000000 0.000000
# 4 0.000000 0.000000 0.000000 0.030610 0.000000 0.000000
# 5 0.000000 0.000000 0.000000 0.000000 0.014811 0.000000
# 6 0.000000 0.000000 0.000000 0.000000 0.000000 0.033571
#
#
# Mechanical properties :
#
#
# Convention : Reuss Voigt Hill
#
# Bulk Modulus (GPa) = 41.91855 65.00214 53.46035
# Shear Modulus (GPa) = 29.53321 38.02627 33.77974
#
# Velocity S-wave (km/s) = 3.86720 4.38816 4.13589
# Velocity P-wave (km/s) = 6.41617 7.65446 7.06251
#
# Compressibility (1/GPa) = 0.02385578
#
# Stress axis : x y z
#
# Youngs Moduli (GPa) = 94.86071 93.89165 31.33466
#
# Poissons Ratio (x) = 0.35662 0.13062
# Poissons Ratio (y) = 0.36031 0.20864
# Poissons Ratio (z) = 0.39542 0.62516
#
# Static dielectric constant tensor:
#      x y z
#    x 3.887500 0.000000 0.000000 
#    y 0.000000 3.736080 0.000000 
#    z 0.000000 0.000000 3.433760 
# 
# 
# High freq. dielectric constant tensor:
#      x y z
#    x 1.775030 0.000000 0.000000 
#    y 0.000000 1.781750 0.000000 
#    z 0.000000 0.000000 1.754270 
# 
# From -- ./inp_files/6780.got.cif
#   From: 2010.06.25/outbox.cif.g09.slc.cpg/sg58_4_cif.got.tgz:6780.got - 2010.06.26 21:38:00.
