data_PCOD8238181
_publ_section_title
;
Structure prediction by ZEFSAII (Michael W. Deem and Ramdas Pophale) SiO2 
 PCOD8238181
Probable space group: P N N M
;
_chemical_formula_sum "Si O2"
_cell_formula_units_Z 56
_cell_length_a 9.454416
_cell_length_b 14.138514
_cell_length_c 21.330384
_cell_angle_alpha 90.000000
_cell_angle_beta 90.000000
_cell_angle_gamma 90.000000
_cell_volume 2851.262142
_symmetry_space_group_name_H-M "P N N M"
_symmetry_group_IT_number 58
_symmetry_cell_setting 'orthorhombic'
loop_
_space_group_symop_operation_xyz
x,y,z
-x,-y,z
1/2+x,1/2-y,1/2-z
1/2-x,1/2+y,1/2-z
-x,-y,-z
x,y,-z
1/2-x,1/2+y,1/2+z
1/2+x,1/2-y,1/2+z
loop_
_atom_site_type_symbol
_atom_site_label
_atom_site_fract_x
_atom_site_fract_y
_atom_site_fract_z
Si Si1 0.835471 0.992175 0.820344
Si Si2 0.130706 0.638455 0.000000
Si Si3 0.153015 0.193275 0.254256
Si Si4 0.575644 0.595782 0.095316
Si Si5 0.350346 0.950020 0.928194
Si Si6 0.823880 0.769924 0.397733
Si Si7 0.813326 0.583822 0.000000
Si Si8 0.154916 0.849941 0.271886
O O1 0.756897 0.988096 0.886654
O O2 0.784324 0.084034 0.782585
O O3 0.796877 0.904464 0.776187
O O4 0.000000 0.000000 0.834724
O O5 0.192594 0.691239 0.938702
O O6 0.168727 0.528580 0.000000
O O7 0.959364 0.643207 0.000000
O O8 0.208479 0.202246 0.325788
O O9 0.223809 0.274822 0.212067
O O10 0.984868 0.205938 0.249154
O O11 0.500000 0.500000 0.072654
O O12 0.469804 0.681619 0.079975
O O13 0.722947 0.613542 0.060518
O O14 0.612013 0.586945 0.168602
O O15 0.348155 0.841454 0.906041
O O16 0.500000 0.000000 0.918678
O O17 0.300697 0.955889 0.000000
#
# Coordination Sequence:
#
# PCOD8238181 Si02
#       8
#     8   4   8   8   8   8   4   8
#     4  10  22  42  63  89 127 160 202 261 318 375
#     4  11  23  40  62  89 136 163 211 267 326 377
#     4  10  22  37  64  91 121 161 206 258 313 380
#     4  11  21  38  64  91 125 170 209 252 318 388
#     4  11  25  43  65  93 125 169 221 263 305 379
#     4  11  21  41  67  91 127 175 209 261 326 378
#     4  11  24  39  58  98 126 166 211 267 318 386
#     4  10  21  38  60  93 121 157 206 253 313 376
#
# _framework density 19.640425
#
# number of rings (size 3 to 8) (size 9 to 14) (size 15 to 20)
#    0.000    1.429    3.571    2.786    4.000    1.429 
#    0.000    0.000    0.000    0.000    0.000    0.000 
#    0.000    0.000    0.000    0.000    0.000    0.000 
#
# Total GULP energy -694389.211982 kJ/mol
# GULP energy per Si atom -12399.807357 kJ/mol
# Density = 1.959572 g / cm^3
# Si number density = 19.640425 Si / 1000 Ang^3
#
#
#
# Elastic Constant Matrix: (Units=GPa)
#
#
# Indices 1 2 3 4 5 6 
#
# 1 97.0186 54.8314 55.0654 0.0000 0.0000 0.0000
# 2 54.8314 103.7612 52.2750 0.0000 0.0000 0.0000
# 3 55.0654 52.2750 124.4745 0.0000 0.0000 0.0000
# 4 0.0000 0.0000 0.0000 23.9043 0.0000 0.0000
# 5 0.0000 0.0000 0.0000 0.0000 26.8399 0.0000
# 6 0.0000 0.0000 0.0000 0.0000 0.0000 37.0347
#
#
#
# Elastic Compliance Matrix: (Units=1/GPa)
#
#
# Indices 1 2 3 4 5 6 
#
# 1 0.016564 -0.006420 -0.004632 0.000000 0.000000 0.000000
# 2 -0.006420 0.014712 -0.003338 0.000000 0.000000 0.000000
# 3 -0.004632 -0.003338 0.011485 0.000000 0.000000 0.000000
# 4 0.000000 0.000000 0.000000 0.041834 0.000000 0.000000
# 5 0.000000 0.000000 0.000000 0.000000 0.037258 0.000000
# 6 0.000000 0.000000 0.000000 0.000000 0.000000 0.027002
#
#
# Mechanical properties :
#
#
# Convention : Reuss Voigt Hill
#
# Bulk Modulus (GPa) = 71.52502 72.17756 71.85129
# Shear Modulus (GPa) = 27.42812 28.42794 27.92803
#
# Velocity S-wave (km/s) = 3.74105 3.80862 3.77499
# Velocity P-wave (km/s) = 7.42677 7.49467 7.46080
#
# Compressibility (1/GPa) = 0.01398112
#
# Stress axis : x y z
#
# Youngs Moduli (GPa) = 60.37050 67.97208 87.07152
#
# Poissons Ratio (x) = 0.43637 0.40329
# Poissons Ratio (y) = 0.38757 0.29069
# Poissons Ratio (z) = 0.27962 0.22692
#
# Static dielectric constant tensor:
#      x y z
#    x 3.583800 0.000000 0.000000 
#    y 0.000000 3.588170 0.000000 
#    z 0.000000 0.000000 3.644500 
# 
# 
# High freq. dielectric constant tensor:
#      x y z
#    x 1.759590 0.000000 0.000000 
#    y 0.000000 1.767110 0.000000 
#    z 0.000000 0.000000 1.772240 
# 
# From -- ./inp_files/29000.got.cif
#   From: 2010.06.25/outbox.cif.g09.slc.cpg/sg58_15_cif.got.tgz:29000.got - 2010.06.26 21:38:00.
