data_PCOD8238736
_publ_section_title
;
Structure prediction by ZEFSAII (Michael W. Deem and Ramdas Pophale) SiO2 
 PCOD8238736
Probable space group: P N N M
;
_chemical_formula_sum "Si O2"
_cell_formula_units_Z 32
_cell_length_a 9.180809
_cell_length_b 8.028669
_cell_length_c 18.462067
_cell_angle_alpha 90.000000
_cell_angle_beta 90.000000
_cell_angle_gamma 90.000000
_cell_volume 1360.832988
_symmetry_space_group_name_H-M "P N N M"
_symmetry_group_IT_number 58
_symmetry_cell_setting 'orthorhombic'
loop_
_space_group_symop_operation_xyz
x,y,z
-x,-y,z
1/2+x,1/2-y,1/2-z
1/2-x,1/2+y,1/2-z
-x,-y,-z
x,y,-z
1/2-x,1/2+y,1/2+z
1/2+x,1/2-y,1/2+z
loop_
_atom_site_type_symbol
_atom_site_label
_atom_site_fract_x
_atom_site_fract_y
_atom_site_fract_z
Si Si1 0.267560 0.814988 0.638750
Si Si2 0.283734 0.864941 0.000000
Si Si3 0.565118 0.680866 0.626310
Si Si4 0.111691 0.738491 0.500000
Si Si5 0.849376 0.411139 0.754738
O O1 0.431621 0.805982 0.606872
O O2 0.156878 0.839624 0.572081
O O3 0.233817 0.639868 0.681053
O O4 0.252981 0.971035 0.693203
O O5 0.194606 0.803749 0.069278
O O6 0.438934 0.776495 0.000000
O O7 0.302475 0.063533 0.000000
O O8 0.500000 0.500000 0.629272
O O9 0.625095 0.735950 0.704355
O O10 0.000000 0.500000 0.732134
#
# Coordination Sequence:
#
# PCOD8238736 Si02
#       5
#     8   4   8   4   8
#     4  11  23  43  68 100 136 180 226 288 346 420
#     4  11  24  40  67 100 134 182 232 286 354 414
#     4  11  21  41  68  97 131 177 229 279 345 419
#     4  11  25  41  70  94 139 176 236 295 343 417
#     4  10  25  42  69 104 140 180 233 289 354 415
#
# _framework density 23.51501
#
# number of rings (size 3 to 8) (size 9 to 14) (size 15 to 20)
#    0.000    1.250    2.500    2.625    3.500    3.000 
#    0.000   11.250    0.000    0.000    0.000    0.000 
#    0.000    0.000    0.000    0.000    0.000    0.000 
#
# Total GULP energy -396829.983965 kJ/mol
# GULP energy per Si atom -12400.936999 kJ/mol
# Density = 2.346149 g / cm^3
# Si number density = 23.515010 Si / 1000 Ang^3
#
#
#
# Elastic Constant Matrix: (Units=GPa)
#
#
# Indices 1 2 3 4 5 6 
#
# 1 132.3219 19.5646 73.7238 0.0000 0.0000 0.0000
# 2 19.5646 37.6418 28.7950 0.0000 0.0000 0.0000
# 3 73.7238 28.7950 129.3424 0.0000 0.0000 0.0000
# 4 0.0000 0.0000 0.0000 3.9999 0.0000 0.0000
# 5 0.0000 0.0000 0.0000 0.0000 48.3928 0.0000
# 6 0.0000 0.0000 0.0000 0.0000 0.0000 28.3676
#
#
#
# Elastic Compliance Matrix: (Units=1/GPa)
#
#
# Indices 1 2 3 4 5 6 
#
# 1 0.011113 -0.001122 -0.006085 0.000000 0.000000 0.000000
# 2 -0.001122 0.032132 -0.006514 0.000000 0.000000 0.000000
# 3 -0.006085 -0.006514 0.012650 0.000000 0.000000 0.000000
# 4 0.000000 0.000000 0.000000 0.250007 0.000000 0.000000
# 5 0.000000 0.000000 0.000000 0.000000 0.020664 0.000000
# 6 0.000000 0.000000 0.000000 0.000000 0.000000 0.035252
#
#
# Mechanical properties :
#
#
# Convention : Reuss Voigt Hill
#
# Bulk Modulus (GPa) = 35.14384 60.38586 47.76485
# Shear Modulus (GPa) = 12.53936 27.96689 20.25313
#
# Velocity S-wave (km/s) = 2.31172 3.45239 2.93795
# Velocity P-wave (km/s) = 4.70140 6.45194 5.64494
#
# Compressibility (1/GPa) = 0.02845449
#
# Stress axis : x y z
#
# Youngs Moduli (GPa) = 89.98207 31.12129 79.05185
#
# Poissons Ratio (x) = 0.03490 0.48101
# Poissons Ratio (y) = 0.10092 0.51496
# Poissons Ratio (z) = 0.54752 0.20273
#
# Static dielectric constant tensor:
#      x y z
#    x 4.402170 0.000000 0.000000 
#    y 0.000000 4.111520 0.000000 
#    z 0.000000 0.000000 4.190070 
# 
# 
# High freq. dielectric constant tensor:
#      x y z
#    x 1.937350 0.000000 0.000000 
#    y 0.000000 1.924480 0.000000 
#    z 0.000000 0.000000 1.928050 
# 
# From -- ./inp_files/28474.got.cif
#   From: 2010.06.25/outbox.cif.g09.slc.cpg/sg58_15_cif.got.tgz:28474.got - 2010.06.26 21:38:00.
