data_PCOD8238960
_publ_section_title
;
Structure prediction by ZEFSAII (Michael W. Deem and Ramdas Pophale) SiO2 
 PCOD8238960
Probable space group: P N N M
;
_chemical_formula_sum "Si O2"
_cell_formula_units_Z 44
_cell_length_a 4.994242
_cell_length_b 26.147060
_cell_length_c 14.985431
_cell_angle_alpha 90.000000
_cell_angle_beta 90.000000
_cell_angle_gamma 90.000000
_cell_volume 1956.868689
_symmetry_space_group_name_H-M "P N N M"
_symmetry_group_IT_number 58
_symmetry_cell_setting 'orthorhombic'
loop_
_space_group_symop_operation_xyz
x,y,z
-x,-y,z
1/2+x,1/2-y,1/2-z
1/2-x,1/2+y,1/2-z
-x,-y,-z
x,y,-z
1/2-x,1/2+y,1/2+z
1/2+x,1/2-y,1/2+z
loop_
_atom_site_type_symbol
_atom_site_label
_atom_site_fract_x
_atom_site_fract_y
_atom_site_fract_z
Si Si1 0.489469 0.282848 0.752701
Si Si2 0.985810 0.559808 0.848599
Si Si3 0.553492 0.903664 0.155151
Si Si4 0.984022 0.873959 0.398455
Si Si5 0.749218 0.465826 0.500000
Si Si6 0.035645 0.850447 0.896443
O O1 0.280191 0.238211 0.775751
O O2 0.501314 0.325483 0.832010
O O3 0.347584 0.303740 0.661085
O O4 0.021975 0.562560 0.742364
O O5 0.204851 0.595562 0.895014
O O6 0.000000 0.500000 0.878020
O O7 0.701023 0.583116 0.873798
O O8 0.264674 0.894183 0.110822
O O9 0.758353 0.856137 0.163627
O O10 0.756253 0.931759 0.087247
O O11 0.024705 0.854131 0.500000
O O12 0.500000 0.500000 0.500000
O O13 0.000000 0.500000 0.500000
O O14 0.977750 0.837778 0.000000
#
# Coordination Sequence:
#
# PCOD8238960 Si02
#       6
#     8   8   8   8   4   8
#     4  12  26  46  75 103 138 180 234 294 364 433
#     4  12  25  45  73 104 143 194 242 291 354 427
#     4  12  22  42  65  95 138 188 227 277 344 404
#     4  12  27  48  74 105 145 186 237 302 363 422
#     4  12  24  36  58  98 140 178 232 276 320 404
#     4  12  23  43  71  98 135 179 226 284 349 418
#
# _framework density 22.484901000000001
#
# number of rings (size 3 to 8) (size 9 to 14) (size 15 to 20)
#    0.000    0.000    5.455    4.909    0.000    5.091 
#    0.000    0.000    0.000    0.000    0.000    0.000 
#    0.000    0.000    0.000    0.000    0.000    0.000 
#
# Total GULP energy -545145.913266 kJ/mol
# GULP energy per Si atom -12389.679847 kJ/mol
# Density = 2.243372 g / cm^3
# Si number density = 22.484901 Si / 1000 Ang^3
#
#
#
# Elastic Constant Matrix: (Units=GPa)
#
#
# Indices 1 2 3 4 5 6 
#
# 1 113.2315 25.9288 12.7443 0.0000 0.0000 0.0000
# 2 25.9288 115.0217 42.5812 0.0000 0.0000 0.0000
# 3 12.7443 42.5812 146.7514 0.0000 0.0000 0.0000
# 4 0.0000 0.0000 0.0000 11.1863 0.0000 0.0000
# 5 0.0000 0.0000 0.0000 0.0000 -0.1491 0.0000
# 6 0.0000 0.0000 0.0000 0.0000 0.0000 42.5216
#
#
#
# Elastic Compliance Matrix: (Units=1/GPa)
#
#
# Indices 1 2 3 4 5 6 
#
# 1 0.009319 -0.002018 -0.000224 0.000000 0.000000 0.000000
# 2 -0.002018 0.010177 -0.002778 0.000000 0.000000 0.000000
# 3 -0.000224 -0.002778 0.007640 0.000000 0.000000 0.000000
# 4 0.000000 0.000000 0.000000 0.089395 0.000000 0.000000
# 5 0.000000 0.000000 0.000000 0.000000 -6.706323 0.000000
# 6 0.000000 0.000000 0.000000 0.000000 0.000000 0.023517
#
#
# Mechanical properties :
#
#
# Convention : Reuss Voigt Hill
#
# Bulk Modulus (GPa) = 58.49031 59.72368 59.10700
# Shear Modulus (GPa) = -0.76330 30.29512 14.76591
#
# Velocity S-wave (km/s) = -0.58327 3.67461 2.56540
# Velocity P-wave (km/s) = 5.06123 6.68005 5.92617
#
# Compressibility (1/GPa) = 0.01709685
#
# Stress axis : x y z
#
# Youngs Moduli (GPa) = 107.31094 98.25865 130.89567
#
# Poissons Ratio (x) = 0.19827 0.02929
# Poissons Ratio (y) = 0.21654 0.36360
# Poissons Ratio (z) = 0.02401 0.27294
#
# Static dielectric constant tensor:
#      x y z
#    x 4.570310 0.000000 0.000000 
#    y 0.000000 4.964640 0.000000 
#    z 0.000000 0.000000 4.116890 
# 
# 
# High freq. dielectric constant tensor:
#      x y z
#    x 1.912020 0.000000 0.000000 
#    y 0.000000 1.885600 0.000000 
#    z 0.000000 0.000000 1.895540 
# 
# From -- ./inp_files/18546.got.cif
#   From: 2010.06.25/outbox.cif.g09.slc.cpg/sg58_10_cif.got.tgz:18546.got - 2010.06.26 21:38:00.
