data_PCOD8238643
_publ_section_title
;
Structure prediction by ZEFSAII (Michael W. Deem and Ramdas Pophale) SiO2 
 PCOD8238643
Probable space group: P N N M
;
_chemical_formula_sum "Si O2"
_cell_formula_units_Z 56
_cell_length_a 21.078120
_cell_length_b 14.781801
_cell_length_c 8.812371
_cell_angle_alpha 90.000000
_cell_angle_beta 90.000000
_cell_angle_gamma 90.000000
_cell_volume 2745.693127
_symmetry_space_group_name_H-M "P N N M"
_symmetry_group_IT_number 58
_symmetry_cell_setting 'orthorhombic'
loop_
_space_group_symop_operation_xyz
x,y,z
-x,-y,z
1/2+x,1/2-y,1/2-z
1/2-x,1/2+y,1/2-z
-x,-y,-z
x,y,-z
1/2-x,1/2+y,1/2+z
1/2+x,1/2-y,1/2+z
loop_
_atom_site_type_symbol
_atom_site_label
_atom_site_fract_x
_atom_site_fract_y
_atom_site_fract_z
Si Si1 0.897991 0.289188 0.177397
Si Si2 0.228929 0.771080 0.674838
Si Si3 0.522585 0.645393 0.173127
Si Si4 0.571178 0.980003 0.179589
Si Si5 0.773801 0.925737 0.827735
Si Si6 0.098616 0.036112 0.673303
Si Si7 0.313980 0.936990 0.322168
O O1 0.835625 0.234922 0.230195
O O2 0.958805 0.227464 0.216783
O O3 0.903614 0.384148 0.261986
O O4 0.895170 0.308298 0.000000
O O5 0.210133 0.789023 0.500000
O O6 0.270326 0.681381 0.694454
O O7 0.272495 0.852504 0.738239
O O8 0.450088 0.617799 0.205586
O O9 0.566366 0.559386 0.204904
O O10 0.530559 0.678041 0.000000
O O11 0.500000 0.000000 0.237911
O O12 0.617255 0.059310 0.241637
O O13 0.574145 0.979453 0.000000
O O14 0.844214 0.956734 0.789333
O O15 0.723340 0.971214 0.716131
O O16 0.757705 0.953966 0.000000
O O17 0.123104 0.041257 0.500000
O O18 0.325666 0.929221 0.500000
#
# Coordination Sequence:
#
# PCOD8238643 Si02
#       7
#     8   8   8   8   8   8   8
#     4  12  24  38  62  93 122 160 210 258 307 374
#     4  10  23  41  61  86 123 164 201 249 314 374
#     4   9  19  37  59  83 118 162 202 246 305 366
#     4  11  25  45  67  90 122 165 208 258 320 379
#     4  11  22  37  59  87 122 161 197 248 307 363
#     4   9  19  36  58  85 118 159 204 251 304 362
#     4  11  23  41  65  93 124 163 209 261 314 370
#
# _framework density 20.395578
#
# number of rings (size 3 to 8) (size 9 to 14) (size 15 to 20)
#    0.000    1.571    1.429    4.286    0.000    8.571 
#    0.000    4.286    0.000    0.000    0.000    0.000 
#    0.000    0.000    0.000    0.000    0.000    0.000 
#
# Total GULP energy -694636.591115 kJ/mol
# GULP energy per Si atom -12404.224841 kJ/mol
# Density = 2.034916 g / cm^3
# Si number density = 20.395578 Si / 1000 Ang^3
#
#
#
# Elastic Constant Matrix: (Units=GPa)
#
#
# Indices 1 2 3 4 5 6 
#
# 1 120.3030 34.0424 33.3754 0.0000 0.0000 0.0000
# 2 34.0424 81.0322 26.0953 0.0000 0.0000 0.0000
# 3 33.3754 26.0953 65.5751 0.0000 0.0000 0.0000
# 4 0.0000 0.0000 0.0000 17.1352 0.0000 0.0000
# 5 0.0000 0.0000 0.0000 0.0000 30.5955 0.0000
# 6 0.0000 0.0000 0.0000 0.0000 0.0000 31.4532
#
#
#
# Elastic Compliance Matrix: (Units=1/GPa)
#
#
# Indices 1 2 3 4 5 6 
#
# 1 0.010286 -0.003023 -0.004033 0.000000 0.000000 0.000000
# 2 -0.003023 0.015043 -0.004448 0.000000 0.000000 0.000000
# 3 -0.004033 -0.004448 0.019072 0.000000 0.000000 0.000000
# 4 0.000000 0.000000 0.000000 0.058359 0.000000 0.000000
# 5 0.000000 0.000000 0.000000 0.000000 0.032684 0.000000
# 6 0.000000 0.000000 0.000000 0.000000 0.000000 0.031793
#
#
# Mechanical properties :
#
#
# Convention : Reuss Voigt Hill
#
# Bulk Modulus (GPa) = 46.73927 50.43740 48.58833
# Shear Modulus (GPa) = 25.33227 27.39661 26.36444
#
# Velocity S-wave (km/s) = 3.52809 3.66903 3.59925
# Velocity P-wave (km/s) = 6.28989 6.53700 6.41463
#
# Compressibility (1/GPa) = 0.02139529
#
# Stress axis : x y z
#
# Youngs Moduli (GPa) = 97.21521 66.47594 52.43259
#
# Poissons Ratio (x) = 0.20094 0.21144
# Poissons Ratio (y) = 0.29386 0.23321
# Poissons Ratio (z) = 0.39202 0.29567
#
# Static dielectric constant tensor:
#      x y z
#    x 3.873540 0.000000 0.000000 
#    y 0.000000 3.715300 0.000000 
#    z 0.000000 0.000000 3.600050 
# 
# 
# High freq. dielectric constant tensor:
#      x y z
#    x 1.804690 0.000000 0.000000 
#    y 0.000000 1.797600 0.000000 
#    z 0.000000 0.000000 1.790810 
# 
# From -- ./inp_files/9020.got.cif
#   From: 2010.06.25/outbox.cif.g09.slc.cpg/sg58_5_cif.got.tgz:9020.got - 2010.06.26 21:38:00.
