data_PCOD8238502
_publ_section_title
;
Structure prediction by ZEFSAII (Michael W. Deem and Ramdas Pophale) SiO2 
 PCOD8238502
Probable space group: P N N M
;
_chemical_formula_sum "Si O2"
_cell_formula_units_Z 48
_cell_length_a 9.041692
_cell_length_b 13.849079
_cell_length_c 19.474856
_cell_angle_alpha 90.000000
_cell_angle_beta 90.000000
_cell_angle_gamma 90.000000
_cell_volume 2438.624073
_symmetry_space_group_name_H-M "P N N M"
_symmetry_group_IT_number 58
_symmetry_cell_setting 'orthorhombic'
loop_
_space_group_symop_operation_xyz
x,y,z
-x,-y,z
1/2+x,1/2-y,1/2-z
1/2-x,1/2+y,1/2-z
-x,-y,-z
x,y,-z
1/2-x,1/2+y,1/2+z
1/2+x,1/2-y,1/2+z
loop_
_atom_site_type_symbol
_atom_site_label
_atom_site_fract_x
_atom_site_fract_y
_atom_site_fract_z
Si Si1 0.832881 0.473848 0.678977
Si Si2 0.781955 0.270460 0.279263
Si Si3 0.623475 0.078975 0.424342
Si Si4 0.477633 0.243862 0.339156
Si Si5 0.131958 0.925432 0.923099
Si Si6 0.346078 0.445358 0.807803
O O1 0.824348 0.357903 0.669442
O O2 0.776930 0.524987 0.609599
O O3 0.733871 0.509548 0.742143
O O4 0.000000 0.500000 0.695090
O O5 0.604581 0.261661 0.281573
O O6 0.864206 0.170340 0.298899
O O7 0.837323 0.299764 0.202462
O O8 0.688429 0.102740 0.500000
O O9 0.545565 0.174226 0.395598
O O10 0.752733 0.037594 0.376669
O O11 0.500000 0.000000 0.430843
O O12 0.423002 0.339119 0.376170
O O13 0.173630 0.890463 0.000000
O O14 0.000000 0.000000 0.926005
O O15 0.500000 0.500000 0.817196
#
# Coordination Sequence:
#
# PCOD8238502 Si02
#       6
#     8   8   8   8   8   8
#     4  12  23  40  61  93 128 162 210 268 322 376
#     4  11  22  35  62  92 123 159 207 263 316 366
#     4  10  22  40  60  88 126 167 203 253 317 378
#     4  11  21  39  62  95 123 162 211 262 314 377
#     4  11  23  42  65  89 125 171 211 260 321 389
#     4  11  22  39  63  92 123 162 212 267 314 372
#
# _framework density 19.683230999999999
#
# number of rings (size 3 to 8) (size 9 to 14) (size 15 to 20)
#    0.000    1.000    3.333    5.500    0.000    0.667 
#    0.000    0.000    0.000    0.000    0.000    0.000 
#    0.000    0.000    0.000    0.000    0.000    0.000 
#
# Total GULP energy -595111.342372 kJ/mol
# GULP energy per Si atom -12398.152966 kJ/mol
# Density = 1.963843 g / cm^3
# Si number density = 19.683231 Si / 1000 Ang^3
#
#
#
# Elastic Constant Matrix: (Units=GPa)
#
#
# Indices 1 2 3 4 5 6 
#
# 1 98.6114 49.3997 60.6827 0.0000 0.0000 0.0000
# 2 49.3997 112.8292 21.9206 0.0000 0.0000 0.0000
# 3 60.6827 21.9206 123.0434 0.0000 0.0000 0.0000
# 4 0.0000 0.0000 0.0000 25.2119 0.0000 0.0000
# 5 0.0000 0.0000 0.0000 0.0000 42.3203 0.0000
# 6 0.0000 0.0000 0.0000 0.0000 0.0000 31.5563
#
#
#
# Elastic Compliance Matrix: (Units=1/GPa)
#
#
# Indices 1 2 3 4 5 6 
#
# 1 0.018178 -0.006440 -0.007818 0.000000 0.000000 0.000000
# 2 -0.006440 0.011462 0.001134 0.000000 0.000000 0.000000
# 3 -0.007818 0.001134 0.011781 0.000000 0.000000 0.000000
# 4 0.000000 0.000000 0.000000 0.039664 0.000000 0.000000
# 5 0.000000 0.000000 0.000000 0.000000 0.023629 0.000000
# 6 0.000000 0.000000 0.000000 0.000000 0.000000 0.031689
#
#
# Mechanical properties :
#
#
# Convention : Reuss Voigt Hill
#
# Bulk Modulus (GPa) = 65.90398 66.49889 66.20143
# Shear Modulus (GPa) = 29.81377 33.31643 31.56510
#
# Velocity S-wave (km/s) = 3.89611 4.11862 4.00891
# Velocity P-wave (km/s) = 7.33448 7.51500 7.42529
#
# Compressibility (1/GPa) = 0.01517359
#
# Stress axis : x y z
#
# Youngs Moduli (GPa) = 55.01276 87.24339 84.88475
#
# Poissons Ratio (x) = 0.56183 0.66359
# Poissons Ratio (y) = 0.35427 -0.09626
# Poissons Ratio (z) = 0.43007 -0.09893
#
# Static dielectric constant tensor:
#      x y z
#    x 3.617240 0.000000 0.000000 
#    y 0.000000 4.046730 0.000000 
#    z 0.000000 0.000000 4.017770 
# 
# 
# High freq. dielectric constant tensor:
#      x y z
#    x 1.765230 0.000000 0.000000 
#    y 0.000000 1.783640 0.000000 
#    z 0.000000 0.000000 1.760120 
# 
# From -- ./inp_files/25285.got.cif
#   From: 2010.06.25/outbox.cif.g09.slc.cpg/sg58_13_cif.got.tgz:25285.got - 2010.06.26 21:38:00.
