data_PCOD8238086
_publ_section_title
;
Structure prediction by ZEFSAII (Michael W. Deem and Ramdas Pophale) SiO2 
 PCOD8238086
Probable space group: P N N M
;
_chemical_formula_sum "Si O2"
_cell_formula_units_Z 56
_cell_length_a 14.426830
_cell_length_b 9.204678
_cell_length_c 20.055643
_cell_angle_alpha 90.000000
_cell_angle_beta 90.000000
_cell_angle_gamma 90.000000
_cell_volume 2663.275569
_symmetry_space_group_name_H-M "P N N M"
_symmetry_group_IT_number 58
_symmetry_cell_setting 'orthorhombic'
loop_
_space_group_symop_operation_xyz
x,y,z
-x,-y,z
1/2+x,1/2-y,1/2-z
1/2-x,1/2+y,1/2-z
-x,-y,-z
x,y,-z
1/2-x,1/2+y,1/2+z
1/2+x,1/2-y,1/2+z
loop_
_atom_site_type_symbol
_atom_site_label
_atom_site_fract_x
_atom_site_fract_y
_atom_site_fract_z
Si Si1 0.921170 0.597672 0.923732
Si Si2 0.105687 0.549507 0.728453
Si Si3 0.828194 0.875134 0.922041
Si Si4 0.150664 0.791250 0.374313
Si Si5 0.524509 0.662857 0.000000
Si Si6 0.597048 0.085643 0.000000
Si Si7 0.782163 0.614594 0.374681
Si Si8 0.231923 0.557986 0.857420
O O1 0.909516 0.764315 0.895133
O O2 0.824975 0.510174 0.918876
O O3 0.000000 0.500000 0.886958
O O4 0.948762 0.617258 0.000000
O O5 0.108058 0.698645 0.686651
O O6 0.162298 0.420488 0.692386
O O7 0.160658 0.573616 0.796644
O O8 0.000000 0.500000 0.741141
O O9 0.734979 0.788081 0.909110
O O10 0.817301 0.027276 0.880854
O O11 0.843344 0.908467 0.000000
O O12 0.075521 0.800835 0.431766
O O13 0.181301 0.949197 0.344468
O O14 0.500000 0.500000 0.000000
O O15 0.426666 0.744889 0.000000
O O16 0.657058 0.049091 0.064793
O O17 0.500000 0.000000 0.000000
O O18 0.768517 0.785538 0.379293
#
# Coordination Sequence:
#
# PCOD8238086 Si02
#       8
#     8   8   8   8   4   4   8   8
#     4   9  19  35  59  85 115 157 207 256 307 358
#     4  11  23  41  62  83 117 166 213 252 299 368
#     4   9  16  33  56  82 116 153 196 241 302 369
#     4  10  21  37  59  84 122 160 197 247 307 378
#     4  12  22  34  56  92 127 153 188 245 317 374
#     4  12  22  36  60  94 127 155 194 245 311 382
#     4  11  22  36  61  91 123 160 204 255 309 377
#     4  11  23  38  60  86 123 157 209 251 312 367
#
# _framework density 21.026737000000001
#
# number of rings (size 3 to 8) (size 9 to 14) (size 15 to 20)
#    0.000    1.571    1.429    5.143    2.000    0.000 
#    0.000    0.714    0.000    6.000    0.000    0.000 
#    0.000    0.000    0.000    0.000    0.000    0.000 
#
# Total GULP energy -693801.125089 kJ/mol
# GULP energy per Si atom -12389.305805 kJ/mol
# Density = 2.097888 g / cm^3
# Si number density = 21.026737 Si / 1000 Ang^3
#
#
#
# Elastic Constant Matrix: (Units=GPa)
#
#
# Indices 1 2 3 4 5 6 
#
# 1 65.6971 31.6995 20.5875 0.0000 0.0000 0.0000
# 2 31.6995 149.1486 11.3907 0.0000 0.0000 0.0000
# 3 20.5875 11.3907 67.4553 0.0000 0.0000 0.0000
# 4 0.0000 0.0000 0.0000 24.0070 0.0000 0.0000
# 5 0.0000 0.0000 0.0000 0.0000 9.3560 0.0000
# 6 0.0000 0.0000 0.0000 0.0000 0.0000 35.0382
#
#
#
# Elastic Compliance Matrix: (Units=1/GPa)
#
#
# Indices 1 2 3 4 5 6 
#
# 1 0.018517 -0.003550 -0.005052 0.000000 0.000000 0.000000
# 2 -0.003550 0.007473 -0.000178 0.000000 0.000000 0.000000
# 3 -0.005052 -0.000178 0.016397 0.000000 0.000000 0.000000
# 4 0.000000 0.000000 0.000000 0.041654 0.000000 0.000000
# 5 0.000000 0.000000 0.000000 0.000000 0.106884 0.000000
# 6 0.000000 0.000000 0.000000 0.000000 0.000000 0.028540
#
#
# Mechanical properties :
#
#
# Convention : Reuss Voigt Hill
#
# Bulk Modulus (GPa) = 40.28018 45.51739 42.89878
# Shear Modulus (GPa) = 20.38310 28.25512 24.31911
#
# Velocity S-wave (km/s) = 3.11688 3.66972 3.40454
# Velocity P-wave (km/s) = 5.67023 6.29684 5.99173
#
# Compressibility (1/GPa) = 0.02482611
#
# Stress axis : x y z
#
# Youngs Moduli (GPa) = 54.00339 133.81844 60.98798
#
# Poissons Ratio (x) = 0.47503 0.30812
# Poissons Ratio (y) = 0.19170 0.01089
# Poissons Ratio (z) = 0.27283 0.02388
#
# Static dielectric constant tensor:
#      x y z
#    x 3.739350 0.000000 0.000000 
#    y 0.000000 4.471420 0.000000 
#    z 0.000000 0.000000 3.647100 
# 
# 
# High freq. dielectric constant tensor:
#      x y z
#    x 1.807750 0.000000 0.000000 
#    y 0.000000 1.839620 0.000000 
#    z 0.000000 0.000000 1.811720 
# 
# From -- ./inp_files/30052.got.cif
#   From: 2010.06.25/outbox.cif.g09.slc.cpg/sg58_16_cif.got.tgz:30052.got - 2010.06.26 21:38:00.
