data_PCOD8238937
_publ_section_title
;
Structure prediction by ZEFSAII (Michael W. Deem and Ramdas Pophale) SiO2 
 PCOD8238937
Probable space group: P N N M
;
_chemical_formula_sum "Si O2"
_cell_formula_units_Z 48
_cell_length_a 8.497090
_cell_length_b 17.142645
_cell_length_c 15.214916
_cell_angle_alpha 90.000000
_cell_angle_beta 90.000000
_cell_angle_gamma 90.000000
_cell_volume 2216.244184
_symmetry_space_group_name_H-M "P N N M"
_symmetry_group_IT_number 58
_symmetry_cell_setting 'orthorhombic'
loop_
_space_group_symop_operation_xyz
x,y,z
-x,-y,z
1/2+x,1/2-y,1/2-z
1/2-x,1/2+y,1/2-z
-x,-y,-z
x,y,-z
1/2-x,1/2+y,1/2+z
1/2+x,1/2-y,1/2+z
loop_
_atom_site_type_symbol
_atom_site_label
_atom_site_fract_x
_atom_site_fract_y
_atom_site_fract_z
Si Si1 0.316388 0.979279 0.000000
Si Si2 0.548254 0.774756 0.338414
Si Si3 0.898897 0.926453 0.500000
Si Si4 0.276677 0.215854 0.833194
Si Si5 0.326468 0.538985 0.319429
Si Si6 0.963431 0.236186 0.500000
Si Si7 0.291968 0.302485 0.500000
Si Si8 0.648003 0.949577 0.351665
O O1 0.500000 0.000000 0.000000
O O2 0.238581 0.013825 0.913326
O O3 0.280910 0.888057 0.000000
O O4 0.618088 0.749320 0.245107
O O5 0.361210 0.777413 0.343168
O O6 0.607355 0.715381 0.413385
O O7 0.585262 0.863846 0.345110
O O8 0.793420 0.935358 0.414613
O O9 0.033713 0.857789 0.500000
O O10 0.000000 0.000000 0.500000
O O11 0.185577 0.133379 0.817836
O O12 0.387319 0.219210 0.917967
O O13 0.500000 0.500000 0.306813
O O14 0.212277 0.512015 0.239633
O O15 0.150146 0.243229 0.500000
O O16 0.500000 0.000000 0.387200
#
# Coordination Sequence:
#
# PCOD8238937 Si02
#       8
#     4   8   4   8   8   4   4   8
#     4  12  25  42  68 100 136 183 226 284 351 408
#     4  11  24  43  67 101 133 180 227 276 348 404
#     4  12  27  46  69  97 133 186 226 287 353 408
#     4  11  25  41  70  99 138 182 227 286 341 413
#     4  11  24  44  68 104 142 182 236 283 352 415
#     4  12  25  45  68 100 137 174 234 278 343 422
#     4  12  23  45  69  94 138 176 225 282 340 417
#     4  11  25  45  70 101 138 179 234 288 346 414
#
# _framework density 21.658263999999999
#
# number of rings (size 3 to 8) (size 9 to 14) (size 15 to 20)
#    0.000    0.667    1.667    5.500    4.667    5.333 
#    0.000    0.000    0.000    0.000    0.000    0.000 
#    0.000    0.000    0.000    0.000    0.000    0.000 
#
# Total GULP energy -594673.653770 kJ/mol
# GULP energy per Si atom -12389.034454 kJ/mol
# Density = 2.160897 g / cm^3
# Si number density = 21.658264 Si / 1000 Ang^3
#
#
#
# Elastic Constant Matrix: (Units=GPa)
#
#
# Indices 1 2 3 4 5 6 
#
# 1 102.0924 15.9825 24.2920 0.0000 0.0000 0.0000
# 2 15.9825 49.0427 23.5736 0.0000 0.0000 0.0000
# 3 24.2920 23.5736 133.0140 0.0000 0.0000 0.0000
# 4 0.0000 0.0000 0.0000 37.4024 0.0000 0.0000
# 5 0.0000 0.0000 0.0000 0.0000 47.2037 0.0000
# 6 0.0000 0.0000 0.0000 0.0000 0.0000 49.0188
#
#
#
# Elastic Compliance Matrix: (Units=1/GPa)
#
#
# Indices 1 2 3 4 5 6 
#
# 1 0.010569 -0.002751 -0.001443 0.000000 0.000000 0.000000
# 2 -0.002751 0.023005 -0.003575 0.000000 0.000000 0.000000
# 3 -0.001443 -0.003575 0.008415 0.000000 0.000000 0.000000
# 4 0.000000 0.000000 0.000000 0.026736 0.000000 0.000000
# 5 0.000000 0.000000 0.000000 0.000000 0.021185 0.000000
# 6 0.000000 0.000000 0.000000 0.000000 0.000000 0.020400
#
#
# Mechanical properties :
#
#
# Convention : Reuss Voigt Hill
#
# Bulk Modulus (GPa) = 37.80345 45.76061 41.78203
# Shear Modulus (GPa) = 37.12931 41.41173 39.27052
#
# Velocity S-wave (km/s) = 4.14493 4.37745 4.26277
# Velocity P-wave (km/s) = 6.35608 6.83547 6.60013
#
# Compressibility (1/GPa) = 0.02645261
#
# Stress axis : x y z
#
# Youngs Moduli (GPa) = 94.61671 43.46851 118.83523
#
# Poissons Ratio (x) = 0.11958 0.17144
# Poissons Ratio (y) = 0.26028 0.42481
# Poissons Ratio (z) = 0.13650 0.15539
#
# Static dielectric constant tensor:
#      x y z
#    x 4.010980 0.000000 0.000000 
#    y 0.000000 4.049230 0.000000 
#    z 0.000000 0.000000 4.363490 
# 
# 
# High freq. dielectric constant tensor:
#      x y z
#    x 1.867900 0.000000 0.000000 
#    y 0.000000 1.858070 0.000000 
#    z 0.000000 0.000000 1.865940 
# 
# From -- ./inp_files/19930.got.cif
#   From: 2010.06.25/outbox.cif.g09.slc.cpg/sg58_10_cif.got.tgz:19930.got - 2010.06.26 21:38:00.
