data_PCOD8238545
_publ_section_title
;
Structure prediction by ZEFSAII (Michael W. Deem and Ramdas Pophale) SiO2 
 PCOD8238545
Probable space group: P N N M
;
_chemical_formula_sum "Si O2"
_cell_formula_units_Z 36
_cell_length_a 12.204568
_cell_length_b 5.158414
_cell_length_c 23.819827
_cell_angle_alpha 90.000000
_cell_angle_beta 90.000000
_cell_angle_gamma 90.000000
_cell_volume 1499.606136
_symmetry_space_group_name_H-M "P N N M"
_symmetry_group_IT_number 58
_symmetry_cell_setting 'orthorhombic'
loop_
_space_group_symop_operation_xyz
x,y,z
-x,-y,z
1/2+x,1/2-y,1/2-z
1/2-x,1/2+y,1/2-z
-x,-y,-z
x,y,-z
1/2-x,1/2+y,1/2+z
1/2+x,1/2-y,1/2+z
loop_
_atom_site_type_symbol
_atom_site_label
_atom_site_fract_x
_atom_site_fract_y
_atom_site_fract_z
Si Si1 0.215084 0.858386 0.217924
Si Si2 0.099391 0.311190 0.939009
Si Si3 0.886648 0.575142 0.374306
Si Si4 0.159980 0.927709 0.437317
Si Si5 0.500000 0.500000 0.340328
O O1 0.239232 0.074010 0.265790
O O2 0.284803 0.958069 0.165970
O O3 0.085464 0.845031 0.200426
O O4 0.209883 0.473751 0.929811
O O5 0.000000 0.500000 0.946149
O O6 0.079691 0.154250 0.882071
O O7 0.109252 0.156647 0.000000
O O8 0.869592 0.369085 0.424119
O O9 0.000000 0.500000 0.342566
O O10 0.900353 0.864987 0.397967
O O11 0.121319 0.985889 0.500000
#
# Coordination Sequence:
#
# PCOD8238545 Si02
#       5
#     8   8   8   8   4
#     4  12  30  49  73 104 135 186 246 300 359 415
#     4  10  22  40  71 110 147 185 232 292 367 445
#     4  12  26  47  72 100 146 187 240 295 350 420
#     4  11  24  44  70 109 147 186 233 285 354 441
#     4  12  25  46  80  96 148 182 241 298 374 430
#
# _framework density 24.006302000000002
#
# number of rings (size 3 to 8) (size 9 to 14) (size 15 to 20)
#    0.000    0.667    2.222    4.333    6.222    2.667 
#    0.000    0.000    0.000    0.000    0.000    0.000 
#    0.000    0.000    0.000    0.000    0.000    0.000 
#
# Total GULP energy -446108.166774 kJ/mol
# GULP energy per Si atom -12391.893522 kJ/mol
# Density = 2.395166 g / cm^3
# Si number density = 24.006302 Si / 1000 Ang^3
#
#
#
# Elastic Constant Matrix: (Units=GPa)
#
#
# Indices 1 2 3 4 5 6 
#
# 1 95.4192 9.0718 20.0924 0.0000 0.0000 0.0000
# 2 9.0718 94.1821 18.0369 0.0000 0.0000 0.0000
# 3 20.0924 18.0369 85.1045 0.0000 0.0000 0.0000
# 4 0.0000 0.0000 0.0000 33.3108 0.0000 0.0000
# 5 0.0000 0.0000 0.0000 0.0000 29.6418 0.0000
# 6 0.0000 0.0000 0.0000 0.0000 0.0000 33.9210
#
#
#
# Elastic Compliance Matrix: (Units=1/GPa)
#
#
# Indices 1 2 3 4 5 6 
#
# 1 0.011060 -0.000589 -0.002486 0.000000 0.000000 0.000000
# 2 -0.000589 0.011098 -0.002213 0.000000 0.000000 0.000000
# 3 -0.002486 -0.002213 0.012806 0.000000 0.000000 0.000000
# 4 0.000000 0.000000 0.000000 0.030020 0.000000 0.000000
# 5 0.000000 0.000000 0.000000 0.000000 0.033736 0.000000
# 6 0.000000 0.000000 0.000000 0.000000 0.000000 0.029480
#
#
# Mechanical properties :
#
#
# Convention : Reuss Voigt Hill
#
# Bulk Modulus (GPa) = 41.00490 41.01200 41.00845
# Shear Modulus (GPa) = 34.03518 34.54170 34.28844
#
# Velocity S-wave (km/s) = 3.76940 3.79735 3.78340
# Velocity P-wave (km/s) = 6.00520 6.02888 6.01705
#
# Compressibility (1/GPa) = 0.02438733
#
# Stress axis : x y z
#
# Youngs Moduli (GPa) = 90.41918 90.10387 78.08684
#
# Poissons Ratio (x) = 0.05308 0.19414
# Poissons Ratio (y) = 0.05327 0.17281
# Poissons Ratio (z) = 0.22480 0.19941
#
# Static dielectric constant tensor:
#      x y z
#    x 4.623010 0.000000 0.000000 
#    y 0.000000 3.730530 0.000000 
#    z 0.000000 0.000000 4.698150 
# 
# 
# High freq. dielectric constant tensor:
#      x y z
#    x 1.981930 0.000000 0.000000 
#    y 0.000000 1.931530 0.000000 
#    z 0.000000 0.000000 1.952510 
# 
# From -- ./inp_files/31807.got.cif
#   From: 2010.06.25/outbox.cif.g09.slc.cpg/sg58_16_cif.got.tgz:31807.got - 2010.06.26 21:38:00.
