data_PCOD8238782
_publ_section_title
;
Structure prediction by ZEFSAII (Michael W. Deem and Ramdas Pophale) SiO2 
 PCOD8238782
Probable space group: P N N M
;
_chemical_formula_sum "Si O2"
_cell_formula_units_Z 36
_cell_length_a 15.595055
_cell_length_b 6.208112
_cell_length_c 18.892849
_cell_angle_alpha 90.000000
_cell_angle_beta 90.000000
_cell_angle_gamma 90.000000
_cell_volume 1829.127199
_symmetry_space_group_name_H-M "P N N M"
_symmetry_group_IT_number 58
_symmetry_cell_setting 'orthorhombic'
loop_
_space_group_symop_operation_xyz
x,y,z
-x,-y,z
1/2+x,1/2-y,1/2-z
1/2-x,1/2+y,1/2-z
-x,-y,-z
x,y,-z
1/2-x,1/2+y,1/2+z
1/2+x,1/2-y,1/2+z
loop_
_atom_site_type_symbol
_atom_site_label
_atom_site_fract_x
_atom_site_fract_y
_atom_site_fract_z
Si Si1 0.787813 0.788586 0.175790
Si Si2 0.000000 0.500000 0.746271
Si Si3 0.167144 0.363139 0.679000
Si Si4 0.218522 0.602248 0.081659
Si Si5 0.078833 0.864072 0.847494
O O1 0.776678 0.663429 0.249362
O O2 0.811750 0.626208 0.112681
O O3 0.699777 0.904300 0.151420
O O4 0.864173 0.957502 0.192100
O O5 0.934068 0.627879 0.695115
O O6 0.950717 0.324616 0.793980
O O7 0.194803 0.181550 0.622195
O O8 0.138022 0.764184 0.090745
O O9 0.241810 0.579560 0.000000
O O10 0.000000 0.000000 0.880744
#
# Coordination Sequence:
#
# PCOD8238782 Si02
#       5
#     8   4   8   8   8
#     4  11  20  38  65  90 121 162 212 253 308 374
#     4  12  22  38  64 104 124 156 214 274 306 366
#     4  11  21  37  66  92 120 164 214 262 307 370
#     4  11  25  42  60  91 132 170 209 259 316 376
#     4  11  21  37  65  95 128 159 206 256 319 369
#
# _framework density 19.681516999999999
#
# number of rings (size 3 to 8) (size 9 to 14) (size 15 to 20)
#    0.000    0.889    6.667    1.333    0.000    4.000 
#    0.000    4.444    0.000    1.333    0.000    0.000 
#    0.000    0.000    0.000    0.000    0.000    0.000 
#
# Total GULP energy -446180.670639 kJ/mol
# GULP energy per Si atom -12393.907518 kJ/mol
# Density = 1.963672 g / cm^3
# Si number density = 19.681517 Si / 1000 Ang^3
#
#
#
# Elastic Constant Matrix: (Units=GPa)
#
#
# Indices 1 2 3 4 5 6 
#
# 1 95.7955 35.3325 38.1462 0.0000 0.0000 0.0000
# 2 35.3325 102.4944 45.6409 0.0000 0.0000 0.0000
# 3 38.1462 45.6409 123.6591 0.0000 0.0000 0.0000
# 4 0.0000 0.0000 0.0000 16.6842 0.0000 0.0000
# 5 0.0000 0.0000 0.0000 0.0000 16.4748 0.0000
# 6 0.0000 0.0000 0.0000 0.0000 0.0000 33.8441
#
#
#
# Elastic Compliance Matrix: (Units=1/GPa)
#
#
# Indices 1 2 3 4 5 6 
#
# 1 0.012698 -0.003151 -0.002754 0.000000 0.000000 0.000000
# 2 -0.003151 0.012457 -0.003626 0.000000 0.000000 0.000000
# 3 -0.002754 -0.003626 0.010275 0.000000 0.000000 0.000000
# 4 0.000000 0.000000 0.000000 0.059937 0.000000 0.000000
# 5 0.000000 0.000000 0.000000 0.000000 0.060699 0.000000
# 6 0.000000 0.000000 0.000000 0.000000 0.000000 0.029547
#
#
# Mechanical properties :
#
#
# Convention : Reuss Voigt Hill
#
# Bulk Modulus (GPa) = 61.09429 62.24313 61.66871
# Shear Modulus (GPa) = 23.79475 26.92257 25.35866
#
# Velocity S-wave (km/s) = 3.48082 3.70254 3.59339
# Velocity P-wave (km/s) = 6.87486 7.06910 6.97266
#
# Compressibility (1/GPa) = 0.01636814
#
# Stress axis : x y z
#
# Youngs Moduli (GPa) = 78.75431 80.27340 97.32760
#
# Poissons Ratio (x) = 0.25293 0.26804
# Poissons Ratio (y) = 0.24814 0.35290
# Poissons Ratio (z) = 0.21689 0.29106
#
# Static dielectric constant tensor:
#      x y z
#    x 3.653650 0.000000 0.000000 
#    y 0.000000 3.952310 0.000000 
#    z 0.000000 0.000000 3.101060 
# 
# 
# High freq. dielectric constant tensor:
#      x y z
#    x 1.763430 0.000000 0.000000 
#    y 0.000000 1.792610 0.000000 
#    z 0.000000 0.000000 1.718100 
# 
# From -- ./inp_files/28012.got.cif
#   From: 2010.06.25/outbox.cif.g09.slc.cpg/sg58_15_cif.got.tgz:28012.got - 2010.06.26 21:38:00.
