data_PCOD8238454
_publ_section_title
;
Structure prediction by ZEFSAII (Michael W. Deem and Ramdas Pophale) SiO2 
 PCOD8238454
Probable space group: P N N M
;
_chemical_formula_sum "Si O2"
_cell_formula_units_Z 48
_cell_length_a 30.187645
_cell_length_b 8.998401
_cell_length_c 9.123554
_cell_angle_alpha 90.000000
_cell_angle_beta 90.000000
_cell_angle_gamma 90.000000
_cell_volume 2478.327089
_symmetry_space_group_name_H-M "P N N M"
_symmetry_group_IT_number 58
_symmetry_cell_setting 'orthorhombic'
loop_
_space_group_symop_operation_xyz
x,y,z
-x,-y,z
1/2+x,1/2-y,1/2-z
1/2-x,1/2+y,1/2-z
-x,-y,-z
x,y,-z
1/2-x,1/2+y,1/2+z
1/2+x,1/2-y,1/2+z
loop_
_atom_site_type_symbol
_atom_site_label
_atom_site_fract_x
_atom_site_fract_y
_atom_site_fract_z
Si Si1 0.700861 0.166254 0.170334
Si Si2 0.869474 0.170561 0.827526
Si Si3 0.376417 0.666146 0.673374
Si Si4 0.054157 0.658465 0.669235
Si Si5 0.452750 0.818159 0.169983
Si Si6 0.713814 0.862923 0.670069
O O1 0.657503 0.220212 0.253730
O O2 0.740382 0.279963 0.197919
O O3 0.715400 0.007976 0.231430
O O4 0.689451 0.149590 0.000000
O O5 0.913448 0.241545 0.762978
O O6 0.826073 0.258252 0.774378
O O7 0.864862 0.000493 0.775461
O O8 0.874322 0.177293 0.000000
O O9 0.373912 0.684929 0.500000
O O10 0.425505 0.705608 0.728807
O O11 0.065530 0.682481 0.500000
O O12 0.060356 0.486394 0.711559
O O13 0.004267 0.710019 0.702962
O O14 0.442241 0.787369 0.000000
O O15 0.707644 0.905468 0.500000
#
# Coordination Sequence:
#
# PCOD8238454 Si02
#       6
#     8   8   8   8   8   8
#     4  11  23  39  61  87 114 146 186 230 275 327
#     4  10  22  38  55  79 113 149 186 228 275 331
#     4  11  23  38  56  81 115 151 187 230 278 329
#     4   9  19  36  58  82 110 144 184 233 282 331
#     4   9  19  37  58  82 111 144 186 232 280 334
#     4  10  22  40  60  83 113 148 184 225 275 328
#
# _framework density 19.367903999999999
#
# number of rings (size 3 to 8) (size 9 to 14) (size 15 to 20)
#    0.000    2.000    0.000    4.000    0.000    9.333 
#    0.000    5.000    0.000    0.000    0.000    0.000 
#    0.000    0.000    0.000    0.000    0.000    0.000 
#
# Total GULP energy -595419.674415 kJ/mol
# GULP energy per Si atom -12404.576550 kJ/mol
# Density = 1.932382 g / cm^3
# Si number density = 19.367904 Si / 1000 Ang^3
#
#
#
# Elastic Constant Matrix: (Units=GPa)
#
#
# Indices 1 2 3 4 5 6 
#
# 1 71.5757 8.8280 21.3306 0.0000 0.0000 0.0000
# 2 8.8280 59.4984 27.4967 0.0000 0.0000 0.0000
# 3 21.3306 27.4967 45.6498 0.0000 0.0000 0.0000
# 4 0.0000 0.0000 0.0000 35.1074 0.0000 0.0000
# 5 0.0000 0.0000 0.0000 0.0000 32.8453 0.0000
# 6 0.0000 0.0000 0.0000 0.0000 0.0000 28.7121
#
#
#
# Elastic Compliance Matrix: (Units=1/GPa)
#
#
# Indices 1 2 3 4 5 6 
#
# 1 0.016331 0.001529 -0.008552 0.000000 0.000000 0.000000
# 2 0.001529 0.023434 -0.014830 0.000000 0.000000 0.000000
# 3 -0.008552 -0.014830 0.034834 0.000000 0.000000 0.000000
# 4 0.000000 0.000000 0.000000 0.028484 0.000000 0.000000
# 5 0.000000 0.000000 0.000000 0.000000 0.030446 0.000000
# 6 0.000000 0.000000 0.000000 0.000000 0.000000 0.034829
#
#
# Mechanical properties :
#
#
# Convention : Reuss Voigt Hill
#
# Bulk Modulus (GPa) = 32.36837 32.44827 32.40832
# Shear Modulus (GPa) = 22.48598 27.27087 24.87842
#
# Velocity S-wave (km/s) = 3.41103 3.75646 3.58791
# Velocity P-wave (km/s) = 5.67998 5.96697 5.82524
#
# Compressibility (1/GPa) = 0.03089435
#
# Stress axis : x y z
#
# Youngs Moduli (GPa) = 61.23226 42.67369 28.70720
#
# Poissons Ratio (x) = -0.06526 0.24551
# Poissons Ratio (y) = -0.09363 0.42572
# Poissons Ratio (z) = 0.52367 0.63283
#
# Static dielectric constant tensor:
#      x y z
#    x 3.585810 0.000000 0.000000 
#    y 0.000000 3.597060 0.000000 
#    z 0.000000 0.000000 3.447050 
# 
# 
# High freq. dielectric constant tensor:
#      x y z
#    x 1.768240 0.000000 0.000000 
#    y 0.000000 1.759730 0.000000 
#    z 0.000000 0.000000 1.750260 
# 
# From -- ./inp_files/2856.got.cif
#   From: 2010.06.25/outbox.cif.g09.slc.cpg/sg58_2_cif.got.tgz:2856.got - 2010.06.26 21:38:00.
