data_PCOD8238236
_publ_section_title
;
Structure prediction by ZEFSAII (Michael W. Deem and Ramdas Pophale) SiO2 
 PCOD8238236
Probable space group: P N N M
;
_chemical_formula_sum "Si O2"
_cell_formula_units_Z 48
_cell_length_a 10.039795
_cell_length_b 27.715017
_cell_length_c 8.337357
_cell_angle_alpha 90.000000
_cell_angle_beta 90.000000
_cell_angle_gamma 90.000000
_cell_volume 2319.895340
_symmetry_space_group_name_H-M "P N N M"
_symmetry_group_IT_number 58
_symmetry_cell_setting 'orthorhombic'
loop_
_space_group_symop_operation_xyz
x,y,z
-x,-y,z
1/2+x,1/2-y,1/2-z
1/2-x,1/2+y,1/2-z
-x,-y,-z
x,y,-z
1/2-x,1/2+y,1/2+z
1/2+x,1/2-y,1/2+z
loop_
_atom_site_type_symbol
_atom_site_label
_atom_site_fract_x
_atom_site_fract_y
_atom_site_fract_z
Si Si1 0.902214 0.542746 0.188755
Si Si2 0.233081 0.682761 0.814052
Si Si3 0.537490 0.146719 0.816886
Si Si4 0.012938 0.856812 0.309628
Si Si5 0.758600 0.212877 0.314266
Si Si6 0.599943 0.540029 0.190182
O O1 0.751948 0.528213 0.238822
O O2 0.000000 0.500000 0.243073
O O3 0.946989 0.590629 0.278760
O O4 0.912385 0.552587 0.000000
O O5 0.114017 0.662404 0.708551
O O6 0.364462 0.655123 0.752468
O O7 0.255793 0.739516 0.791363
O O8 0.205646 0.671746 0.000000
O O9 0.629801 0.179104 0.703429
O O10 0.577457 0.156380 0.000000
O O11 0.022858 0.858257 0.500000
O O12 0.113016 0.815633 0.247200
O O13 0.057831 0.908213 0.237292
O O14 0.774587 0.227181 0.500000
O O15 0.500000 0.500000 0.263080
O O16 0.585182 0.541103 0.000000
#
# Coordination Sequence:
#
# PCOD8238236 Si02
#       6
#     8   8   8   8   8   8
#     4  10  21  38  64  93 118 153 204 259 316 374
#     4  11  23  38  61  93 124 159 205 255 307 370
#     4  12  25  41  60  87 127 172 210 249 303 366
#     4   9  19  35  58  87 119 151 192 248 308 362
#     4  11  21  40  65  90 122 159 203 257 312 369
#     4   9  17  32  58  90 118 145 185 243 307 368
#
# _framework density 20.690588999999999
#
# number of rings (size 3 to 8) (size 9 to 14) (size 15 to 20)
#    0.000    1.667    1.667    3.500    2.333    1.667 
#    0.000    2.500    0.000    0.500    0.000    0.000 
#    0.000    0.000    0.000    0.000    0.000    0.000 
#
# Total GULP energy -595400.358110 kJ/mol
# GULP energy per Si atom -12404.174127 kJ/mol
# Density = 2.064350 g / cm^3
# Si number density = 20.690589 Si / 1000 Ang^3
#
#
#
# Elastic Constant Matrix: (Units=GPa)
#
#
# Indices 1 2 3 4 5 6 
#
# 1 140.3571 58.8656 11.8171 0.0000 0.0000 0.0000
# 2 58.8656 122.4573 12.7245 0.0000 0.0000 0.0000
# 3 11.8171 12.7245 38.4952 0.0000 0.0000 0.0000
# 4 0.0000 0.0000 0.0000 18.9557 0.0000 0.0000
# 5 0.0000 0.0000 0.0000 0.0000 17.3016 0.0000
# 6 0.0000 0.0000 0.0000 0.0000 0.0000 46.9329
#
#
#
# Elastic Compliance Matrix: (Units=1/GPa)
#
#
# Indices 1 2 3 4 5 6 
#
# 1 0.008994 -0.004180 -0.001379 0.000000 0.000000 0.000000
# 2 -0.004180 0.010399 -0.002154 0.000000 0.000000 0.000000
# 3 -0.001379 -0.002154 0.027113 0.000000 0.000000 0.000000
# 4 0.000000 0.000000 0.000000 0.052755 0.000000 0.000000
# 5 0.000000 0.000000 0.000000 0.000000 0.057798 0.000000
# 6 0.000000 0.000000 0.000000 0.000000 0.000000 0.021307
#
#
# Mechanical properties :
#
#
# Convention : Reuss Voigt Hill
#
# Bulk Modulus (GPa) = 32.17624 52.01377 42.09500
# Shear Modulus (GPa) = 24.49147 31.16485 27.82816
#
# Velocity S-wave (km/s) = 3.44423 3.88523 3.67136
# Velocity P-wave (km/s) = 5.60374 6.73202 6.19363
#
# Compressibility (1/GPa) = 0.03107884
#
# Stress axis : x y z
#
# Youngs Moduli (GPa) = 111.18607 96.15987 36.88307
#
# Poissons Ratio (x) = 0.40196 0.05087
# Poissons Ratio (y) = 0.46477 0.07946
# Poissons Ratio (z) = 0.15335 0.20716
#
# Static dielectric constant tensor:
#      x y z
#    x 3.981340 0.000000 0.000000 
#    y 0.000000 3.894580 0.000000 
#    z 0.000000 0.000000 3.295700 
# 
# 
# High freq. dielectric constant tensor:
#      x y z
#    x 1.825660 0.000000 0.000000 
#    y 0.000000 1.819020 0.000000 
#    z 0.000000 0.000000 1.773950 
# 
# From -- ./inp_files/2946.got.cif
#   From: 2010.06.25/outbox.cif.g09.slc.cpg/sg58_2_cif.got.tgz:2946.got - 2010.06.26 21:38:00.
