data_PCOD8238069
_publ_section_title
;
Structure prediction by ZEFSAII (Michael W. Deem and Ramdas Pophale) SiO2 
 PCOD8238069
Probable space group: P N N M
;
_chemical_formula_sum "Si O2"
_cell_formula_units_Z 64
_cell_length_a 14.309954
_cell_length_b 22.307204
_cell_length_c 9.024400
_cell_angle_alpha 90.000000
_cell_angle_beta 90.000000
_cell_angle_gamma 90.000000
_cell_volume 2880.724416
_symmetry_space_group_name_H-M "P N N M"
_symmetry_group_IT_number 58
_symmetry_cell_setting 'orthorhombic'
loop_
_space_group_symop_operation_xyz
x,y,z
-x,-y,z
1/2+x,1/2-y,1/2-z
1/2-x,1/2+y,1/2-z
-x,-y,-z
x,y,-z
1/2-x,1/2+y,1/2+z
1/2+x,1/2-y,1/2+z
loop_
_atom_site_type_symbol
_atom_site_label
_atom_site_fract_x
_atom_site_fract_y
_atom_site_fract_z
Si Si1 0.860886 0.969128 0.826017
Si Si2 0.169309 0.534938 0.831542
Si Si3 0.697797 0.272740 0.323454
Si Si4 0.537490 0.204470 0.823490
Si Si5 0.872117 0.593884 0.169454
Si Si6 0.142388 0.666756 0.172027
Si Si7 0.313271 0.342592 0.165709
Si Si8 0.543324 0.589256 0.327022
O O1 0.761465 0.954898 0.761549
O O2 0.932924 0.914490 0.787800
O O3 0.904914 0.030380 0.763020
O O4 0.849968 0.975076 0.000000
O O5 0.109738 0.475810 0.783523
O O6 0.110372 0.596524 0.814740
O O7 0.200445 0.524579 0.000000
O O8 0.686080 0.282817 0.500000
O O9 0.596479 0.258720 0.251634
O O10 0.753904 0.327273 0.246119
O O11 0.761585 0.216460 0.279352
O O12 0.576534 0.138944 0.779964
O O13 0.431618 0.207680 0.761496
O O14 0.537866 0.211796 0.000000
O O15 0.760128 0.602682 0.181692
O O16 0.905478 0.607601 0.000000
O O17 0.146106 0.686210 0.000000
O O18 0.407913 0.352682 0.257496
O O19 0.348163 0.334029 0.000000
O O20 0.557815 0.593441 0.500000
#
# Coordination Sequence:
#
# PCOD8238069 Si02
#       8
#     8   8   8   8   8   8   8   8
#     4   9  18  31  47  74 114 155 193 238 291 352
#     4  10  21  37  58  84 119 160 202 248 304 368
#     4  10  22  43  66  89 119 156 200 253 308 364
#     4  11  23  41  67  96 124 159 204 256 309 367
#     4   9  18  35  58  87 122 158 197 243 300 360
#     4  11  24  43  65  91 123 162 205 254 312 373
#     4   9  17  31  55  82 109 144 191 242 290 347
#     4   9  17  29  47  75 112 151 191 237 290 349
#
# _framework density 22.216633000000002
#
# number of rings (size 3 to 8) (size 9 to 14) (size 15 to 20)
#    0.000    2.250    1.250    3.375    0.000    5.000 
#    2.250    3.750    0.000    0.000    0.000    0.000 
#    0.000    0.000    0.000    0.000    0.000    0.000 
#
# Total GULP energy -793266.143353 kJ/mol
# GULP energy per Si atom -12394.783490 kJ/mol
# Density = 2.216607 g / cm^3
# Si number density = 22.216633 Si / 1000 Ang^3
#
#
#
# Elastic Constant Matrix: (Units=GPa)
#
#
# Indices 1 2 3 4 5 6 
#
# 1 60.1641 -11.7339 23.9010 0.0000 0.0000 0.0000
# 2 -11.7339 43.4336 10.7713 0.0000 0.0000 0.0000
# 3 23.9010 10.7713 90.5543 0.0000 0.0000 0.0000
# 4 0.0000 0.0000 0.0000 11.0624 0.0000 0.0000
# 5 0.0000 0.0000 0.0000 0.0000 28.1626 0.0000
# 6 0.0000 0.0000 0.0000 0.0000 0.0000 27.9899
#
#
#
# Elastic Compliance Matrix: (Units=1/GPa)
#
#
# Indices 1 2 3 4 5 6 
#
# 1 0.020486 0.007084 -0.006250 0.000000 0.000000 0.000000
# 2 0.007084 0.026173 -0.004983 0.000000 0.000000 0.000000
# 3 -0.006250 -0.004983 0.013285 0.000000 0.000000 0.000000
# 4 0.000000 0.000000 0.000000 0.090396 0.000000 0.000000
# 5 0.000000 0.000000 0.000000 0.000000 0.035508 0.000000
# 6 0.000000 0.000000 0.000000 0.000000 0.000000 0.035727
#
#
# Mechanical properties :
#
#
# Convention : Reuss Voigt Hill
#
# Bulk Modulus (GPa) = 19.36214 26.66988 23.01601
# Shear Modulus (GPa) = 20.23566 24.85721 22.54644
#
# Velocity S-wave (km/s) = 3.02128 3.34856 3.18912
# Velocity P-wave (km/s) = 4.57219 5.19432 4.89315
#
# Compressibility (1/GPa) = 0.05164718
#
# Stress axis : x y z
#
# Youngs Moduli (GPa) = 48.81477 38.20688 75.27070
#
# Poissons Ratio (x) = -0.27067 0.47042
# Poissons Ratio (y) = -0.34581 0.37508
# Poissons Ratio (z) = 0.30508 0.19039
#
# Static dielectric constant tensor:
#      x y z
#    x 3.963650 0.000000 0.000000 
#    y 0.000000 4.131370 0.000000 
#    z 0.000000 0.000000 3.732400 
# 
# 
# High freq. dielectric constant tensor:
#      x y z
#    x 1.872470 0.000000 0.000000 
#    y 0.000000 1.873780 0.000000 
#    z 0.000000 0.000000 1.856840 
# 
# From -- ./inp_files/6896.got.cif
#   From: 2010.06.25/outbox.cif.g09.slc.cpg/sg58_4_cif.got.tgz:6896.got - 2010.06.26 21:38:00.
