data_PCOD8238343
_publ_section_title
;
Structure prediction by ZEFSAII (Michael W. Deem and Ramdas Pophale) SiO2 
 PCOD8238343
Probable space group: P N N M
;
_chemical_formula_sum "Si O2"
_cell_formula_units_Z 64
_cell_length_a 30.329437
_cell_length_b 11.783642
_cell_length_c 9.024580
_cell_angle_alpha 90.000000
_cell_angle_beta 90.000000
_cell_angle_gamma 90.000000
_cell_volume 3225.305725
_symmetry_space_group_name_H-M "P N N M"
_symmetry_group_IT_number 58
_symmetry_cell_setting 'orthorhombic'
loop_
_space_group_symop_operation_xyz
x,y,z
-x,-y,z
1/2+x,1/2-y,1/2-z
1/2-x,1/2+y,1/2-z
-x,-y,-z
x,y,-z
1/2-x,1/2+y,1/2+z
1/2+x,1/2-y,1/2+z
loop_
_atom_site_type_symbol
_atom_site_label
_atom_site_fract_x
_atom_site_fract_y
_atom_site_fract_z
Si Si1 0.624117 0.136501 0.327904
Si Si2 0.451359 0.253571 0.173922
Si Si3 0.337718 0.494036 0.330395
Si Si4 0.038158 0.220013 0.826063
Si Si5 0.130648 0.601494 0.675055
Si Si6 0.289793 0.719024 0.668122
Si Si7 0.200711 0.752896 0.173862
Si Si8 0.426763 0.508135 0.826190
O O1 0.623081 0.101535 0.500000
O O2 0.581060 0.207779 0.284187
O O3 0.666594 0.211419 0.289836
O O4 0.624550 0.026221 0.226977
O O5 0.495376 0.215867 0.260623
O O6 0.411623 0.173528 0.227570
O O7 0.439577 0.381380 0.220048
O O8 0.459759 0.240892 0.000000
O O9 0.354838 0.491986 0.500000
O O10 0.298772 0.585178 0.313053
O O11 0.319835 0.372804 0.278707
O O12 0.377196 0.532265 0.225288
O O13 0.040413 0.095778 0.752424
O O14 0.033037 0.204917 0.000000
O O15 0.136220 0.605855 0.500000
O O16 0.174893 0.652238 0.745506
O O17 0.275255 0.746117 0.500000
O O18 0.251441 0.754260 0.778985
O O19 0.197702 0.732571 0.000000
O O20 0.430692 0.527688 0.000000
#
# Coordination Sequence:
#
# PCOD8238343 Si02
#       8
#     8   8   8   8   8   8   8   8
#     4  10  23  43  63  88 122 159 204 255 303 357
#     4  10  23  41  60  89 124 159 201 249 303 361
#     4  10  21  40  64  90 123 160 200 250 302 357
#     4  11  23  40  63  91 123 159 202 250 306 362
#     4  11  24  43  64  87 122 164 205 249 304 363
#     4  10  22  42  64  88 125 163 199 251 306 358
#     4  11  24  40  63  95 125 157 205 253 301 362
#     4  11  21  37  62  91 126 160 199 249 300 360
#
# _framework density 19.84308
#
# number of rings (size 3 to 8) (size 9 to 14) (size 15 to 20)
#    0.000    1.500    2.500    1.875    1.750    6.500 
#    0.000    2.500    0.000    0.000    0.000    0.000 
#    0.000    0.000    0.000    0.000    0.000    0.000 
#
# Total GULP energy -794005.298917 kJ/mol
# GULP energy per Si atom -12406.332796 kJ/mol
# Density = 1.979792 g / cm^3
# Si number density = 19.843080 Si / 1000 Ang^3
#
#
#
# Elastic Constant Matrix: (Units=GPa)
#
#
# Indices 1 2 3 4 5 6 
#
# 1 118.4880 29.6919 44.5634 0.0000 0.0000 0.0000
# 2 29.6919 95.7190 40.3414 0.0000 0.0000 0.0000
# 3 44.5634 40.3414 69.2703 0.0000 0.0000 0.0000
# 4 0.0000 0.0000 0.0000 29.5025 0.0000 0.0000
# 5 0.0000 0.0000 0.0000 0.0000 40.7341 0.0000
# 6 0.0000 0.0000 0.0000 0.0000 0.0000 22.8348
#
#
#
# Elastic Compliance Matrix: (Units=1/GPa)
#
#
# Indices 1 2 3 4 5 6 
#
# 1 0.011158 -0.000578 -0.006842 0.000000 0.000000 0.000000
# 2 -0.000578 0.013875 -0.007709 0.000000 0.000000 0.000000
# 3 -0.006842 -0.007709 0.023327 0.000000 0.000000 0.000000
# 4 0.000000 0.000000 0.000000 0.033895 0.000000 0.000000
# 5 0.000000 0.000000 0.000000 0.000000 0.024549 0.000000
# 6 0.000000 0.000000 0.000000 0.000000 0.000000 0.043793
#
#
# Mechanical properties :
#
#
# Convention : Reuss Voigt Hill
#
# Bulk Modulus (GPa) = 55.23778 56.96341 56.10059
# Shear Modulus (GPa) = 26.75386 29.87301 28.31344
#
# Velocity S-wave (km/s) = 3.67587 3.88424 3.78149
# Velocity P-wave (km/s) = 6.77597 6.99183 6.88474
#
# Compressibility (1/GPa) = 0.01810355
#
# Stress axis : x y z
#
# Youngs Moduli (GPa) = 89.62555 72.06953 42.86847
#
# Poissons Ratio (x) = 0.04163 0.29329
# Poissons Ratio (y) = 0.05177 0.33048
# Poissons Ratio (z) = 0.61318 0.55559
#
# Static dielectric constant tensor:
#      x y z
#    x 3.661090 0.000000 0.000000 
#    y 0.000000 3.637720 0.000000 
#    z 0.000000 0.000000 3.539700 
# 
# 
# High freq. dielectric constant tensor:
#      x y z
#    x 1.783590 0.000000 0.000000 
#    y 0.000000 1.776740 0.000000 
#    z 0.000000 0.000000 1.773610 
# 
# From -- ./inp_files/11052.got.cif
#   From: 2010.06.25/outbox.cif.g09.slc.cpg/sg58_6_cif.got.tgz:11052.got - 2010.06.26 21:38:00.
