data_PCOD8238195
_publ_section_title
;
Structure prediction by ZEFSAII (Michael W. Deem and Ramdas Pophale) SiO2 
 PCOD8238195
Probable space group: P N N M
;
_chemical_formula_sum "Si O2"
_cell_formula_units_Z 64
_cell_length_a 30.885110
_cell_length_b 12.034448
_cell_length_c 8.649809
_cell_angle_alpha 90.000000
_cell_angle_beta 90.000000
_cell_angle_gamma 90.000000
_cell_volume 3215.006423
_symmetry_space_group_name_H-M "P N N M"
_symmetry_group_IT_number 58
_symmetry_cell_setting 'orthorhombic'
loop_
_space_group_symop_operation_xyz
x,y,z
-x,-y,z
1/2+x,1/2-y,1/2-z
1/2-x,1/2+y,1/2-z
-x,-y,-z
x,y,-z
1/2-x,1/2+y,1/2+z
1/2+x,1/2-y,1/2+z
loop_
_atom_site_type_symbol
_atom_site_label
_atom_site_fract_x
_atom_site_fract_y
_atom_site_fract_z
Si Si1 0.197980 0.989123 0.180254
Si Si2 0.550663 0.517035 0.177203
Si Si3 0.206787 0.528371 0.318095
Si Si4 0.627592 0.104216 0.317114
Si Si5 0.454191 0.031444 0.678597
Si Si6 0.328571 0.264348 0.822986
Si Si7 0.880501 0.859694 0.183802
Si Si8 0.916746 0.236939 0.823475
O O1 0.245520 0.007012 0.253085
O O2 0.161739 0.073605 0.246812
O O3 0.184528 0.863594 0.211414
O O4 0.201278 0.011568 0.000000
O O5 0.500000 0.500000 0.194479
O O6 0.576602 0.409479 0.236998
O O7 0.561526 0.620778 0.284706
O O8 0.563663 0.540969 0.000000
O O9 0.204642 0.507069 0.500000
O O10 0.172529 0.445537 0.242438
O O11 0.198138 0.656036 0.276591
O O12 0.628552 0.093824 0.500000
O O13 0.623844 0.232003 0.264130
O O14 0.586643 0.035164 0.247714
O O15 0.455769 0.996082 0.500000
O O16 0.450565 0.163602 0.699400
O O17 0.500000 0.000000 0.758801
O O18 0.378454 0.236770 0.794677
O O19 0.320773 0.298980 0.000000
O O20 0.885226 0.871375 0.000000
O O21 0.899644 0.233513 0.000000
#
# Coordination Sequence:
#
# PCOD8238195 Si02
#       8
#     8   8   8   8   8   8   8   8
#     4  10  22  40  59  85 118 155 199 245 292 344
#     4  11  25  42  60  86 122 158 196 243 295 352
#     4  10  23  40  59  86 122 158 194 242 298 355
#     4  10  21  38  61  87 118 156 198 242 292 349
#     4   9  19  35  57  88 120 150 193 247 293 340
#     4  11  22  38  62  88 118 155 196 244 300 352
#     4  10  22  39  62  87 116 154 199 247 292 346
#     4  11  21  37  64  90 117 153 198 248 293 347
#
# _framework density 19.906648000000001
#
# number of rings (size 3 to 8) (size 9 to 14) (size 15 to 20)
#    0.000    1.750    2.500    1.125    3.500    2.500 
#    0.000    0.000    0.000    1.875    0.000    0.000 
#    0.000    0.000    0.000    0.000    0.000    0.000 
#
# Total GULP energy -793630.321006 kJ/mol
# GULP energy per Si atom -12400.473766 kJ/mol
# Density = 1.986134 g / cm^3
# Si number density = 19.906648 Si / 1000 Ang^3
#
#
#
# Elastic Constant Matrix: (Units=GPa)
#
#
# Indices 1 2 3 4 5 6 
#
# 1 123.6112 33.0587 24.2073 0.0000 0.0000 0.0000
# 2 33.0587 97.5143 33.6566 0.0000 0.0000 0.0000
# 3 24.2073 33.6566 22.1089 0.0000 0.0000 0.0000
# 4 0.0000 0.0000 0.0000 11.2743 0.0000 0.0000
# 5 0.0000 0.0000 0.0000 0.0000 5.3156 0.0000
# 6 0.0000 0.0000 0.0000 0.0000 0.0000 29.0455
#
#
#
# Elastic Compliance Matrix: (Units=1/GPa)
#
#
# Indices 1 2 3 4 5 6 
#
# 1 0.010331 0.000847 -0.012600 0.000000 0.000000 0.000000
# 2 0.000847 0.021678 -0.033927 0.000000 0.000000 0.000000
# 3 -0.012600 -0.033927 0.110674 0.000000 0.000000 0.000000
# 4 0.000000 0.000000 0.000000 0.088697 0.000000 0.000000
# 5 0.000000 0.000000 0.000000 0.000000 0.188126 0.000000
# 6 0.000000 0.000000 0.000000 0.000000 0.000000 0.034429
#
#
# Mechanical properties :
#
#
# Convention : Reuss Voigt Hill
#
# Bulk Modulus (GPa) = 19.48507 47.23105 33.35806
# Shear Modulus (GPa) = 8.89043 19.28120 14.08581
#
# Velocity S-wave (km/s) = 2.11560 3.11558 2.66295
# Velocity P-wave (km/s) = 3.97205 6.05972 5.12335
#
# Compressibility (1/GPa) = 0.05132135
#
# Stress axis : x y z
#
# Youngs Moduli (GPa) = 96.79566 46.13058 9.03556
#
# Poissons Ratio (x) = -0.03905 0.11385
# Poissons Ratio (y) = -0.08194 0.30655
# Poissons Ratio (z) = 1.21965 1.56507
#
# Static dielectric constant tensor:
#      x y z
#    x 3.946540 0.000000 0.000000 
#    y 0.000000 3.599710 0.000000 
#    z 0.000000 0.000000 3.425310 
# 
# 
# High freq. dielectric constant tensor:
#      x y z
#    x 1.788510 0.000000 0.000000 
#    y 0.000000 1.787720 0.000000 
#    z 0.000000 0.000000 1.752680 
# 
# From -- ./inp_files/10987.got.cif
#   From: 2010.06.25/outbox.cif.g09.slc.cpg/sg58_6_cif.got.tgz:10987.got - 2010.06.26 21:38:00.
