data_PCOD8238771
_publ_section_title
;
Structure prediction by ZEFSAII (Michael W. Deem and Ramdas Pophale) SiO2 
 PCOD8238771
Probable space group: P N N M
;
_chemical_formula_sum "Si O2"
_cell_formula_units_Z 56
_cell_length_a 15.277618
_cell_length_b 20.919681
_cell_length_c 8.949140
_cell_angle_alpha 90.000000
_cell_angle_beta 90.000000
_cell_angle_gamma 90.000000
_cell_volume 2860.171052
_symmetry_space_group_name_H-M "P N N M"
_symmetry_group_IT_number 58
_symmetry_cell_setting 'orthorhombic'
loop_
_space_group_symop_operation_xyz
x,y,z
-x,-y,z
1/2+x,1/2-y,1/2-z
1/2-x,1/2+y,1/2-z
-x,-y,-z
x,y,-z
1/2-x,1/2+y,1/2+z
1/2+x,1/2-y,1/2+z
loop_
_atom_site_type_symbol
_atom_site_label
_atom_site_fract_x
_atom_site_fract_y
_atom_site_fract_z
Si Si1 0.803593 0.337375 0.323370
Si Si2 0.366640 0.478750 0.165179
Si Si3 0.295138 0.017632 0.173022
Si Si4 0.937667 0.559447 0.834562
Si Si5 0.020933 0.104604 0.664426
Si Si6 0.002042 0.682189 0.676048
Si Si7 0.382402 0.712461 0.675252
O O1 0.794335 0.342599 0.500000
O O2 0.803801 0.410269 0.260599
O O3 0.717908 0.298273 0.263806
O O4 0.895772 0.302885 0.278579
O O5 0.301978 0.491642 0.301653
O O6 0.429443 0.538715 0.159276
O O7 0.420061 0.413453 0.200955
O O8 0.321763 0.472131 0.000000
O O9 0.349471 0.965477 0.262396
O O10 0.321138 0.016219 0.000000
O O11 0.982348 0.610780 0.727508
O O12 0.000000 0.500000 0.848192
O O13 0.919683 0.588436 0.000000
O O14 0.026492 0.138159 0.500000
O O15 0.059910 0.150226 0.790607
O O16 0.991537 0.686786 0.500000
O O17 0.930073 0.727957 0.748713
O O18 0.381062 0.724901 0.500000
#
# Coordination Sequence:
#
# PCOD8238771 Si02
#       7
#     8   8   8   8   8   8   8
#     4   9  20  38  62  87 116 154 196 241 301 359
#     4   9  18  33  54  84 120 155 196 245 295 350
#     4  11  20  35  60  89 117 153 196 240 296 359
#     4  11  23  39  61  91 121 151 189 246 308 355
#     4   9  18  34  56  83 117 158 197 240 299 357
#     4  11  23  43  65  87 117 159 203 248 304 367
#     4  11  22  40  62  89 121 158 205 256 303 358
#
# _framework density 19.579248
#
# number of rings (size 3 to 8) (size 9 to 14) (size 15 to 20)
#    0.000    1.857    2.857    2.571    0.000    1.143 
#    2.571    4.286    0.000    0.000    0.000    0.000 
#    0.000    0.000    0.000    0.000    0.000    0.000 
#
# Total GULP energy -693955.237711 kJ/mol
# GULP energy per Si atom -12392.057816 kJ/mol
# Density = 1.953468 g / cm^3
# Si number density = 19.579248 Si / 1000 Ang^3
#
#
#
# Elastic Constant Matrix: (Units=GPa)
#
#
# Indices 1 2 3 4 5 6 
#
# 1 119.8234 53.0221 38.9970 0.0000 0.0000 0.0000
# 2 53.0221 77.0229 30.8563 0.0000 0.0000 0.0000
# 3 38.9970 30.8563 67.2650 0.0000 0.0000 0.0000
# 4 0.0000 0.0000 0.0000 32.2384 0.0000 0.0000
# 5 0.0000 0.0000 0.0000 0.0000 34.1467 0.0000
# 6 0.0000 0.0000 0.0000 0.0000 0.0000 30.7373
#
#
#
# Elastic Compliance Matrix: (Units=1/GPa)
#
#
# Indices 1 2 3 4 5 6 
#
# 1 0.012890 -0.007203 -0.004169 0.000000 0.000000 0.000000
# 2 -0.007203 0.019932 -0.004967 0.000000 0.000000 0.000000
# 3 -0.004169 -0.004967 0.019562 0.000000 0.000000 0.000000
# 4 0.000000 0.000000 0.000000 0.031019 0.000000 0.000000
# 5 0.000000 0.000000 0.000000 0.000000 0.029285 0.000000
# 6 0.000000 0.000000 0.000000 0.000000 0.000000 0.032534
#
#
# Mechanical properties :
#
#
# Convention : Reuss Voigt Hill
#
# Bulk Modulus (GPa) = 50.74728 56.65134 53.69931
# Shear Modulus (GPa) = 27.10502 28.84021 27.97261
#
# Velocity S-wave (km/s) = 3.72476 3.84213 3.78390
# Velocity P-wave (km/s) = 6.66885 6.97709 6.82471
#
# Compressibility (1/GPa) = 0.01970549
#
# Stress axis : x y z
#
# Youngs Moduli (GPa) = 77.58118 50.17125 51.11993
#
# Poissons Ratio (x) = 0.36140 0.21309
# Poissons Ratio (y) = 0.55884 0.25392
# Poissons Ratio (z) = 0.32340 0.24921
#
# Static dielectric constant tensor:
#      x y z
#    x 3.865380 0.000000 0.000000 
#    y 0.000000 3.481270 0.000000 
#    z 0.000000 0.000000 3.603610 
# 
# 
# High freq. dielectric constant tensor:
#      x y z
#    x 1.771680 0.000000 0.000000 
#    y 0.000000 1.746140 0.000000 
#    z 0.000000 0.000000 1.751710 
# 
# From -- ./inp_files/6339.got.cif
#   From: 2010.06.25/outbox.cif.g09.slc.cpg/sg58_4_cif.got.tgz:6339.got - 2010.06.26 21:38:00.
