data_PCOD8238419
_publ_section_title
;
Structure prediction by ZEFSAII (Michael W. Deem and Ramdas Pophale) SiO2 
 PCOD8238419
Probable space group: P N N M
;
_chemical_formula_sum "Si O2"
_cell_formula_units_Z 56
_cell_length_a 14.442260
_cell_length_b 12.670906
_cell_length_c 14.350002
_cell_angle_alpha 90.000000
_cell_angle_beta 90.000000
_cell_angle_gamma 90.000000
_cell_volume 2626.000412
_symmetry_space_group_name_H-M "P N N M"
_symmetry_group_IT_number 58
_symmetry_cell_setting 'orthorhombic'
loop_
_space_group_symop_operation_xyz
x,y,z
-x,-y,z
1/2+x,1/2-y,1/2-z
1/2-x,1/2+y,1/2-z
-x,-y,-z
x,y,-z
1/2-x,1/2+y,1/2+z
1/2+x,1/2-y,1/2+z
loop_
_atom_site_type_symbol
_atom_site_label
_atom_site_fract_x
_atom_site_fract_y
_atom_site_fract_z
Si Si1 0.868559 0.935332 0.894555
Si Si2 0.478341 0.726420 0.720500
Si Si3 0.080887 0.574948 0.794971
Si Si4 0.769597 0.926315 0.391569
Si Si5 0.134385 0.910412 0.265650
Si Si6 0.163512 0.528039 0.397107
Si Si7 0.803662 0.693896 0.321647
O O1 0.926684 0.835275 0.861040
O O2 0.891123 0.038080 0.833851
O O3 0.759534 0.907433 0.883885
O O4 0.895674 0.962279 0.000000
O O5 0.553462 0.806415 0.676068
O O6 0.539668 0.652438 0.790594
O O7 0.403697 0.796585 0.774315
O O8 0.172694 0.537914 0.847645
O O9 0.093558 0.565809 0.682724
O O10 0.000000 0.500000 0.830230
O O11 0.772219 0.953065 0.500000
O O12 0.784109 0.802451 0.375248
O O13 0.847921 0.996939 0.340781
O O14 0.222895 0.832135 0.254081
O O15 0.121352 0.551335 0.500000
O O16 0.188023 0.403528 0.392467
#
# Coordination Sequence:
#
# PCOD8238419 Si02
#       7
#     8   8   8   8   8   8   8
#     4  10  22  41  69 100 127 164 221 278 331 390
#     4  12  23  39  70  99 135 171 215 275 338 394
#     4  12  23  43  68  95 137 175 217 282 340 397
#     4  12  25  45  69  95 134 184 230 272 332 409
#     4  11  23  43  70  94 136 178 217 274 341 385
#     4  10  21  42  70  96 128 173 220 272 334 397
#     4  11  21  43  67  96 133 173 220 274 329 398
#
# _framework density 21.325205
#
# number of rings (size 3 to 8) (size 9 to 14) (size 15 to 20)
#    0.000    0.857    7.143    0.857    0.000    2.857 
#    0.000    5.000    0.000    0.000    0.000    0.000 
#    0.000    0.000    0.000    0.000    0.000    0.000 
#
# Total GULP energy -694284.145848 kJ/mol
# GULP energy per Si atom -12397.931176 kJ/mol
# Density = 2.127667 g / cm^3
# Si number density = 21.325205 Si / 1000 Ang^3
#
#
#
# Elastic Constant Matrix: (Units=GPa)
#
#
# Indices 1 2 3 4 5 6 
#
# 1 90.8715 46.3684 36.7009 0.0000 0.0000 0.0000
# 2 46.3684 108.4543 40.9808 0.0000 0.0000 0.0000
# 3 36.7009 40.9808 111.9206 0.0000 0.0000 0.0000
# 4 0.0000 0.0000 0.0000 14.5157 0.0000 0.0000
# 5 0.0000 0.0000 0.0000 0.0000 17.2208 0.0000
# 6 0.0000 0.0000 0.0000 0.0000 0.0000 54.1621
#
#
#
# Elastic Compliance Matrix: (Units=1/GPa)
#
#
# Indices 1 2 3 4 5 6 
#
# 1 0.014874 -0.005241 -0.002958 0.000000 0.000000 0.000000
# 2 -0.005241 0.012548 -0.002876 0.000000 0.000000 0.000000
# 3 -0.002958 -0.002876 0.010958 0.000000 0.000000 0.000000
# 4 0.000000 0.000000 0.000000 0.068891 0.000000 0.000000
# 5 0.000000 0.000000 0.000000 0.000000 0.058069 0.000000
# 6 0.000000 0.000000 0.000000 0.000000 0.000000 0.018463
#
#
# Mechanical properties :
#
#
# Convention : Reuss Voigt Hill
#
# Bulk Modulus (GPa) = 61.61816 62.14961 61.88388
# Shear Modulus (GPa) = 23.65591 29.65947 26.65769
#
# Velocity S-wave (km/s) = 3.33422 3.73341 3.53945
# Velocity P-wave (km/s) = 6.61664 6.91314 6.76651
#
# Compressibility (1/GPa) = 0.01622898
#
# Stress axis : x y z
#
# Youngs Moduli (GPa) = 67.23257 79.69395 91.25762
#
# Poissons Ratio (x) = 0.41770 0.26996
# Poissons Ratio (y) = 0.35239 0.26244
# Poissons Ratio (z) = 0.19889 0.22919
#
# Static dielectric constant tensor:
#      x y z
#    x 4.088120 0.000000 0.000000 
#    y 0.000000 3.923230 0.000000 
#    z 0.000000 0.000000 3.525220 
# 
# 
# High freq. dielectric constant tensor:
#      x y z
#    x 1.855250 0.000000 0.000000 
#    y 0.000000 1.842770 0.000000 
#    z 0.000000 0.000000 1.799280 
# 
# From -- ./inp_files/22203.got.cif
#   From: 2010.06.25/outbox.cif.g09.slc.cpg/sg58_12_cif.got.tgz:22203.got - 2010.06.26 21:38:00.
