data_PCOD8238698
_publ_section_title
;
Structure prediction by ZEFSAII (Michael W. Deem and Ramdas Pophale) SiO2 
 PCOD8238698
Probable space group: P N N M
;
_chemical_formula_sum "Si O2"
_cell_formula_units_Z 48
_cell_length_a 9.862140
_cell_length_b 25.621812
_cell_length_c 9.922117
_cell_angle_alpha 90.000000
_cell_angle_beta 90.000000
_cell_angle_gamma 90.000000
_cell_volume 2507.179034
_symmetry_space_group_name_H-M "P N N M"
_symmetry_group_IT_number 58
_symmetry_cell_setting 'orthorhombic'
loop_
_space_group_symop_operation_xyz
x,y,z
-x,-y,z
1/2+x,1/2-y,1/2-z
1/2-x,1/2+y,1/2-z
-x,-y,-z
x,y,-z
1/2-x,1/2+y,1/2+z
1/2+x,1/2-y,1/2+z
loop_
_atom_site_type_symbol
_atom_site_label
_atom_site_fract_x
_atom_site_fract_y
_atom_site_fract_z
Si Si1 0.976548 0.396921 0.726948
Si Si2 0.283974 0.409866 0.245601
Si Si3 0.372639 0.036103 0.000000
Si Si4 0.844215 0.015797 0.500000
Si Si5 0.715156 0.706949 0.843804
Si Si6 0.406210 0.051428 0.500000
Si Si7 0.467427 0.782056 0.157331
Si Si8 0.621519 0.539145 0.500000
O O1 0.873100 0.427296 0.631083
O O2 0.937960 0.410594 0.877745
O O3 0.131100 0.414022 0.698541
O O4 0.960755 0.335584 0.701464
O O5 0.316452 0.353069 0.188297
O O6 0.382343 0.423305 0.369916
O O7 0.307376 0.451955 0.131202
O O8 0.500000 0.000000 0.000000
O O9 0.246050 0.999471 0.000000
O O10 0.751771 0.963990 0.500000
O O11 0.000000 0.000000 0.500000
O O12 0.576156 0.737072 0.814565
O O13 0.834515 0.728775 0.748012
O O14 0.759688 0.713091 0.000000
O O15 0.500000 0.000000 0.500000
O O16 0.424379 0.784150 0.000000
O O17 0.500000 0.500000 0.500000
#
# Coordination Sequence:
#
# PCOD8238698 Si02
#       8
#     8   8   4   4   8   4   8   4
#     4  11  21  38  65  92 114 160 208 255 300 354
#     4  11  21  41  64  87 121 166 205 245 309 368
#     4  12  20  38  63  86 118 160 203 248 298 348
#     4  12  24  40  59  88 126 166 203 248 306 366
#     4  10  23  44  68  93 124 162 206 262 314 375
#     4  12  22  38  61  92 122 156 207 254 290 362
#     4  10  23  44  65  94 127 158 206 260 316 375
#     4  12  26  40  57  92 130 164 205 252 302 378
#
# _framework density 19.145021
#
# number of rings (size 3 to 8) (size 9 to 14) (size 15 to 20)
#    0.000    1.000    5.000    2.000    7.000    0.667 
#    6.000    0.000    0.000    0.000    0.000    0.000 
#    0.000    0.000    0.000    0.000    0.000    0.000 
#
# Total GULP energy -595321.706186 kJ/mol
# GULP energy per Si atom -12402.535546 kJ/mol
# Density = 1.910145 g / cm^3
# Si number density = 19.145021 Si / 1000 Ang^3
#
#
#
# Elastic Constant Matrix: (Units=GPa)
#
#
# Indices 1 2 3 4 5 6 
#
# 1 92.1934 45.8318 28.9224 0.0000 0.0000 0.0000
# 2 45.8318 81.7563 43.6539 0.0000 0.0000 0.0000
# 3 28.9224 43.6539 145.8060 0.0000 0.0000 0.0000
# 4 0.0000 0.0000 0.0000 33.3487 0.0000 0.0000
# 5 0.0000 0.0000 0.0000 0.0000 37.6295 0.0000
# 6 0.0000 0.0000 0.0000 0.0000 0.0000 33.5716
#
#
#
# Elastic Compliance Matrix: (Units=1/GPa)
#
#
# Indices 1 2 3 4 5 6 
#
# 1 0.015074 -0.008158 -0.000548 0.000000 0.000000 0.000000
# 2 -0.008158 0.018974 -0.004063 0.000000 0.000000 0.000000
# 3 -0.000548 -0.004063 0.008183 0.000000 0.000000 0.000000
# 4 0.000000 0.000000 0.000000 0.029986 0.000000 0.000000
# 5 0.000000 0.000000 0.000000 0.000000 0.026575 0.000000
# 6 0.000000 0.000000 0.000000 0.000000 0.000000 0.029787
#
#
# Mechanical properties :
#
#
# Convention : Reuss Voigt Hill
#
# Bulk Modulus (GPa) = 59.89770 61.84131 60.86951
# Shear Modulus (GPa) = 31.31246 34.33315 32.82280
#
# Velocity S-wave (km/s) = 4.04857 4.23936 4.14506
# Velocity P-wave (km/s) = 7.29443 7.50563 7.40079
#
# Compressibility (1/GPa) = 0.01669513
#
# Stress axis : x y z
#
# Youngs Moduli (GPa) = 66.33884 52.70389 122.19918
#
# Poissons Ratio (x) = 0.42996 0.06692
# Poissons Ratio (y) = 0.54119 0.49643
# Poissons Ratio (z) = 0.03633 0.21411
#
# Static dielectric constant tensor:
#      x y z
#    x 3.374230 0.000000 0.000000 
#    y 0.000000 3.730490 0.000000 
#    z 0.000000 0.000000 3.701250 
# 
# 
# High freq. dielectric constant tensor:
#      x y z
#    x 1.729470 0.000000 0.000000 
#    y 0.000000 1.749810 0.000000 
#    z 0.000000 0.000000 1.766640 
# 
# From -- ./inp_files/3115.got.cif
#   From: 2010.06.25/outbox.cif.g09.slc.cpg/sg58_2_cif.got.tgz:3115.got - 2010.06.26 21:38:00.
