data_PCOD8238980
_publ_section_title
;
Structure prediction by ZEFSAII (Michael W. Deem and Ramdas Pophale) SiO2 
 PCOD8238980
Probable space group: P N N M
;
_chemical_formula_sum "Si O2"
_cell_formula_units_Z 40
_cell_length_a 8.304948
_cell_length_b 22.682513
_cell_length_c 9.609187
_cell_angle_alpha 90.000000
_cell_angle_beta 90.000000
_cell_angle_gamma 90.000000
_cell_volume 1810.150694
_symmetry_space_group_name_H-M "P N N M"
_symmetry_group_IT_number 58
_symmetry_cell_setting 'orthorhombic'
loop_
_space_group_symop_operation_xyz
x,y,z
-x,-y,z
1/2+x,1/2-y,1/2-z
1/2-x,1/2+y,1/2-z
-x,-y,-z
x,y,-z
1/2-x,1/2+y,1/2+z
1/2+x,1/2-y,1/2+z
loop_
_atom_site_type_symbol
_atom_site_label
_atom_site_fract_x
_atom_site_fract_y
_atom_site_fract_z
Si Si1 0.972775 0.626451 0.154643
Si Si2 0.168349 0.465702 0.657338
Si Si3 0.191946 0.058391 0.344858
Si Si4 0.475496 0.674045 0.837942
Si Si5 0.652730 0.759233 0.338507
O O1 0.850849 0.597018 0.264763
O O2 0.010802 0.693732 0.196515
O O3 0.138892 0.591218 0.151550
O O4 0.894859 0.623380 0.000000
O O5 0.226508 0.454183 0.500000
O O6 0.304123 0.504152 0.737071
O O7 0.000000 0.500000 0.658556
O O8 0.154882 0.034010 0.500000
O O9 0.055268 0.105541 0.298784
O O10 0.625526 0.699812 0.751123
O O11 0.320965 0.712409 0.795223
O O12 0.513742 0.680498 0.000000
O O13 0.649776 0.742285 0.500000
#
# Coordination Sequence:
#
# PCOD8238980 Si02
#       5
#     8   8   8   8   8
#     4   8  14  25  39  55  80 113 143 172 211 259
#     4   9  15  21  33  57  84 107 136 175 216 256
#     4   8  14  25  39  55  80 113 143 172 211 259
#     4   9  18  31  46  66  91 119 152 186 220 262
#     4   9  18  31  46  66  91 119 152 186 220 262
#
# _framework density 22.097608000000001
#
# number of rings (size 3 to 8) (size 9 to 14) (size 15 to 20)
#    0.000    3.400    0.000    3.000    0.000    4.800 
#    0.000    4.000    0.000    0.000    0.000    1.400 
#    0.000   11.200    0.000    0.000    0.000    0.000 
#
# Total GULP energy -495834.208049 kJ/mol
# GULP energy per Si atom -12395.855201 kJ/mol
# Density = 2.204731 g / cm^3
# Si number density = 22.097608 Si / 1000 Ang^3
#
#
#
# Elastic Constant Matrix: (Units=GPa)
#
#
# Indices 1 2 3 4 5 6 
#
# 1 12.4540 -6.2180 -8.8872 0.0000 0.0000 0.0000
# 2 -6.2180 39.0001 19.6534 0.0000 0.0000 0.0000
# 3 -8.8872 19.6534 81.2429 0.0000 0.0000 0.0000
# 4 0.0000 0.0000 0.0000 22.4382 0.0000 0.0000
# 5 0.0000 0.0000 0.0000 0.0000 6.0715 0.0000
# 6 0.0000 0.0000 0.0000 0.0000 0.0000 28.6101
#
#
#
# Elastic Compliance Matrix: (Units=1/GPa)
#
#
# Indices 1 2 3 4 5 6 
#
# 1 0.090921 0.010801 0.007333 0.000000 0.000000 0.000000
# 2 0.010801 0.030484 -0.006193 0.000000 0.000000 0.000000
# 3 0.007333 -0.006193 0.014609 0.000000 0.000000 0.000000
# 4 0.000000 0.000000 0.000000 0.044567 0.000000 0.000000
# 5 0.000000 0.000000 0.000000 0.000000 0.164704 0.000000
# 6 0.000000 0.000000 0.000000 0.000000 0.000000 0.034953
#
#
# Mechanical properties :
#
#
# Convention : Reuss Voigt Hill
#
# Bulk Modulus (GPa) = 6.25408 15.75480 11.00444
# Shear Modulus (GPa) = 12.20542 19.96721 16.08632
#
# Velocity S-wave (km/s) = 2.35274 3.00924 2.70101
# Velocity P-wave (km/s) = 3.19639 4.38397 3.83641
#
# Compressibility (1/GPa) = 0.15989561
#
# Stress axis : x y z
#
# Youngs Moduli (GPa) = 10.99859 32.80441 68.45078
#
# Poissons Ratio (x) = -0.35431 -0.50196
# Poissons Ratio (y) = -0.11879 0.42390
# Poissons Ratio (z) = -0.08065 0.20315
#
# Static dielectric constant tensor:
#      x y z
#    x 3.514800 0.000000 0.000000 
#    y 0.000000 4.026990 0.000000 
#    z 0.000000 0.000000 3.936850 
# 
# 
# High freq. dielectric constant tensor:
#      x y z
#    x 1.842780 0.000000 0.000000 
#    y 0.000000 1.868880 0.000000 
#    z 0.000000 0.000000 1.854710 
# 
# From -- ./inp_files/2446.got.cif
#   From: 2010.06.25/outbox.cif.g09.slc.cpg/sg58_2_cif.got.tgz:2446.got - 2010.06.26 21:38:00.
