data_PCOD8238770
_publ_section_title
;
Structure prediction by ZEFSAII (Michael W. Deem and Ramdas Pophale) SiO2 
 PCOD8238770
Probable space group: P N N M
;
_chemical_formula_sum "Si O2"
_cell_formula_units_Z 56
_cell_length_a 15.093539
_cell_length_b 21.180435
_cell_length_c 8.444164
_cell_angle_alpha 90.000000
_cell_angle_beta 90.000000
_cell_angle_gamma 90.000000
_cell_volume 2699.495551
_symmetry_space_group_name_H-M "P N N M"
_symmetry_group_IT_number 58
_symmetry_cell_setting 'orthorhombic'
loop_
_space_group_symop_operation_xyz
x,y,z
-x,-y,z
1/2+x,1/2-y,1/2-z
1/2-x,1/2+y,1/2-z
-x,-y,-z
x,y,-z
1/2-x,1/2+y,1/2+z
1/2+x,1/2-y,1/2+z
loop_
_atom_site_type_symbol
_atom_site_label
_atom_site_fract_x
_atom_site_fract_y
_atom_site_fract_z
Si Si1 0.557877 0.867527 0.182987
Si Si2 0.575765 0.049411 0.319341
Si Si3 0.239553 0.957890 0.181644
Si Si4 0.176309 0.226102 0.811750
Si Si5 0.024904 0.759551 0.814772
Si Si6 0.179510 0.829178 0.315774
Si Si7 0.753353 0.404395 0.687846
O O1 0.471442 0.883503 0.288217
O O2 0.574995 0.793889 0.213085
O O3 0.644398 0.905097 0.245828
O O4 0.539479 0.881735 0.000000
O O5 0.609710 0.045334 0.500000
O O6 0.654637 0.041155 0.196797
O O7 0.500000 0.000000 0.275812
O O8 0.201849 0.902844 0.291296
O O9 0.207310 0.028621 0.236688
O O10 0.213262 0.945100 0.000000
O O11 0.240871 0.283090 0.751843
O O12 0.205455 0.157626 0.741328
O O13 0.075646 0.234196 0.751309
O O14 0.178541 0.224726 0.000000
O O15 0.086992 0.819780 0.777946
O O16 0.025412 0.744650 0.000000
O O17 0.164749 0.816845 0.500000
O O18 0.753458 0.398243 0.500000
#
# Coordination Sequence:
#
# PCOD8238770 Si02
#       7
#     8   8   8   8   8   8   8
#     4  11  20  35  59  83 114 155 199 245 299 360
#     4  11  22  34  51  81 121 157 192 237 300 368
#     4  11  22  37  59  86 117 153 202 254 301 359
#     4   9  19  38  62  85 113 155 202 245 293 352
#     4  11  22  37  61  91 119 150 200 257 304 358
#     4  11  22  40  63  87 123 163 197 243 308 369
#     4   9  18  35  59  84 110 150 199 244 293 352
#
# _framework density 20.744616000000001
#
# number of rings (size 3 to 8) (size 9 to 14) (size 15 to 20)
#    0.000    1.571    2.857    3.000    0.000    1.714 
#    0.000    2.857    0.000    4.286    0.000    0.000 
#    0.000    0.000    0.000    0.000    0.000    0.000 
#
# Total GULP energy -694131.150926 kJ/mol
# GULP energy per Si atom -12395.199124 kJ/mol
# Density = 2.069740 g / cm^3
# Si number density = 20.744616 Si / 1000 Ang^3
#
#
#
# Elastic Constant Matrix: (Units=GPa)
#
#
# Indices 1 2 3 4 5 6 
#
# 1 82.0080 30.1634 16.7912 0.0000 0.0000 0.0000
# 2 30.1634 126.2658 9.7854 0.0000 0.0000 0.0000
# 3 16.7912 9.7854 38.4478 0.0000 0.0000 0.0000
# 4 0.0000 0.0000 0.0000 30.4118 0.0000 0.0000
# 5 0.0000 0.0000 0.0000 0.0000 22.2326 0.0000
# 6 0.0000 0.0000 0.0000 0.0000 0.0000 31.9014
#
#
#
# Elastic Compliance Matrix: (Units=1/GPa)
#
#
# Indices 1 2 3 4 5 6 
#
# 1 0.014438 -0.003020 -0.005537 0.000000 0.000000 0.000000
# 2 -0.003020 0.008711 -0.000898 0.000000 0.000000 0.000000
# 3 -0.005537 -0.000898 0.028656 0.000000 0.000000 0.000000
# 4 0.000000 0.000000 0.000000 0.032882 0.000000 0.000000
# 5 0.000000 0.000000 0.000000 0.000000 0.044979 0.000000
# 6 0.000000 0.000000 0.000000 0.000000 0.000000 0.031347
#
#
# Mechanical properties :
#
#
# Convention : Reuss Voigt Hill
#
# Bulk Modulus (GPa) = 30.39974 40.02240 35.21107
# Shear Modulus (GPa) = 26.19335 29.57461 27.88398
#
# Velocity S-wave (km/s) = 3.55724 3.77988 3.67025
# Velocity P-wave (km/s) = 5.61766 6.19554 5.91366
#
# Compressibility (1/GPa) = 0.03289502
#
# Stress axis : x y z
#
# Youngs Moduli (GPa) = 69.25949 114.79929 34.89668
#
# Poissons Ratio (x) = 0.34670 0.19322
# Poissons Ratio (y) = 0.20917 0.03134
# Poissons Ratio (z) = 0.38349 0.10310
#
# Static dielectric constant tensor:
#      x y z
#    x 3.693190 0.000000 0.000000 
#    y 0.000000 4.090000 0.000000 
#    z 0.000000 0.000000 3.279170 
# 
# 
# High freq. dielectric constant tensor:
#      x y z
#    x 1.793350 0.000000 0.000000 
#    y 0.000000 1.825620 0.000000 
#    z 0.000000 0.000000 1.784130 
# 
# From -- ./inp_files/6295.got.cif
#   From: 2010.06.25/outbox.cif.g09.slc.cpg/sg58_4_cif.got.tgz:6295.got - 2010.06.26 21:38:00.
