data_PCOD8238405
_publ_section_title
;
Structure prediction by ZEFSAII (Michael W. Deem and Ramdas Pophale) SiO2 
 PCOD8238405
Probable space group: P N N M
;
_chemical_formula_sum "Si O2"
_cell_formula_units_Z 48
_cell_length_a 9.106975
_cell_length_b 8.827917
_cell_length_c 29.801164
_cell_angle_alpha 90.000000
_cell_angle_beta 90.000000
_cell_angle_gamma 90.000000
_cell_volume 2395.883039
_symmetry_space_group_name_H-M "P N N M"
_symmetry_group_IT_number 58
_symmetry_cell_setting 'orthorhombic'
loop_
_space_group_symop_operation_xyz
x,y,z
-x,-y,z
1/2+x,1/2-y,1/2-z
1/2-x,1/2+y,1/2-z
-x,-y,-z
x,y,-z
1/2-x,1/2+y,1/2+z
1/2+x,1/2-y,1/2+z
loop_
_atom_site_type_symbol
_atom_site_label
_atom_site_fract_x
_atom_site_fract_y
_atom_site_fract_z
Si Si1 0.850517 0.088160 0.225577
Si Si2 0.453107 0.831604 0.123919
Si Si3 0.893351 0.140550 0.450128
Si Si4 0.160873 0.368907 0.879009
Si Si5 0.680116 0.802296 0.806721
Si Si6 0.152359 0.695534 0.144227
O O1 0.792725 0.176495 0.269074
O O2 0.889250 0.220128 0.190132
O O3 0.722631 0.972068 0.209818
O O4 0.000000 0.000000 0.236551
O O5 0.526353 0.755117 0.081834
O O6 0.512931 0.788237 0.174090
O O7 0.280299 0.794287 0.121167
O O8 0.500000 0.000000 0.115321
O O9 0.864403 0.206779 0.500000
O O10 0.736107 0.104091 0.427330
O O11 0.000000 0.000000 0.453926
O O12 0.222095 0.228436 0.850610
O O13 0.196360 0.519223 0.848496
O O14 0.990900 0.324431 0.887632
#
# Coordination Sequence:
#
# PCOD8238405 Si02
#       6
#     8   8   8   8   8   8
#     4  12  25  40  58  90 127 167 218 267 313 374
#     4  11  23  40  65  92 125 167 212 258 320 385
#     4  10  21  41  68  96 126 160 205 257 318 393
#     4  10  22  41  64  89 123 165 204 263 322 382
#     4  11  25  39  60  85 121 171 211 264 311 372
#     4  11  22  40  61  91 122 164 211 261 319 371
#
# _framework density 20.034365999999999
#
# number of rings (size 3 to 8) (size 9 to 14) (size 15 to 20)
#    0.000    1.167    5.000    1.000    4.667    0.333 
#    3.000    2.500    0.000    1.000    0.000    0.000 
#    0.000    0.000    0.000    0.000    0.000    0.000 
#
# Total GULP energy -594711.920753 kJ/mol
# GULP energy per Si atom -12389.831682 kJ/mol
# Density = 1.998877 g / cm^3
# Si number density = 20.034366 Si / 1000 Ang^3
#
#
#
# Elastic Constant Matrix: (Units=GPa)
#
#
# Indices 1 2 3 4 5 6 
#
# 1 116.2650 29.8630 40.7775 0.0000 0.0000 0.0000
# 2 29.8630 94.6388 45.6499 0.0000 0.0000 0.0000
# 3 40.7775 45.6499 127.1239 0.0000 0.0000 0.0000
# 4 0.0000 0.0000 0.0000 16.2485 0.0000 0.0000
# 5 0.0000 0.0000 0.0000 0.0000 16.3096 0.0000
# 6 0.0000 0.0000 0.0000 0.0000 0.0000 36.1437
#
#
#
# Elastic Compliance Matrix: (Units=1/GPa)
#
#
# Indices 1 2 3 4 5 6 
#
# 1 0.009978 -0.001941 -0.002504 0.000000 0.000000 0.000000
# 2 -0.001941 0.013158 -0.004102 0.000000 0.000000 0.000000
# 3 -0.002504 -0.004102 0.010143 0.000000 0.000000 0.000000
# 4 0.000000 0.000000 0.000000 0.061544 0.000000 0.000000
# 5 0.000000 0.000000 0.000000 0.000000 0.061314 0.000000
# 6 0.000000 0.000000 0.000000 0.000000 0.000000 0.027667
#
#
# Mechanical properties :
#
#
# Convention : Reuss Voigt Hill
#
# Bulk Modulus (GPa) = 61.78773 63.40092 62.59433
# Shear Modulus (GPa) = 24.23758 28.52284 26.38021
#
# Velocity S-wave (km/s) = 3.48199 3.77728 3.63264
# Velocity P-wave (km/s) = 6.86101 7.12310 6.99329
#
# Compressibility (1/GPa) = 0.01618444
#
# Stress axis : x y z
#
# Youngs Moduli (GPa) = 100.22431 76.00108 98.59443
#
# Poissons Ratio (x) = 0.14750 0.24684
# Poissons Ratio (y) = 0.19451 0.40447
# Poissons Ratio (z) = 0.25092 0.31178
#
# Static dielectric constant tensor:
#      x y z
#    x 3.839520 0.000000 0.000000 
#    y 0.000000 3.783210 0.000000 
#    z 0.000000 0.000000 4.196010 
# 
# 
# High freq. dielectric constant tensor:
#      x y z
#    x 1.790520 0.000000 0.000000 
#    y 0.000000 1.792040 0.000000 
#    z 0.000000 0.000000 1.755950 
# 
# From -- ./inp_files/34584.got.cif
#   From: 2010.06.25/outbox.cif.g09.slc.cpg/sg58_18_cif.got.tgz:34584.got - 2010.06.26 21:38:00.
