data_PCOD8238740
_publ_section_title
;
Structure prediction by ZEFSAII (Michael W. Deem and Ramdas Pophale) SiO2 
 PCOD8238740
Probable space group: P N N M
;
_chemical_formula_sum "Si O2"
_cell_formula_units_Z 32
_cell_length_a 14.579160
_cell_length_b 8.653001
_cell_length_c 12.201520
_cell_angle_alpha 90.000000
_cell_angle_beta 90.000000
_cell_angle_gamma 90.000000
_cell_volume 1539.264283
_symmetry_space_group_name_H-M "P N N M"
_symmetry_group_IT_number 58
_symmetry_cell_setting 'orthorhombic'
loop_
_space_group_symop_operation_xyz
x,y,z
-x,-y,z
1/2+x,1/2-y,1/2-z
1/2-x,1/2+y,1/2-z
-x,-y,-z
x,y,-z
1/2-x,1/2+y,1/2+z
1/2+x,1/2-y,1/2+z
loop_
_atom_site_type_symbol
_atom_site_label
_atom_site_fract_x
_atom_site_fract_y
_atom_site_fract_z
Si Si1 0.419502 0.889633 0.701127
Si Si2 0.433609 0.639363 0.871931
Si Si3 0.133356 0.848178 0.000000
Si Si4 0.084484 0.182958 0.000000
Si Si5 0.224472 0.595179 0.121616
O O1 0.453984 0.800746 0.809980
O O2 0.388612 0.768647 0.610362
O O3 0.500000 0.000000 0.657371
O O4 0.329853 0.998966 0.714795
O O5 0.500000 0.500000 0.831710
O O6 0.329627 0.597876 0.841552
O O7 0.448365 0.671219 0.000000
O O8 0.179573 0.767700 0.108057
O O9 0.024439 0.834080 0.000000
O O10 0.148916 0.031078 0.000000
O O11 0.216760 0.515787 0.000000
#
# Coordination Sequence:
#
# PCOD8238740 Si02
#       5
#     8   8   4   4   8
#     4  12  22  37  66  94 125 157 203 262 321 370
#     4  10  25  45  62  83 127 177 214 248 297 374
#     4   9  19  34  64  91 129 153 196 255 325 383
#     4  11  20  35  62 102 126 149 195 264 336 369
#     4   9  19  42  63  87 127 160 202 261 316 369
#
# _framework density 20.789154
#
# number of rings (size 3 to 8) (size 9 to 14) (size 15 to 20)
#    0.750    1.000    3.750    0.375    3.500    4.500 
#    0.000    0.000    0.000    0.000    0.000    0.000 
#    0.000    0.000    0.000    0.000    0.000    0.000 
#
# Total GULP energy -396465.908732 kJ/mol
# GULP energy per Si atom -12389.559648 kJ/mol
# Density = 2.074184 g / cm^3
# Si number density = 20.789154 Si / 1000 Ang^3
#
#
#
# Elastic Constant Matrix: (Units=GPa)
#
#
# Indices 1 2 3 4 5 6 
#
# 1 120.1597 66.2452 12.4494 0.0000 0.0000 0.0000
# 2 66.2452 159.5399 54.0115 0.0000 0.0000 0.0000
# 3 12.4494 54.0115 62.2005 0.0000 0.0000 0.0000
# 4 0.0000 0.0000 0.0000 29.2303 0.0000 0.0000
# 5 0.0000 0.0000 0.0000 0.0000 12.3749 0.0000
# 6 0.0000 0.0000 0.0000 0.0000 0.0000 25.8637
#
#
#
# Elastic Compliance Matrix: (Units=1/GPa)
#
#
# Indices 1 2 3 4 5 6 
#
# 1 0.011064 -0.005445 0.002514 0.000000 0.000000 0.000000
# 2 -0.005445 0.011558 -0.008946 0.000000 0.000000 0.000000
# 3 0.002514 -0.008946 0.023342 0.000000 0.000000 0.000000
# 4 0.000000 0.000000 0.000000 0.034211 0.000000 0.000000
# 5 0.000000 0.000000 0.000000 0.000000 0.080809 0.000000
# 6 0.000000 0.000000 0.000000 0.000000 0.000000 0.038664
#
#
# Mechanical properties :
#
#
# Convention : Reuss Voigt Hill
#
# Bulk Modulus (GPa) = 45.02739 67.47914 56.25327
# Shear Modulus (GPa) = 21.66329 27.44005 24.55167
#
# Velocity S-wave (km/s) = 3.23158 3.63701 3.44027
# Velocity P-wave (km/s) = 5.96911 7.08283 6.54968
#
# Compressibility (1/GPa) = 0.02220871
#
# Stress axis : x y z
#
# Youngs Moduli (GPa) = 90.38600 86.52330 42.84073
#
# Poissons Ratio (x) = 0.47111 -0.10769
# Poissons Ratio (y) = 0.49214 0.38326
# Poissons Ratio (z) = -0.22720 0.77405
#
# Static dielectric constant tensor:
#      x y z
#    x 3.662540 0.000000 0.000000 
#    y 0.000000 3.977250 0.000000 
#    z 0.000000 0.000000 3.453990 
# 
# 
# High freq. dielectric constant tensor:
#      x y z
#    x 1.813750 0.000000 0.000000 
#    y 0.000000 1.812720 0.000000 
#    z 0.000000 0.000000 1.783720 
# 
# From -- ./inp_files/15200.got.cif
#   From: 2010.06.25/outbox.cif.g09.slc.cpg/sg58_8_cif.got.tgz:15200.got - 2010.06.26 21:38:00.
