data_PCOD8238759
_publ_section_title
;
Structure prediction by ZEFSAII (Michael W. Deem and Ramdas Pophale) SiO2 
 PCOD8238759
Probable space group: P N N M
;
_chemical_formula_sum "Si O2"
_cell_formula_units_Z 64
_cell_length_a 26.282434
_cell_length_b 18.394481
_cell_length_c 9.057075
_cell_angle_alpha 90.000000
_cell_angle_beta 90.000000
_cell_angle_gamma 90.000000
_cell_volume 4378.658603
_symmetry_space_group_name_H-M "P N N M"
_symmetry_group_IT_number 58
_symmetry_cell_setting 'orthorhombic'
loop_
_space_group_symop_operation_xyz
x,y,z
-x,-y,z
1/2+x,1/2-y,1/2-z
1/2-x,1/2+y,1/2-z
-x,-y,-z
x,y,-z
1/2-x,1/2+y,1/2+z
1/2+x,1/2-y,1/2+z
loop_
_atom_site_type_symbol
_atom_site_label
_atom_site_fract_x
_atom_site_fract_y
_atom_site_fract_z
Si Si1 0.196208 0.204754 0.837148
Si Si2 0.302265 0.287738 0.834274
Si Si3 0.260183 0.074650 0.174504
Si Si4 0.249425 0.908895 0.172310
Si Si5 0.441439 0.083727 0.825525
Si Si6 0.148076 0.326839 0.327335
Si Si7 0.649840 0.841659 0.675765
Si Si8 0.556088 0.080524 0.826210
O O1 0.248318 0.248834 0.837712
O O2 0.155197 0.245248 0.735065
O O3 0.210853 0.123574 0.781691
O O4 0.172286 0.201293 0.000000
O O5 0.294944 0.366779 0.760156
O O6 0.340504 0.239364 0.737255
O O7 0.324002 0.296995 0.000000
O O8 0.247234 0.992747 0.219528
O O9 0.309768 0.100357 0.262309
O O10 0.272167 0.082561 0.000000
O O11 0.304798 0.878296 0.215150
O O12 0.238820 0.898254 0.000000
O O13 0.405822 0.135769 0.730445
O O14 0.499330 0.107082 0.787869
O O15 0.433344 0.001098 0.769391
O O16 0.429966 0.091692 0.000000
O O17 0.142418 0.317481 0.500000
O O18 0.097420 0.363663 0.258061
O O19 0.652729 0.840358 0.500000
O O20 0.563339 0.077272 0.000000
#
# Coordination Sequence:
#
# PCOD8238759 Si02
#       8
#     8   8   8   8   8   8   8   8
#     4   8  15  26  38  54  76 104 134 160 190 230
#     4   9  17  29  42  56  78 107 136 165 199 241
#     4   9  17  29  43  58  80 110 140 167 199 241
#     4   9  16  26  42  62  82 104 132 168 203 235
#     4   9  16  29  45  58  76 104 138 172 205 241
#     4   9  15  24  39  58  78 101 131 164 198 233
#     4  11  20  28  40  59  82 108 140 173 204 237
#     4   8  15  27  44  61  76 102 139 171 199 240
#
# _framework density 14.616349
#
# number of rings (size 3 to 8) (size 9 to 14) (size 15 to 20)
#    0.000    3.000    0.000    3.750    0.000    5.500 
#    0.000    5.000    0.000    0.000    0.000    0.000 
#    0.000    1.000    0.000   11.500    0.000    3.500 
#
# Total GULP energy -793272.913250 kJ/mol
# GULP energy per Si atom -12394.889270 kJ/mol
# Density = 1.458308 g / cm^3
# Si number density = 14.616349 Si / 1000 Ang^3
#
#
#
# Elastic Constant Matrix: (Units=GPa)
#
#
# Indices 1 2 3 4 5 6 
#
# 1 76.4080 54.5149 38.0726 0.0000 0.0000 0.0000
# 2 54.5149 112.2185 43.6954 0.0000 0.0000 0.0000
# 3 38.0726 43.6954 62.0154 0.0000 0.0000 0.0000
# 4 0.0000 0.0000 0.0000 22.8981 0.0000 0.0000
# 5 0.0000 0.0000 0.0000 0.0000 17.6528 0.0000
# 6 0.0000 0.0000 0.0000 0.0000 0.0000 25.6791
#
#
#
# Elastic Compliance Matrix: (Units=1/GPa)
#
#
# Indices 1 2 3 4 5 6 
#
# 1 0.022926 -0.007796 -0.008582 0.000000 0.000000 0.000000
# 2 -0.007796 0.014931 -0.005734 0.000000 0.000000 0.000000
# 3 -0.008582 -0.005734 0.025434 0.000000 0.000000 0.000000
# 4 0.000000 0.000000 0.000000 0.043672 0.000000 0.000000
# 5 0.000000 0.000000 0.000000 0.000000 0.056648 0.000000
# 6 0.000000 0.000000 0.000000 0.000000 0.000000 0.038942
#
#
# Mechanical properties :
#
#
# Convention : Reuss Voigt Hill
#
# Bulk Modulus (GPa) = 52.44645 58.13419 55.29032
# Shear Modulus (GPa) = 19.75251 20.86994 20.31122
#
# Velocity S-wave (km/s) = 3.68012 3.78279 3.73181
# Velocity P-wave (km/s) = 7.34967 7.67718 7.51521
#
# Compressibility (1/GPa) = 0.01906707
#
# Stress axis : x y z
#
# Youngs Moduli (GPa) = 43.61915 66.97448 39.31732
#
# Poissons Ratio (x) = 0.52210 0.33742
# Poissons Ratio (y) = 0.34003 0.22546
# Poissons Ratio (z) = 0.37434 0.38406
#
# Static dielectric constant tensor:
#      x y z
#    x 2.762570 0.000000 0.000000 
#    y 0.000000 3.010800 0.000000 
#    z 0.000000 0.000000 2.783390 
# 
# 
# High freq. dielectric constant tensor:
#      x y z
#    x 1.525830 0.000000 0.000000 
#    y 0.000000 1.550700 0.000000 
#    z 0.000000 0.000000 1.550180 
# 
# From -- ./inp_files/10543.got.cif
#   From: 2010.06.25/outbox.cif.g09.slc.cpg/sg58_6_cif.got.tgz:10543.got - 2010.06.26 21:38:00.
