data_PCOD8238132
_publ_section_title
;
Structure prediction by ZEFSAII (Michael W. Deem and Ramdas Pophale) SiO2 
 PCOD8238132
Probable space group: P N N M
;
_chemical_formula_sum "Si O2"
_cell_formula_units_Z 56
_cell_length_a 11.930636
_cell_length_b 12.736037
_cell_length_c 18.640205
_cell_angle_alpha 90.000000
_cell_angle_beta 90.000000
_cell_angle_gamma 90.000000
_cell_volume 2832.360911
_symmetry_space_group_name_H-M "P N N M"
_symmetry_group_IT_number 58
_symmetry_cell_setting 'orthorhombic'
loop_
_space_group_symop_operation_xyz
x,y,z
-x,-y,z
1/2+x,1/2-y,1/2-z
1/2-x,1/2+y,1/2-z
-x,-y,-z
x,y,-z
1/2-x,1/2+y,1/2+z
1/2+x,1/2-y,1/2+z
loop_
_atom_site_type_symbol
_atom_site_label
_atom_site_fract_x
_atom_site_fract_y
_atom_site_fract_z
Si Si1 0.413622 0.698028 0.340406
Si Si2 0.767171 0.152122 0.310951
Si Si3 0.826474 0.172219 0.846498
Si Si4 0.615064 0.442857 0.794928
Si Si5 0.400061 0.206862 0.081860
Si Si6 0.776189 0.958002 0.081519
Si Si7 0.366551 0.712665 0.080743
O O1 0.358253 0.814846 0.336459
O O2 0.545199 0.707837 0.351129
O O3 0.367380 0.638225 0.269720
O O4 0.366465 0.635409 0.409200
O O5 0.786403 0.201122 0.232586
O O6 0.856823 0.201786 0.365628
O O7 0.783710 0.026733 0.304185
O O8 0.753759 0.237907 0.902524
O O9 0.809160 0.049345 0.863219
O O10 0.500000 0.500000 0.775622
O O11 0.605042 0.385820 0.870404
O O12 0.345826 0.092816 0.099896
O O13 0.535017 0.199847 0.090654
O O14 0.367898 0.237437 0.000000
O O15 0.780724 0.000561 0.000000
O O16 0.363977 0.670157 0.000000
#
# Coordination Sequence:
#
# PCOD8238132 Si02
#       7
#     8   8   8   8   8   8   8
#     4  11  22  39  61  89 123 162 203 253 305 372
#     4  11  22  37  63  89 120 157 201 257 306 355
#     4  12  22  37  60  87 126 164 204 246 306 373
#     4  12  20  38  64  91 116 153 208 258 302 365
#     4   9  20  39  61  91 125 158 203 257 306 353
#     4  10  21  37  62  93 123 161 206 251 304 362
#     4  11  24  39  61  91 126 163 200 252 310 366
#
# _framework density 19.771491999999999
#
# number of rings (size 3 to 8) (size 9 to 14) (size 15 to 20)
#    0.000    1.143    5.714    0.857    0.000    3.143 
#    0.000    2.857    3.143    0.857    0.000    0.000 
#    0.000    0.000    0.000    0.000    0.000    0.000 
#
# Total GULP energy -694222.038091 kJ/mol
# GULP energy per Si atom -12396.822109 kJ/mol
# Density = 1.972649 g / cm^3
# Si number density = 19.771492 Si / 1000 Ang^3
#
#
#
# Elastic Constant Matrix: (Units=GPa)
#
#
# Indices 1 2 3 4 5 6 
#
# 1 131.7085 52.5813 33.8243 0.0000 0.0000 0.0000
# 2 52.5813 47.5717 17.6935 0.0000 0.0000 0.0000
# 3 33.8243 17.6935 85.1322 0.0000 0.0000 0.0000
# 4 0.0000 0.0000 0.0000 30.5865 0.0000 0.0000
# 5 0.0000 0.0000 0.0000 0.0000 26.0460 0.0000
# 6 0.0000 0.0000 0.0000 0.0000 0.0000 28.9765
#
#
#
# Elastic Compliance Matrix: (Units=1/GPa)
#
#
# Indices 1 2 3 4 5 6 
#
# 1 0.014085 -0.014617 -0.002558 0.000000 0.000000 0.000000
# 2 -0.014617 0.037950 -0.002080 0.000000 0.000000 0.000000
# 3 -0.002558 -0.002080 0.013195 0.000000 0.000000 0.000000
# 4 0.000000 0.000000 0.000000 0.032694 0.000000 0.000000
# 5 0.000000 0.000000 0.000000 0.000000 0.038394 0.000000
# 6 0.000000 0.000000 0.000000 0.000000 0.000000 0.034511
#
#
# Mechanical properties :
#
#
# Convention : Reuss Voigt Hill
#
# Bulk Modulus (GPa) = 37.42431 52.51228 44.96830
# Shear Modulus (GPa) = 22.90999 27.80935 25.35967
#
# Velocity S-wave (km/s) = 3.40772 3.75445 3.58528
# Velocity P-wave (km/s) = 5.86966 6.73883 6.31920
#
# Compressibility (1/GPa) = 0.02672060
#
# Stress axis : x y z
#
# Youngs Moduli (GPa) = 70.99852 26.35025 75.78521
#
# Poissons Ratio (x) = 0.38515 0.19388
# Poissons Ratio (y) = 1.03775 0.15764
# Poissons Ratio (z) = 0.18163 0.05481
#
# Static dielectric constant tensor:
#      x y z
#    x 3.624660 0.000000 0.000000 
#    y 0.000000 3.480470 0.000000 
#    z 0.000000 0.000000 3.711340 
# 
# 
# High freq. dielectric constant tensor:
#      x y z
#    x 1.768020 0.000000 0.000000 
#    y 0.000000 1.749740 0.000000 
#    z 0.000000 0.000000 1.783550 
# 
# From -- ./inp_files/29622.got.cif
#   From: 2010.06.25/outbox.cif.g09.slc.cpg/sg58_15_cif.got.tgz:29622.got - 2010.06.26 21:38:00.
