data_PCOD8238861
_publ_section_title
;
Structure prediction by ZEFSAII (Michael W. Deem and Ramdas Pophale) SiO2 
 PCOD8238861
Probable space group: P N N M
;
_chemical_formula_sum "Si O2"
_cell_formula_units_Z 32
_cell_length_a 7.253401
_cell_length_b 13.621171
_cell_length_c 14.789433
_cell_angle_alpha 90.000000
_cell_angle_beta 90.000000
_cell_angle_gamma 90.000000
_cell_volume 1461.193250
_symmetry_space_group_name_H-M "P N N M"
_symmetry_group_IT_number 58
_symmetry_cell_setting 'orthorhombic'
loop_
_space_group_symop_operation_xyz
x,y,z
-x,-y,z
1/2+x,1/2-y,1/2-z
1/2-x,1/2+y,1/2-z
-x,-y,-z
x,y,-z
1/2-x,1/2+y,1/2+z
1/2+x,1/2-y,1/2+z
loop_
_atom_site_type_symbol
_atom_site_label
_atom_site_fract_x
_atom_site_fract_y
_atom_site_fract_z
Si Si1 0.327381 0.872385 0.500000
Si Si2 0.692771 0.249885 0.863124
Si Si3 0.745156 0.412582 0.000000
Si Si4 0.409971 0.093712 0.099007
Si Si5 0.385987 0.729623 0.657578
O O1 0.535993 0.906391 0.500000
O O2 0.287205 0.808407 0.590504
O O3 0.195382 0.970252 0.500000
O O4 0.564392 0.176101 0.916950
O O5 0.619467 0.239069 0.761252
O O6 0.903746 0.214110 0.872239
O O7 0.670665 0.357809 0.909195
O O8 0.230084 0.129077 0.153223
O O9 0.500000 0.000000 0.150598
O O10 0.341005 0.060220 0.000000
#
# Coordination Sequence:
#
# PCOD8238861 Si02
#       5
#     4   8   4   8   8
#     4   9  20  39  63  92 123 161 208 260 316 374
#     4  11  22  40  66  92 129 166 207 262 321 382
#     4   9  20  39  63  92 123 161 208 260 316 374
#     4  11  24  42  64  89 125 170 217 262 314 376
#     4  11  22  40  66  92 129 166 207 262 321 382
#
# _framework density 21.899909000000001
#
# number of rings (size 3 to 8) (size 9 to 14) (size 15 to 20)
#    0.000    1.500    5.000    0.000    0.000    3.000 
#    0.000    5.000    0.000    0.000    0.000    0.000 
#    0.000    0.000    0.000    0.000    0.000    0.000 
#
# Total GULP energy -396615.847678 kJ/mol
# GULP energy per Si atom -12394.245240 kJ/mol
# Density = 2.185006 g / cm^3
# Si number density = 21.899909 Si / 1000 Ang^3
#
#
#
# Elastic Constant Matrix: (Units=GPa)
#
#
# Indices 1 2 3 4 5 6 
#
# 1 57.0484 -13.3347 -10.9935 0.0000 0.0000 0.0000
# 2 -13.3347 59.0492 22.0844 0.0000 0.0000 0.0000
# 3 -10.9935 22.0844 126.7396 0.0000 0.0000 0.0000
# 4 0.0000 0.0000 0.0000 16.4256 0.0000 0.0000
# 5 0.0000 0.0000 0.0000 0.0000 22.5998 0.0000
# 6 0.0000 0.0000 0.0000 0.0000 0.0000 29.6037
#
#
#
# Elastic Compliance Matrix: (Units=1/GPa)
#
#
# Indices 1 2 3 4 5 6 
#
# 1 0.018611 0.003850 0.000943 0.000000 0.000000 0.000000
# 2 0.003850 0.018912 -0.002961 0.000000 0.000000 0.000000
# 3 0.000943 -0.002961 0.008488 0.000000 0.000000 0.000000
# 4 0.000000 0.000000 0.000000 0.060880 0.000000 0.000000
# 5 0.000000 0.000000 0.000000 0.000000 0.044248 0.000000
# 6 0.000000 0.000000 0.000000 0.000000 0.000000 0.033780
#
#
# Mechanical properties :
#
#
# Convention : Reuss Voigt Hill
#
# Bulk Modulus (GPa) = 20.13107 26.48329 23.30718
# Shear Modulus (GPa) = 25.27634 30.06455 27.67044
#
# Velocity S-wave (km/s) = 3.40100 3.70917 3.55842
# Velocity P-wave (km/s) = 4.96333 5.51934 5.24870
#
# Compressibility (1/GPa) = 0.04967445
#
# Stress axis : x y z
#
# Youngs Moduli (GPa) = 53.73266 52.87647 117.81239
#
# Poissons Ratio (x) = -0.20357 -0.11115
# Poissons Ratio (y) = -0.20686 0.34890
# Poissons Ratio (z) = -0.05069 0.15659
#
# Static dielectric constant tensor:
#      x y z
#    x 3.897560 0.000000 0.000000 
#    y 0.000000 4.195890 0.000000 
#    z 0.000000 0.000000 3.894070 
# 
# 
# High freq. dielectric constant tensor:
#      x y z
#    x 1.866970 0.000000 0.000000 
#    y 0.000000 1.845340 0.000000 
#    z 0.000000 0.000000 1.861020 
# 
# From -- ./inp_files/19108.got.cif
#   From: 2010.06.25/outbox.cif.g09.slc.cpg/sg58_10_cif.got.tgz:19108.got - 2010.06.26 21:38:00.
