data_PCOD8238653
_publ_section_title
;
Structure prediction by ZEFSAII (Michael W. Deem and Ramdas Pophale) SiO2 
 PCOD8238653
Probable space group: P N N M
;
_chemical_formula_sum "Si O2"
_cell_formula_units_Z 40
_cell_length_a 14.936898
_cell_length_b 14.799985
_cell_length_c 8.640934
_cell_angle_alpha 90.000000
_cell_angle_beta 90.000000
_cell_angle_gamma 90.000000
_cell_volume 1910.215561
_symmetry_space_group_name_H-M "P N N M"
_symmetry_group_IT_number 58
_symmetry_cell_setting 'orthorhombic'
loop_
_space_group_symop_operation_xyz
x,y,z
-x,-y,z
1/2+x,1/2-y,1/2-z
1/2-x,1/2+y,1/2-z
-x,-y,-z
x,y,-z
1/2-x,1/2+y,1/2+z
1/2+x,1/2-y,1/2+z
loop_
_atom_site_type_symbol
_atom_site_label
_atom_site_fract_x
_atom_site_fract_y
_atom_site_fract_z
Si Si1 0.537620 0.758566 0.321676
Si Si2 0.647734 0.156202 0.679517
Si Si3 0.235781 0.685641 0.820456
Si Si4 0.069668 0.923899 0.321170
Si Si5 0.742940 0.505973 0.320747
O O1 0.534558 0.727465 0.500000
O O2 0.456372 0.825942 0.284343
O O3 0.630617 0.807557 0.281422
O O4 0.524086 0.671828 0.213276
O O5 0.664417 0.136612 0.500000
O O6 0.708429 0.241524 0.724829
O O7 0.671372 0.065549 0.773389
O O8 0.266513 0.585452 0.776269
O O9 0.255657 0.702677 0.000000
O O10 0.097202 0.931490 0.500000
O O11 0.157114 0.931990 0.214874
O O12 0.000000 0.000000 0.272446
O O13 0.748438 0.481127 0.500000
#
# Coordination Sequence:
#
# PCOD8238653 Si02
#       5
#     8   8   8   8   8
#     4  10  23  41  64  92 127 168 209 260 324 386
#     4  11  23  42  66  95 129 169 213 265 323 384
#     4  11  23  42  65  93 128 169 214 266 323 383
#     4  11  23  39  63  95 127 163 213 269 321 379
#     4  12  25  41  63  92 128 172 215 265 321 379
#
# _framework density 20.940045999999999
#
# number of rings (size 3 to 8) (size 9 to 14) (size 15 to 20)
#    0.000    1.000    2.000    4.800    0.000    8.000 
#    0.000    4.000    0.000    0.000    0.000    0.000 
#    0.000    0.000    0.000    0.000    0.000    0.000 
#
# Total GULP energy -496314.605441 kJ/mol
# GULP energy per Si atom -12407.865136 kJ/mol
# Density = 2.089239 g / cm^3
# Si number density = 20.940046 Si / 1000 Ang^3
#
#
#
# Elastic Constant Matrix: (Units=GPa)
#
#
# Indices 1 2 3 4 5 6 
#
# 1 80.4713 -14.0206 24.4424 0.0000 0.0000 0.0000
# 2 -14.0206 59.4275 3.9311 0.0000 0.0000 0.0000
# 3 24.4424 3.9311 62.4650 0.0000 0.0000 0.0000
# 4 0.0000 0.0000 0.0000 30.6499 0.0000 0.0000
# 5 0.0000 0.0000 0.0000 0.0000 30.7754 0.0000
# 6 0.0000 0.0000 0.0000 0.0000 0.0000 35.8324
#
#
#
# Elastic Compliance Matrix: (Units=1/GPa)
#
#
# Indices 1 2 3 4 5 6 
#
# 1 0.014966 0.003935 -0.006104 0.000000 0.000000 0.000000
# 2 0.003935 0.017932 -0.002668 0.000000 0.000000 0.000000
# 3 -0.006104 -0.002668 0.018565 0.000000 0.000000 0.000000
# 4 0.000000 0.000000 0.000000 0.032627 0.000000 0.000000
# 5 0.000000 0.000000 0.000000 0.000000 0.032493 0.000000
# 6 0.000000 0.000000 0.000000 0.000000 0.000000 0.027908
#
#
# Mechanical properties :
#
#
# Convention : Reuss Voigt Hill
#
# Bulk Modulus (GPa) = 23.92973 25.67441 24.80207
# Shear Modulus (GPa) = 29.74495 31.98561 30.86528
#
# Velocity S-wave (km/s) = 3.77302 3.91255 3.84341
# Velocity P-wave (km/s) = 5.51665 5.71824 5.61835
#
# Compressibility (1/GPa) = 0.04178902
#
# Stress axis : x y z
#
# Youngs Moduli (GPa) = 66.81656 55.76611 53.86386
#
# Poissons Ratio (x) = -0.21943 0.32878
# Poissons Ratio (y) = -0.26291 0.14372
# Poissons Ratio (z) = 0.40784 0.14879
#
# Static dielectric constant tensor:
#      x y z
#    x 3.937250 0.000000 0.000000 
#    y 0.000000 3.711720 0.000000 
#    z 0.000000 0.000000 3.740990 
# 
# 
# High freq. dielectric constant tensor:
#      x y z
#    x 1.828350 0.000000 0.000000 
#    y 0.000000 1.823240 0.000000 
#    z 0.000000 0.000000 1.824090 
# 
# From -- ./inp_files/5363.got.cif
#   From: 2010.06.25/outbox.cif.g09.slc.cpg/sg58_3_cif.got.tgz:5363.got - 2010.06.26 21:38:00.
