data_PCOD8238237
_publ_section_title
;
Structure prediction by ZEFSAII (Michael W. Deem and Ramdas Pophale) SiO2 
 PCOD8238237
Probable space group: P N N M
;
_chemical_formula_sum "Si O2"
_cell_formula_units_Z 40
_cell_length_a 5.725170
_cell_length_b 17.396248
_cell_length_c 18.448062
_cell_angle_alpha 90.000000
_cell_angle_beta 90.000000
_cell_angle_gamma 90.000000
_cell_volume 1837.361986
_symmetry_space_group_name_H-M "P N N M"
_symmetry_group_IT_number 58
_symmetry_cell_setting 'orthorhombic'
loop_
_space_group_symop_operation_xyz
x,y,z
-x,-y,z
1/2+x,1/2-y,1/2-z
1/2-x,1/2+y,1/2-z
-x,-y,-z
x,y,-z
1/2-x,1/2+y,1/2+z
1/2+x,1/2-y,1/2+z
loop_
_atom_site_type_symbol
_atom_site_label
_atom_site_fract_x
_atom_site_fract_y
_atom_site_fract_z
Si Si1 0.871651 0.823048 0.686763
Si Si2 0.747751 0.041648 0.915781
Si Si3 0.244924 0.276163 0.919690
Si Si4 0.577736 0.678967 0.665958
Si Si5 0.403879 0.081969 0.581025
O O1 0.676110 0.758469 0.698889
O O2 0.792415 0.895578 0.638813
O O3 0.063900 0.777428 0.641831
O O4 0.948141 0.857577 0.764218
O O5 0.738437 0.118118 0.866146
O O6 0.500000 0.000000 0.896233
O O7 0.742942 0.063751 0.000000
O O8 0.000000 0.000000 0.898401
O O9 0.087614 0.201762 0.901435
O O10 0.107786 0.355950 0.917837
O O11 0.352004 0.263080 0.000000
O O12 0.293868 0.077359 0.500000
O O13 0.500000 0.000000 0.605608
#
# Coordination Sequence:
#
# PCOD8238237 Si02
#       5
#     8   8   8   8   8
#     4  11  22  39  63  93 128 173 217 269 339 405
#     4  10  24  46  70  99 134 179 234 288 348 416
#     4  10  21  38  64  93 120 167 220 266 328 399
#     4  11  23  41  63  93 131 170 218 284 340 404
#     4   9  20  40  63  92 129 166 215 271 325 402
#
# _framework density 21.770343
#
# number of rings (size 3 to 8) (size 9 to 14) (size 15 to 20)
#    0.000    1.800    2.000    1.200    2.800    3.200 
#    3.600    3.000    0.000    0.000    0.000    0.000 
#    0.000    0.000    0.000    0.000    0.000    0.000 
#
# Total GULP energy -495745.238960 kJ/mol
# GULP energy per Si atom -12393.630974 kJ/mol
# Density = 2.172079 g / cm^3
# Si number density = 21.770343 Si / 1000 Ang^3
#
#
#
# Elastic Constant Matrix: (Units=GPa)
#
#
# Indices 1 2 3 4 5 6 
#
# 1 85.0152 36.4792 30.4516 0.0000 0.0000 0.0000
# 2 36.4792 108.0418 62.9367 0.0000 0.0000 0.0000
# 3 30.4516 62.9367 123.0483 0.0000 0.0000 0.0000
# 4 0.0000 0.0000 0.0000 3.0072 0.0000 0.0000
# 5 0.0000 0.0000 0.0000 0.0000 32.9234 0.0000
# 6 0.0000 0.0000 0.0000 0.0000 0.0000 28.0754
#
#
#
# Elastic Compliance Matrix: (Units=1/GPa)
#
#
# Indices 1 2 3 4 5 6 
#
# 1 0.013943 -0.003843 -0.001485 0.000000 0.000000 0.000000
# 2 -0.003843 0.014243 -0.006334 0.000000 0.000000 0.000000
# 3 -0.001485 -0.006334 0.011734 0.000000 0.000000 0.000000
# 4 0.000000 0.000000 0.000000 0.332530 0.000000 0.000000
# 5 0.000000 0.000000 0.000000 0.000000 0.030373 0.000000
# 6 0.000000 0.000000 0.000000 0.000000 0.000000 0.035618
#
#
# Mechanical properties :
#
#
# Convention : Reuss Voigt Hill
#
# Bulk Modulus (GPa) = 60.25297 63.98225 62.11761
# Shear Modulus (GPa) = 10.69981 25.21706 17.95843
#
# Velocity S-wave (km/s) = 2.21935 3.40710 2.87523
# Velocity P-wave (km/s) = 5.85697 6.70308 6.29426
#
# Compressibility (1/GPa) = 0.01659669
#
# Stress axis : x y z
#
# Youngs Moduli (GPa) = 71.71819 70.21110 85.22158
#
# Poissons Ratio (x) = 0.26980 0.12657
# Poissons Ratio (y) = 0.27559 0.53979
# Poissons Ratio (z) = 0.10652 0.44471
#
# Static dielectric constant tensor:
#      x y z
#    x 4.114560 0.000000 0.000000 
#    y 0.000000 3.708510 0.000000 
#    z 0.000000 0.000000 3.988400 
# 
# 
# High freq. dielectric constant tensor:
#      x y z
#    x 1.847220 0.000000 0.000000 
#    y 0.000000 1.844290 0.000000 
#    z 0.000000 0.000000 1.868140 
# 
# From -- ./inp_files/24162.got.cif
#   From: 2010.06.25/outbox.cif.g09.slc.cpg/sg58_13_cif.got.tgz:24162.got - 2010.06.26 21:38:00.
