data_PCOD8238453
_publ_section_title
;
Structure prediction by ZEFSAII (Michael W. Deem and Ramdas Pophale) SiO2 
 PCOD8238453
Probable space group: P N N M
;
_chemical_formula_sum "Si O2"
_cell_formula_units_Z 64
_cell_length_a 30.573507
_cell_length_b 14.374903
_cell_length_c 8.602851
_cell_angle_alpha 90.000000
_cell_angle_beta 90.000000
_cell_angle_gamma 90.000000
_cell_volume 3780.877288
_symmetry_space_group_name_H-M "P N N M"
_symmetry_group_IT_number 58
_symmetry_cell_setting 'orthorhombic'
loop_
_space_group_symop_operation_xyz
x,y,z
-x,-y,z
1/2+x,1/2-y,1/2-z
1/2-x,1/2+y,1/2-z
-x,-y,-z
x,y,-z
1/2-x,1/2+y,1/2+z
1/2+x,1/2-y,1/2+z
loop_
_atom_site_type_symbol
_atom_site_label
_atom_site_fract_x
_atom_site_fract_y
_atom_site_fract_z
Si Si1 0.198805 0.820255 0.822096
Si Si2 0.548489 0.103520 0.184571
Si Si3 0.716599 0.276059 0.320312
Si Si4 0.823629 0.491632 0.178437
Si Si5 0.363844 0.185623 0.817880
Si Si6 0.766117 0.984911 0.177734
Si Si7 0.638644 0.167503 0.180142
Si Si8 0.046973 0.605356 0.684149
O O1 0.244807 0.773704 0.773693
O O2 0.156929 0.785383 0.723284
O O3 0.199200 0.931800 0.799489
O O4 0.190964 0.793189 0.000000
O O5 0.587580 0.173652 0.235795
O O6 0.500918 0.140439 0.243543
O O7 0.556166 0.998550 0.249949
O O8 0.549312 0.097002 0.000000
O O9 0.726695 0.258495 0.500000
O O10 0.712780 0.385464 0.281358
O O11 0.669159 0.234523 0.280295
O O12 0.834077 0.386758 0.225260
O O13 0.772316 0.507009 0.202354
O O14 0.849232 0.560129 0.292841
O O15 0.835710 0.512064 0.000000
O O16 0.414417 0.175439 0.761388
O O17 0.359837 0.166404 0.000000
O O18 0.748382 0.984939 0.000000
O O19 0.644479 0.193244 0.000000
O O20 0.045784 0.601455 0.500000
#
# Coordination Sequence:
#
# PCOD8238453 Si02
#       8
#     8   8   8   8   8   8   8   8
#     4  11  22  35  51  72  97 130 168 205 243 290
#     4   8  14  26  46  71  97 128 164 197 235 291
#     4  11  22  35  51  72  97 130 168 205 243 290
#     4  12  22  30  47  71 100 134 169 204 238 290
#     4  11  20  32  50  73 101 132 165 205 248 292
#     4  10  22  38  52  65  94 133 170 206 242 283
#     4  11  20  32  50  73 101 132 165 205 248 292
#     4   8  14  26  46  71  97 128 164 197 235 291
#
# _framework density 16.927288000000001
#
# number of rings (size 3 to 8) (size 9 to 14) (size 15 to 20)
#    0.000    1.750    3.750    3.375    0.000    1.000 
#    0.000    0.000    0.000    3.750    0.000    0.875 
#    0.000    7.000    0.000    0.000    0.000    0.000 
#
# Total GULP energy -793241.895847 kJ/mol
# GULP energy per Si atom -12394.404623 kJ/mol
# Density = 1.688876 g / cm^3
# Si number density = 16.927288 Si / 1000 Ang^3
#
#
#
# Elastic Constant Matrix: (Units=GPa)
#
#
# Indices 1 2 3 4 5 6 
#
# 1 113.5266 27.5524 15.8514 0.0000 0.0000 0.0000
# 2 27.5524 67.6446 12.3003 0.0000 0.0000 0.0000
# 3 15.8514 12.3003 38.1615 0.0000 0.0000 0.0000
# 4 0.0000 0.0000 0.0000 20.8779 0.0000 0.0000
# 5 0.0000 0.0000 0.0000 0.0000 16.2642 0.0000
# 6 0.0000 0.0000 0.0000 0.0000 0.0000 25.4413
#
#
#
# Elastic Compliance Matrix: (Units=1/GPa)
#
#
# Indices 1 2 3 4 5 6 
#
# 1 0.010098 -0.003559 -0.003047 0.000000 0.000000 0.000000
# 2 -0.003559 0.016958 -0.003988 0.000000 0.000000 0.000000
# 3 -0.003047 -0.003988 0.028755 0.000000 0.000000 0.000000
# 4 0.000000 0.000000 0.000000 0.047898 0.000000 0.000000
# 5 0.000000 0.000000 0.000000 0.000000 0.061485 0.000000
# 6 0.000000 0.000000 0.000000 0.000000 0.000000 0.039306
#
#
# Mechanical properties :
#
#
# Convention : Reuss Voigt Hill
#
# Bulk Modulus (GPa) = 28.88205 36.74898 32.81551
# Shear Modulus (GPa) = 21.07677 23.42525 22.25101
#
# Velocity S-wave (km/s) = 3.53248 3.72408 3.62954
# Velocity P-wave (km/s) = 5.80838 6.34419 6.08219
#
# Compressibility (1/GPa) = 0.03462358
#
# Stress axis : x y z
#
# Youngs Moduli (GPa) = 99.03250 58.96996 34.77596
#
# Poissons Ratio (x) = 0.20986 0.10597
# Poissons Ratio (y) = 0.35244 0.13867
# Poissons Ratio (z) = 0.30178 0.23515
#
# Static dielectric constant tensor:
#      x y z
#    x 3.476570 0.000000 0.000000 
#    y 0.000000 3.047620 0.000000 
#    z 0.000000 0.000000 3.006020 
# 
# 
# High freq. dielectric constant tensor:
#      x y z
#    x 1.648420 0.000000 0.000000 
#    y 0.000000 1.622420 0.000000 
#    z 0.000000 0.000000 1.642090 
# 
# From -- ./inp_files/11150.got.cif
#   From: 2010.06.25/outbox.cif.g09.slc.cpg/sg58_6_cif.got.tgz:11150.got - 2010.06.26 21:38:00.
