data_PCOD8238681
_publ_section_title
;
Structure prediction by ZEFSAII (Michael W. Deem and Ramdas Pophale) SiO2 
 PCOD8238681
Probable space group: P N N M
;
_chemical_formula_sum "Si O2"
_cell_formula_units_Z 64
_cell_length_a 9.278415
_cell_length_b 13.710995
_cell_length_c 23.184185
_cell_angle_alpha 90.000000
_cell_angle_beta 90.000000
_cell_angle_gamma 90.000000
_cell_volume 2949.406273
_symmetry_space_group_name_H-M "P N N M"
_symmetry_group_IT_number 58
_symmetry_cell_setting 'orthorhombic'
loop_
_space_group_symop_operation_xyz
x,y,z
-x,-y,z
1/2+x,1/2-y,1/2-z
1/2-x,1/2+y,1/2-z
-x,-y,-z
x,y,-z
1/2-x,1/2+y,1/2+z
1/2+x,1/2-y,1/2+z
loop_
_atom_site_type_symbol
_atom_site_label
_atom_site_fract_x
_atom_site_fract_y
_atom_site_fract_z
Si Si1 0.905139 0.913808 0.873248
Si Si2 0.581031 0.368886 0.863096
Si Si3 0.850309 0.542155 0.634934
Si Si4 0.735313 0.561775 0.130074
Si Si5 0.501817 0.683668 0.261920
Si Si6 0.817086 0.639456 0.754708
Si Si7 0.755597 0.721188 0.567427
Si Si8 0.564055 0.215369 0.567259
O O1 0.990809 0.890723 0.814650
O O2 0.873033 0.819134 0.912310
O O3 0.748137 0.948679 0.854844
O O4 0.000000 0.000000 0.904169
O O5 0.417015 0.386936 0.881552
O O6 0.699611 0.448910 0.884750
O O7 0.582564 0.357951 0.793881
O O8 0.618581 0.270355 0.895725
O O9 0.877607 0.594388 0.696035
O O10 0.764194 0.609601 0.588884
O O11 0.000000 0.500000 0.609995
O O12 0.785495 0.558724 0.196716
O O13 0.859793 0.618692 0.094292
O O14 0.670818 0.701040 0.253131
O O15 0.435330 0.786957 0.280391
O O16 0.789460 0.725858 0.500000
O O17 0.605828 0.775828 0.582123
O O18 0.590770 0.205005 0.500000
#
# Coordination Sequence:
#
# PCOD8238681 Si02
#       8
#     8   8   8   8   8   8   8   8
#     4  12  23  43  68  95 134 175 210 265 333 396
#     4  10  23  42  66  94 132 168 211 272 333 394
#     4  12  27  43  65 100 138 170 218 268 329 401
#     4  10  23  43  66  97 127 168 218 269 331 395
#     4  11  22  37  67  94 135 169 208 265 326 394
#     4  11  22  40  63  99 133 169 209 264 330 392
#     4  11  25  46  66  93 131 172 220 276 325 380
#     4  11  25  44  67  95 127 171 227 273 320 387
#
# _framework density 21.699283000000001
#
# number of rings (size 3 to 8) (size 9 to 14) (size 15 to 20)
#    0.000    1.000    5.000    0.750    5.250    2.500 
#    2.250    2.500    0.000    0.000    0.000    0.000 
#    0.000    0.000    0.000    0.000    0.000    0.000 
#
# Total GULP energy -793251.943385 kJ/mol
# GULP energy per Si atom -12394.561615 kJ/mol
# Density = 2.164989 g / cm^3
# Si number density = 21.699283 Si / 1000 Ang^3
#
#
#
# Elastic Constant Matrix: (Units=GPa)
#
#
# Indices 1 2 3 4 5 6 
#
# 1 74.2364 17.9469 34.3264 0.0000 0.0000 0.0000
# 2 17.9469 56.7188 20.5685 0.0000 0.0000 0.0000
# 3 34.3264 20.5685 80.5785 0.0000 0.0000 0.0000
# 4 0.0000 0.0000 0.0000 17.9606 0.0000 0.0000
# 5 0.0000 0.0000 0.0000 0.0000 28.1932 0.0000
# 6 0.0000 0.0000 0.0000 0.0000 0.0000 43.9024
#
#
#
# Elastic Compliance Matrix: (Units=1/GPa)
#
#
# Indices 1 2 3 4 5 6 
#
# 1 0.017249 -0.003078 -0.006562 0.000000 0.000000 0.000000
# 2 -0.003078 0.019979 -0.003788 0.000000 0.000000 0.000000
# 3 -0.006562 -0.003788 0.016173 0.000000 0.000000 0.000000
# 4 0.000000 0.000000 0.000000 0.055677 0.000000 0.000000
# 5 0.000000 0.000000 0.000000 0.000000 0.035470 0.000000
# 6 0.000000 0.000000 0.000000 0.000000 0.000000 0.022778
#
#
# Mechanical properties :
#
#
# Convention : Reuss Voigt Hill
#
# Bulk Modulus (GPa) = 37.67524 39.69079 38.68302
# Shear Modulus (GPa) = 24.62682 27.25738 25.94210
#
# Velocity S-wave (km/s) = 3.37250 3.54805 3.46139
# Velocity P-wave (km/s) = 5.70659 5.92587 5.81726
#
# Compressibility (1/GPa) = 0.02654263
#
# Stress axis : x y z
#
# Youngs Moduli (GPa) = 57.97429 50.05338 61.83202
#
# Poissons Ratio (x) = 0.15407 0.40576
# Poissons Ratio (y) = 0.17845 0.23425
# Poissons Ratio (z) = 0.38045 0.18963
#
# Static dielectric constant tensor:
#      x y z
#    x 3.976710 0.000000 0.000000 
#    y 0.000000 3.930150 0.000000 
#    z 0.000000 0.000000 3.756490 
# 
# 
# High freq. dielectric constant tensor:
#      x y z
#    x 1.859410 0.000000 0.000000 
#    y 0.000000 1.852880 0.000000 
#    z 0.000000 0.000000 1.837680 
# 
# From -- ./inp_files/31642.got.cif
#   From: 2010.06.25/outbox.cif.g09.slc.cpg/sg58_16_cif.got.tgz:31642.got - 2010.06.26 21:38:00.
