data_PCOD8238692
_publ_section_title
;
Structure prediction by ZEFSAII (Michael W. Deem and Ramdas Pophale) SiO2 
 PCOD8238692
Probable space group: P N N M
;
_chemical_formula_sum "Si O2"
_cell_formula_units_Z 56
_cell_length_a 9.787619
_cell_length_b 14.566117
_cell_length_c 19.159282
_cell_angle_alpha 90.000000
_cell_angle_beta 90.000000
_cell_angle_gamma 90.000000
_cell_volume 2731.492920
_symmetry_space_group_name_H-M "P N N M"
_symmetry_group_IT_number 58
_symmetry_cell_setting 'orthorhombic'
loop_
_space_group_symop_operation_xyz
x,y,z
-x,-y,z
1/2+x,1/2-y,1/2-z
1/2-x,1/2+y,1/2-z
-x,-y,-z
x,y,-z
1/2-x,1/2+y,1/2+z
1/2+x,1/2-y,1/2+z
loop_
_atom_site_type_symbol
_atom_site_label
_atom_site_fract_x
_atom_site_fract_y
_atom_site_fract_z
Si Si1 0.100115 0.922737 0.770450
Si Si2 0.260261 0.286940 0.923470
Si Si3 0.978387 0.732874 0.824075
Si Si4 0.143184 0.973912 0.386254
Si Si5 0.951814 0.699451 0.579136
Si Si6 0.089420 0.414469 0.707332
Si Si7 0.714647 0.842907 0.417536
O O1 0.046933 0.823636 0.793813
O O2 0.100880 0.929865 0.687379
O O3 0.252235 0.941474 0.797077
O O4 0.000000 0.000000 0.802908
O O5 0.265989 0.398044 0.925530
O O6 0.412554 0.256167 0.906119
O O7 0.160454 0.244062 0.865662
O O8 0.212762 0.252688 0.000000
O O9 0.074821 0.683086 0.879828
O O10 0.938193 0.668576 0.759929
O O11 0.235663 0.064051 0.380715
O O12 0.000000 0.000000 0.425422
O O13 0.943637 0.663439 0.500000
O O14 0.953330 0.611892 0.629129
O O15 0.823726 0.763671 0.597045
O O16 0.000000 0.500000 0.732799
O O17 0.690249 0.857761 0.500000
#
# Coordination Sequence:
#
# PCOD8238692 Si02
#       7
#     8   8   8   8   8   8   8
#     4  11  26  44  67  97 134 175 224 283 338 397
#     4  11  23  40  64  98 137 176 221 271 332 406
#     4  12  26  43  67  99 137 178 220 275 343 400
#     4  11  21  39  65  98 133 173 224 274 330 402
#     4  10  23  43  68  96 128 178 223 270 333 397
#     4  12  26  43  69  99 132 174 225 280 328 403
#     4  11  23  41  69  99 139 181 219 275 343 410
#
# _framework density 20.501609999999999
#
# number of rings (size 3 to 8) (size 9 to 14) (size 15 to 20)
#    0.000    0.857    4.286    2.571    4.000    0.857 
#    0.000    1.429    0.000    2.143    0.000    0.000 
#    0.000    0.000    0.000    0.000    0.000    0.000 
#
# Total GULP energy -694522.311698 kJ/mol
# GULP energy per Si atom -12402.184137 kJ/mol
# Density = 2.045495 g / cm^3
# Si number density = 20.501610 Si / 1000 Ang^3
#
#
#
# Elastic Constant Matrix: (Units=GPa)
#
#
# Indices 1 2 3 4 5 6 
#
# 1 95.0021 34.0876 39.8080 0.0000 0.0000 0.0000
# 2 34.0876 81.6083 28.8866 0.0000 0.0000 0.0000
# 3 39.8080 28.8866 102.1121 0.0000 0.0000 0.0000
# 4 0.0000 0.0000 0.0000 15.7966 0.0000 0.0000
# 5 0.0000 0.0000 0.0000 0.0000 22.9716 0.0000
# 6 0.0000 0.0000 0.0000 0.0000 0.0000 34.0546
#
#
#
# Elastic Compliance Matrix: (Units=1/GPa)
#
#
# Indices 1 2 3 4 5 6 
#
# 1 0.013814 -0.004294 -0.004171 0.000000 0.000000 0.000000
# 2 -0.004294 0.014952 -0.002556 0.000000 0.000000 0.000000
# 3 -0.004171 -0.002556 0.012142 0.000000 0.000000 0.000000
# 4 0.000000 0.000000 0.000000 0.063305 0.000000 0.000000
# 5 0.000000 0.000000 0.000000 0.000000 0.043532 0.000000
# 6 0.000000 0.000000 0.000000 0.000000 0.000000 0.029365
#
#
# Mechanical properties :
#
#
# Convention : Reuss Voigt Hill
#
# Bulk Modulus (GPa) = 53.00137 53.80967 53.40552
# Shear Modulus (GPa) = 24.33799 26.29391 25.31595
#
# Velocity S-wave (km/s) = 3.44921 3.58513 3.51782
# Velocity P-wave (km/s) = 6.46306 6.59098 6.52733
#
# Compressibility (1/GPa) = 0.01886744
#
# Stress axis : x y z
#
# Youngs Moduli (GPa) = 72.38803 66.88117 82.35790
#
# Poissons Ratio (x) = 0.28718 0.34350
# Poissons Ratio (y) = 0.31083 0.21049
# Poissons Ratio (z) = 0.30191 0.17093
#
# Static dielectric constant tensor:
#      x y z
#    x 3.913180 0.000000 0.000000 
#    y 0.000000 3.726070 0.000000 
#    z 0.000000 0.000000 3.715220 
# 
# 
# High freq. dielectric constant tensor:
#      x y z
#    x 1.815350 0.000000 0.000000 
#    y 0.000000 1.791670 0.000000 
#    z 0.000000 0.000000 1.805120 
# 
# From -- ./inp_files/28932.got.cif
#   From: 2010.06.25/outbox.cif.g09.slc.cpg/sg58_15_cif.got.tgz:28932.got - 2010.06.26 21:38:00.
