data_PCOD8238932
_publ_section_title
;
Structure prediction by ZEFSAII (Michael W. Deem and Ramdas Pophale) SiO2 
 PCOD8238932
Probable space group: P N N M
;
_chemical_formula_sum "Si O2"
_cell_formula_units_Z 48
_cell_length_a 8.064450
_cell_length_b 8.100339
_cell_length_c 33.924588
_cell_angle_alpha 90.000000
_cell_angle_beta 90.000000
_cell_angle_gamma 90.000000
_cell_volume 2216.116209
_symmetry_space_group_name_H-M "P N N M"
_symmetry_group_IT_number 58
_symmetry_cell_setting 'orthorhombic'
loop_
_space_group_symop_operation_xyz
x,y,z
-x,-y,z
1/2+x,1/2-y,1/2-z
1/2-x,1/2+y,1/2-z
-x,-y,-z
x,y,-z
1/2-x,1/2+y,1/2+z
1/2+x,1/2-y,1/2+z
loop_
_atom_site_type_symbol
_atom_site_label
_atom_site_fract_x
_atom_site_fract_y
_atom_site_fract_z
Si Si1 0.000000 0.000000 0.852247
Si Si2 0.583988 0.737652 0.712772
Si Si3 0.000000 0.000000 0.647526
Si Si4 0.262158 0.417043 0.787336
Si Si5 0.087399 0.241958 0.584740
Si Si6 0.576399 0.256506 0.000000
Si Si7 0.751425 0.905245 0.000000
Si Si8 0.238940 0.081686 0.915334
O O1 0.111700 0.119162 0.880091
O O2 0.888430 0.122077 0.825411
O O3 0.622029 0.623035 0.750191
O O4 0.393412 0.795049 0.712884
O O5 0.707286 0.892256 0.712970
O O6 0.876440 0.110677 0.674159
O O7 0.116101 0.112448 0.619626
O O8 0.126710 0.157013 0.541591
O O9 0.210633 0.392169 0.591293
O O10 0.896764 0.300410 0.586654
O O11 0.377679 0.245180 0.000000
O O12 0.648710 0.073551 0.000000
O O13 0.852122 0.895992 0.041498
#
# Coordination Sequence:
#
# PCOD8238932 Si02
#       8
#     4   8   4   8   8   4   4   8
#     4  12  21  33  54  84 114 138 176 227 285 338
#     4  11  24  42  62  83 111 147 187 232 283 343
#     4  12  21  33  54  84 114 138 176 227 285 338
#     4  11  24  42  62  83 111 147 187 232 283 343
#     4   9  18  32  51  75 106 144 183 224 269 321
#     4   7  12  27  48  70 100 140 184 224 262 309
#     4   7  12  27  48  70 100 140 184 224 262 309
#     4   9  18  32  51  75 106 144 183 224 269 321
#
# _framework density 21.659514000000001
#
# number of rings (size 3 to 8) (size 9 to 14) (size 15 to 20)
#    0.000    2.167    0.000    6.500    0.000    0.667 
#    0.000    3.333    0.000    0.000    0.000    0.000 
#    0.000   21.333    0.000    0.000    0.000    0.000 
#
# Total GULP energy -594700.693192 kJ/mol
# GULP energy per Si atom -12389.597775 kJ/mol
# Density = 2.161022 g / cm^3
# Si number density = 21.659514 Si / 1000 Ang^3
#
#
#
# Elastic Constant Matrix: (Units=GPa)
#
#
# Indices 1 2 3 4 5 6 
#
# 1 53.4426 2.7827 31.8635 0.0000 0.0000 0.0000
# 2 2.7827 54.5895 34.8221 0.0000 0.0000 0.0000
# 3 31.8635 34.8221 194.7019 0.0000 0.0000 0.0000
# 4 0.0000 0.0000 0.0000 15.6936 0.0000 0.0000
# 5 0.0000 0.0000 0.0000 0.0000 14.2048 0.0000
# 6 0.0000 0.0000 0.0000 0.0000 0.0000 24.4138
#
#
#
# Elastic Compliance Matrix: (Units=1/GPa)
#
#
# Indices 1 2 3 4 5 6 
#
# 1 0.020811 0.001255 -0.003630 0.000000 0.000000 0.000000
# 2 0.001255 0.020753 -0.003917 0.000000 0.000000 0.000000
# 3 -0.003630 -0.003917 0.006431 0.000000 0.000000 0.000000
# 4 0.000000 0.000000 0.000000 0.063720 0.000000 0.000000
# 5 0.000000 0.000000 0.000000 0.000000 0.070398 0.000000
# 6 0.000000 0.000000 0.000000 0.000000 0.000000 0.040960
#
#
# Mechanical properties :
#
#
# Convention : Reuss Voigt Hill
#
# Bulk Modulus (GPa) = 28.24071 49.07450 38.65760
# Shear Modulus (GPa) = 20.20515 26.41351 23.30933
#
# Velocity S-wave (km/s) = 3.05758 3.49590 3.28406
# Velocity P-wave (km/s) = 5.05290 6.24512 5.68038
#
# Compressibility (1/GPa) = 0.03540988
#
# Stress axis : x y z
#
# Youngs Moduli (GPa) = 48.05219 48.18532 155.50422
#
# Poissons Ratio (x) = -0.06046 0.56450
# Poissons Ratio (y) = -0.06030 0.60911
# Poissons Ratio (z) = 0.17444 0.18874
#
# Static dielectric constant tensor:
#      x y z
#    x 3.540250 0.000000 0.000000 
#    y 0.000000 3.564030 0.000000 
#    z 0.000000 0.000000 4.401460 
# 
# 
# High freq. dielectric constant tensor:
#      x y z
#    x 1.821470 0.000000 0.000000 
#    y 0.000000 1.822610 0.000000 
#    z 0.000000 0.000000 1.881020 
# 
# From -- ./inp_files/34664.got.cif
#   From: 2010.06.25/outbox.cif.g09.slc.cpg/sg58_18_cif.got.tgz:34664.got - 2010.06.26 21:38:00.
