data_PCOD8238625
_publ_section_title
;
Structure prediction by ZEFSAII (Michael W. Deem and Ramdas Pophale) SiO2 
 PCOD8238625
Probable space group: P N N M
;
_chemical_formula_sum "Si O2"
_cell_formula_units_Z 48
_cell_length_a 8.837613
_cell_length_b 14.492694
_cell_length_c 18.471869
_cell_angle_alpha 90.000000
_cell_angle_beta 90.000000
_cell_angle_gamma 90.000000
_cell_volume 2365.892145
_symmetry_space_group_name_H-M "P N N M"
_symmetry_group_IT_number 58
_symmetry_cell_setting 'orthorhombic'
loop_
_space_group_symop_operation_xyz
x,y,z
-x,-y,z
1/2+x,1/2-y,1/2-z
1/2-x,1/2+y,1/2-z
-x,-y,-z
x,y,-z
1/2-x,1/2+y,1/2+z
1/2+x,1/2-y,1/2+z
loop_
_atom_site_type_symbol
_atom_site_label
_atom_site_fract_x
_atom_site_fract_y
_atom_site_fract_z
Si Si1 0.427895 0.091524 0.601762
Si Si2 0.574155 0.714408 0.180110
Si Si3 0.917671 0.910826 0.579778
Si Si4 0.406166 0.086610 0.231398
Si Si5 0.437215 0.599612 0.307869
Si Si6 0.645858 0.249837 0.581671
O O1 0.259199 0.080270 0.574943
O O2 0.453424 0.097256 0.686653
O O3 0.505941 0.181578 0.568922
O O4 0.500000 0.000000 0.569017
O O5 0.446347 0.680164 0.125865
O O6 0.538597 0.821655 0.190914
O O7 0.553907 0.655283 0.254608
O O8 0.735353 0.702649 0.138616
O O9 0.988753 0.899110 0.500000
O O10 0.000000 0.000000 0.616715
O O11 0.224656 0.079709 0.229332
O O12 0.500000 0.000000 0.197376
O O13 0.500000 0.500000 0.329008
O O14 0.414341 0.655630 0.382391
O O15 0.712044 0.270124 0.500000
#
# Coordination Sequence:
#
# PCOD8238625 Si02
#       6
#     8   8   8   8   8   8
#     4  11  22  37  60  90 124 162 202 254 311 374
#     4  11  22  41  64  92 122 164 213 260 314 375
#     4  11  23  38  59  90 127 164 201 250 316 380
#     4  10  23  38  62  93 124 155 201 265 315 364
#     4  11  24  40  66  95 124 166 219 265 315 375
#     4  11  25  43  63  94 133 172 210 261 327 384
#
# _framework density 20.288329000000001
#
# number of rings (size 3 to 8) (size 9 to 14) (size 15 to 20)
#    0.000    1.167    3.333    2.500    4.667    4.333 
#    0.000    0.000    0.000   12.500    0.000    0.000 
#    0.000    0.000    0.000    0.000    0.000    0.000 
#
# Total GULP energy -594902.256809 kJ/mol
# GULP energy per Si atom -12393.797017 kJ/mol
# Density = 2.024215 g / cm^3
# Si number density = 20.288329 Si / 1000 Ang^3
#
#
#
# Elastic Constant Matrix: (Units=GPa)
#
#
# Indices 1 2 3 4 5 6 
#
# 1 105.4644 59.3634 35.6256 0.0000 0.0000 0.0000
# 2 59.3634 141.2152 47.2932 0.0000 0.0000 0.0000
# 3 35.6256 47.2932 105.3548 0.0000 0.0000 0.0000
# 4 0.0000 0.0000 0.0000 -33.5822 0.0000 0.0000
# 5 0.0000 0.0000 0.0000 0.0000 0.7455 0.0000
# 6 0.0000 0.0000 0.0000 0.0000 0.0000 41.2412
#
#
#
# Elastic Compliance Matrix: (Units=1/GPa)
#
#
# Indices 1 2 3 4 5 6 
#
# 1 0.012863 -0.004650 -0.002262 0.000000 0.000000 0.000000
# 2 -0.004650 0.010015 -0.002923 0.000000 0.000000 0.000000
# 3 -0.002262 -0.002923 0.011569 0.000000 0.000000 0.000000
# 4 0.000000 0.000000 0.000000 -0.029778 0.000000 0.000000
# 5 0.000000 0.000000 0.000000 0.000000 1.341457 0.000000
# 6 0.000000 0.000000 0.000000 0.000000 0.000000 0.024248
#
#
# Mechanical properties :
#
#
# Convention : Reuss Voigt Hill
#
# Bulk Modulus (GPa) = 67.67607 70.73318 69.20462
# Shear Modulus (GPa) = 3.58430 15.66437 9.62433
#
# Velocity S-wave (km/s) = 1.33061 2.78166 2.18038
# Velocity P-wave (km/s) = 5.98250 6.72730 6.36580
#
# Compressibility (1/GPa) = 0.01477627
#
# Stress axis : x y z
#
# Youngs Moduli (GPa) = 77.74021 99.84943 86.43715
#
# Poissons Ratio (x) = 0.46427 0.19556
# Poissons Ratio (y) = 0.36147 0.25269
# Poissons Ratio (z) = 0.17589 0.29190
#
# Static dielectric constant tensor:
#      x y z
#    x 3.708630 0.000000 0.000000 
#    y 0.000000 3.822420 0.000000 
#    z 0.000000 0.000000 3.740550 
# 
# 
# High freq. dielectric constant tensor:
#      x y z
#    x 1.792670 0.000000 0.000000 
#    y 0.000000 1.794740 0.000000 
#    z 0.000000 0.000000 1.793110 
# 
# From -- ./inp_files/25298.got.cif
#   From: 2010.06.25/outbox.cif.g09.slc.cpg/sg58_13_cif.got.tgz:25298.got - 2010.06.26 21:38:00.
