data_PCOD8238168
_publ_section_title
;
Structure prediction by ZEFSAII (Michael W. Deem and Ramdas Pophale) SiO2 
 PCOD8238168
Probable space group: P N N M
;
_chemical_formula_sum "Si O2"
_cell_formula_units_Z 48
_cell_length_a 30.756371
_cell_length_b 8.883523
_cell_length_c 9.116094
_cell_angle_alpha 90.000000
_cell_angle_beta 90.000000
_cell_angle_gamma 90.000000
_cell_volume 2490.744138
_symmetry_space_group_name_H-M "P N N M"
_symmetry_group_IT_number 58
_symmetry_cell_setting 'orthorhombic'
loop_
_space_group_symop_operation_xyz
x,y,z
-x,-y,z
1/2+x,1/2-y,1/2-z
1/2-x,1/2+y,1/2-z
-x,-y,-z
x,y,-z
1/2-x,1/2+y,1/2+z
1/2+x,1/2-y,1/2+z
loop_
_atom_site_type_symbol
_atom_site_label
_atom_site_fract_x
_atom_site_fract_y
_atom_site_fract_z
Si Si1 0.378734 0.076998 0.329962
Si Si2 0.628939 0.577109 0.331038
Si Si3 0.293787 0.586771 0.826953
Si Si4 0.959199 0.899937 0.169028
Si Si5 0.209206 0.403261 0.829448
Si Si6 0.956890 0.585903 0.326580
O O1 0.391239 0.058600 0.500000
O O2 0.332923 0.001477 0.293649
O O3 0.415221 0.998845 0.234318
O O4 0.376016 0.250407 0.284185
O O5 0.643594 0.562877 0.500000
O O6 0.664725 0.502129 0.229874
O O7 0.583615 0.496103 0.302286
O O8 0.250662 0.498766 0.778094
O O9 0.292587 0.752152 0.761936
O O10 0.296920 0.601406 0.000000
O O11 0.958138 0.754634 0.269292
O O12 0.962995 0.849524 0.000000
O O13 0.000000 0.000000 0.216740
O O14 0.211742 0.360852 0.000000
O O15 0.953460 0.589748 0.500000
O O16 0.000000 0.500000 0.273018
#
# Coordination Sequence:
#
# PCOD8238168 Si02
#       6
#     8   8   8   8   8   8
#     4  10  21  39  62  84 110 149 193 233 275 329
#     4  10  21  38  60  86 116 148 186 235 284 331
#     4  11  23  38  59  86 115 150 189 230 282 339
#     4  10  21  38  61  86 111 147 194 236 277 332
#     4  10  22  39  58  83 114 148 188 232 277 328
#     4  11  24  39  56  83 118 151 184 230 287 339
#
# _framework density 19.271348
#
# number of rings (size 3 to 8) (size 9 to 14) (size 15 to 20)
#    0.000    1.667    0.000    4.000    0.000   11.667 
#    0.000    0.000    0.000    0.000    0.000    0.000 
#    0.000    0.000    0.000    0.000    0.000    0.000 
#
# Total GULP energy -595492.510801 kJ/mol
# GULP energy per Si atom -12406.093975 kJ/mol
# Density = 1.922749 g / cm^3
# Si number density = 19.271348 Si / 1000 Ang^3
#
#
#
# Elastic Constant Matrix: (Units=GPa)
#
#
# Indices 1 2 3 4 5 6 
#
# 1 141.4733 73.5179 49.8559 0.0000 0.0000 0.0000
# 2 73.5179 165.9268 58.7522 0.0000 0.0000 0.0000
# 3 49.8559 58.7522 57.5576 0.0000 0.0000 0.0000
# 4 0.0000 0.0000 0.0000 34.0429 0.0000 0.0000
# 5 0.0000 0.0000 0.0000 0.0000 72.9989 0.0000
# 6 0.0000 0.0000 0.0000 0.0000 0.0000 33.5725
#
#
#
# Elastic Compliance Matrix: (Units=1/GPa)
#
#
# Indices 1 2 3 4 5 6 
#
# 1 0.010700 -0.002285 -0.006936 0.000000 0.000000 0.000000
# 2 -0.002285 0.009926 -0.008153 0.000000 0.000000 0.000000
# 3 -0.006936 -0.008153 0.031704 0.000000 0.000000 0.000000
# 4 0.000000 0.000000 0.000000 0.029375 0.000000 0.000000
# 5 0.000000 0.000000 0.000000 0.000000 0.013699 0.000000
# 6 0.000000 0.000000 0.000000 0.000000 0.000000 0.029786
#
#
# Mechanical properties :
#
#
# Convention : Reuss Voigt Hill
#
# Bulk Modulus (GPa) = 56.87489 81.02332 68.94910
# Shear Modulus (GPa) = 30.15726 40.31163 35.23444
#
# Velocity S-wave (km/s) = 3.96014 4.57857 4.28054
# Velocity P-wave (km/s) = 7.10542 8.37172 7.76443
#
# Compressibility (1/GPa) = 0.01758245
#
# Stress axis : x y z
#
# Youngs Moduli (GPa) = 93.45641 100.74613 31.54219
#
# Poissons Ratio (x) = 0.23021 0.21877
# Poissons Ratio (y) = 0.21355 0.25715
# Poissons Ratio (z) = 0.64820 0.82135
#
# Static dielectric constant tensor:
#      x y z
#    x 3.757170 0.000000 0.000000 
#    y 0.000000 3.527620 0.000000 
#    z 0.000000 0.000000 3.474390 
# 
# 
# High freq. dielectric constant tensor:
#      x y z
#    x 1.770550 0.000000 0.000000 
#    y 0.000000 1.769060 0.000000 
#    z 0.000000 0.000000 1.745920 
# 
# From -- ./inp_files/2959.got.cif
#   From: 2010.06.25/outbox.cif.g09.slc.cpg/sg58_2_cif.got.tgz:2959.got - 2010.06.26 21:38:00.
