data_PCOD8238462
_publ_section_title
;
Structure prediction by ZEFSAII (Michael W. Deem and Ramdas Pophale) SiO2 
 PCOD8238462
Probable space group: P N N M
;
_chemical_formula_sum "Si O2"
_cell_formula_units_Z 40
_cell_length_a 10.557584
_cell_length_b 6.002195
_cell_length_c 26.131556
_cell_angle_alpha 90.000000
_cell_angle_beta 90.000000
_cell_angle_gamma 90.000000
_cell_volume 1655.922155
_symmetry_space_group_name_H-M "P N N M"
_symmetry_group_IT_number 58
_symmetry_cell_setting 'orthorhombic'
loop_
_space_group_symop_operation_xyz
x,y,z
-x,-y,z
1/2+x,1/2-y,1/2-z
1/2-x,1/2+y,1/2-z
-x,-y,-z
x,y,-z
1/2-x,1/2+y,1/2+z
1/2+x,1/2-y,1/2+z
loop_
_atom_site_type_symbol
_atom_site_label
_atom_site_fract_x
_atom_site_fract_y
_atom_site_fract_z
Si Si1 0.164343 0.363110 0.304563
Si Si2 0.117775 0.846375 0.940925
Si Si3 0.225688 0.482820 0.126454
Si Si4 0.390621 0.658369 0.706105
Si Si5 0.369625 0.087264 0.906101
O O1 0.278602 0.492698 0.277063
O O2 0.071212 0.297511 0.257391
O O3 0.106802 0.529242 0.346299
O O4 0.205067 0.141761 0.334069
O O5 0.127574 0.614838 0.909970
O O6 0.251450 0.967799 0.932354
O O7 0.099085 0.786219 0.000000
O O8 0.000000 0.000000 0.922243
O O9 0.140852 0.307507 0.157241
O O10 0.335369 0.351948 0.093251
O O11 0.500000 0.500000 0.685947
O O12 0.500000 0.000000 0.933894
#
# Coordination Sequence:
#
# PCOD8238462 Si02
#       5
#     8   8   8   8   8
#     4  10  22  38  57  91 132 181 235 269 337 412
#     4  10  24  47  76 103 132 178 236 296 365 432
#     4  10  23  44  66  95 143 181 236 286 357 414
#     4  11  23  37  62  93 134 187 236 285 336 412
#     4  10  24  41  67 101 141 179 227 288 349 430
#
# _framework density 24.155726000000001
#
# number of rings (size 3 to 8) (size 9 to 14) (size 15 to 20)
#    0.000    1.800    2.000    0.000    2.800   14.000 
#    0.000    3.000    0.000    0.600    0.000    0.000 
#    0.000    0.000    0.000    0.000    0.000    0.000 
#
# Total GULP energy -495619.312405 kJ/mol
# GULP energy per Si atom -12390.482810 kJ/mol
# Density = 2.410075 g / cm^3
# Si number density = 24.155726 Si / 1000 Ang^3
#
#
#
# Elastic Constant Matrix: (Units=GPa)
#
#
# Indices 1 2 3 4 5 6 
#
# 1 135.5498 51.1994 27.7153 0.0000 0.0000 0.0000
# 2 51.1994 146.5296 41.9556 0.0000 0.0000 0.0000
# 3 27.7153 41.9556 87.1005 0.0000 0.0000 0.0000
# 4 0.0000 0.0000 0.0000 2.6811 0.0000 0.0000
# 5 0.0000 0.0000 0.0000 0.0000 -49.2648 0.0000
# 6 0.0000 0.0000 0.0000 0.0000 0.0000 16.3835
#
#
#
# Elastic Compliance Matrix: (Units=1/GPa)
#
#
# Indices 1 2 3 4 5 6 
#
# 1 0.008666 -0.002597 -0.001507 0.000000 0.000000 0.000000
# 2 -0.002597 0.008694 -0.003362 0.000000 0.000000 0.000000
# 3 -0.001507 -0.003362 0.013580 0.000000 0.000000 0.000000
# 4 0.000000 0.000000 0.000000 0.372985 0.000000 0.000000
# 5 0.000000 0.000000 0.000000 0.000000 -0.020298 0.000000
# 6 0.000000 0.000000 0.000000 0.000000 0.000000 0.061037
#
#
# Mechanical properties :
#
#
# Convention : Reuss Voigt Hill
#
# Bulk Modulus (GPa) = 62.46099 67.88006 65.17053
# Shear Modulus (GPa) = 10.75427 10.51392 10.63409
#
# Velocity S-wave (km/s) = 2.11228 2.08854 2.10044
# Velocity P-wave (km/s) = 5.64471 5.82907 5.73763
#
# Compressibility (1/GPa) = 0.01600999
#
# Stress axis : x y z
#
# Youngs Moduli (GPa) = 115.39007 115.01596 73.63878
#
# Poissons Ratio (x) = 0.29866 0.11096
# Poissons Ratio (y) = 0.29963 0.24756
# Poissons Ratio (z) = 0.17387 0.38666
#
# Static dielectric constant tensor:
#      x y z
#    x 4.562770 0.000000 0.000000 
#    y 0.000000 2.677740 0.000000 
#    z 0.000000 0.000000 4.151770 
# 
# 
# High freq. dielectric constant tensor:
#      x y z
#    x 1.953550 0.000000 0.000000 
#    y 0.000000 1.971350 0.000000 
#    z 0.000000 0.000000 1.944640 
# 
# From -- ./inp_files/33454.got.cif
#   From: 2010.06.25/outbox.cif.g09.slc.cpg/sg58_17_cif.got.tgz:33454.got - 2010.06.26 21:38:00.
