data_PCOD8238072
_publ_section_title
;
Structure prediction by ZEFSAII (Michael W. Deem and Ramdas Pophale) SiO2 
 PCOD8238072
Probable space group: P N N M
;
_chemical_formula_sum "Si O2"
_cell_formula_units_Z 64
_cell_length_a 14.585592
_cell_length_b 25.718980
_cell_length_c 8.543008
_cell_angle_alpha 90.000000
_cell_angle_beta 90.000000
_cell_angle_gamma 90.000000
_cell_volume 3204.709109
_symmetry_space_group_name_H-M "P N N M"
_symmetry_group_IT_number 58
_symmetry_cell_setting 'orthorhombic'
loop_
_space_group_symop_operation_xyz
x,y,z
-x,-y,z
1/2+x,1/2-y,1/2-z
1/2-x,1/2+y,1/2-z
-x,-y,-z
x,y,-z
1/2-x,1/2+y,1/2+z
1/2+x,1/2-y,1/2+z
loop_
_atom_site_type_symbol
_atom_site_label
_atom_site_fract_x
_atom_site_fract_y
_atom_site_fract_z
Si Si1 0.649162 0.634044 0.820727
Si Si2 0.007520 0.669388 0.820342
Si Si3 0.002284 0.779842 0.679834
Si Si4 0.673781 0.890154 0.182652
Si Si5 0.102581 0.500777 0.315124
Si Si6 0.863264 0.868052 0.318419
Si Si7 0.338950 0.887934 0.181700
Si Si8 0.005427 0.940383 0.818600
O O1 0.593755 0.686868 0.787958
O O2 0.737643 0.633611 0.710738
O O3 0.584884 0.585149 0.784231
O O4 0.680783 0.630390 0.000000
O O5 0.003983 0.730825 0.792722
O O6 0.908872 0.645549 0.782844
O O7 0.083104 0.643510 0.709713
O O8 0.032509 0.658651 0.000000
O O9 0.998217 0.761414 0.500000
O O10 0.912482 0.813642 0.722502
O O11 0.657450 0.948827 0.247215
O O12 0.756528 0.863847 0.277264
O O13 0.697860 0.889823 0.000000
O O14 0.094386 0.506348 0.500000
O O15 0.155793 0.448443 0.266358
O O16 0.000000 0.500000 0.242622
O O17 0.878308 0.880959 0.500000
O O18 0.907499 0.914292 0.217047
O O19 0.364477 0.881887 0.000000
O O20 0.030399 0.933537 0.000000
O O21 0.000000 0.000000 0.769717
#
# Coordination Sequence:
#
# PCOD8238072 Si02
#       8
#     8   8   8   8   8   8   8   8
#     4  10  22  40  61  89 122 154 196 252 305 351
#     4  12  25  40  61  90 120 152 201 255 303 352
#     4   9  21  43  65  83 115 159 199 244 303 362
#     4  11  22  39  63  89 121 161 202 242 295 361
#     4   9  18  36  60  85 116 157 200 240 283 347
#     4  10  22  40  61  89 122 154 196 252 305 351
#     4  11  22  39  63  89 121 161 202 242 295 361
#     4  10  21  37  58  85 118 161 206 242 289 359
#
# _framework density 19.970611999999999
#
# number of rings (size 3 to 8) (size 9 to 14) (size 15 to 20)
#    0.000    1.750    1.250    3.750    1.750    5.000 
#    0.000    2.500    0.000    0.000    0.000    0.000 
#    0.000    0.000    0.000    0.000    0.000    0.000 
#
# Total GULP energy -793919.656132 kJ/mol
# GULP energy per Si atom -12404.994627 kJ/mol
# Density = 1.992516 g / cm^3
# Si number density = 19.970612 Si / 1000 Ang^3
#
#
#
# Elastic Constant Matrix: (Units=GPa)
#
#
# Indices 1 2 3 4 5 6 
#
# 1 111.9076 39.4186 10.3418 0.0000 0.0000 0.0000
# 2 39.4186 128.0625 34.5610 0.0000 0.0000 0.0000
# 3 10.3418 34.5610 53.3067 0.0000 0.0000 0.0000
# 4 0.0000 0.0000 0.0000 26.7290 0.0000 0.0000
# 5 0.0000 0.0000 0.0000 0.0000 34.1267 0.0000
# 6 0.0000 0.0000 0.0000 0.0000 0.0000 3.8421
#
#
#
# Elastic Compliance Matrix: (Units=1/GPa)
#
#
# Indices 1 2 3 4 5 6 
#
# 1 0.010023 -0.003103 0.000068 0.000000 0.000000 0.000000
# 2 -0.003103 0.010426 -0.006157 0.000000 0.000000 0.000000
# 3 0.000068 -0.006157 0.022738 0.000000 0.000000 0.000000
# 4 0.000000 0.000000 0.000000 0.037412 0.000000 0.000000
# 5 0.000000 0.000000 0.000000 0.000000 0.029303 0.000000
# 6 0.000000 0.000000 0.000000 0.000000 0.000000 0.260277
#
#
# Mechanical properties :
#
#
# Convention : Reuss Voigt Hill
#
# Bulk Modulus (GPa) = 40.32167 51.32441 45.82304
# Shear Modulus (GPa) = 12.59979 26.86992 19.73485
#
# Velocity S-wave (km/s) = 2.51453 3.67205 3.14697
# Velocity P-wave (km/s) = 5.35395 6.61319 6.01661
#
# Compressibility (1/GPa) = 0.02480056
#
# Stress axis : x y z
#
# Youngs Moduli (GPa) = 99.77225 95.91750 43.97861
#
# Poissons Ratio (x) = 0.29766 -0.00297
# Poissons Ratio (y) = 0.30963 0.27079
# Poissons Ratio (z) = -0.00674 0.59059
#
# Static dielectric constant tensor:
#      x y z
#    x 3.591550 0.000000 0.000000 
#    y 0.000000 3.660350 0.000000 
#    z 0.000000 0.000000 3.450790 
# 
# 
# High freq. dielectric constant tensor:
#      x y z
#    x 1.782790 0.000000 0.000000 
#    y 0.000000 1.781780 0.000000 
#    z 0.000000 0.000000 1.772260 
# 
# From -- ./inp_files/6948.got.cif
#   From: 2010.06.25/outbox.cif.g09.slc.cpg/sg58_4_cif.got.tgz:6948.got - 2010.06.26 21:38:00.
