data_PCOD8238662
_publ_section_title
;
Structure prediction by ZEFSAII (Michael W. Deem and Ramdas Pophale) SiO2 
 PCOD8238662
Probable space group: P N N M
;
_chemical_formula_sum "Si O2"
_cell_formula_units_Z 64
_cell_length_a 22.777820
_cell_length_b 14.496049
_cell_length_c 9.170372
_cell_angle_alpha 90.000000
_cell_angle_beta 90.000000
_cell_angle_gamma 90.000000
_cell_volume 3027.950411
_symmetry_space_group_name_H-M "P N N M"
_symmetry_group_IT_number 58
_symmetry_cell_setting 'orthorhombic'
loop_
_space_group_symop_operation_xyz
x,y,z
-x,-y,z
1/2+x,1/2-y,1/2-z
1/2-x,1/2+y,1/2-z
-x,-y,-z
x,y,-z
1/2-x,1/2+y,1/2+z
1/2+x,1/2-y,1/2+z
loop_
_atom_site_type_symbol
_atom_site_label
_atom_site_fract_x
_atom_site_fract_y
_atom_site_fract_z
Si Si1 0.686238 0.464332 0.666605
Si Si2 0.598103 0.155548 0.828649
Si Si3 0.985677 0.379224 0.160748
Si Si4 0.334066 0.358851 0.171171
Si Si5 0.872546 0.486095 0.166081
Si Si6 0.550581 0.677880 0.663744
Si Si7 0.581906 0.338100 0.330694
Si Si8 0.795248 0.342188 0.330678
O O1 0.693463 0.494985 0.500000
O O2 0.701022 0.553741 0.763545
O O3 0.620087 0.429285 0.698676
O O4 0.730238 0.380123 0.702870
O O5 0.531692 0.125476 0.791818
O O6 0.610666 0.255953 0.763044
O O7 0.641288 0.080080 0.754196
O O8 0.608897 0.156096 0.000000
O O9 0.943176 0.467915 0.174399
O O10 0.945143 0.288381 0.169939
O O11 0.016957 0.379513 0.000000
O O12 0.400511 0.362835 0.230049
O O13 0.300120 0.265078 0.216683
O O14 0.336482 0.370638 0.000000
O O15 0.840996 0.400123 0.238053
O O16 0.851228 0.496815 0.000000
O O17 0.563414 0.641714 0.500000
O O18 0.485687 0.643767 0.714749
O O19 0.584540 0.308204 0.500000
O O20 0.812025 0.352632 0.500000
#
# Coordination Sequence:
#
# PCOD8238662 Si02
#       8
#     8   8   8   8   8   8   8   8
#     4  10  23  44  67  88 117 159 204 248 297 358
#     4  11  22  33  52  85 124 161 197 245 307 359
#     4   9  18  33  53  81 117 159 206 246 289 356
#     4  11  23  39  62  93 126 155 193 249 309 364
#     4  11  21  35  57  83 115 159 207 249 292 353
#     4   9  17  34  60  88 118 157 206 249 297 360
#     4   9  20  40  62  86 119 162 210 254 298 361
#     4  10  23  42  62  88 121 155 198 252 306 359
#
# _framework density 21.136410000000001
#
# number of rings (size 3 to 8) (size 9 to 14) (size 15 to 20)
#    0.000    2.000    1.250    3.000    0.000    7.500 
#    0.000    3.750    0.000    0.000    0.000    0.000 
#    0.000    0.000    0.000    0.000    0.000    0.000 
#
# Total GULP energy -793588.819266 kJ/mol
# GULP energy per Si atom -12399.825301 kJ/mol
# Density = 2.108830 g / cm^3
# Si number density = 21.136410 Si / 1000 Ang^3
#
#
#
# Elastic Constant Matrix: (Units=GPa)
#
#
# Indices 1 2 3 4 5 6 
#
# 1 67.4400 45.0814 37.8805 0.0000 0.0000 0.0000
# 2 45.0814 127.3154 64.3529 0.0000 0.0000 0.0000
# 3 37.8805 64.3529 106.1480 0.0000 0.0000 0.0000
# 4 0.0000 0.0000 0.0000 34.9019 0.0000 0.0000
# 5 0.0000 0.0000 0.0000 0.0000 23.2339 0.0000
# 6 0.0000 0.0000 0.0000 0.0000 0.0000 19.0004
#
#
#
# Elastic Compliance Matrix: (Units=1/GPa)
#
#
# Indices 1 2 3 4 5 6 
#
# 1 0.020669 -0.005177 -0.004237 0.000000 0.000000 0.000000
# 2 -0.005177 0.012621 -0.005804 0.000000 0.000000 0.000000
# 3 -0.004237 -0.005804 0.014452 0.000000 0.000000 0.000000
# 4 0.000000 0.000000 0.000000 0.028652 0.000000 0.000000
# 5 0.000000 0.000000 0.000000 0.000000 0.043040 0.000000
# 6 0.000000 0.000000 0.000000 0.000000 0.000000 0.052630
#
#
# Mechanical properties :
#
#
# Convention : Reuss Voigt Hill
#
# Bulk Modulus (GPa) = 57.78750 66.17033 61.97891
# Shear Modulus (GPa) = 24.00725 25.66649 24.83687
#
# Velocity S-wave (km/s) = 3.37386 3.48850 3.43166
# Velocity P-wave (km/s) = 6.52509 6.89931 6.71481
#
# Compressibility (1/GPa) = 0.01730478
#
# Stress axis : x y z
#
# Youngs Moduli (GPa) = 48.38248 79.23011 69.19450
#
# Poissons Ratio (x) = 0.41015 0.29321
# Poissons Ratio (y) = 0.25046 0.40164
# Poissons Ratio (z) = 0.20502 0.45989
#
# Static dielectric constant tensor:
#      x y z
#    x 3.680080 0.000000 0.000000 
#    y 0.000000 3.910540 0.000000 
#    z 0.000000 0.000000 3.650300 
# 
# 
# High freq. dielectric constant tensor:
#      x y z
#    x 1.810780 0.000000 0.000000 
#    y 0.000000 1.839090 0.000000 
#    z 0.000000 0.000000 1.815110 
# 
# From -- ./inp_files/9951.got.cif
#   From: 2010.06.25/outbox.cif.g09.slc.cpg/sg58_5_cif.got.tgz:9951.got - 2010.06.26 21:38:00.
