data_PCOD8238134
_publ_section_title
;
Structure prediction by ZEFSAII (Michael W. Deem and Ramdas Pophale) SiO2 
 PCOD8238134
Probable space group: P N N M
;
_chemical_formula_sum "Si O2"
_cell_formula_units_Z 40
_cell_length_a 25.169134
_cell_length_b 9.963169
_cell_length_c 7.974879
_cell_angle_alpha 90.000000
_cell_angle_beta 90.000000
_cell_angle_gamma 90.000000
_cell_volume 1999.815234
_symmetry_space_group_name_H-M "P N N M"
_symmetry_group_IT_number 58
_symmetry_cell_setting 'orthorhombic'
loop_
_space_group_symop_operation_xyz
x,y,z
-x,-y,z
1/2+x,1/2-y,1/2-z
1/2-x,1/2+y,1/2-z
-x,-y,-z
x,y,-z
1/2-x,1/2+y,1/2+z
1/2+x,1/2-y,1/2+z
loop_
_atom_site_type_symbol
_atom_site_label
_atom_site_fract_x
_atom_site_fract_y
_atom_site_fract_z
Si Si1 0.000000 0.000000 0.754207
Si Si2 0.909235 0.305194 0.500000
Si Si3 0.213512 0.020492 0.190628
Si Si4 0.628918 0.103076 0.000000
Si Si5 0.475944 0.724261 0.000000
Si Si6 0.392599 0.375569 0.319892
Si Si7 0.701763 0.176496 0.309495
O O1 0.975866 0.874673 0.655968
O O2 0.050569 0.945691 0.854410
O O3 0.880169 0.445255 0.500000
O O4 0.891746 0.227716 0.332464
O O5 0.972681 0.320972 0.500000
O O6 0.223352 0.175616 0.236644
O O7 0.151450 0.988378 0.220241
O O8 0.249291 0.926731 0.307835
O O9 0.231230 0.991999 0.000000
O O10 0.658301 0.137321 0.172393
O O11 0.574117 0.180919 0.000000
O O12 0.378814 0.304873 0.500000
O O13 0.677925 0.176298 0.500000
#
# Coordination Sequence:
#
# PCOD8238134 Si02
#       7
#     4   4   8   4   4   8   8
#     4   9  17  36  64  97 119 158 215 255 314 377
#     4  10  24  39  62  93 123 168 209 256 307 380
#     4  10  23  42  60  92 123 161 208 254 308 372
#     4  12  24  43  64  89 127 167 206 252 326 360
#     4   9  19  38  64  92 125 161 207 257 315 374
#     4  10  21  37  63  91 127 163 208 261 312 361
#     4  11  26  41  63  90 122 161 209 255 308 372
#
# _framework density 20.001849
#
# number of rings (size 3 to 8) (size 9 to 14) (size 15 to 20)
#    0.000    1.800    1.000    2.400    5.600    0.800 
#    0.000    4.000    0.000    6.000    0.000    0.000 
#    0.000    0.000    0.000    0.000    0.000    0.000 
#
# Total GULP energy -495734.195682 kJ/mol
# GULP energy per Si atom -12393.354892 kJ/mol
# Density = 1.995632 g / cm^3
# Si number density = 20.001849 Si / 1000 Ang^3
#
#
#
# Elastic Constant Matrix: (Units=GPa)
#
#
# Indices 1 2 3 4 5 6 
#
# 1 68.0634 48.9007 49.5799 0.0000 0.0000 0.0000
# 2 48.9007 140.8156 65.6548 0.0000 0.0000 0.0000
# 3 49.5799 65.6548 138.9742 0.0000 0.0000 0.0000
# 4 0.0000 0.0000 0.0000 -3.2098 0.0000 0.0000
# 5 0.0000 0.0000 0.0000 0.0000 99.0301 0.0000
# 6 0.0000 0.0000 0.0000 0.0000 0.0000 33.7246
#
#
#
# Elastic Compliance Matrix: (Units=1/GPa)
#
#
# Indices 1 2 3 4 5 6 
#
# 1 0.022490 -0.005219 -0.005558 0.000000 0.000000 0.000000
# 2 -0.005219 0.010319 -0.003013 0.000000 0.000000 0.000000
# 3 -0.005558 -0.003013 0.010602 0.000000 0.000000 0.000000
# 4 0.000000 0.000000 0.000000 -0.311548 0.000000 0.000000
# 5 0.000000 0.000000 0.000000 0.000000 0.010098 0.000000
# 6 0.000000 0.000000 0.000000 0.000000 0.000000 0.029652
#
#
# Mechanical properties :
#
#
# Convention : Reuss Voigt Hill
#
# Bulk Modulus (GPa) = 63.16627 75.12488 69.14557
# Shear Modulus (GPa) = -25.57145 38.15682 6.29268
#
# Velocity S-wave (km/s) = -3.57943 4.37242 1.77564
# Velocity P-wave (km/s) = 3.81650 7.94552 6.23285
#
# Compressibility (1/GPa) = 0.01583123
#
# Stress axis : x y z
#
# Youngs Moduli (GPa) = 44.46346 96.91290 94.32306
#
# Poissons Ratio (x) = 0.50576 0.52426
# Poissons Ratio (y) = 0.23204 0.28419
# Poissons Ratio (z) = 0.24713 0.29199
#
# Static dielectric constant tensor:
#      x y z
#    x 3.669310 0.000000 0.000000 
#    y 0.000000 3.551380 0.000000 
#    z 0.000000 0.000000 3.746120 
# 
# 
# High freq. dielectric constant tensor:
#      x y z
#    x 1.785870 0.000000 0.000000 
#    y 0.000000 1.773630 0.000000 
#    z 0.000000 0.000000 1.791500 
# 
# From -- ./inp_files/2686.got.cif
#   From: 2010.06.25/outbox.cif.g09.slc.cpg/sg58_2_cif.got.tgz:2686.got - 2010.06.26 21:38:00.
