data_PCOD8238584
_publ_section_title
;
Structure prediction by ZEFSAII (Michael W. Deem and Ramdas Pophale) SiO2 
 PCOD8238584
Probable space group: P N N M
;
_chemical_formula_sum "Si O2"
_cell_formula_units_Z 56
_cell_length_a 14.362685
_cell_length_b 21.384114
_cell_length_c 9.232149
_cell_angle_alpha 90.000000
_cell_angle_beta 90.000000
_cell_angle_gamma 90.000000
_cell_volume 2835.500327
_symmetry_space_group_name_H-M "P N N M"
_symmetry_group_IT_number 58
_symmetry_cell_setting 'orthorhombic'
loop_
_space_group_symop_operation_xyz
x,y,z
-x,-y,z
1/2+x,1/2-y,1/2-z
1/2-x,1/2+y,1/2-z
-x,-y,-z
x,y,-z
1/2-x,1/2+y,1/2+z
1/2+x,1/2-y,1/2+z
loop_
_atom_site_type_symbol
_atom_site_label
_atom_site_fract_x
_atom_site_fract_y
_atom_site_fract_z
Si Si1 0.391536 0.653477 0.334502
Si Si2 0.908121 0.419356 0.166330
Si Si3 0.101227 0.025925 0.330266
Si Si4 0.882991 0.563893 0.166324
Si Si5 0.909703 0.200427 0.166515
Si Si6 0.706771 0.579206 0.669648
Si Si7 0.312519 0.188618 0.166688
O O1 0.398449 0.628312 0.500000
O O2 0.389895 0.596071 0.225076
O O3 0.480173 0.697327 0.300083
O O4 0.298825 0.694824 0.312354
O O5 0.886820 0.490750 0.204437
O O6 0.844856 0.376824 0.267015
O O7 0.016859 0.404821 0.195195
O O8 0.883458 0.404952 0.000000
O O9 0.122826 0.024527 0.500000
O O10 0.176959 0.983844 0.250156
O O11 0.000000 0.000000 0.292520
O O12 0.808569 0.597837 0.270117
O O13 0.853506 0.573832 0.000000
O O14 0.865199 0.133929 0.207799
O O15 0.863548 0.253645 0.260940
O O16 0.890207 0.217001 0.000000
O O17 0.711768 0.566076 0.500000
O O18 0.340660 0.188712 0.000000
#
# Coordination Sequence:
#
# PCOD8238584 Si02
#       7
#     8   8   8   8   8   8   8
#     4  10  22  42  63  85 116 156 197 238 295 356
#     4   9  19  38  60  83 115 155 192 230 287 350
#     4  11  22  35  58  91 122 153 191 240 296 348
#     4   9  19  36  60  87 116 151 191 236 285 343
#     4  10  23  42  60  79 112 156 196 232 285 353
#     4  11  22  36  58  87 119 155 193 238 293 351
#     4  11  24  39  60  87 114 149 198 249 289 338
#
# _framework density 19.749600000000001
#
# number of rings (size 3 to 8) (size 9 to 14) (size 15 to 20)
#    0.000    1.857    1.429    3.000    0.000    8.000 
#    0.000    5.714    0.000    0.000    0.000    0.000 
#    0.000    0.000    0.000    0.000    0.000    0.000 
#
# Total GULP energy -694618.509882 kJ/mol
# GULP energy per Si atom -12403.901962 kJ/mol
# Density = 1.970465 g / cm^3
# Si number density = 19.749600 Si / 1000 Ang^3
#
#
#
# Elastic Constant Matrix: (Units=GPa)
#
#
# Indices 1 2 3 4 5 6 
#
# 1 130.3096 35.7316 52.4105 0.0000 0.0000 0.0000
# 2 35.7316 63.4202 43.6927 0.0000 0.0000 0.0000
# 3 52.4105 43.6927 84.0490 0.0000 0.0000 0.0000
# 4 0.0000 0.0000 0.0000 28.4229 0.0000 0.0000
# 5 0.0000 0.0000 0.0000 0.0000 30.7876 0.0000
# 6 0.0000 0.0000 0.0000 0.0000 0.0000 26.0000
#
#
#
# Elastic Compliance Matrix: (Units=1/GPa)
#
#
# Indices 1 2 3 4 5 6 
#
# 1 0.010432 -0.002175 -0.005375 0.000000 0.000000 0.000000
# 2 -0.002175 0.025019 -0.011650 0.000000 0.000000 0.000000
# 3 -0.005375 -0.011650 0.021306 0.000000 0.000000 0.000000
# 4 0.000000 0.000000 0.000000 0.035183 0.000000 0.000000
# 5 0.000000 0.000000 0.000000 0.000000 0.032481 0.000000
# 6 0.000000 0.000000 0.000000 0.000000 0.000000 0.038462
#
#
# Mechanical properties :
#
#
# Convention : Reuss Voigt Hill
#
# Bulk Modulus (GPa) = 54.47218 60.16095 57.31657
# Shear Modulus (GPa) = 24.10798 26.77169 25.43983
#
# Velocity S-wave (km/s) = 3.49762 3.68578 3.59293
# Velocity P-wave (km/s) = 6.62966 6.97433 6.80418
#
# Compressibility (1/GPa) = 0.01835799
#
# Stress axis : x y z
#
# Youngs Moduli (GPa) = 95.85886 39.96907 46.93621
#
# Poissons Ratio (x) = 0.08692 0.25226
# Poissons Ratio (y) = 0.20847 0.54681
# Poissons Ratio (z) = 0.51520 0.46564
#
# Static dielectric constant tensor:
#      x y z
#    x 3.907450 0.000000 0.000000 
#    y 0.000000 3.348490 0.000000 
#    z 0.000000 0.000000 3.571800 
# 
# 
# High freq. dielectric constant tensor:
#      x y z
#    x 1.789850 0.000000 0.000000 
#    y 0.000000 1.752640 0.000000 
#    z 0.000000 0.000000 1.770210 
# 
# From -- ./inp_files/6386.got.cif
#   From: 2010.06.25/outbox.cif.g09.slc.cpg/sg58_4_cif.got.tgz:6386.got - 2010.06.26 21:38:00.
