data_PCOD8238085
_publ_section_title
;
Structure prediction by ZEFSAII (Michael W. Deem and Ramdas Pophale) SiO2 
 PCOD8238085
Probable space group: P N N M
;
_chemical_formula_sum "Si O2"
_cell_formula_units_Z 56
_cell_length_a 9.158030
_cell_length_b 13.822861
_cell_length_c 21.989519
_cell_angle_alpha 90.000000
_cell_angle_beta 90.000000
_cell_angle_gamma 90.000000
_cell_volume 2783.657074
_symmetry_space_group_name_H-M "P N N M"
_symmetry_group_IT_number 58
_symmetry_cell_setting 'orthorhombic'
loop_
_space_group_symop_operation_xyz
x,y,z
-x,-y,z
1/2+x,1/2-y,1/2-z
1/2-x,1/2+y,1/2-z
-x,-y,-z
x,y,-z
1/2-x,1/2+y,1/2+z
1/2+x,1/2-y,1/2+z
loop_
_atom_site_type_symbol
_atom_site_label
_atom_site_fract_x
_atom_site_fract_y
_atom_site_fract_z
Si Si1 0.133858 0.698073 0.826015
Si Si2 0.434073 0.241778 0.809943
Si Si3 0.781145 0.076975 0.000000
Si Si4 0.652143 0.465350 0.684076
Si Si5 0.112943 0.071426 0.315790
Si Si6 0.114542 0.139531 0.000000
Si Si7 0.842425 0.762074 0.126482
Si Si8 0.678312 0.127282 0.871181
O O1 0.121417 0.693517 0.752791
O O2 0.237240 0.607620 0.848981
O O3 0.198400 0.800488 0.846288
O O4 0.976029 0.689710 0.858240
O O5 0.539177 0.329533 0.793323
O O6 0.308625 0.288844 0.853377
O O7 0.518601 0.160740 0.849827
O O8 0.688411 0.118007 0.943750
O O9 0.942665 0.120992 0.000000
O O10 0.793730 0.960177 0.000000
O O11 0.500000 0.500000 0.653126
O O12 0.653649 0.489399 0.755737
O O13 0.663799 0.352728 0.671879
O O14 0.788212 0.521342 0.655255
O O15 0.000000 0.000000 0.353447
O O16 0.157759 0.204863 0.057175
#
# Coordination Sequence:
#
# PCOD8238085 Si02
#       8
#     8   8   4   8   8   4   8   8
#     4  11  19  37  58  83 114 161 209 249 302 359
#     4  11  23  38  54  86 126 158 203 252 310 360
#     4  11  20  37  59  87 116 167 214 236 276 376
#     4  11  17  32  56  83 118 159 200 231 286 352
#     4  10  21  37  59  84 115 154 202 259 306 358
#     4  11  22  35  59  87 122 160 206 238 284 377
#     4  12  21  36  57  86 122 164 195 240 298 359
#     4  11  22  35  59  86 123 167 203 242 295 364
#
# _framework density 20.117422000000001
#
# number of rings (size 3 to 8) (size 9 to 14) (size 15 to 20)
#    0.000    1.000    7.143    1.714    0.000    1.143 
#    0.000    2.857    0.000    0.000    0.000   19.000 
#    0.000    0.000    0.000    0.000    0.000    0.000 
#
# Total GULP energy -694068.465231 kJ/mol
# GULP energy per Si atom -12394.079736 kJ/mol
# Density = 2.007163 g / cm^3
# Si number density = 20.117422 Si / 1000 Ang^3
#
#
#
# Elastic Constant Matrix: (Units=GPa)
#
#
# Indices 1 2 3 4 5 6 
#
# 1 115.2560 33.7201 44.5688 0.0000 0.0000 0.0000
# 2 33.7201 56.8667 23.3598 0.0000 0.0000 0.0000
# 3 44.5688 23.3598 123.4056 0.0000 0.0000 0.0000
# 4 0.0000 0.0000 0.0000 24.4822 0.0000 0.0000
# 5 0.0000 0.0000 0.0000 0.0000 25.8998 0.0000
# 6 0.0000 0.0000 0.0000 0.0000 0.0000 38.0190
#
#
#
# Elastic Compliance Matrix: (Units=1/GPa)
#
#
# Indices 1 2 3 4 5 6 
#
# 1 0.011498 -0.005543 -0.003103 0.000000 0.000000 0.000000
# 2 -0.005543 0.021740 -0.002113 0.000000 0.000000 0.000000
# 3 -0.003103 -0.002113 0.009624 0.000000 0.000000 0.000000
# 4 0.000000 0.000000 0.000000 0.040846 0.000000 0.000000
# 5 0.000000 0.000000 0.000000 0.000000 0.038610 0.000000
# 6 0.000000 0.000000 0.000000 0.000000 0.000000 0.026303
#
#
# Mechanical properties :
#
#
# Convention : Reuss Voigt Hill
#
# Bulk Modulus (GPa) = 46.85444 55.42506 51.13975
# Shear Modulus (GPa) = 28.20793 30.60552 29.40672
#
# Velocity S-wave (km/s) = 3.74861 3.90467 3.82744
# Velocity P-wave (km/s) = 6.48669 6.92381 6.70881
#
# Compressibility (1/GPa) = 0.02134270
#
# Stress axis : x y z
#
# Youngs Moduli (GPa) = 86.97057 45.99817 103.90496
#
# Poissons Ratio (x) = 0.25498 0.32245
# Poissons Ratio (y) = 0.48210 0.21958
# Poissons Ratio (z) = 0.26990 0.09721
#
# Static dielectric constant tensor:
#      x y z
#    x 4.254900 0.000000 0.000000 
#    y 0.000000 3.500140 0.000000 
#    z 0.000000 0.000000 3.396610 
# 
# 
# High freq. dielectric constant tensor:
#      x y z
#    x 1.799220 0.000000 0.000000 
#    y 0.000000 1.761170 0.000000 
#    z 0.000000 0.000000 1.754330 
# 
# From -- ./inp_files/28995.got.cif
#   From: 2010.06.25/outbox.cif.g09.slc.cpg/sg58_15_cif.got.tgz:28995.got - 2010.06.26 21:38:00.
