data_PCOD8238335
_publ_section_title
;
Structure prediction by ZEFSAII (Michael W. Deem and Ramdas Pophale) SiO2 
 PCOD8238335
Probable space group: P N N M
;
_chemical_formula_sum "Si O2"
_cell_formula_units_Z 64
_cell_length_a 28.429900
_cell_length_b 12.341969
_cell_length_c 8.797027
_cell_angle_alpha 90.000000
_cell_angle_beta 90.000000
_cell_angle_gamma 90.000000
_cell_volume 3086.709142
_symmetry_space_group_name_H-M "P N N M"
_symmetry_group_IT_number 58
_symmetry_cell_setting 'orthorhombic'
loop_
_space_group_symop_operation_xyz
x,y,z
-x,-y,z
1/2+x,1/2-y,1/2-z
1/2-x,1/2+y,1/2-z
-x,-y,-z
x,y,-z
1/2-x,1/2+y,1/2+z
1/2+x,1/2-y,1/2+z
loop_
_atom_site_type_symbol
_atom_site_label
_atom_site_fract_x
_atom_site_fract_y
_atom_site_fract_z
Si Si1 0.980629 0.117959 0.177209
Si Si2 0.340807 0.721584 0.675707
Si Si3 0.050778 0.487235 0.673494
Si Si4 0.206847 0.442562 0.179186
Si Si5 0.802597 0.006867 0.174839
Si Si6 0.563717 0.261458 0.173002
Si Si7 0.380381 0.354538 0.177729
Si Si8 0.639126 0.889384 0.178534
O O1 0.934469 0.142275 0.273932
O O2 0.020230 0.203682 0.223589
O O3 0.968844 0.129733 0.000000
O O4 0.000000 0.000000 0.218117
O O5 0.355008 0.735194 0.500000
O O6 0.317322 0.831825 0.739379
O O7 0.304274 0.623017 0.697287
O O8 0.387589 0.688998 0.767534
O O9 0.044313 0.525752 0.500000
O O10 0.069626 0.366555 0.686336
O O11 0.090140 0.564491 0.748797
O O12 0.000000 0.500000 0.756206
O O13 0.261055 0.441532 0.227167
O O14 0.182734 0.549523 0.246156
O O15 0.203796 0.446885 0.000000
O O16 0.851945 0.056711 0.228153
O O17 0.794094 0.036554 0.000000
O O18 0.554988 0.299269 0.000000
O O19 0.357925 0.237428 0.214568
O O20 0.377058 0.380640 0.000000
O O21 0.641313 0.913725 0.000000
#
# Coordination Sequence:
#
# PCOD8238335 Si02
#       8
#     8   8   8   8   8   8   8   8
#     4  11  24  41  61  87 127 174 214 257 317 377
#     4  10  23  43  64  89 127 165 202 256 319 377
#     4   9  17  32  55  85 119 156 197 241 300 366
#     4  11  24  42  65  94 124 160 210 263 315 377
#     4  11  25  44  66  91 125 168 209 256 322 382
#     4  11  21  35  62  93 121 159 209 259 306 367
#     4  11  24  42  66  96 129 167 214 264 313 373
#     4  10  21  40  63  89 127 166 202 253 318 378
#
# _framework density 20.734055999999999
#
# number of rings (size 3 to 8) (size 9 to 14) (size 15 to 20)
#    0.000    1.500    1.250    3.375    1.750    8.500 
#    0.000    0.000    0.000    1.875    0.000    0.000 
#    0.000    0.000    0.000    0.000    0.000    0.000 
#
# Total GULP energy -793881.504185 kJ/mol
# GULP energy per Si atom -12404.398503 kJ/mol
# Density = 2.068686 g / cm^3
# Si number density = 20.734056 Si / 1000 Ang^3
#
#
#
# Elastic Constant Matrix: (Units=GPa)
#
#
# Indices 1 2 3 4 5 6 
#
# 1 107.6517 28.6706 18.4366 0.0000 0.0000 0.0000
# 2 28.6706 89.5886 39.5554 0.0000 0.0000 0.0000
# 3 18.4366 39.5554 52.4824 0.0000 0.0000 0.0000
# 4 0.0000 0.0000 0.0000 26.5392 0.0000 0.0000
# 5 0.0000 0.0000 0.0000 0.0000 37.8041 0.0000
# 6 0.0000 0.0000 0.0000 0.0000 0.0000 35.2328
#
#
#
# Elastic Compliance Matrix: (Units=1/GPa)
#
#
# Indices 1 2 3 4 5 6 
#
# 1 0.010254 -0.002535 -0.001692 0.000000 0.000000 0.000000
# 2 -0.002535 0.017356 -0.012190 0.000000 0.000000 0.000000
# 3 -0.001692 -0.012190 0.028836 0.000000 0.000000 0.000000
# 4 0.000000 0.000000 0.000000 0.037680 0.000000 0.000000
# 5 0.000000 0.000000 0.000000 0.000000 0.026452 0.000000
# 6 0.000000 0.000000 0.000000 0.000000 0.000000 0.028383
#
#
# Mechanical properties :
#
#
# Convention : Reuss Voigt Hill
#
# Bulk Modulus (GPa) = 42.35113 47.00531 44.67822
# Shear Modulus (GPa) = 26.36232 30.78590 28.57411
#
# Velocity S-wave (km/s) = 3.56961 3.85749 3.71634
# Velocity P-wave (km/s) = 6.12043 6.52381 6.32534
#
# Compressibility (1/GPa) = 0.02361212
#
# Stress axis : x y z
#
# Youngs Moduli (GPa) = 97.52309 57.61847 34.67881
#
# Poissons Ratio (x) = 0.14604 0.05867
# Poissons Ratio (y) = 0.24717 0.42275
# Poissons Ratio (z) = 0.16500 0.70239
#
# Static dielectric constant tensor:
#      x y z
#    x 3.776560 0.000000 0.000000 
#    y 0.000000 3.808190 0.000000 
#    z 0.000000 0.000000 3.596400 
# 
# 
# High freq. dielectric constant tensor:
#      x y z
#    x 1.821690 0.000000 0.000000 
#    y 0.000000 1.820130 0.000000 
#    z 0.000000 0.000000 1.797920 
# 
# From -- ./inp_files/11068.got.cif
#   From: 2010.06.25/outbox.cif.g09.slc.cpg/sg58_6_cif.got.tgz:11068.got - 2010.06.26 21:38:00.
