data_PCOD8238941
_publ_section_title
;
Structure prediction by ZEFSAII (Michael W. Deem and Ramdas Pophale) SiO2 
 PCOD8238941
Probable space group: P N N M
;
_chemical_formula_sum "Si O2"
_cell_formula_units_Z 24
_cell_length_a 7.807566
_cell_length_b 9.201889
_cell_length_c 14.505060
_cell_angle_alpha 90.000000
_cell_angle_beta 90.000000
_cell_angle_gamma 90.000000
_cell_volume 1042.106690
_symmetry_space_group_name_H-M "P N N M"
_symmetry_group_IT_number 58
_symmetry_cell_setting 'orthorhombic'
loop_
_space_group_symop_operation_xyz
x,y,z
-x,-y,z
1/2+x,1/2-y,1/2-z
1/2-x,1/2+y,1/2-z
-x,-y,-z
x,y,-z
1/2-x,1/2+y,1/2+z
1/2+x,1/2-y,1/2+z
loop_
_atom_site_type_symbol
_atom_site_label
_atom_site_fract_x
_atom_site_fract_y
_atom_site_fract_z
Si Si1 0.381156 0.370102 0.335353
Si Si2 0.879619 0.629062 0.818285
Si Si3 0.810979 0.792786 0.500000
Si Si4 0.693234 0.642049 0.000000
O O1 0.500000 0.500000 0.375357
O O2 0.248780 0.431009 0.259578
O O3 0.504461 0.259953 0.279445
O O4 0.278597 0.281880 0.412849
O O5 0.787345 0.695296 0.908149
O O6 0.000000 0.500000 0.851970
O O7 0.014613 0.769459 0.500000
O O8 0.801401 0.967048 0.500000
#
# Coordination Sequence:
#
# PCOD8238941 Si02
#       4
#     8   8   4   4
#     4  12  26  43  68 105 143 175 227 292 348 400
#     4  12  24  45  70 102 135 185 232 275 343 415
#     4  11  24  45  70 103 135 181 231 284 345 405
#     4  11  24  44  76  96 133 185 240 273 329 432
#
# _framework density 23.030269000000001
#
# number of rings (size 3 to 8) (size 9 to 14) (size 15 to 20)
#    0.000    0.333    3.333    6.000    4.667    0.000 
#    0.000    2.500    0.000    0.000    0.000    0.000 
#    0.000    0.000    0.000    0.000    0.000    0.000 
#
# Total GULP energy -297517.072437 kJ/mol
# GULP energy per Si atom -12396.544685 kJ/mol
# Density = 2.297785 g / cm^3
# Si number density = 23.030269 Si / 1000 Ang^3
#
#
#
# Elastic Constant Matrix: (Units=GPa)
#
#
# Indices 1 2 3 4 5 6 
#
# 1 161.6758 58.7666 59.4407 0.0000 0.0000 0.0000
# 2 58.7666 94.5751 13.4195 0.0000 0.0000 0.0000
# 3 59.4407 13.4195 121.6186 0.0000 0.0000 0.0000
# 4 0.0000 0.0000 0.0000 22.5904 0.0000 0.0000
# 5 0.0000 0.0000 0.0000 0.0000 28.9588 0.0000
# 6 0.0000 0.0000 0.0000 0.0000 0.0000 52.0527
#
#
#
# Elastic Compliance Matrix: (Units=1/GPa)
#
#
# Indices 1 2 3 4 5 6 
#
# 1 0.009676 -0.005426 -0.004130 0.000000 0.000000 0.000000
# 2 -0.005426 0.013785 0.001131 0.000000 0.000000 0.000000
# 3 -0.004130 0.001131 0.010116 0.000000 0.000000 0.000000
# 4 0.000000 0.000000 0.000000 0.044267 0.000000 0.000000
# 5 0.000000 0.000000 0.000000 0.000000 0.034532 0.000000
# 6 0.000000 0.000000 0.000000 0.000000 0.000000 0.019211
#
#
# Mechanical properties :
#
#
# Convention : Reuss Voigt Hill
#
# Bulk Modulus (GPa) = 59.78731 71.23587 65.51159
# Shear Modulus (GPa) = 32.46451 37.13656 34.80054
#
# Velocity S-wave (km/s) = 3.75860 4.01996 3.89148
# Velocity P-wave (km/s) = 6.69722 7.24882 6.97847
#
# Compressibility (1/GPa) = 0.01672596
#
# Stress axis : x y z
#
# Youngs Moduli (GPa) = 103.34595 72.54265 98.84972
#
# Poissons Ratio (x) = 0.39365 0.40830
# Poissons Ratio (y) = 0.56081 -0.11181
# Poissons Ratio (z) = 0.42687 -0.08206
#
# Static dielectric constant tensor:
#      x y z
#    x 4.708580 0.000000 0.000000 
#    y 0.000000 4.047080 0.000000 
#    z 0.000000 0.000000 3.904350 
# 
# 
# High freq. dielectric constant tensor:
#      x y z
#    x 1.936970 0.000000 0.000000 
#    y 0.000000 1.903920 0.000000 
#    z 0.000000 0.000000 1.901710 
# 
# From -- ./inp_files/18926.got.cif
#   From: 2010.06.25/outbox.cif.g09.slc.cpg/sg58_10_cif.got.tgz:18926.got - 2010.06.26 21:38:00.
