data_PCOD8238227
_publ_section_title
;
Structure prediction by ZEFSAII (Michael W. Deem and Ramdas Pophale) SiO2 
 PCOD8238227
Probable space group: P N N M
;
_chemical_formula_sum "Si O2"
_cell_formula_units_Z 40
_cell_length_a 7.784873
_cell_length_b 8.114205
_cell_length_c 27.444968
_cell_angle_alpha 90.000000
_cell_angle_beta 90.000000
_cell_angle_gamma 90.000000
_cell_volume 1733.645260
_symmetry_space_group_name_H-M "P N N M"
_symmetry_group_IT_number 58
_symmetry_cell_setting 'orthorhombic'
loop_
_space_group_symop_operation_xyz
x,y,z
-x,-y,z
1/2+x,1/2-y,1/2-z
1/2-x,1/2+y,1/2-z
-x,-y,-z
x,y,-z
1/2-x,1/2+y,1/2+z
1/2+x,1/2-y,1/2+z
loop_
_atom_site_type_symbol
_atom_site_label
_atom_site_fract_x
_atom_site_fract_y
_atom_site_fract_z
Si Si1 0.562491 0.184624 0.444072
Si Si2 0.363799 0.687660 0.192545
Si Si3 0.152701 0.385899 0.788858
Si Si4 0.648403 0.614768 0.371683
Si Si5 0.679035 0.795520 0.130753
O O1 0.589203 0.232649 0.500000
O O2 0.415961 0.305514 0.422401
O O3 0.747737 0.205089 0.417459
O O4 0.500000 0.000000 0.437468
O O5 0.330943 0.498487 0.210881
O O6 0.401226 0.811855 0.236750
O O7 0.185082 0.744108 0.167903
O O8 0.500908 0.714637 0.148670
O O9 0.181564 0.238496 0.826326
O O10 0.000000 0.500000 0.806869
O O11 0.500000 0.500000 0.350415
O O12 0.817688 0.494379 0.378432
#
# Coordination Sequence:
#
# PCOD8238227 Si02
#       5
#     8   8   8   8   8
#     4  10  22  43  70  97 127 168 216 264 326 400
#     4  12  24  40  62  93 130 170 217 272 327 386
#     4  12  24  39  60  87 129 175 219 262 324 399
#     4  10  21  38  63  90 126 167 214 262 318 389
#     4  11  23  39  62  94 130 168 218 275 327 382
#
# _framework density 23.072772000000001
#
# number of rings (size 3 to 8) (size 9 to 14) (size 15 to 20)
#    0.000    1.000    0.000    9.000    0.000    5.200 
#    0.000    1.000    0.000   10.800    0.000    0.000 
#    0.000    0.000    0.000    0.000    0.000    0.000 
#
# Total GULP energy -495673.173764 kJ/mol
# GULP energy per Si atom -12391.829344 kJ/mol
# Density = 2.302026 g / cm^3
# Si number density = 23.072772 Si / 1000 Ang^3
#
#
#
# Elastic Constant Matrix: (Units=GPa)
#
#
# Indices 1 2 3 4 5 6 
#
# 1 36.0277 15.7471 26.4765 0.0000 0.0000 0.0000
# 2 15.7471 120.0301 48.4550 0.0000 0.0000 0.0000
# 3 26.4765 48.4550 138.5855 0.0000 0.0000 0.0000
# 4 0.0000 0.0000 0.0000 42.1954 0.0000 0.0000
# 5 0.0000 0.0000 0.0000 0.0000 31.4289 0.0000
# 6 0.0000 0.0000 0.0000 0.0000 0.0000 26.2835
#
#
#
# Elastic Compliance Matrix: (Units=1/GPa)
#
#
# Indices 1 2 3 4 5 6 
#
# 1 0.032722 -0.002060 -0.005531 0.000000 0.000000 0.000000
# 2 -0.002060 0.009830 -0.003043 0.000000 0.000000 0.000000
# 3 -0.005531 -0.003043 0.009337 0.000000 0.000000 0.000000
# 4 0.000000 0.000000 0.000000 0.023699 0.000000 0.000000
# 5 0.000000 0.000000 0.000000 0.000000 0.031818 0.000000
# 6 0.000000 0.000000 0.000000 0.000000 0.000000 0.038047
#
#
# Mechanical properties :
#
#
# Convention : Reuss Voigt Hill
#
# Bulk Modulus (GPa) = 32.65928 52.88895 42.77411
# Shear Modulus (GPa) = 28.26015 33.57922 30.91968
#
# Velocity S-wave (km/s) = 3.50355 3.81906 3.66470
# Velocity P-wave (km/s) = 5.52740 6.51302 6.04034
#
# Compressibility (1/GPa) = 0.03061917
#
# Stress axis : x y z
#
# Youngs Moduli (GPa) = 30.56085 101.72827 107.10557
#
# Poissons Ratio (x) = 0.20956 0.59242
# Poissons Ratio (y) = 0.06295 0.32597
# Poissons Ratio (z) = 0.16904 0.30960
#
# Static dielectric constant tensor:
#      x y z
#    x 4.476700 0.000000 0.000000 
#    y 0.000000 4.722710 0.000000 
#    z 0.000000 0.000000 3.901050 
# 
# 
# High freq. dielectric constant tensor:
#      x y z
#    x 1.916500 0.000000 0.000000 
#    y 0.000000 1.941610 0.000000 
#    z 0.000000 0.000000 1.880090 
# 
# From -- ./inp_files/31252.got.cif
#   From: 2010.06.25/outbox.cif.g09.slc.cpg/sg58_16_cif.got.tgz:31252.got - 2010.06.26 21:38:00.
