data_PCOD8238124
_publ_section_title
;
Structure prediction by ZEFSAII (Michael W. Deem and Ramdas Pophale) SiO2 
 PCOD8238124
Probable space group: P N N M
;
_chemical_formula_sum "Si O2"
_cell_formula_units_Z 64
_cell_length_a 23.850700
_cell_length_b 15.339623
_cell_length_c 8.909337
_cell_angle_alpha 90.000000
_cell_angle_beta 90.000000
_cell_angle_gamma 90.000000
_cell_volume 3259.576684
_symmetry_space_group_name_H-M "P N N M"
_symmetry_group_IT_number 58
_symmetry_cell_setting 'orthorhombic'
loop_
_space_group_symop_operation_xyz
x,y,z
-x,-y,z
1/2+x,1/2-y,1/2-z
1/2-x,1/2+y,1/2-z
-x,-y,-z
x,y,-z
1/2-x,1/2+y,1/2+z
1/2+x,1/2-y,1/2+z
loop_
_atom_site_type_symbol
_atom_site_label
_atom_site_fract_x
_atom_site_fract_y
_atom_site_fract_z
Si Si1 0.359852 0.155382 0.327642
Si Si2 0.437158 0.000132 0.678431
Si Si3 0.361367 0.351216 0.328138
Si Si4 0.368763 0.833085 0.326603
Si Si5 0.935912 0.007913 0.325823
Si Si6 0.361186 0.657732 0.825180
Si Si7 0.748876 0.590069 0.173289
Si Si8 0.748738 0.905143 0.177184
O O1 0.344820 0.132498 0.500000
O O2 0.405663 0.087207 0.264657
O O3 0.384579 0.252767 0.313224
O O4 0.303717 0.151404 0.230600
O O5 0.439056 0.999982 0.500000
O O6 0.500000 0.000000 0.745425
O O7 0.403756 0.915320 0.736284
O O8 0.347273 0.374462 0.500000
O O9 0.409082 0.415230 0.270146
O O10 0.305000 0.359049 0.232061
O O11 0.383391 0.816382 0.500000
O O12 0.386914 0.748932 0.231445
O O13 0.302645 0.848962 0.305007
O O14 0.930169 0.032612 0.500000
O O15 0.906007 0.916988 0.289387
O O16 0.000000 0.000000 0.275911
O O17 0.304701 0.638783 0.736961
O O18 0.347347 0.663446 0.000000
O O19 0.758189 0.502575 0.264857
O O20 0.739656 0.564884 0.000000
O O21 0.751482 0.905088 0.000000
#
# Coordination Sequence:
#
# PCOD8238124 Si02
#       8
#     8   8   8   8   8   8   8   8
#     4  10  21  39  60  88 123 157 195 239 295 354
#     4   9  18  36  61  86 116 157 201 243 290 344
#     4  11  23  37  60  92 120 153 195 247 297 346
#     4  10  21  37  61  90 120 156 197 240 289 351
#     4  10  23  43  63  82 113 162 207 244 297 357
#     4  11  23  39  61  87 119 157 192 241 299 351
#     4  11  21  37  60  86 120 159 191 235 298 358
#     4  12  23  36  60  91 120 153 195 242 293 353
#
# _framework density 19.634450000000001
#
# number of rings (size 3 to 8) (size 9 to 14) (size 15 to 20)
#    0.000    1.500    2.500    3.000    0.000    5.750 
#    0.000    1.250    0.000    1.500    0.000    0.000 
#    0.000    0.000    0.000    0.000    0.000    0.000 
#
# Total GULP energy -793893.372299 kJ/mol
# GULP energy per Si atom -12404.583942 kJ/mol
# Density = 1.958976 g / cm^3
# Si number density = 19.634450 Si / 1000 Ang^3
#
#
#
# Elastic Constant Matrix: (Units=GPa)
#
#
# Indices 1 2 3 4 5 6 
#
# 1 140.4682 57.1045 56.7970 0.0000 0.0000 0.0000
# 2 57.1045 140.5500 65.0334 0.0000 0.0000 0.0000
# 3 56.7970 65.0334 94.1162 0.0000 0.0000 0.0000
# 4 0.0000 0.0000 0.0000 23.2162 0.0000 0.0000
# 5 0.0000 0.0000 0.0000 0.0000 7.9179 0.0000
# 6 0.0000 0.0000 0.0000 0.0000 0.0000 7.5734
#
#
#
# Elastic Compliance Matrix: (Units=1/GPa)
#
#
# Indices 1 2 3 4 5 6 
#
# 1 0.009722 -0.001816 -0.004612 0.000000 0.000000 0.000000
# 2 -0.001816 0.010798 -0.006365 0.000000 0.000000 0.000000
# 3 -0.004612 -0.006365 0.017807 0.000000 0.000000 0.000000
# 4 0.000000 0.000000 0.000000 0.043073 0.000000 0.000000
# 5 0.000000 0.000000 0.000000 0.000000 0.126297 0.000000
# 6 0.000000 0.000000 0.000000 0.000000 0.000000 0.132040
#
#
# Mechanical properties :
#
#
# Convention : Reuss Voigt Hill
#
# Bulk Modulus (GPa) = 78.49377 81.44491 79.96934
# Shear Modulus (GPa) = 13.52917 20.82148 17.17533
#
# Velocity S-wave (km/s) = 2.62783 3.26000 2.96083
# Velocity P-wave (km/s) = 7.01938 7.46597 7.24612
#
# Compressibility (1/GPa) = 0.01273986
#
# Stress axis : x y z
#
# Youngs Moduli (GPa) = 102.85704 92.60936 56.15735
#
# Poissons Ratio (x) = 0.16817 0.25902
# Poissons Ratio (y) = 0.18678 0.35747
# Poissons Ratio (z) = 0.47441 0.58950
#
# Static dielectric constant tensor:
#      x y z
#    x 3.631640 0.000000 0.000000 
#    y 0.000000 3.699460 0.000000 
#    z 0.000000 0.000000 3.535790 
# 
# 
# High freq. dielectric constant tensor:
#      x y z
#    x 1.760550 0.000000 0.000000 
#    y 0.000000 1.780690 0.000000 
#    z 0.000000 0.000000 1.753360 
# 
# From -- ./inp_files/10022.got.cif
#   From: 2010.06.25/outbox.cif.g09.slc.cpg/sg58_6_cif.got.tgz:10022.got - 2010.06.26 21:38:00.
