data_PCOD8238108
_publ_section_title
;
Structure prediction by ZEFSAII (Michael W. Deem and Ramdas Pophale) SiO2 
 PCOD8238108
Probable space group: P N N M
;
_chemical_formula_sum "Si O2"
_cell_formula_units_Z 56
_cell_length_a 18.825210
_cell_length_b 17.251397
_cell_length_c 8.530185
_cell_angle_alpha 90.000000
_cell_angle_beta 90.000000
_cell_angle_gamma 90.000000
_cell_volume 2770.272872
_symmetry_space_group_name_H-M "P N N M"
_symmetry_group_IT_number 58
_symmetry_cell_setting 'orthorhombic'
loop_
_space_group_symop_operation_xyz
x,y,z
-x,-y,z
1/2+x,1/2-y,1/2-z
1/2-x,1/2+y,1/2-z
-x,-y,-z
x,y,-z
1/2-x,1/2+y,1/2+z
1/2+x,1/2-y,1/2+z
loop_
_atom_site_type_symbol
_atom_site_label
_atom_site_fract_x
_atom_site_fract_y
_atom_site_fract_z
Si Si1 0.131861 0.683841 0.313846
Si Si2 0.593282 0.367949 0.319891
Si Si3 0.943635 0.165341 0.316800
Si Si4 0.150558 0.975847 0.683605
Si Si5 0.291865 0.916863 0.182541
Si Si6 0.922387 0.479701 0.685627
Si Si7 0.281740 0.749233 0.317501
O O1 0.127577 0.679421 0.500000
O O2 0.081460 0.752235 0.245928
O O3 0.105598 0.601953 0.242784
O O4 0.212497 0.701756 0.261625
O O5 0.570235 0.366653 0.500000
O O6 0.525357 0.349870 0.215853
O O7 0.625191 0.450618 0.279764
O O8 0.650798 0.303086 0.281736
O O9 0.930042 0.167907 0.500000
O O10 0.894709 0.096496 0.249402
O O11 0.137561 0.990070 0.500000
O O12 0.233056 0.961130 0.715955
O O13 0.291044 0.826036 0.216217
O O14 0.368028 0.951988 0.232189
O O15 0.276609 0.932123 0.000000
O O16 0.928318 0.471958 0.500000
O O17 0.000000 0.500000 0.756443
O O18 0.274977 0.772109 0.500000
#
# Coordination Sequence:
#
# PCOD8238108 Si02
#       7
#     8   8   8   8   8   8   8
#     4   9  17  35  59  79 110 156 198 231 280 356
#     4  11  24  38  59  89 121 152 191 249 304 350
#     4  10  21  37  60  86 115 157 198 234 287 364
#     4  11  22  40  62  85 117 159 201 238 294 368
#     4  11  22  36  60  92 120 150 201 256 297 344
#     4   9  19  34  56  88 120 152 194 245 297 352
#     4  10  21  40  60  82 117 162 200 235 297 363
#
# _framework density 20.214615999999999
#
# number of rings (size 3 to 8) (size 9 to 14) (size 15 to 20)
#    0.000    1.857    1.429    2.571    2.000    6.286 
#    0.000    0.000    0.000    3.429    0.000    0.000 
#    0.000    0.000    0.000    0.000    0.000    0.000 
#
# Total GULP energy -694536.410057 kJ/mol
# GULP energy per Si atom -12402.435894 kJ/mol
# Density = 2.016861 g / cm^3
# Si number density = 20.214616 Si / 1000 Ang^3
#
#
#
# Elastic Constant Matrix: (Units=GPa)
#
#
# Indices 1 2 3 4 5 6 
#
# 1 137.3100 40.9051 5.0488 0.0000 0.0000 0.0000
# 2 40.9051 94.1036 9.8029 0.0000 0.0000 0.0000
# 3 5.0488 9.8029 9.0262 0.0000 0.0000 0.0000
# 4 0.0000 0.0000 0.0000 22.6400 0.0000 0.0000
# 5 0.0000 0.0000 0.0000 0.0000 18.8439 0.0000
# 6 0.0000 0.0000 0.0000 0.0000 0.0000 44.7318
#
#
#
# Elastic Compliance Matrix: (Units=1/GPa)
#
#
# Indices 1 2 3 4 5 6 
#
# 1 0.008372 -0.003553 -0.000824 0.000000 0.000000 0.000000
# 2 -0.003553 0.013490 -0.012664 0.000000 0.000000 0.000000
# 3 -0.000824 -0.012664 0.125002 0.000000 0.000000 0.000000
# 4 0.000000 0.000000 0.000000 0.044170 0.000000 0.000000
# 5 0.000000 0.000000 0.000000 0.000000 0.053068 0.000000
# 6 0.000000 0.000000 0.000000 0.000000 0.000000 0.022355
#
#
# Mechanical properties :
#
#
# Convention : Reuss Voigt Hill
#
# Bulk Modulus (GPa) = 8.86656 39.10594 23.98625
# Shear Modulus (GPa) = 14.78710 29.55532 22.17121
#
# Velocity S-wave (km/s) = 2.70757 3.82786 3.31538
# Velocity P-wave (km/s) = 3.76435 6.23891 5.15240
#
# Compressibility (1/GPa) = 0.11278325
#
# Stress axis : x y z
#
# Youngs Moduli (GPa) = 119.45178 74.12758 7.99984
#
# Poissons Ratio (x) = 0.26339 0.00659
# Poissons Ratio (y) = 0.42443 0.10131
# Poissons Ratio (z) = 0.09840 0.93872
#
# Static dielectric constant tensor:
#      x y z
#    x 3.803640 0.000000 0.000000 
#    y 0.000000 3.983930 0.000000 
#    z 0.000000 0.000000 3.294830 
# 
# 
# High freq. dielectric constant tensor:
#      x y z
#    x 1.802910 0.000000 0.000000 
#    y 0.000000 1.805640 0.000000 
#    z 0.000000 0.000000 1.753470 
# 
# From -- ./inp_files/8992.got.cif
#   From: 2010.06.25/outbox.cif.g09.slc.cpg/sg58_5_cif.got.tgz:8992.got - 2010.06.26 21:38:00.
