data_PCOD8238790
_publ_section_title
;
Structure prediction by ZEFSAII (Michael W. Deem and Ramdas Pophale) SiO2 
 PCOD8238790
Probable space group: P N N M
;
_chemical_formula_sum "Si O2"
_cell_formula_units_Z 64
_cell_length_a 22.583671
_cell_length_b 20.036264
_cell_length_c 9.196660
_cell_angle_alpha 90.000000
_cell_angle_beta 90.000000
_cell_angle_gamma 90.000000
_cell_volume 4161.418702
_symmetry_space_group_name_H-M "P N N M"
_symmetry_group_IT_number 58
_symmetry_cell_setting 'orthorhombic'
loop_
_space_group_symop_operation_xyz
x,y,z
-x,-y,z
1/2+x,1/2-y,1/2-z
1/2-x,1/2+y,1/2-z
-x,-y,-z
x,y,-z
1/2-x,1/2+y,1/2+z
1/2+x,1/2-y,1/2+z
loop_
_atom_site_type_symbol
_atom_site_label
_atom_site_fract_x
_atom_site_fract_y
_atom_site_fract_z
Si Si1 0.647872 0.571277 0.327918
Si Si2 0.567165 0.309988 0.830945
Si Si3 0.663655 0.776141 0.839269
Si Si4 0.242316 0.856215 0.661290
Si Si5 0.853360 0.937602 0.335526
Si Si6 0.160043 0.262549 0.170670
Si Si7 0.932220 0.177670 0.671271
Si Si8 0.243599 0.161391 0.333941
O O1 0.645003 0.576101 0.500000
O O2 0.713909 0.592204 0.275053
O O3 0.635006 0.496165 0.278024
O O4 0.597757 0.618087 0.259959
O O5 0.601386 0.378369 0.795393
O O6 0.595866 0.247059 0.744926
O O7 0.499879 0.317645 0.778964
O O8 0.571327 0.292482 0.000000
O O9 0.705276 0.711634 0.838210
O O10 0.598851 0.749040 0.791922
O O11 0.689411 0.832874 0.730038
O O12 0.661232 0.808077 0.000000
O O13 0.239808 0.888583 0.500000
O O14 0.310400 0.835720 0.701013
O O15 0.865679 0.962615 0.500000
O O16 0.784818 0.912518 0.323731
O O17 0.202385 0.207487 0.238012
O O18 0.154525 0.249596 0.000000
O O19 0.925565 0.161650 0.500000
O O20 0.243917 0.186600 0.500000
#
# Coordination Sequence:
#
# PCOD8238790 Si02
#       8
#     8   8   8   8   8   8   8   8
#     4  11  21  29  41  61  82 108 143 181 211 236
#     4   9  18  31  46  61  79 111 149 175 198 239
#     4   8  14  25  42  61  80 103 130 166 210 246
#     4   8  15  28  43  58  79 107 133 161 207 259
#     4   9  18  31  43  56  79 112 144 173 206 243
#     4   9  16  26  42  62  82 103 128 166 214 250
#     4   9  18  32  45  58  82 115 145 170 203 247
#     4   9  16  26  42  61  79 103 135 168 205 250
#
# _framework density 15.379371000000001
#
# number of rings (size 3 to 8) (size 9 to 14) (size 15 to 20)
#    0.000    3.000    0.000    4.125    0.000    8.500 
#    0.000    2.500    0.000    0.000    0.000    0.000 
#    0.000    1.000    0.000   11.250    0.000    5.500 
#
# Total GULP energy -792975.407426 kJ/mol
# GULP energy per Si atom -12390.240741 kJ/mol
# Density = 1.534437 g / cm^3
# Si number density = 15.379371 Si / 1000 Ang^3
#
#
#
# Elastic Constant Matrix: (Units=GPa)
#
#
# Indices 1 2 3 4 5 6 
#
# 1 106.7309 51.4773 55.0485 0.0000 0.0000 0.0000
# 2 51.4773 26.3288 27.3136 0.0000 0.0000 0.0000
# 3 55.0485 27.3136 80.2052 0.0000 0.0000 0.0000
# 4 0.0000 0.0000 0.0000 21.7790 0.0000 0.0000
# 5 0.0000 0.0000 0.0000 0.0000 13.8311 0.0000
# 6 0.0000 0.0000 0.0000 0.0000 0.0000 14.9076
#
#
#
# Elastic Compliance Matrix: (Units=1/GPa)
#
#
# Indices 1 2 3 4 5 6 
#
# 1 0.165782 -0.318675 -0.005260 0.000000 0.000000 0.000000
# 2 -0.318675 0.671303 -0.009889 0.000000 0.000000 0.000000
# 3 -0.005260 -0.009889 0.019446 0.000000 0.000000 0.000000
# 4 0.000000 0.000000 0.000000 0.045916 0.000000 0.000000
# 5 0.000000 0.000000 0.000000 0.000000 0.072301 0.000000
# 6 0.000000 0.000000 0.000000 0.000000 0.000000 0.067080
#
#
# Mechanical properties :
#
#
# Convention : Reuss Voigt Hill
#
# Bulk Modulus (GPa) = 5.29429 53.43818 29.36624
# Shear Modulus (GPa) = 2.82098 15.39858 9.10978
#
# Velocity S-wave (km/s) = 1.35582 3.16768 2.43644
# Velocity P-wave (km/s) = 2.42918 6.94270 5.20106
#
# Compressibility (1/GPa) = 0.18888290
#
# Stress axis : x y z
#
# Youngs Moduli (GPa) = 6.03202 1.48964 51.42471
#
# Poissons Ratio (x) = 0.47471 0.27049
# Poissons Ratio (y) = 1.92225 0.50855
# Poissons Ratio (z) = 0.03173 0.01473
#
# Static dielectric constant tensor:
#      x y z
#    x 3.450960 0.000000 0.000000 
#    y 0.000000 2.810400 0.000000 
#    z 0.000000 0.000000 3.079190 
# 
# 
# High freq. dielectric constant tensor:
#      x y z
#    x 1.577650 0.000000 0.000000 
#    y 0.000000 1.545590 0.000000 
#    z 0.000000 0.000000 1.594820 
# 
# From -- ./inp_files/9487.got.cif
#   From: 2010.06.25/outbox.cif.g09.slc.cpg/sg58_5_cif.got.tgz:9487.got - 2010.06.26 21:38:00.
