data_PCOD8238758
_publ_section_title
;
Structure prediction by ZEFSAII (Michael W. Deem and Ramdas Pophale) SiO2 
 PCOD8238758
Probable space group: P N N M
;
_chemical_formula_sum "Si O2"
_cell_formula_units_Z 32
_cell_length_a 19.984076
_cell_length_b 10.246761
_cell_length_c 8.014832
_cell_angle_alpha 90.000000
_cell_angle_beta 90.000000
_cell_angle_gamma 90.000000
_cell_volume 1641.213584
_symmetry_space_group_name_H-M "P N N M"
_symmetry_group_IT_number 58
_symmetry_cell_setting 'orthorhombic'
loop_
_space_group_symop_operation_xyz
x,y,z
-x,-y,z
1/2+x,1/2-y,1/2-z
1/2-x,1/2+y,1/2-z
-x,-y,-z
x,y,-z
1/2-x,1/2+y,1/2+z
1/2+x,1/2-y,1/2+z
loop_
_atom_site_type_symbol
_atom_site_label
_atom_site_fract_x
_atom_site_fract_y
_atom_site_fract_z
Si Si1 0.318068 0.138660 0.691680
Si Si2 0.034881 0.637736 0.316241
Si Si3 0.493659 0.703257 0.500000
Si Si4 0.769065 0.088005 0.815751
Si Si5 0.388654 0.500724 0.500000
O O1 0.336987 0.168347 0.500000
O O2 0.385813 0.120895 0.792884
O O3 0.276599 0.265260 0.760467
O O4 0.274956 0.006035 0.700136
O O5 0.023463 0.702113 0.500000
O O6 0.000000 0.500000 0.311546
O O7 0.000084 0.717635 0.170226
O O8 0.418233 0.646361 0.500000
O O9 0.549505 0.594837 0.500000
O O10 0.843568 0.025114 0.834776
O O11 0.734953 0.095585 0.000000
#
# Coordination Sequence:
#
# PCOD8238758 Si02
#       5
#     8   8   4   8   4
#     4  11  21  39  62  88 123 166 203 253 313 365
#     4  11  23  39  62  92 125 162 207 258 306 368
#     4  11  19  42  68  84 127 161 209 246 313 374
#     4   9  20  39  57  88 121 156 204 251 306 363
#     4   9  20  40  64  86 121 168 193 265 307 358
#
# _framework density 19.497765999999999
#
# number of rings (size 3 to 8) (size 9 to 14) (size 15 to 20)
#    0.750    1.000    3.750    1.125    0.000    4.000 
#    0.000    6.250    0.000    0.000    0.000    0.000 
#    0.000    0.000    0.000    0.000    0.000    0.000 
#
# Total GULP energy -396550.456227 kJ/mol
# GULP energy per Si atom -12392.201757 kJ/mol
# Density = 1.945339 g / cm^3
# Si number density = 19.497766 Si / 1000 Ang^3
#
#
#
# Elastic Constant Matrix: (Units=GPa)
#
#
# Indices 1 2 3 4 5 6 
#
# 1 46.1728 45.2992 20.9634 0.0000 0.0000 0.0000
# 2 45.2992 115.1602 44.2058 0.0000 0.0000 0.0000
# 3 20.9634 44.2058 108.6470 0.0000 0.0000 0.0000
# 4 0.0000 0.0000 0.0000 29.4084 0.0000 0.0000
# 5 0.0000 0.0000 0.0000 0.0000 22.8703 0.0000
# 6 0.0000 0.0000 0.0000 0.0000 0.0000 40.6032
#
#
#
# Elastic Compliance Matrix: (Units=1/GPa)
#
#
# Indices 1 2 3 4 5 6 
#
# 1 0.035443 -0.013411 -0.001382 0.000000 0.000000 0.000000
# 2 -0.013411 0.015365 -0.003664 0.000000 0.000000 0.000000
# 3 -0.001382 -0.003664 0.010962 0.000000 0.000000 0.000000
# 4 0.000000 0.000000 0.000000 0.034004 0.000000 0.000000
# 5 0.000000 0.000000 0.000000 0.000000 0.043725 0.000000
# 6 0.000000 0.000000 0.000000 0.000000 0.000000 0.024629
#
#
# Mechanical properties :
#
#
# Convention : Reuss Voigt Hill
#
# Bulk Modulus (GPa) = 40.23309 54.54630 47.38969
# Shear Modulus (GPa) = 23.88610 29.21047 26.54828
#
# Velocity S-wave (km/s) = 3.50389 3.87479 3.69400
# Velocity P-wave (km/s) = 6.08681 6.93217 6.52320
#
# Compressibility (1/GPa) = 0.02485516
#
# Stress axis : x y z
#
# Youngs Moduli (GPa) = 28.21461 65.08095 91.22733
#
# Poissons Ratio (x) = 0.87281 0.12607
# Poissons Ratio (y) = 0.37839 0.33427
# Poissons Ratio (z) = 0.03899 0.23847
#
# Static dielectric constant tensor:
#      x y z
#    x -2.609720 0.000000 0.000000 
#    y 0.000000 4.012420 0.000000 
#    z 0.000000 0.000000 3.719850 
# 
# 
# High freq. dielectric constant tensor:
#      x y z
#    x 1.755570 0.000000 0.000000 
#    y 0.000000 1.761290 0.000000 
#    z 0.000000 0.000000 1.745570 
# 
# From -- ./inp_files/9579.got.cif
#   From: 2010.06.25/outbox.cif.g09.slc.cpg/sg58_5_cif.got.tgz:9579.got - 2010.06.26 21:38:00.
