data_PCOD8238567
_publ_section_title
;
Structure prediction by ZEFSAII (Michael W. Deem and Ramdas Pophale) SiO2 
 PCOD8238567
Probable space group: P N N M
;
_chemical_formula_sum "Si O2"
_cell_formula_units_Z 32
_cell_length_a 18.689794
_cell_length_b 7.234513
_cell_length_c 10.481197
_cell_angle_alpha 90.000000
_cell_angle_beta 90.000000
_cell_angle_gamma 90.000000
_cell_volume 1417.178973
_symmetry_space_group_name_H-M "P N N M"
_symmetry_group_IT_number 58
_symmetry_cell_setting 'orthorhombic'
loop_
_space_group_symop_operation_xyz
x,y,z
-x,-y,z
1/2+x,1/2-y,1/2-z
1/2-x,1/2+y,1/2-z
-x,-y,-z
x,y,-z
1/2-x,1/2+y,1/2+z
1/2+x,1/2-y,1/2+z
loop_
_atom_site_type_symbol
_atom_site_label
_atom_site_fract_x
_atom_site_fract_y
_atom_site_fract_z
Si Si1 0.342353 0.588792 0.718798
Si Si2 0.794720 0.533891 0.140065
Si Si3 0.921110 0.269740 0.145569
Si Si4 0.471479 0.704443 0.139202
O O1 0.273835 0.479891 0.770331
O O2 0.392975 0.441787 0.647197
O O3 0.387067 0.691956 0.830186
O O4 0.316875 0.751835 0.626057
O O5 0.859522 0.408980 0.192581
O O6 0.774220 0.460006 0.000000
O O7 0.985896 0.305130 0.245203
O O8 0.946539 0.312423 0.000000
O O9 0.500000 0.500000 0.126257
O O10 0.481420 0.803461 0.000000
#
# Coordination Sequence:
#
# PCOD8238567 Si02
#       4
#     8   8   8   8
#     4  11  21  40  63  90 123 166 206 255 309 366
#     4  11  23  39  61  92 126 163 208 256 309 371
#     4  10  22  41  64  92 124 159 206 257 310 368
#     4   9  20  39  64  90 122 163 206 254 309 366
#
# _framework density 22.580069999999999
#
# number of rings (size 3 to 8) (size 9 to 14) (size 15 to 20)
#    0.000    1.750    2.500    1.500    0.000    7.500 
#    0.000    6.250    0.000    0.000    0.000    0.000 
#    0.000    0.000    0.000    0.000    0.000    0.000 
#
# Total GULP energy -396665.993773 kJ/mol
# GULP energy per Si atom -12395.812305 kJ/mol
# Density = 2.252868 g / cm^3
# Si number density = 22.580070 Si / 1000 Ang^3
#
#
#
# Elastic Constant Matrix: (Units=GPa)
#
#
# Indices 1 2 3 4 5 6 
#
# 1 87.0005 13.2502 33.5059 0.0000 0.0000 0.0000
# 2 13.2502 78.2279 1.4004 0.0000 0.0000 0.0000
# 3 33.5059 1.4004 120.4539 0.0000 0.0000 0.0000
# 4 0.0000 0.0000 0.0000 -14.3012 0.0000 0.0000
# 5 0.0000 0.0000 0.0000 0.0000 15.5414 0.0000
# 6 0.0000 0.0000 0.0000 0.0000 0.0000 27.4658
#
#
#
# Elastic Compliance Matrix: (Units=1/GPa)
#
#
# Indices 1 2 3 4 5 6 
#
# 1 0.013234 -0.002176 -0.003656 0.000000 0.000000 0.000000
# 2 -0.002176 0.013144 0.000452 0.000000 0.000000 0.000000
# 3 -0.003656 0.000452 0.009314 0.000000 0.000000 0.000000
# 4 0.000000 0.000000 0.000000 -0.069924 0.000000 0.000000
# 5 0.000000 0.000000 0.000000 0.000000 0.064344 0.000000
# 6 0.000000 0.000000 0.000000 0.000000 0.000000 0.036409
#
#
# Mechanical properties :
#
#
# Convention : Reuss Voigt Hill
#
# Bulk Modulus (GPa) = 40.10900 42.44392 41.27646
# Shear Modulus (GPa) = 58.41849 21.57624 39.99736
#
# Velocity S-wave (km/s) = 5.09194 3.09454 4.21332
# Velocity P-wave (km/s) = 7.23685 5.62193 6.47990
#
# Compressibility (1/GPa) = 0.02493206
#
# Stress axis : x y z
#
# Youngs Moduli (GPa) = 75.56569 76.08243 107.37016
#
# Poissons Ratio (x) = 0.16556 0.39252
# Poissons Ratio (y) = 0.16443 -0.04858
# Poissons Ratio (z) = 0.27625 -0.03443
#
# Static dielectric constant tensor:
#      x y z
#    x 4.075730 0.000000 0.000000 
#    y 0.000000 3.880370 0.000000 
#    z 0.000000 0.000000 4.106190 
# 
# 
# High freq. dielectric constant tensor:
#      x y z
#    x 1.889200 0.000000 0.000000 
#    y 0.000000 1.886630 0.000000 
#    z 0.000000 0.000000 1.881710 
# 
# From -- ./inp_files/8611.got.cif
#   From: 2010.06.25/outbox.cif.g09.slc.cpg/sg58_5_cif.got.tgz:8611.got - 2010.06.26 21:38:00.
