data_PCOD8238499
_publ_section_title
;
Structure prediction by ZEFSAII (Michael W. Deem and Ramdas Pophale) SiO2 
 PCOD8238499
Probable space group: P N N M
;
_chemical_formula_sum "Si O2"
_cell_formula_units_Z 48
_cell_length_a 11.269322
_cell_length_b 8.090710
_cell_length_c 26.710346
_cell_angle_alpha 90.000000
_cell_angle_beta 90.000000
_cell_angle_gamma 90.000000
_cell_volume 2435.364308
_symmetry_space_group_name_H-M "P N N M"
_symmetry_group_IT_number 58
_symmetry_cell_setting 'orthorhombic'
loop_
_space_group_symop_operation_xyz
x,y,z
-x,-y,z
1/2+x,1/2-y,1/2-z
1/2-x,1/2+y,1/2-z
-x,-y,-z
x,y,-z
1/2-x,1/2+y,1/2+z
1/2+x,1/2-y,1/2+z
loop_
_atom_site_type_symbol
_atom_site_label
_atom_site_fract_x
_atom_site_fract_y
_atom_site_fract_z
Si Si1 0.756234 0.135041 0.377191
Si Si2 0.538211 0.314703 0.662842
Si Si3 0.503398 0.186231 0.867107
Si Si4 0.377230 0.594905 0.054904
Si Si5 0.877126 0.678684 0.737126
Si Si6 0.173243 0.618993 0.199000
O O1 0.637821 0.248927 0.376459
O O2 0.872076 0.245302 0.372493
O O3 0.770282 0.028052 0.428146
O O4 0.756266 0.008481 0.330676
O O5 0.500000 0.500000 0.648013
O O6 0.587626 0.308437 0.719460
O O7 0.427049 0.188965 0.661374
O O8 0.603580 0.267108 0.902665
O O9 0.537146 0.205905 0.809407
O O10 0.500000 0.000000 0.885207
O O11 0.500000 0.500000 0.050330
O O12 0.343745 0.668280 0.000000
O O13 0.883744 0.487358 0.755323
O O14 0.743471 0.724625 0.720743
#
# Coordination Sequence:
#
# PCOD8238499 Si02
#       6
#     8   8   8   8   8   8
#     4  10  22  40  59  85 115 154 194 240 292 352
#     4  11  25  37  57  81 118 160 198 243 283 343
#     4  11  23  35  59  90 120 152 194 246 295 354
#     4   9  19  39  64  88 115 149 191 247 309 359
#     4  11  23  35  56  80 121 158 201 238 285 345
#     4  11  23  39  55  81 118 163 199 240 281 345
#
# _framework density 19.709578
#
# number of rings (size 3 to 8) (size 9 to 14) (size 15 to 20)
#    0.000    1.500    1.667    4.000   14.000    0.333 
#    0.000    0.000    0.000    2.500    0.000    0.000 
#    0.000    0.000    0.000    0.000    0.000    0.000 
#
# Total GULP energy -594986.828985 kJ/mol
# GULP energy per Si atom -12395.558937 kJ/mol
# Density = 1.966472 g / cm^3
# Si number density = 19.709578 Si / 1000 Ang^3
#
#
#
# Elastic Constant Matrix: (Units=GPa)
#
#
# Indices 1 2 3 4 5 6 
#
# 1 95.3678 54.6693 23.7325 0.0000 0.0000 0.0000
# 2 54.6693 121.6491 30.1873 0.0000 0.0000 0.0000
# 3 23.7325 30.1873 80.3839 0.0000 0.0000 0.0000
# 4 0.0000 0.0000 0.0000 15.0101 0.0000 0.0000
# 5 0.0000 0.0000 0.0000 0.0000 8.2620 0.0000
# 6 0.0000 0.0000 0.0000 0.0000 0.0000 36.4141
#
#
#
# Elastic Compliance Matrix: (Units=1/GPa)
#
#
# Indices 1 2 3 4 5 6 
#
# 1 0.014413 -0.005978 -0.002010 0.000000 0.000000 0.000000
# 2 -0.005978 0.011545 -0.002571 0.000000 0.000000 0.000000
# 3 -0.002010 -0.002571 0.013999 0.000000 0.000000 0.000000
# 4 0.000000 0.000000 0.000000 0.066622 0.000000 0.000000
# 5 0.000000 0.000000 0.000000 0.000000 0.121037 0.000000
# 6 0.000000 0.000000 0.000000 0.000000 0.000000 0.027462
#
#
# Mechanical properties :
#
#
# Convention : Reuss Voigt Hill
#
# Bulk Modulus (GPa) = 53.08166 57.17546 55.12856
# Shear Modulus (GPa) = 17.70065 24.52467 21.11266
#
# Velocity S-wave (km/s) = 3.00004 3.53129 3.27645
# Velocity P-wave (km/s) = 6.24425 6.76008 6.50728
#
# Compressibility (1/GPa) = 0.01883890
#
# Stress axis : x y z
#
# Youngs Moduli (GPa) = 69.38148 86.61794 71.43309
#
# Poissons Ratio (x) = 0.51784 0.14359
# Poissons Ratio (y) = 0.41479 0.18362
# Poissons Ratio (z) = 0.13947 0.22265
#
# Static dielectric constant tensor:
#      x y z
#    x 3.693610 0.000000 0.000000 
#    y 0.000000 3.661760 0.000000 
#    z 0.000000 0.000000 3.615520 
# 
# 
# High freq. dielectric constant tensor:
#      x y z
#    x 1.771870 0.000000 0.000000 
#    y 0.000000 1.771310 0.000000 
#    z 0.000000 0.000000 1.731940 
# 
# From -- ./inp_files/33517.got.cif
#   From: 2010.06.25/outbox.cif.g09.slc.cpg/sg58_17_cif.got.tgz:33517.got - 2010.06.26 21:38:00.
