data_PCOD8238312
_publ_section_title
;
Structure prediction by ZEFSAII (Michael W. Deem and Ramdas Pophale) SiO2 
 PCOD8238312
Probable space group: P N N M
;
_chemical_formula_sum "Si O2"
_cell_formula_units_Z 44
_cell_length_a 14.097848
_cell_length_b 11.811472
_cell_length_c 13.615884
_cell_angle_alpha 90.000000
_cell_angle_beta 90.000000
_cell_angle_gamma 90.000000
_cell_volume 2267.267128
_symmetry_space_group_name_H-M "P N N M"
_symmetry_group_IT_number 58
_symmetry_cell_setting 'orthorhombic'
loop_
_space_group_symop_operation_xyz
x,y,z
-x,-y,z
1/2+x,1/2-y,1/2-z
1/2-x,1/2+y,1/2-z
-x,-y,-z
x,y,-z
1/2-x,1/2+y,1/2+z
1/2+x,1/2-y,1/2+z
loop_
_atom_site_type_symbol
_atom_site_label
_atom_site_fract_x
_atom_site_fract_y
_atom_site_fract_z
Si Si1 0.584733 0.413130 0.500000
Si Si2 0.866828 0.923953 0.786164
Si Si3 0.563306 0.659252 0.214633
Si Si4 0.500000 0.000000 0.669803
Si Si5 0.056999 0.350301 0.000000
Si Si6 0.279968 0.024555 0.500000
Si Si7 0.579545 0.594198 0.000000
Si Si8 0.831061 0.372526 0.797283
O O1 0.500000 0.500000 0.500000
O O2 0.643289 0.438657 0.597373
O O3 0.553373 0.283416 0.500000
O O4 0.766231 0.870869 0.761353
O O5 0.954585 0.843429 0.753604
O O6 0.881258 0.043516 0.734764
O O7 0.568538 0.674870 0.096151
O O8 0.618155 0.754679 0.274323
O O9 0.504415 0.110116 0.599181
O O10 0.405593 0.025957 0.734533
O O11 0.160454 0.407902 0.000000
O O12 0.303618 0.107033 0.589997
O O13 0.173687 0.980929 0.500000
O O14 0.500000 0.500000 0.000000
#
# Coordination Sequence:
#
# PCOD8238312 Si02
#       8
#     4   8   8   4   4   4   4   8
#     4  12  23  36  62  87 136 165 210 275 332 376
#     4  11  24  40  57  98 124 174 215 268 326 393
#     4  11  23  39  65  91 128 168 217 271 324 390
#     4   9  20  38  62  91 122 162 206 267 310 387
#     4   9  20  36  60  90 119 160 210 258 323 376
#     4  10  21  39  64  95 126 166 216 273 317 391
#     4  12  20  41  66  89 130 166 224 270 317 396
#     4  11  23  39  65  93 129 168 222 263 331 385
#
# _framework density 19.406624000000001
#
# number of rings (size 3 to 8) (size 9 to 14) (size 15 to 20)
#    0.000    1.273    5.455    1.636    2.545    2.909 
#    0.000    0.000    0.000    4.364    0.000    0.000 
#    0.000    0.000    0.000    0.000    0.000    0.000 
#
# Total GULP energy -545241.107422 kJ/mol
# GULP energy per Si atom -12391.843351 kJ/mol
# Density = 1.936245 g / cm^3
# Si number density = 19.406624 Si / 1000 Ang^3
#
#
#
# Elastic Constant Matrix: (Units=GPa)
#
#
# Indices 1 2 3 4 5 6 
#
# 1 165.6344 47.4452 47.6759 0.0000 0.0000 0.0000
# 2 47.4452 91.5089 27.1578 0.0000 0.0000 0.0000
# 3 47.6759 27.1578 127.7205 0.0000 0.0000 0.0000
# 4 0.0000 0.0000 0.0000 26.7669 0.0000 0.0000
# 5 0.0000 0.0000 0.0000 0.0000 -16.1546 0.0000
# 6 0.0000 0.0000 0.0000 0.0000 0.0000 26.4004
#
#
#
# Elastic Compliance Matrix: (Units=1/GPa)
#
#
# Indices 1 2 3 4 5 6 
#
# 1 0.007599 -0.003307 -0.002133 0.000000 0.000000 0.000000
# 2 -0.003307 0.013103 -0.001552 0.000000 0.000000 0.000000
# 3 -0.002133 -0.001552 0.008956 0.000000 0.000000 0.000000
# 4 0.000000 0.000000 0.000000 0.037360 0.000000 0.000000
# 5 0.000000 0.000000 0.000000 0.000000 -0.061902 0.000000
# 6 0.000000 0.000000 0.000000 0.000000 0.000000 0.037878
#
#
# Mechanical properties :
#
#
# Convention : Reuss Voigt Hill
#
# Bulk Modulus (GPa) = 63.80048 69.93574 66.86811
# Shear Modulus (GPa) = 80.38440 24.90822 52.64631
#
# Velocity S-wave (km/s) = 6.44291 3.58647 5.21411
# Velocity P-wave (km/s) = 9.39654 7.29833 8.41311
#
# Compressibility (1/GPa) = 0.01567386
#
# Stress axis : x y z
#
# Youngs Moduli (GPa) = 131.60322 76.31950 111.65814
#
# Poissons Ratio (x) = 0.25236 0.23820
# Poissons Ratio (y) = 0.43515 0.17327
# Poissons Ratio (z) = 0.28075 0.11843
#
# Static dielectric constant tensor:
#      x y z
#    x 3.911140 0.000000 0.000000 
#    y 0.000000 3.345070 0.000000 
#    z 0.000000 0.000000 3.856360 
# 
# 
# High freq. dielectric constant tensor:
#      x y z
#    x 1.770630 0.000000 0.000000 
#    y 0.000000 1.736330 0.000000 
#    z 0.000000 0.000000 1.756890 
# 
# From -- ./inp_files/22086.got.cif
#   From: 2010.06.25/outbox.cif.g09.slc.cpg/sg58_12_cif.got.tgz:22086.got - 2010.06.26 21:38:00.
