data_PCOD8238582
_publ_section_title
;
Structure prediction by ZEFSAII (Michael W. Deem and Ramdas Pophale) SiO2 
 PCOD8238582
Probable space group: P N N M
;
_chemical_formula_sum "Si O2"
_cell_formula_units_Z 64
_cell_length_a 33.579904
_cell_length_b 11.769857
_cell_length_c 8.686802
_cell_angle_alpha 90.000000
_cell_angle_beta 90.000000
_cell_angle_gamma 90.000000
_cell_volume 3433.290559
_symmetry_space_group_name_H-M "P N N M"
_symmetry_group_IT_number 58
_symmetry_cell_setting 'orthorhombic'
loop_
_space_group_symop_operation_xyz
x,y,z
-x,-y,z
1/2+x,1/2-y,1/2-z
1/2-x,1/2+y,1/2-z
-x,-y,-z
x,y,-z
1/2-x,1/2+y,1/2+z
1/2+x,1/2-y,1/2+z
loop_
_atom_site_type_symbol
_atom_site_label
_atom_site_fract_x
_atom_site_fract_y
_atom_site_fract_z
Si Si1 0.036119 0.857699 0.180358
Si Si2 0.551684 0.389187 0.682136
Si Si3 0.608729 0.737216 0.177531
Si Si4 0.810685 0.638685 0.820655
Si Si5 0.770646 0.200429 0.819808
Si Si6 0.631375 0.307530 0.819817
Si Si7 0.168748 0.954089 0.681025
Si Si8 0.821691 0.398069 0.320869
O O1 0.065828 0.759573 0.239806
O O2 0.990566 0.831174 0.227998
O O3 0.050248 0.980841 0.242251
O O4 0.038284 0.863260 0.000000
O O5 0.559696 0.382393 0.500000
O O6 0.585637 0.322352 0.772845
O O7 0.633738 0.629215 0.238641
O O8 0.633574 0.851719 0.210235
O O9 0.599760 0.721404 0.000000
O O10 0.775703 0.694284 0.720361
O O11 0.851342 0.701686 0.774447
O O12 0.815194 0.506326 0.784779
O O13 0.801486 0.653904 0.000000
O O14 0.791075 0.080805 0.771238
O O15 0.789875 0.302414 0.723536
O O16 0.776053 0.223362 0.000000
O O17 0.657121 0.418355 0.775236
O O18 0.633816 0.281769 0.000000
O O19 0.176527 0.938365 0.500000
O O20 0.815845 0.429096 0.500000
#
# Coordination Sequence:
#
# PCOD8238582 Si02
#       8
#     8   8   8   8   8   8   8   8
#     4   9  17  29  50  80 116 152 186 226 275 333
#     4   9  18  32  49  78 118 154 187 228 278 333
#     4   9  17  32  55  82 111 143 181 227 276 327
#     4  12  26  42  60  82 111 149 191 234 283 338
#     4  11  23  39  61  86 112 145 185 232 283 333
#     4  11  22  37  57  82 114 152 191 233 283 338
#     4   9  19  35  54  80 114 147 184 228 276 333
#     4  10  22  42  61  82 113 146 187 236 282 334
#
# _framework density 18.641009
#
# number of rings (size 3 to 8) (size 9 to 14) (size 15 to 20)
#    0.000    2.000    1.250    4.500    1.750    4.000 
#    0.000    1.250    0.000    0.750    0.000    5.250 
#    0.000    0.000    0.000    0.000    0.000    0.000 
#
# Total GULP energy -793684.778127 kJ/mol
# GULP energy per Si atom -12401.324658 kJ/mol
# Density = 1.859858 g / cm^3
# Si number density = 18.641009 Si / 1000 Ang^3
#
#
#
# Elastic Constant Matrix: (Units=GPa)
#
#
# Indices 1 2 3 4 5 6 
#
# 1 116.9677 32.3514 27.5981 0.0000 0.0000 0.0000
# 2 32.3514 64.3514 16.6744 0.0000 0.0000 0.0000
# 3 27.5981 16.6744 55.0946 0.0000 0.0000 0.0000
# 4 0.0000 0.0000 0.0000 24.3527 0.0000 0.0000
# 5 0.0000 0.0000 0.0000 0.0000 35.3268 0.0000
# 6 0.0000 0.0000 0.0000 0.0000 0.0000 23.4885
#
#
#
# Elastic Compliance Matrix: (Units=1/GPa)
#
#
# Indices 1 2 3 4 5 6 
#
# 1 0.010703 -0.004331 -0.004051 0.000000 0.000000 0.000000
# 2 -0.004331 0.018615 -0.003464 0.000000 0.000000 0.000000
# 3 -0.004051 -0.003464 0.021228 0.000000 0.000000 0.000000
# 4 0.000000 0.000000 0.000000 0.041063 0.000000 0.000000
# 5 0.000000 0.000000 0.000000 0.000000 0.028307 0.000000
# 6 0.000000 0.000000 0.000000 0.000000 0.000000 0.042574
#
#
# Mechanical properties :
#
#
# Convention : Reuss Voigt Hill
#
# Bulk Modulus (GPa) = 37.23841 43.29572 40.26707
# Shear Modulus (GPa) = 25.62352 27.28625 26.45489
#
# Velocity S-wave (km/s) = 3.71155 3.83008 3.77128
# Velocity P-wave (km/s) = 6.19576 6.54491 6.37273
#
# Compressibility (1/GPa) = 0.02685399
#
# Stress axis : x y z
#
# Youngs Moduli (GPa) = 93.43165 53.72096 47.10748
#
# Poissons Ratio (x) = 0.23267 0.19081
# Poissons Ratio (y) = 0.40467 0.16319
# Poissons Ratio (z) = 0.37845 0.18610
#
# Static dielectric constant tensor:
#      x y z
#    x 3.668790 0.000000 0.000000 
#    y 0.000000 3.251930 0.000000 
#    z 0.000000 0.000000 3.317180 
# 
# 
# High freq. dielectric constant tensor:
#      x y z
#    x 1.728660 0.000000 0.000000 
#    y 0.000000 1.695570 0.000000 
#    z 0.000000 0.000000 1.724330 
# 
# From -- ./inp_files/10966.got.cif
#   From: 2010.06.25/outbox.cif.g09.slc.cpg/sg58_6_cif.got.tgz:10966.got - 2010.06.26 21:38:00.
