data_PCOD8238711
_publ_section_title
;
Structure prediction by ZEFSAII (Michael W. Deem and Ramdas Pophale) SiO2 
 PCOD8238711
Probable space group: P N N M
;
_chemical_formula_sum "Si O2"
_cell_formula_units_Z 64
_cell_length_a 17.177326
_cell_length_b 9.305686
_cell_length_c 22.080834
_cell_angle_alpha 90.000000
_cell_angle_beta 90.000000
_cell_angle_gamma 90.000000
_cell_volume 3529.550702
_symmetry_space_group_name_H-M "P N N M"
_symmetry_group_IT_number 58
_symmetry_cell_setting 'orthorhombic'
loop_
_space_group_symop_operation_xyz
x,y,z
-x,-y,z
1/2+x,1/2-y,1/2-z
1/2-x,1/2+y,1/2-z
-x,-y,-z
x,y,-z
1/2-x,1/2+y,1/2+z
1/2+x,1/2-y,1/2+z
loop_
_atom_site_type_symbol
_atom_site_label
_atom_site_fract_x
_atom_site_fract_y
_atom_site_fract_z
Si Si1 0.101777 0.252159 0.229126
Si Si2 0.928282 0.405414 0.365967
Si Si3 0.925370 0.269762 0.759367
Si Si4 0.317924 0.856091 0.151747
Si Si5 0.808750 0.027862 0.236108
Si Si6 0.569126 0.599992 0.930104
Si Si7 0.327068 0.018305 0.670513
Si Si8 0.719001 0.408662 0.929897
O O1 0.120501 0.298719 0.298176
O O2 0.149271 0.111705 0.209689
O O3 0.126275 0.371822 0.180474
O O4 0.010808 0.217716 0.221494
O O5 0.932386 0.385555 0.293841
O O6 0.850458 0.497840 0.378927
O O7 0.928030 0.252809 0.397997
O O8 0.000000 0.500000 0.389743
O O9 0.883462 0.348097 0.815443
O O10 0.874135 0.134371 0.736762
O O11 0.307217 0.741424 0.099017
O O12 0.235390 0.889577 0.182460
O O13 0.750019 0.975204 0.287798
O O14 0.500000 0.500000 0.902748
O O15 0.651043 0.523569 0.920236
O O16 0.550897 0.629508 0.000000
O O17 0.297445 0.031188 0.601563
O O18 0.737497 0.382881 0.000000
#
# Coordination Sequence:
#
# PCOD8238711 Si02
#       8
#     8   8   8   8   8   8   8   8
#     4  11  22  35  57  88 124 154 187 249 309 366
#     4  12  22  35  58  86 121 160 197 240 296 358
#     4  12  21  36  55  90 122 153 192 240 307 373
#     4  11  22  37  56  89 120 155 201 245 302 354
#     4  11  21  34  58  87 120 155 193 243 308 356
#     4  10  24  41  59  84 117 163 210 249 287 345
#     4  11  20  38  58  84 119 154 195 252 297 356
#     4  11  23  42  63  84 117 164 210 249 294 359
#
# _framework density 18.132618000000001
#
# number of rings (size 3 to 8) (size 9 to 14) (size 15 to 20)
#    0.000    0.875    6.250    3.000    1.750    0.750 
#    0.000    0.000    0.000    1.500    0.000    0.875 
#    0.000    0.000    0.000    0.000    0.000    0.000 
#
# Total GULP energy -793809.038567 kJ/mol
# GULP energy per Si atom -12403.266228 kJ/mol
# Density = 1.809135 g / cm^3
# Si number density = 18.132618 Si / 1000 Ang^3
#
#
#
# Elastic Constant Matrix: (Units=GPa)
#
#
# Indices 1 2 3 4 5 6 
#
# 1 118.7269 44.0580 36.2344 0.0000 0.0000 0.0000
# 2 44.0580 109.7961 40.8109 0.0000 0.0000 0.0000
# 3 36.2344 40.8109 90.5720 0.0000 0.0000 0.0000
# 4 0.0000 0.0000 0.0000 22.3060 0.0000 0.0000
# 5 0.0000 0.0000 0.0000 0.0000 20.3940 0.0000
# 6 0.0000 0.0000 0.0000 0.0000 0.0000 37.4874
#
#
#
# Elastic Compliance Matrix: (Units=1/GPa)
#
#
# Indices 1 2 3 4 5 6 
#
# 1 0.010436 -0.003166 -0.002749 0.000000 0.000000 0.000000
# 2 -0.003166 0.011901 -0.004096 0.000000 0.000000 0.000000
# 3 -0.002749 -0.004096 0.013986 0.000000 0.000000 0.000000
# 4 0.000000 0.000000 0.000000 0.044831 0.000000 0.000000
# 5 0.000000 0.000000 0.000000 0.000000 0.049034 0.000000
# 6 0.000000 0.000000 0.000000 0.000000 0.000000 0.026676
#
#
# Mechanical properties :
#
#
# Convention : Reuss Voigt Hill
#
# Bulk Modulus (GPa) = 61.34117 62.36684 61.85400
# Shear Modulus (GPa) = 27.42450 29.23692 28.33071
#
# Velocity S-wave (km/s) = 3.89323 4.01982 3.95703
# Velocity P-wave (km/s) = 7.35610 7.48430 7.42048
#
# Compressibility (1/GPa) = 0.01630227
#
# Stress axis : x y z
#
# Youngs Moduli (GPa) = 95.81789 84.02913 71.50014
#
# Poissons Ratio (x) = 0.26605 0.19652
# Poissons Ratio (y) = 0.30338 0.29284
# Poissons Ratio (z) = 0.26336 0.34415
#
# Static dielectric constant tensor:
#      x y z
#    x 3.526910 0.000000 0.000000 
#    y 0.000000 3.495900 0.000000 
#    z 0.000000 0.000000 3.103070 
# 
# 
# High freq. dielectric constant tensor:
#      x y z
#    x 1.708150 0.000000 0.000000 
#    y 0.000000 1.723710 0.000000 
#    z 0.000000 0.000000 1.657920 
# 
# From -- ./inp_files/30275.got.cif
#   From: 2010.06.25/outbox.cif.g09.slc.cpg/sg58_16_cif.got.tgz:30275.got - 2010.06.26 21:38:00.
