data_PCOD8238120
_publ_section_title
;
Structure prediction by ZEFSAII (Michael W. Deem and Ramdas Pophale) SiO2 
 PCOD8238120
Probable space group: P N N M
;
_chemical_formula_sum "Si O2"
_cell_formula_units_Z 56
_cell_length_a 15.984051
_cell_length_b 11.737284
_cell_length_c 14.609977
_cell_angle_alpha 90.000000
_cell_angle_beta 90.000000
_cell_angle_gamma 90.000000
_cell_volume 2740.968231
_symmetry_space_group_name_H-M "P N N M"
_symmetry_group_IT_number 58
_symmetry_cell_setting 'orthorhombic'
loop_
_space_group_symop_operation_xyz
x,y,z
-x,-y,z
1/2+x,1/2-y,1/2-z
1/2-x,1/2+y,1/2-z
-x,-y,-z
x,y,-z
1/2-x,1/2+y,1/2+z
1/2+x,1/2-y,1/2+z
loop_
_atom_site_type_symbol
_atom_site_label
_atom_site_fract_x
_atom_site_fract_y
_atom_site_fract_z
Si Si1 0.470696 0.180501 0.394348
Si Si2 0.725671 0.651088 0.220251
Si Si3 0.331090 0.148464 0.103958
Si Si4 0.685058 0.114043 0.896689
Si Si5 0.540613 0.616177 0.255690
Si Si6 0.633601 0.038026 0.393834
Si Si7 0.512581 0.231737 0.896367
O O1 0.461481 0.212954 0.500000
O O2 0.455952 0.293834 0.337361
O O3 0.562820 0.132119 0.374336
O O4 0.401542 0.086326 0.367085
O O5 0.724903 0.771859 0.168424
O O6 0.755499 0.676855 0.324087
O O7 0.634429 0.593623 0.219934
O O8 0.787192 0.563275 0.169662
O O9 0.429340 0.160064 0.126523
O O10 0.303884 0.019701 0.120233
O O11 0.313437 0.186163 0.000000
O O12 0.589236 0.147212 0.878869
O O13 0.712342 0.147813 0.000000
O O14 0.500000 0.500000 0.292632
O O15 0.483461 0.660803 0.171655
O O16 0.660270 0.040734 0.500000
O O17 0.512732 0.278441 0.000000
#
# Coordination Sequence:
#
# PCOD8238120 Si02
#       7
#     8   8   8   8   8   8   8
#     4   9  20  41  67  92 122 160 211 266 317 372
#     4  11  23  35  59  90 131 162 204 252 315 371
#     4   9  19  37  60  87 120 158 201 252 307 367
#     4  10  21  37  60  91 124 157 203 257 310 365
#     4  11  25  42  58  88 130 173 210 248 308 385
#     4   9  19  39  68  98 120 155 213 273 319 362
#     4   9  19  38  62  86 115 157 207 255 306 362
#
# _framework density 20.430737000000001
#
# number of rings (size 3 to 8) (size 9 to 14) (size 15 to 20)
#    0.000    2.286    0.000    2.571    4.000    5.714 
#    0.000    1.429    0.000    0.000    0.000    0.000 
#    0.000    0.000    0.000    0.000    0.000    0.000 
#
# Total GULP energy -694537.548817 kJ/mol
# GULP energy per Si atom -12402.456229 kJ/mol
# Density = 2.038424 g / cm^3
# Si number density = 20.430737 Si / 1000 Ang^3
#
#
#
# Elastic Constant Matrix: (Units=GPa)
#
#
# Indices 1 2 3 4 5 6 
#
# 1 87.8538 56.1053 59.0553 0.0000 0.0000 0.0000
# 2 56.1053 112.5208 71.9984 0.0000 0.0000 0.0000
# 3 59.0553 71.9984 125.8392 0.0000 0.0000 0.0000
# 4 0.0000 0.0000 0.0000 33.2265 0.0000 0.0000
# 5 0.0000 0.0000 0.0000 0.0000 35.6100 0.0000
# 6 0.0000 0.0000 0.0000 0.0000 0.0000 28.4047
#
#
#
# Elastic Compliance Matrix: (Units=1/GPa)
#
#
# Indices 1 2 3 4 5 6 
#
# 1 0.018812 -0.005886 -0.005461 0.000000 0.000000 0.000000
# 2 -0.005886 0.015862 -0.006313 0.000000 0.000000 0.000000
# 3 -0.005461 -0.006313 0.014121 0.000000 0.000000 0.000000
# 4 0.000000 0.000000 0.000000 0.030096 0.000000 0.000000
# 5 0.000000 0.000000 0.000000 0.000000 0.028082 0.000000
# 6 0.000000 0.000000 0.000000 0.000000 0.000000 0.035205
#
#
# Mechanical properties :
#
#
# Convention : Reuss Voigt Hill
#
# Bulk Modulus (GPa) = 74.20765 77.83687 76.02226
# Shear Modulus (GPa) = 27.47404 28.71856 28.09630
#
# Velocity S-wave (km/s) = 3.67105 3.75327 3.71239
# Velocity P-wave (km/s) = 7.37355 7.54741 7.46099
#
# Compressibility (1/GPa) = 0.01347570
#
# Stress axis : x y z
#
# Youngs Moduli (GPa) = 53.15704 63.04558 70.81550
#
# Poissons Ratio (x) = 0.37109 0.38670
# Poissons Ratio (y) = 0.31288 0.44705
# Poissons Ratio (z) = 0.29028 0.39800
#
# Static dielectric constant tensor:
#      x y z
#    x 3.615500 0.000000 0.000000 
#    y 0.000000 3.444180 0.000000 
#    z 0.000000 0.000000 3.912130 
# 
# 
# High freq. dielectric constant tensor:
#      x y z
#    x 1.791360 0.000000 0.000000 
#    y 0.000000 1.779740 0.000000 
#    z 0.000000 0.000000 1.815070 
# 
# From -- ./inp_files/22184.got.cif
#   From: 2010.06.25/outbox.cif.g09.slc.cpg/sg58_12_cif.got.tgz:22184.got - 2010.06.26 21:38:00.
