data_PCOD8238304
_publ_section_title
;
Structure prediction by ZEFSAII (Michael W. Deem and Ramdas Pophale) SiO2 
 PCOD8238304
Probable space group: P N N M
;
_chemical_formula_sum "Si O2"
_cell_formula_units_Z 64
_cell_length_a 9.240414
_cell_length_b 14.067721
_cell_length_c 23.818018
_cell_angle_alpha 90.000000
_cell_angle_beta 90.000000
_cell_angle_gamma 90.000000
_cell_volume 3096.141461
_symmetry_space_group_name_H-M "P N N M"
_symmetry_group_IT_number 58
_symmetry_cell_setting 'orthorhombic'
loop_
_space_group_symop_operation_xyz
x,y,z
-x,-y,z
1/2+x,1/2-y,1/2-z
1/2-x,1/2+y,1/2-z
-x,-y,-z
x,y,-z
1/2-x,1/2+y,1/2+z
1/2+x,1/2-y,1/2+z
loop_
_atom_site_type_symbol
_atom_site_label
_atom_site_fract_x
_atom_site_fract_y
_atom_site_fract_z
Si Si1 0.651653 0.213876 0.787671
Si Si2 0.629187 0.433796 0.646335
Si Si3 0.638270 0.943205 0.934946
Si Si4 0.111766 0.273429 0.161010
Si Si5 0.419697 0.251581 0.879483
Si Si6 0.331120 0.118750 0.341637
Si Si7 0.898046 0.911732 0.434625
Si Si8 0.164974 0.498089 0.733931
O O1 0.597028 0.246683 0.727121
O O2 0.510302 0.212252 0.826935
O O3 0.768006 0.285606 0.813674
O O4 0.722354 0.108949 0.778362
O O5 0.500000 0.500000 0.664831
O O6 0.714670 0.481418 0.594074
O O7 0.574063 0.327788 0.631869
O O8 0.743066 0.426929 0.697774
O O9 0.623636 0.833224 0.920453
O O10 0.500000 0.000000 0.911594
O O11 0.657632 0.961297 0.000000
O O12 0.274435 0.304221 0.143027
O O13 0.997781 0.355406 0.142677
O O14 0.511898 0.319348 0.918916
O O15 0.248008 0.086267 0.397684
O O16 0.322760 0.029676 0.298963
O O17 0.853519 0.909989 0.500000
O O18 0.000000 0.000000 0.419947
O O19 0.000000 0.500000 0.714185
#
# Coordination Sequence:
#
# PCOD8238304 Si02
#       8
#     8   8   8   8   8   8   8   8
#     4  11  21  38  59  88 128 167 202 250 303 385
#     4  11  23  38  57  88 127 164 201 247 315 366
#     4  10  21  39  64  90 118 160 215 255 294 360
#     4  11  21  38  57  91 131 157 198 257 309 379
#     4  10  22  39  65  87 125 164 207 253 316 372
#     4  11  24  40  62  95 126 164 208 259 317 376
#     4  10  24  46  68  90 119 163 218 269 315 375
#     4  12  22  37  61  86 125 166 205 245 310 378
#
# _framework density 20.670891000000001
#
# number of rings (size 3 to 8) (size 9 to 14) (size 15 to 20)
#    0.000    1.250    2.500    4.500    1.750    1.750 
#    0.000    3.125    0.000    1.875    0.000    0.000 
#    0.000    0.000    0.000    0.000    0.000    0.000 
#
# Total GULP energy -793519.948829 kJ/mol
# GULP energy per Si atom -12398.749200 kJ/mol
# Density = 2.062384 g / cm^3
# Si number density = 20.670891 Si / 1000 Ang^3
#
#
#
# Elastic Constant Matrix: (Units=GPa)
#
#
# Indices 1 2 3 4 5 6 
#
# 1 101.2777 24.6283 48.4275 0.0000 0.0000 0.0000
# 2 24.6283 75.5831 28.6789 0.0000 0.0000 0.0000
# 3 48.4275 28.6789 100.8978 0.0000 0.0000 0.0000
# 4 0.0000 0.0000 0.0000 27.7060 0.0000 0.0000
# 5 0.0000 0.0000 0.0000 0.0000 25.5221 0.0000
# 6 0.0000 0.0000 0.0000 0.0000 0.0000 29.7753
#
#
#
# Elastic Compliance Matrix: (Units=1/GPa)
#
#
# Indices 1 2 3 4 5 6 
#
# 1 0.013109 -0.002112 -0.005692 0.000000 0.000000 0.000000
# 2 -0.002112 0.015170 -0.003298 0.000000 0.000000 0.000000
# 3 -0.005692 -0.003298 0.013580 0.000000 0.000000 0.000000
# 4 0.000000 0.000000 0.000000 0.036093 0.000000 0.000000
# 5 0.000000 0.000000 0.000000 0.000000 0.039182 0.000000
# 6 0.000000 0.000000 0.000000 0.000000 0.000000 0.033585
#
#
# Mechanical properties :
#
#
# Convention : Reuss Voigt Hill
#
# Bulk Modulus (GPa) = 50.87544 53.46978 52.17261
# Shear Modulus (GPa) = 27.85909 28.33559 28.09734
#
# Velocity S-wave (km/s) = 3.67515 3.70644 3.69083
# Velocity P-wave (km/s) = 6.53257 6.65134 6.59222
#
# Compressibility (1/GPa) = 0.01965585
#
# Stress axis : x y z
#
# Youngs Moduli (GPa) = 76.28404 65.91913 73.63627
#
# Poissons Ratio (x) = 0.13921 0.41910
# Poissons Ratio (y) = 0.16110 0.24287
# Poissons Ratio (z) = 0.43417 0.21742
#
# Static dielectric constant tensor:
#      x y z
#    x 3.889160 0.000000 0.000000 
#    y 0.000000 3.806090 0.000000 
#    z 0.000000 0.000000 3.618560 
# 
# 
# High freq. dielectric constant tensor:
#      x y z
#    x 1.811440 0.000000 0.000000 
#    y 0.000000 1.814360 0.000000 
#    z 0.000000 0.000000 1.793680 
# 
# From -- ./inp_files/31636.got.cif
#   From: 2010.06.25/outbox.cif.g09.slc.cpg/sg58_16_cif.got.tgz:31636.got - 2010.06.26 21:38:00.
