data_PCOD8238305
_publ_section_title
;
Structure prediction by ZEFSAII (Michael W. Deem and Ramdas Pophale) SiO2 
 PCOD8238305
Probable space group: P N N M
;
_chemical_formula_sum "Si O2"
_cell_formula_units_Z 64
_cell_length_a 22.767190
_cell_length_b 15.490020
_cell_length_c 9.104015
_cell_angle_alpha 90.000000
_cell_angle_beta 90.000000
_cell_angle_gamma 90.000000
_cell_volume 3210.660426
_symmetry_space_group_name_H-M "P N N M"
_symmetry_group_IT_number 58
_symmetry_cell_setting 'orthorhombic'
loop_
_space_group_symop_operation_xyz
x,y,z
-x,-y,z
1/2+x,1/2-y,1/2-z
1/2-x,1/2+y,1/2-z
-x,-y,-z
x,y,-z
1/2-x,1/2+y,1/2+z
1/2+x,1/2-y,1/2+z
loop_
_atom_site_type_symbol
_atom_site_label
_atom_site_fract_x
_atom_site_fract_y
_atom_site_fract_z
Si Si1 0.544644 0.573646 0.829094
Si Si2 0.312124 0.692642 0.673166
Si Si3 0.867115 0.648438 0.668491
Si Si4 0.749995 0.066807 0.838859
Si Si5 0.431733 0.252447 0.671768
Si Si6 0.159879 0.030143 0.331618
Si Si7 0.799289 0.258227 0.165974
Si Si8 0.981058 0.597977 0.167695
O O1 0.500000 0.500000 0.769113
O O2 0.536857 0.665390 0.748242
O O3 0.610300 0.540554 0.799655
O O4 0.531834 0.590034 0.000000
O O5 0.308349 0.692831 0.500000
O O6 0.347064 0.775704 0.725544
O O7 0.351182 0.613028 0.730516
O O8 0.245654 0.685455 0.736475
O O9 0.869974 0.681229 0.500000
O O10 0.820109 0.570777 0.683203
O O11 0.929342 0.613796 0.718623
O O12 0.776920 0.161317 0.830049
O O13 0.777104 0.009516 0.710296
O O14 0.764735 0.026933 0.000000
O O15 0.429593 0.273889 0.500000
O O16 0.365349 0.237665 0.731157
O O17 0.466946 0.164827 0.706020
O O18 0.160189 0.059359 0.500000
O O19 0.798028 0.294980 0.000000
O O20 0.000000 0.500000 0.192312
O O21 0.960062 0.612259 0.000000
#
# Coordination Sequence:
#
# PCOD8238305 Si02
#       8
#     8   8   8   8   8   8   8   8
#     4  10  23  40  58  87 124 162 204 250 302 366
#     4  11  23  37  58  88 122 158 199 244 296 362
#     4  10  22  41  63  86 119 159 201 249 308 362
#     4   9  18  35  58  83 114 151 192 243 295 352
#     4  10  21  39  64  90 121 163 205 253 305 356
#     4  11  22  36  57  87 123 157 197 243 300 361
#     4   9  18  36  58  83 116 152 196 244 299 357
#     4  10  23  42  62  90 124 159 207 257 303 362
#
# _framework density 19.933595
#
# number of rings (size 3 to 8) (size 9 to 14) (size 15 to 20)
#    0.000    2.000    1.250    2.625    1.750    5.500 
#    0.000    1.250    0.000    0.000    0.000    0.000 
#    0.000    0.000    0.000    0.000    0.000    0.000 
#
# Total GULP energy -793589.738205 kJ/mol
# GULP energy per Si atom -12399.839659 kJ/mol
# Density = 1.988823 g / cm^3
# Si number density = 19.933595 Si / 1000 Ang^3
#
#
#
# Elastic Constant Matrix: (Units=GPa)
#
#
# Indices 1 2 3 4 5 6 
#
# 1 103.7816 32.6796 40.5243 0.0000 0.0000 0.0000
# 2 32.6796 97.9210 43.4640 0.0000 0.0000 0.0000
# 3 40.5243 43.4640 100.8272 0.0000 0.0000 0.0000
# 4 0.0000 0.0000 0.0000 29.5290 0.0000 0.0000
# 5 0.0000 0.0000 0.0000 0.0000 30.4638 0.0000
# 6 0.0000 0.0000 0.0000 0.0000 0.0000 22.1853
#
#
#
# Elastic Compliance Matrix: (Units=1/GPa)
#
#
# Indices 1 2 3 4 5 6 
#
# 1 0.011824 -0.002271 -0.003773 0.000000 0.000000 0.000000
# 2 -0.002271 0.013065 -0.004719 0.000000 0.000000 0.000000
# 3 -0.003773 -0.004719 0.013469 0.000000 0.000000 0.000000
# 4 0.000000 0.000000 0.000000 0.033865 0.000000 0.000000
# 5 0.000000 0.000000 0.000000 0.000000 0.032826 0.000000
# 6 0.000000 0.000000 0.000000 0.000000 0.000000 0.045075
#
#
# Mechanical properties :
#
#
# Convention : Reuss Voigt Hill
#
# Bulk Modulus (GPa) = 59.41546 59.54061 59.47804
# Shear Modulus (GPa) = 28.20695 28.82641 28.51668
#
# Velocity S-wave (km/s) = 3.76579 3.80692 3.78641
# Velocity P-wave (km/s) = 6.98424 7.01839 7.00134
#
# Compressibility (1/GPa) = 0.01683064
#
# Stress axis : x y z
#
# Youngs Moduli (GPa) = 84.57230 76.54051 74.24576
#
# Poissons Ratio (x) = 0.17385 0.28015
# Poissons Ratio (y) = 0.19209 0.35037
# Poissons Ratio (z) = 0.31911 0.36120
#
# Static dielectric constant tensor:
#      x y z
#    x 3.761830 0.000000 0.000000 
#    y 0.000000 3.560750 0.000000 
#    z 0.000000 0.000000 3.583670 
# 
# 
# High freq. dielectric constant tensor:
#      x y z
#    x 1.780030 0.000000 0.000000 
#    y 0.000000 1.772190 0.000000 
#    z 0.000000 0.000000 1.773590 
# 
# From -- ./inp_files/9939.got.cif
#   From: 2010.06.25/outbox.cif.g09.slc.cpg/sg58_5_cif.got.tgz:9939.got - 2010.06.26 21:38:00.
