data_PCOD8238353
_publ_section_title
;
Structure prediction by ZEFSAII (Michael W. Deem and Ramdas Pophale) SiO2 
 PCOD8238353
Probable space group: P N N M
;
_chemical_formula_sum "Si O2"
_cell_formula_units_Z 48
_cell_length_a 18.835768
_cell_length_b 8.337855
_cell_length_c 15.394560
_cell_angle_alpha 90.000000
_cell_angle_beta 90.000000
_cell_angle_gamma 90.000000
_cell_volume 2417.714145
_symmetry_space_group_name_H-M "P N N M"
_symmetry_group_IT_number 58
_symmetry_cell_setting 'orthorhombic'
loop_
_space_group_symop_operation_xyz
x,y,z
-x,-y,z
1/2+x,1/2-y,1/2-z
1/2-x,1/2+y,1/2-z
-x,-y,-z
x,y,-z
1/2-x,1/2+y,1/2+z
1/2+x,1/2-y,1/2+z
loop_
_atom_site_type_symbol
_atom_site_label
_atom_site_fract_x
_atom_site_fract_y
_atom_site_fract_z
Si Si1 0.175499 0.890742 0.288641
Si Si2 0.959506 0.242864 0.000000
Si Si3 0.572265 0.403047 0.099196
Si Si4 0.078242 0.335499 0.741904
Si Si5 0.564993 0.814859 0.688534
Si Si6 0.703455 0.334855 0.669894
Si Si7 0.612060 0.396533 0.500000
O O1 0.121388 0.812409 0.220597
O O2 0.223124 0.762477 0.340830
O O3 0.135057 0.991213 0.361137
O O4 0.221685 0.007262 0.226549
O O5 0.930961 0.341194 0.915813
O O6 0.045934 0.228926 0.000000
O O7 0.922513 0.070749 0.000000
O O8 0.500000 0.500000 0.111758
O O9 0.568596 0.226397 0.142965
O O10 0.590468 0.370634 0.000000
O O11 0.074391 0.526088 0.753469
O O12 0.153337 0.279847 0.775337
O O13 0.014699 0.248859 0.795407
O O14 0.665048 0.374930 0.580371
#
# Coordination Sequence:
#
# PCOD8238353 Si02
#       7
#     8   4   8   8   8   8   4
#     4  11  23  40  67  88 131 175 217 260 324 397
#     4  11  22  38  69 104 130 169 214 275 324 400
#     4  10  21  40  65  92 120 166 224 275 316 373
#     4  10  22  38  63  90 131 165 210 263 327 384
#     4  11  21  39  63  97 126 170 212 267 319 392
#     4  11  23  40  62  91 129 173 208 264 328 394
#     4  11  22  37  66 103 135 160 217 269 336 394
#
# _framework density 19.853463000000001
#
# number of rings (size 3 to 8) (size 9 to 14) (size 15 to 20)
#    0.000    1.333    5.000    1.000    1.167    2.000 
#    0.000    2.500   22.000    0.000    0.000    0.000 
#    0.000    0.000    0.000    0.000    0.000    0.000 
#
# Total GULP energy -594939.407053 kJ/mol
# GULP energy per Si atom -12394.570980 kJ/mol
# Density = 1.980828 g / cm^3
# Si number density = 19.853463 Si / 1000 Ang^3
#
#
#
# Elastic Constant Matrix: (Units=GPa)
#
#
# Indices 1 2 3 4 5 6 
#
# 1 63.6750 28.4829 24.6931 0.0000 0.0000 0.0000
# 2 28.4829 97.2656 52.6088 0.0000 0.0000 0.0000
# 3 24.6931 52.6088 153.4734 0.0000 0.0000 0.0000
# 4 0.0000 0.0000 0.0000 25.7222 0.0000 0.0000
# 5 0.0000 0.0000 0.0000 0.0000 14.7402 0.0000
# 6 0.0000 0.0000 0.0000 0.0000 0.0000 24.9241
#
#
#
# Elastic Compliance Matrix: (Units=1/GPa)
#
#
# Indices 1 2 3 4 5 6 
#
# 1 0.018300 -0.004624 -0.001359 0.000000 0.000000 0.000000
# 2 -0.004624 0.013789 -0.003983 0.000000 0.000000 0.000000
# 3 -0.001359 -0.003983 0.008100 0.000000 0.000000 0.000000
# 4 0.000000 0.000000 0.000000 0.038877 0.000000 0.000000
# 5 0.000000 0.000000 0.000000 0.000000 0.067842 0.000000
# 6 0.000000 0.000000 0.000000 0.000000 0.000000 0.040122
#
#
# Mechanical properties :
#
#
# Convention : Reuss Voigt Hill
#
# Bulk Modulus (GPa) = 49.36493 58.44263 53.90378
# Shear Modulus (GPa) = 23.39575 26.98593 25.19084
#
# Velocity S-wave (km/s) = 3.43654 3.69081 3.56594
# Velocity P-wave (km/s) = 6.37691 6.90389 6.64563
#
# Compressibility (1/GPa) = 0.02025730
#
# Stress axis : x y z
#
# Youngs Moduli (GPa) = 54.64427 72.51970 123.45963
#
# Poissons Ratio (x) = 0.33531 0.16784
# Poissons Ratio (y) = 0.25266 0.49173
# Poissons Ratio (z) = 0.07429 0.28884
#
# Static dielectric constant tensor:
#      x y z
#    x 3.676080 0.000000 0.000000 
#    y 0.000000 3.576970 0.000000 
#    z 0.000000 0.000000 3.626110 
# 
# 
# High freq. dielectric constant tensor:
#      x y z
#    x 1.777490 0.000000 0.000000 
#    y 0.000000 1.771570 0.000000 
#    z 0.000000 0.000000 1.771340 
# 
# From -- ./inp_files/19872.got.cif
#   From: 2010.06.25/outbox.cif.g09.slc.cpg/sg58_10_cif.got.tgz:19872.got - 2010.06.26 21:38:00.
