data_PCOD8238396
_publ_section_title
;
Structure prediction by ZEFSAII (Michael W. Deem and Ramdas Pophale) SiO2 
 PCOD8238396
Probable space group: P N N M
;
_chemical_formula_sum "Si O2"
_cell_formula_units_Z 48
_cell_length_a 11.745958
_cell_length_b 23.267454
_cell_length_c 8.482647
_cell_angle_alpha 90.000000
_cell_angle_beta 90.000000
_cell_angle_gamma 90.000000
_cell_volume 2318.295019
_symmetry_space_group_name_H-M "P N N M"
_symmetry_group_IT_number 58
_symmetry_cell_setting 'orthorhombic'
loop_
_space_group_symop_operation_xyz
x,y,z
-x,-y,z
1/2+x,1/2-y,1/2-z
1/2-x,1/2+y,1/2-z
-x,-y,-z
x,y,-z
1/2-x,1/2+y,1/2+z
1/2+x,1/2-y,1/2+z
loop_
_atom_site_type_symbol
_atom_site_label
_atom_site_fract_x
_atom_site_fract_y
_atom_site_fract_z
Si Si1 0.205844 0.957147 0.684230
Si Si2 0.226486 0.081686 0.819116
Si Si3 0.502082 0.375684 0.819052
Si Si4 0.655908 0.142995 0.816501
Si Si5 0.837338 0.226486 0.682824
Si Si6 0.085961 0.657444 0.180674
O O1 0.218795 0.969965 0.500000
O O2 0.087946 0.925285 0.722501
O O3 0.310766 0.917965 0.740246
O O4 0.204882 0.015641 0.780048
O O5 0.329487 0.104769 0.713423
O O6 0.112193 0.118112 0.789295
O O7 0.261149 0.088699 0.000000
O O8 0.446260 0.313931 0.785331
O O9 0.540473 0.381307 0.000000
O O10 0.722151 0.194530 0.731735
O O11 0.522458 0.152753 0.793593
O O12 0.686599 0.142856 0.000000
O O13 0.828657 0.243087 0.500000
O O14 0.848083 0.283479 0.785702
O O15 0.046556 0.655072 0.000000
#
# Coordination Sequence:
#
# PCOD8238396 Si02
#       6
#     8   8   8   8   8   8
#     4  10  21  41  66  92 125 165 209 255 309 369
#     4  12  25  39  60  93 129 163 209 260 311 369
#     4   9  20  39  64  92 125 164 205 252 310 368
#     4  11  23  42  66  93 125 161 205 254 313 374
#     4  10  22  42  66  92 124 162 208 256 310 370
#     4  12  26  43  63  89 124 167 212 257 311 368
#
# _framework density 20.70487
#
# number of rings (size 3 to 8) (size 9 to 14) (size 15 to 20)
#    0.000    1.333    0.000    7.000    2.333    6.667 
#    0.000    3.333    0.000    0.000    0.000    0.000 
#    0.000    0.000    0.000    0.000    0.000    0.000 
#
# Total GULP energy -595583.434897 kJ/mol
# GULP energy per Si atom -12407.988227 kJ/mol
# Density = 2.065775 g / cm^3
# Si number density = 20.704870 Si / 1000 Ang^3
#
#
#
# Elastic Constant Matrix: (Units=GPa)
#
#
# Indices 1 2 3 4 5 6 
#
# 1 84.9800 9.1983 22.1427 0.0000 0.0000 0.0000
# 2 9.1983 46.4699 22.5302 0.0000 0.0000 0.0000
# 3 22.1427 22.5302 85.1555 0.0000 0.0000 0.0000
# 4 0.0000 0.0000 0.0000 36.2703 0.0000 0.0000
# 5 0.0000 0.0000 0.0000 0.0000 34.4367 0.0000
# 6 0.0000 0.0000 0.0000 0.0000 0.0000 16.8186
#
#
#
# Elastic Compliance Matrix: (Units=1/GPa)
#
#
# Indices 1 2 3 4 5 6 
#
# 1 0.012667 -0.001044 -0.003017 0.000000 0.000000 0.000000
# 2 -0.001044 0.024772 -0.006283 0.000000 0.000000 0.000000
# 3 -0.003017 -0.006283 0.014190 0.000000 0.000000 0.000000
# 4 0.000000 0.000000 0.000000 0.027571 0.000000 0.000000
# 5 0.000000 0.000000 0.000000 0.000000 0.029039 0.000000
# 6 0.000000 0.000000 0.000000 0.000000 0.000000 0.059458
#
#
# Mechanical properties :
#
#
# Convention : Reuss Voigt Hill
#
# Bulk Modulus (GPa) = 32.32035 36.03865 34.17950
# Shear Modulus (GPa) = 25.16378 28.35407 26.75892
#
# Velocity S-wave (km/s) = 3.48998 3.70461 3.59889
# Velocity P-wave (km/s) = 5.64658 5.97850 5.81491
#
# Compressibility (1/GPa) = 0.03094026
#
# Stress axis : x y z
#
# Youngs Moduli (GPa) = 78.94696 40.36810 70.47201
#
# Poissons Ratio (x) = 0.04216 0.21264
# Poissons Ratio (y) = 0.08245 0.44274
# Poissons Ratio (z) = 0.23821 0.25361
#
# Static dielectric constant tensor:
#      x y z
#    x 3.659200 0.000000 0.000000 
#    y 0.000000 3.837690 0.000000 
#    z 0.000000 0.000000 3.711690 
# 
# 
# High freq. dielectric constant tensor:
#      x y z
#    x 1.810100 0.000000 0.000000 
#    y 0.000000 1.816230 0.000000 
#    z 0.000000 0.000000 1.818280 
# 
# From -- ./inp_files/4239.got.cif
#   From: 2010.06.25/outbox.cif.g09.slc.cpg/sg58_3_cif.got.tgz:4239.got - 2010.06.26 21:38:00.
