data_PCOD8238496
_publ_section_title
;
Structure prediction by ZEFSAII (Michael W. Deem and Ramdas Pophale) SiO2 
 PCOD8238496
Probable space group: P N N M
;
_chemical_formula_sum "Si O2"
_cell_formula_units_Z 48
_cell_length_a 9.507067
_cell_length_b 8.249152
_cell_length_c 27.727372
_cell_angle_alpha 90.000000
_cell_angle_beta 90.000000
_cell_angle_gamma 90.000000
_cell_volume 2174.525825
_symmetry_space_group_name_H-M "P N N M"
_symmetry_group_IT_number 58
_symmetry_cell_setting 'orthorhombic'
loop_
_space_group_symop_operation_xyz
x,y,z
-x,-y,z
1/2+x,1/2-y,1/2-z
1/2-x,1/2+y,1/2-z
-x,-y,-z
x,y,-z
1/2-x,1/2+y,1/2+z
1/2+x,1/2-y,1/2+z
loop_
_atom_site_type_symbol
_atom_site_label
_atom_site_fract_x
_atom_site_fract_y
_atom_site_fract_z
Si Si1 0.159717 0.304818 0.772626
Si Si2 0.386761 0.142584 0.000000
Si Si3 0.156147 0.671751 0.197769
Si Si4 0.352145 0.088993 0.163770
Si Si5 0.137937 0.906562 0.000000
Si Si6 0.273917 0.317351 0.398553
Si Si7 0.525387 0.685977 0.090882
O O1 0.191024 0.482446 0.793820
O O2 0.215553 0.290690 0.716872
O O3 0.254978 0.155250 0.792902
O O4 0.992681 0.272478 0.778298
O O5 0.386405 0.264387 0.044616
O O6 0.500000 0.000000 0.000000
O O7 0.243544 0.052131 0.000000
O O8 0.150915 0.697457 0.139915
O O9 0.396305 0.254634 0.138250
O O10 0.500000 0.000000 0.181103
O O11 0.250053 0.990856 0.127432
O O12 0.141492 0.809309 0.050917
O O13 0.000000 0.000000 0.000000
O O14 0.122158 0.269371 0.416030
O O15 0.500000 0.500000 0.096272
#
# Coordination Sequence:
#
# PCOD8238496 Si02
#       7
#     8   4   8   8   4   8   8
#     4  11  26  47  70 106 146 187 238 298 358 447
#     4  12  19  42  61  97 129 175 229 298 333 415
#     4  11  27  45  72 104 147 188 240 293 370 431
#     4  10  22  39  68  97 142 181 232 289 355 420
#     4  12  26  42  70  98 142 182 248 288 360 422
#     4  11  23  43  67 102 138 189 232 297 351 426
#     4  11  21  36  67 100 134 177 232 292 358 415
#
# _framework density 22.073779999999999
#
# number of rings (size 3 to 8) (size 9 to 14) (size 15 to 20)
#    0.000    1.000    3.333    2.750    9.333    2.000 
#    0.000    0.000    0.000    3.000    0.000    0.000 
#    0.000    0.000    0.000    0.000    0.000    0.000 
#
# Total GULP energy -594692.253692 kJ/mol
# GULP energy per Si atom -12389.421952 kJ/mol
# Density = 2.202354 g / cm^3
# Si number density = 22.073780 Si / 1000 Ang^3
#
#
#
# Elastic Constant Matrix: (Units=GPa)
#
#
# Indices 1 2 3 4 5 6 
#
# 1 89.1155 7.6593 38.1666 0.0000 0.0000 0.0000
# 2 7.6593 102.8857 30.8997 0.0000 0.0000 0.0000
# 3 38.1666 30.8997 138.6532 0.0000 0.0000 0.0000
# 4 0.0000 0.0000 0.0000 50.6084 0.0000 0.0000
# 5 0.0000 0.0000 0.0000 0.0000 36.7269 0.0000
# 6 0.0000 0.0000 0.0000 0.0000 0.0000 17.7798
#
#
#
# Elastic Compliance Matrix: (Units=1/GPa)
#
#
# Indices 1 2 3 4 5 6 
#
# 1 0.012722 0.000112 -0.003527 0.000000 0.000000 0.000000
# 2 0.000112 0.010418 -0.002353 0.000000 0.000000 0.000000
# 3 -0.003527 -0.002353 0.008707 0.000000 0.000000 0.000000
# 4 0.000000 0.000000 0.000000 0.019760 0.000000 0.000000
# 5 0.000000 0.000000 0.000000 0.000000 0.027228 0.000000
# 6 0.000000 0.000000 0.000000 0.000000 0.000000 0.056244
#
#
# Mechanical properties :
#
#
# Convention : Reuss Voigt Hill
#
# Bulk Modulus (GPa) = 49.23045 53.78953 51.50999
# Shear Modulus (GPa) = 32.59788 37.95161 35.27474
#
# Velocity S-wave (km/s) = 3.84704 4.15095 4.00188
# Velocity P-wave (km/s) = 6.48723 6.88439 6.68876
#
# Compressibility (1/GPa) = 0.02031263
#
# Stress axis : x y z
#
# Youngs Moduli (GPa) = 78.60206 95.99041 114.84505
#
# Poissons Ratio (x) = -0.01077 0.40506
# Poissons Ratio (y) = -0.00882 0.27018
# Poissons Ratio (z) = 0.27723 0.22582
#
# Static dielectric constant tensor:
#      x y z
#    x 4.015710 0.000000 0.000000 
#    y 0.000000 3.794490 0.000000 
#    z 0.000000 0.000000 3.932870 
# 
# 
# High freq. dielectric constant tensor:
#      x y z
#    x 1.861660 0.000000 0.000000 
#    y 0.000000 1.867160 0.000000 
#    z 0.000000 0.000000 1.886450 
# 
# From -- ./inp_files/34650.got.cif
#   From: 2010.06.25/outbox.cif.g09.slc.cpg/sg58_18_cif.got.tgz:34650.got - 2010.06.26 21:38:00.
