data_PCOD8238734
_publ_section_title
;
Structure prediction by ZEFSAII (Michael W. Deem and Ramdas Pophale) SiO2 
 PCOD8238734
Probable space group: P N N M
;
_chemical_formula_sum "Si O2"
_cell_formula_units_Z 64
_cell_length_a 14.789123
_cell_length_b 12.480267
_cell_length_c 16.660327
_cell_angle_alpha 90.000000
_cell_angle_beta 90.000000
_cell_angle_gamma 90.000000
_cell_volume 3075.033269
_symmetry_space_group_name_H-M "P N N M"
_symmetry_group_IT_number 58
_symmetry_cell_setting 'orthorhombic'
loop_
_space_group_symop_operation_xyz
x,y,z
-x,-y,z
1/2+x,1/2-y,1/2-z
1/2-x,1/2+y,1/2-z
-x,-y,-z
x,y,-z
1/2-x,1/2+y,1/2+z
1/2+x,1/2-y,1/2+z
loop_
_atom_site_type_symbol
_atom_site_label
_atom_site_fract_x
_atom_site_fract_y
_atom_site_fract_z
Si Si1 0.946302 0.893059 0.592862
Si Si2 0.646498 0.259599 0.324974
Si Si3 0.291346 0.329598 0.697764
Si Si4 0.414161 0.053897 0.812199
Si Si5 0.898424 0.534457 0.145004
Si Si6 0.741945 0.867175 0.409140
Si Si7 0.028607 0.780546 0.269740
Si Si8 0.743258 0.456477 0.405065
O O1 0.951767 0.864797 0.500000
O O2 0.842081 0.899646 0.623128
O O3 0.001047 0.800164 0.638048
O O4 0.000000 0.000000 0.614566
O O5 0.718829 0.211636 0.262421
O O6 0.616072 0.158754 0.379718
O O7 0.558466 0.308809 0.282910
O O8 0.681046 0.356920 0.379964
O O9 0.302025 0.232146 0.636315
O O10 0.386834 0.352512 0.741365
O O11 0.270134 0.436604 0.647574
O O12 0.443225 0.157639 0.761739
O O13 0.344409 0.080435 0.882638
O O14 0.500000 0.000000 0.855507
O O15 0.378122 0.976069 0.741070
O O16 0.824337 0.467897 0.096424
O O17 0.000000 0.500000 0.121612
O O18 0.752054 0.830299 0.500000
O O19 0.732794 0.479571 0.500000
#
# Coordination Sequence:
#
# PCOD8238734 Si02
#       8
#     8   8   8   8   8   8   8   8
#     4  10  25  42  61  99 138 169 219 282 344 406
#     4  12  24  43  72  98 139 180 234 286 342 416
#     4  12  24  43  69  98 134 184 236 274 337 431
#     4  11  21  42  68 101 131 171 229 289 340 415
#     4  11  21  42  70 102 131 169 237 284 328 401
#     4  11  23  41  67  97 136 178 218 275 343 406
#     4  12  23  40  71  99 126 178 232 275 335 411
#     4  12  28  46  66 105 149 183 225 292 364 416
#
# _framework density 20.812783
#
# number of rings (size 3 to 8) (size 9 to 14) (size 15 to 20)
#    0.000    0.625    7.500    0.375    3.500    1.500 
#    0.000    3.125    0.000    0.000    0.000    0.000 
#    0.000    0.000    0.000    0.000    0.000    0.000 
#
# Total GULP energy -793354.615396 kJ/mol
# GULP energy per Si atom -12396.165866 kJ/mol
# Density = 2.076541 g / cm^3
# Si number density = 20.812783 Si / 1000 Ang^3
#
#
#
# Elastic Constant Matrix: (Units=GPa)
#
#
# Indices 1 2 3 4 5 6 
#
# 1 142.6546 21.0992 45.9089 0.0000 0.0000 0.0000
# 2 21.0992 71.8605 23.6212 0.0000 0.0000 0.0000
# 3 45.9089 23.6212 63.4955 0.0000 0.0000 0.0000
# 4 0.0000 0.0000 0.0000 27.1064 0.0000 0.0000
# 5 0.0000 0.0000 0.0000 0.0000 21.4299 0.0000
# 6 0.0000 0.0000 0.0000 0.0000 0.0000 36.2739
#
#
#
# Elastic Compliance Matrix: (Units=1/GPa)
#
#
# Indices 1 2 3 4 5 6 
#
# 1 0.009157 -0.000584 -0.006404 0.000000 0.000000 0.000000
# 2 -0.000584 0.015892 -0.005490 0.000000 0.000000 0.000000
# 3 -0.006404 -0.005490 0.022422 0.000000 0.000000 0.000000
# 4 0.000000 0.000000 0.000000 0.036892 0.000000 0.000000
# 5 0.000000 0.000000 0.000000 0.000000 0.046664 0.000000
# 6 0.000000 0.000000 0.000000 0.000000 0.000000 0.027568
#
#
# Mechanical properties :
#
#
# Convention : Reuss Voigt Hill
#
# Bulk Modulus (GPa) = 44.41328 51.02990 47.72159
# Shear Modulus (GPa) = 26.17065 29.45414 27.81240
#
# Velocity S-wave (km/s) = 3.54988 3.76599 3.65953
# Velocity P-wave (km/s) = 6.17964 6.59409 6.39022
#
# Compressibility (1/GPa) = 0.02251579
#
# Stress axis : x y z
#
# Youngs Moduli (GPa) = 109.20497 62.92546 44.60001
#
# Poissons Ratio (x) = 0.03673 0.28560
# Poissons Ratio (y) = 0.06374 0.24485
# Poissons Ratio (z) = 0.69931 0.34546
#
# Static dielectric constant tensor:
#      x y z
#    x 4.166740 0.000000 0.000000 
#    y 0.000000 3.839750 0.000000 
#    z 0.000000 0.000000 3.523480 
# 
# 
# High freq. dielectric constant tensor:
#      x y z
#    x 1.831680 0.000000 0.000000 
#    y 0.000000 1.820540 0.000000 
#    z 0.000000 0.000000 1.792400 
# 
# From -- ./inp_files/27014.got.cif
#   From: 2010.06.25/outbox.cif.g09.slc.cpg/sg58_14_cif.got.tgz:27014.got - 2010.06.26 21:38:00.
