data_PCOD8238371
_publ_section_title
;
Structure prediction by ZEFSAII (Michael W. Deem and Ramdas Pophale) SiO2 
 PCOD8238371
Probable space group: P N N M
;
_chemical_formula_sum "Si O2"
_cell_formula_units_Z 56
_cell_length_a 9.285704
_cell_length_b 22.159909
_cell_length_c 12.366275
_cell_angle_alpha 90.000000
_cell_angle_beta 90.000000
_cell_angle_gamma 90.000000
_cell_volume 2544.612805
_symmetry_space_group_name_H-M "P N N M"
_symmetry_group_IT_number 58
_symmetry_cell_setting 'orthorhombic'
loop_
_space_group_symop_operation_xyz
x,y,z
-x,-y,z
1/2+x,1/2-y,1/2-z
1/2-x,1/2+y,1/2-z
-x,-y,-z
x,y,-z
1/2-x,1/2+y,1/2+z
1/2+x,1/2-y,1/2+z
loop_
_atom_site_type_symbol
_atom_site_label
_atom_site_fract_x
_atom_site_fract_y
_atom_site_fract_z
Si Si1 0.278270 0.918894 0.371398
Si Si2 0.145301 0.032866 0.271979
Si Si3 0.987710 0.855439 0.625667
Si Si4 0.734097 0.371063 0.625704
Si Si5 0.504966 0.269722 0.626533
Si Si6 0.683333 0.240056 0.122545
Si Si7 0.021740 0.343503 0.740635
O O1 0.306201 0.916610 0.500000
O O2 0.421746 0.902558 0.302831
O O3 0.148344 0.874037 0.334161
O O4 0.248162 0.987620 0.336560
O O5 0.120556 0.089652 0.351157
O O6 0.209270 0.059017 0.159102
O O7 0.000000 0.000000 0.238785
O O8 0.000670 0.844992 0.500000
O O9 0.920486 0.793070 0.676693
O O10 0.781332 0.367210 0.500000
O O11 0.588154 0.333115 0.648701
O O12 0.855288 0.347180 0.708948
O O13 0.510484 0.257107 0.500000
O O14 0.341871 0.269195 0.673164
O O15 0.576074 0.211569 0.682043
O O16 0.605919 0.174531 0.130493
O O17 0.705042 0.259678 0.000000
#
# Coordination Sequence:
#
# PCOD8238371 Si02
#       7
#     8   8   8   8   8   8   8
#     4  10  23  40  64  97 130 166 214 268 327 384
#     4  10  21  40  67  92 123 170 220 263 323 383
#     4   9  18  36  64  98 133 164 206 264 326 390
#     4  11  26  45  64  92 131 174 219 268 316 377
#     4  10  22  39  62  93 128 165 210 260 314 381
#     4  10  22  37  60  93 126 165 210 255 310 382
#     4  12  23  38  62  92 129 170 207 257 326 385
#
# _framework density 22.007276999999998
#
# number of rings (size 3 to 8) (size 9 to 14) (size 15 to 20)
#    0.000    1.714    0.000    3.857    8.000    2.571 
#    0.000    5.000    0.000    0.000    0.000    0.000 
#    0.000    0.000    0.000    0.000    0.000    0.000 
#
# Total GULP energy -693788.665513 kJ/mol
# GULP energy per Si atom -12389.083313 kJ/mol
# Density = 2.195719 g / cm^3
# Si number density = 22.007277 Si / 1000 Ang^3
#
#
#
# Elastic Constant Matrix: (Units=GPa)
#
#
# Indices 1 2 3 4 5 6 
#
# 1 118.1325 47.0564 33.7570 0.0000 0.0000 0.0000
# 2 47.0564 113.5563 43.5763 0.0000 0.0000 0.0000
# 3 33.7570 43.5763 75.8427 0.0000 0.0000 0.0000
# 4 0.0000 0.0000 0.0000 38.5815 0.0000 0.0000
# 5 0.0000 0.0000 0.0000 0.0000 32.6849 0.0000
# 6 0.0000 0.0000 0.0000 0.0000 0.0000 34.2291
#
#
#
# Elastic Compliance Matrix: (Units=1/GPa)
#
#
# Indices 1 2 3 4 5 6 
#
# 1 0.010586 -0.003308 -0.002811 0.000000 0.000000 0.000000
# 2 -0.003308 0.012331 -0.005612 0.000000 0.000000 0.000000
# 3 -0.002811 -0.005612 0.017661 0.000000 0.000000 0.000000
# 4 0.000000 0.000000 0.000000 0.025919 0.000000 0.000000
# 5 0.000000 0.000000 0.000000 0.000000 0.030595 0.000000
# 6 0.000000 0.000000 0.000000 0.000000 0.000000 0.029215
#
#
# Mechanical properties :
#
#
# Convention : Reuss Voigt Hill
#
# Bulk Modulus (GPa) = 58.42896 61.81234 60.12065
# Shear Modulus (GPa) = 32.15950 33.30854 32.73402
#
# Velocity S-wave (km/s) = 3.82686 3.89462 3.86089
# Velocity P-wave (km/s) = 6.79220 6.95502 6.87409
#
# Compressibility (1/GPa) = 0.01711480
#
# Stress axis : x y z
#
# Youngs Moduli (GPa) = 94.46383 81.09833 56.62178
#
# Poissons Ratio (x) = 0.26827 0.15917
# Poissons Ratio (y) = 0.31249 0.31778
# Poissons Ratio (z) = 0.26555 0.45516
#
# Static dielectric constant tensor:
#      x y z
#    x 4.036770 0.000000 0.000000 
#    y 0.000000 4.051800 0.000000 
#    z 0.000000 0.000000 4.015230 
# 
# 
# High freq. dielectric constant tensor:
#      x y z
#    x 1.862180 0.000000 0.000000 
#    y 0.000000 1.856350 0.000000 
#    z 0.000000 0.000000 1.875950 
# 
# From -- ./inp_files/20157.got.cif
#   From: 2010.06.25/outbox.cif.g09.slc.cpg/sg58_11_cif.got.tgz:20157.got - 2010.06.26 21:38:00.
