data_PCOD8238382
_publ_section_title
;
Structure prediction by ZEFSAII (Michael W. Deem and Ramdas Pophale) SiO2 
 PCOD8238382
Probable space group: P N N M
;
_chemical_formula_sum "Si O2"
_cell_formula_units_Z 64
_cell_length_a 21.709985
_cell_length_b 9.046159
_cell_length_c 14.654525
_cell_angle_alpha 90.000000
_cell_angle_beta 90.000000
_cell_angle_gamma 90.000000
_cell_volume 2878.031125
_symmetry_space_group_name_H-M "P N N M"
_symmetry_group_IT_number 58
_symmetry_cell_setting 'orthorhombic'
loop_
_space_group_symop_operation_xyz
x,y,z
-x,-y,z
1/2+x,1/2-y,1/2-z
1/2-x,1/2+y,1/2-z
-x,-y,-z
x,y,-z
1/2-x,1/2+y,1/2+z
1/2+x,1/2-y,1/2+z
loop_
_atom_site_type_symbol
_atom_site_label
_atom_site_fract_x
_atom_site_fract_y
_atom_site_fract_z
Si Si1 0.186387 0.420497 0.401681
Si Si2 0.020069 0.836186 0.267734
Si Si3 0.777894 0.878244 0.653327
Si Si4 0.950613 0.625919 0.393931
Si Si5 0.753003 0.305489 0.341943
Si Si6 0.364275 0.390640 0.892299
Si Si7 0.168940 0.441261 0.099363
Si Si8 0.553844 0.883034 0.393503
O O1 0.182584 0.343775 0.500000
O O2 0.221982 0.299785 0.341897
O O3 0.115908 0.445196 0.368488
O O4 0.224817 0.571724 0.414367
O O5 0.074172 0.844141 0.342230
O O6 0.039778 0.753827 0.174095
O O7 0.964338 0.758278 0.322702
O O8 0.000000 0.000000 0.237715
O O9 0.754603 0.913251 0.755202
O O10 0.846214 0.936657 0.624457
O O11 0.727499 0.950702 0.587221
O O12 0.954525 0.678893 0.500000
O O13 0.000000 0.500000 0.373743
O O14 0.807570 0.187053 0.340361
O O15 0.688799 0.217638 0.358462
O O16 0.369648 0.352439 0.000000
O O17 0.113849 0.531224 0.148046
O O18 0.143326 0.400819 0.000000
O O19 0.563090 0.829173 0.500000
O O20 0.500000 0.000000 0.388360
#
# Coordination Sequence:
#
# PCOD8238382 Si02
#       8
#     8   8   8   8   8   8   8   8
#     4  11  21  36  58  87 122 156 198 253 308 361
#     4  12  25  39  64  97 129 170 220 275 330 393
#     4  11  22  36  57  86 123 164 202 248 311 376
#     4  10  22  39  61  91 129 176 222 263 315 385
#     4  11  22  36  59  91 121 156 207 260 309 370
#     4  11  23  41  61  87 130 176 215 260 320 389
#     4  10  21  41  64  84 114 158 204 249 312 388
#     4  10  24  47  71  92 119 162 214 271 336 403
#
# _framework density 22.237423
#
# number of rings (size 3 to 8) (size 9 to 14) (size 15 to 20)
#    0.000    1.250    0.000    7.500    0.000    7.250 
#    0.000    0.000    0.000    4.500    0.000    0.000 
#    0.000    0.000    0.000    0.000    0.000    0.000 
#
# Total GULP energy -792929.333599 kJ/mol
# GULP energy per Si atom -12389.520837 kJ/mol
# Density = 2.218681 g / cm^3
# Si number density = 22.237423 Si / 1000 Ang^3
#
#
#
# Elastic Constant Matrix: (Units=GPa)
#
#
# Indices 1 2 3 4 5 6 
#
# 1 97.8838 42.4899 35.5725 0.0000 0.0000 0.0000
# 2 42.4899 126.2434 38.9536 0.0000 0.0000 0.0000
# 3 35.5725 38.9536 113.7280 0.0000 0.0000 0.0000
# 4 0.0000 0.0000 0.0000 22.6351 0.0000 0.0000
# 5 0.0000 0.0000 0.0000 0.0000 110.2677 0.0000
# 6 0.0000 0.0000 0.0000 0.0000 0.0000 37.9286
#
#
#
# Elastic Compliance Matrix: (Units=1/GPa)
#
#
# Indices 1 2 3 4 5 6 
#
# 1 0.012719 -0.003414 -0.002809 0.000000 0.000000 0.000000
# 2 -0.003414 0.009774 -0.002280 0.000000 0.000000 0.000000
# 3 -0.002809 -0.002280 0.010452 0.000000 0.000000 0.000000
# 4 0.000000 0.000000 0.000000 0.044179 0.000000 0.000000
# 5 0.000000 0.000000 0.000000 0.000000 0.009069 0.000000
# 6 0.000000 0.000000 0.000000 0.000000 0.000000 0.026365
#
#
# Mechanical properties :
#
#
# Convention : Reuss Voigt Hill
#
# Bulk Modulus (GPa) = 62.73737 63.54301 63.14019
# Shear Modulus (GPa) = 37.07074 48.88890 42.97982
#
# Velocity S-wave (km/s) = 4.08737 4.69390 4.40110
# Velocity P-wave (km/s) = 7.10980 7.61668 7.36760
#
# Compressibility (1/GPa) = 0.01593946
#
# Stress axis : x y z
#
# Youngs Moduli (GPa) = 78.62230 102.31488 95.67216
#
# Poissons Ratio (x) = 0.34932 0.26874
# Poissons Ratio (y) = 0.26843 0.21811
# Poissons Ratio (z) = 0.22085 0.23325
#
# Static dielectric constant tensor:
#      x y z
#    x 4.078090 0.000000 0.000000 
#    y 0.000000 3.974090 0.000000 
#    z 0.000000 0.000000 3.960220 
# 
# 
# High freq. dielectric constant tensor:
#      x y z
#    x 1.873090 0.000000 0.000000 
#    y 0.000000 1.876250 0.000000 
#    z 0.000000 0.000000 1.881000 
# 
# From -- ./inp_files/23559.got.cif
#   From: 2010.06.25/outbox.cif.g09.slc.cpg/sg58_12_cif.got.tgz:23559.got - 2010.06.26 21:38:00.
