data_PCOD8238169
_publ_section_title
;
Structure prediction by ZEFSAII (Michael W. Deem and Ramdas Pophale) SiO2 
 PCOD8238169
Probable space group: P N N M
;
_chemical_formula_sum "Si O2"
_cell_formula_units_Z 56
_cell_length_a 14.279651
_cell_length_b 22.276128
_cell_length_c 8.608134
_cell_angle_alpha 90.000000
_cell_angle_beta 90.000000
_cell_angle_gamma 90.000000
_cell_volume 2738.207255
_symmetry_space_group_name_H-M "P N N M"
_symmetry_group_IT_number 58
_symmetry_cell_setting 'orthorhombic'
loop_
_space_group_symop_operation_xyz
x,y,z
-x,-y,z
1/2+x,1/2-y,1/2-z
1/2-x,1/2+y,1/2-z
-x,-y,-z
x,y,-z
1/2-x,1/2+y,1/2+z
1/2+x,1/2-y,1/2+z
loop_
_atom_site_type_symbol
_atom_site_label
_atom_site_fract_x
_atom_site_fract_y
_atom_site_fract_z
Si Si1 0.395992 0.217016 0.179811
Si Si2 0.290806 0.110538 0.679006
Si Si3 0.774747 0.606385 0.180392
Si Si4 0.100390 0.844976 0.819169
Si Si5 0.908270 0.713772 0.179323
Si Si6 0.607829 0.000140 0.180924
Si Si7 0.390197 0.648565 0.321693
O O1 0.327544 0.176735 0.282808
O O2 0.376508 0.285935 0.220490
O O3 0.502802 0.198860 0.214306
O O4 0.372957 0.206090 0.000000
O O5 0.306320 0.094141 0.500000
O O6 0.179908 0.109167 0.717176
O O7 0.347333 0.064139 0.784879
O O8 0.676998 0.604708 0.275366
O O9 0.827358 0.667718 0.226102
O O10 0.837741 0.549971 0.222285
O O11 0.750546 0.603787 0.000000
O O12 0.996710 0.869076 0.776903
O O13 0.103464 0.828126 0.000000
O O14 0.872491 0.780923 0.210492
O O15 0.938741 0.706044 0.000000
O O16 0.500000 0.000000 0.234879
O O17 0.616258 0.015294 0.000000
O O18 0.369158 0.633095 0.500000
#
# Coordination Sequence:
#
# PCOD8238169 Si02
#       7
#     8   8   8   8   8   8   8
#     4  11  21  34  56  86 120 155 192 237 287 342
#     4  12  24  38  59  85 115 152 193 239 290 344
#     4  11  22  37  60  88 119 154 192 237 288 342
#     4  10  21  38  60  86 118 154 192 236 285 339
#     4   9  19  35  56  85 120 155 189 231 286 342
#     4  11  25  44  64  86 114 150 193 238 283 337
#     4   9  19  37  59  85 118 153 190 234 285 340
#
# _framework density 20.451336000000001
#
# number of rings (size 3 to 8) (size 9 to 14) (size 15 to 20)
#    0.000    1.571    0.000    6.429    0.000    8.571 
#    0.000    0.714    0.000    4.286    0.000    0.000 
#    0.000    0.000    0.000    0.000    0.000    0.000 
#
# Total GULP energy -694689.820273 kJ/mol
# GULP energy per Si atom -12405.175362 kJ/mol
# Density = 2.040479 g / cm^3
# Si number density = 20.451336 Si / 1000 Ang^3
#
#
#
# Elastic Constant Matrix: (Units=GPa)
#
#
# Indices 1 2 3 4 5 6 
#
# 1 135.7224 50.4006 28.4583 0.0000 0.0000 0.0000
# 2 50.4006 50.2647 15.8789 0.0000 0.0000 0.0000
# 3 28.4583 15.8789 57.7550 0.0000 0.0000 0.0000
# 4 0.0000 0.0000 0.0000 31.2351 0.0000 0.0000
# 5 0.0000 0.0000 0.0000 0.0000 33.8984 0.0000
# 6 0.0000 0.0000 0.0000 0.0000 0.0000 30.1345
#
#
#
# Elastic Compliance Matrix: (Units=1/GPa)
#
#
# Indices 1 2 3 4 5 6 
#
# 1 0.012165 -0.011284 -0.002892 0.000000 0.000000 0.000000
# 2 -0.011284 0.032254 -0.003308 0.000000 0.000000 0.000000
# 3 -0.002892 -0.003308 0.019649 0.000000 0.000000 0.000000
# 4 0.000000 0.000000 0.000000 0.032015 0.000000 0.000000
# 5 0.000000 0.000000 0.000000 0.000000 0.029500 0.000000
# 6 0.000000 0.000000 0.000000 0.000000 0.000000 0.033185
#
#
# Mechanical properties :
#
#
# Convention : Reuss Voigt Hill
#
# Bulk Modulus (GPa) = 34.36331 48.13529 41.24930
# Shear Modulus (GPa) = 24.57796 28.98723 26.78259
#
# Velocity S-wave (km/s) = 3.47043 3.76889 3.62273
# Velocity P-wave (km/s) = 5.73563 6.52127 6.14103
#
# Compressibility (1/GPa) = 0.02910080
#
# Stress axis : x y z
#
# Youngs Moduli (GPa) = 82.20550 31.00376 50.89382
#
# Poissons Ratio (x) = 0.34985 0.14717
# Poissons Ratio (y) = 0.92761 0.16834
# Poissons Ratio (z) = 0.23771 0.10255
#
# Static dielectric constant tensor:
#      x y z
#    x 3.887610 0.000000 0.000000 
#    y 0.000000 3.465640 0.000000 
#    z 0.000000 0.000000 3.604330 
# 
# 
# High freq. dielectric constant tensor:
#      x y z
#    x 1.815050 0.000000 0.000000 
#    y 0.000000 1.775870 0.000000 
#    z 0.000000 0.000000 1.800100 
# 
# From -- ./inp_files/6303.got.cif
#   From: 2010.06.25/outbox.cif.g09.slc.cpg/sg58_4_cif.got.tgz:6303.got - 2010.06.26 21:38:00.
