data_PCOD8238407
_publ_section_title
;
Structure prediction by ZEFSAII (Michael W. Deem and Ramdas Pophale) SiO2 
 PCOD8238407
Probable space group: P N N M
;
_chemical_formula_sum "Si O2"
_cell_formula_units_Z 40
_cell_length_a 11.265020
_cell_length_b 9.223472
_cell_length_c 18.745244
_cell_angle_alpha 90.000000
_cell_angle_beta 90.000000
_cell_angle_gamma 90.000000
_cell_volume 1947.679525
_symmetry_space_group_name_H-M "P N N M"
_symmetry_group_IT_number 58
_symmetry_cell_setting 'orthorhombic'
loop_
_space_group_symop_operation_xyz
x,y,z
-x,-y,z
1/2+x,1/2-y,1/2-z
1/2-x,1/2+y,1/2-z
-x,-y,-z
x,y,-z
1/2-x,1/2+y,1/2+z
1/2+x,1/2-y,1/2+z
loop_
_atom_site_type_symbol
_atom_site_label
_atom_site_fract_x
_atom_site_fract_y
_atom_site_fract_z
Si Si1 0.367931 0.967705 0.917446
Si Si2 0.723888 0.742739 0.677276
Si Si3 0.254265 0.273028 0.917127
Si Si4 0.860991 0.033435 0.301482
Si Si5 0.993009 0.329330 0.920153
O O1 0.320629 0.834868 0.871716
O O2 0.500000 0.000000 0.891395
O O3 0.292916 0.110232 0.902095
O O4 0.365010 0.921342 0.000000
O O5 0.683521 0.644388 0.742235
O O6 0.608214 0.774191 0.631251
O O7 0.783827 0.888140 0.706987
O O8 0.335885 0.390997 0.877492
O O9 0.118779 0.274365 0.890119
O O10 0.263226 0.315876 0.000000
O O11 0.000000 0.000000 0.293813
O O12 0.000000 0.500000 0.921648
O O13 0.969017 0.268528 0.000000
#
# Coordination Sequence:
#
# PCOD8238407 Si02
#       5
#     8   8   8   8   8
#     4  10  22  42  68  97 130 169 214 268 326 387
#     4  12  26  42  66  93 135 174 217 271 322 394
#     4  10  22  44  70  98 132 167 218 274 326 386
#     4  12  28  43  64  97 130 177 221 265 329 391
#     4  10  21  41  71 101 129 168 218 275 330 382
#
# _framework density 20.537258999999999
#
# number of rings (size 3 to 8) (size 9 to 14) (size 15 to 20)
#    0.000    1.200    2.000    3.000    5.600    1.200 
#    0.000    3.000    0.000    0.000    0.000    0.000 
#    0.000    0.000    0.000    0.000    0.000    0.000 
#
# Total GULP energy -496189.672830 kJ/mol
# GULP energy per Si atom -12404.741821 kJ/mol
# Density = 2.049052 g / cm^3
# Si number density = 20.537259 Si / 1000 Ang^3
#
#
#
# Elastic Constant Matrix: (Units=GPa)
#
#
# Indices 1 2 3 4 5 6 
#
# 1 105.8574 22.0394 46.5920 0.0000 0.0000 0.0000
# 2 22.0394 74.5078 48.5778 0.0000 0.0000 0.0000
# 3 46.5920 48.5778 93.0002 0.0000 0.0000 0.0000
# 4 0.0000 0.0000 0.0000 50.5222 0.0000 0.0000
# 5 0.0000 0.0000 0.0000 0.0000 26.0250 0.0000
# 6 0.0000 0.0000 0.0000 0.0000 0.0000 32.1902
#
#
#
# Elastic Compliance Matrix: (Units=1/GPa)
#
#
# Indices 1 2 3 4 5 6 
#
# 1 0.012135 0.000567 -0.006376 0.000000 0.000000 0.000000
# 2 0.000567 0.020379 -0.010929 0.000000 0.000000 0.000000
# 3 -0.006376 -0.010929 0.019656 0.000000 0.000000 0.000000
# 4 0.000000 0.000000 0.000000 0.019793 0.000000 0.000000
# 5 0.000000 0.000000 0.000000 0.000000 0.038425 0.000000
# 6 0.000000 0.000000 0.000000 0.000000 0.000000 0.031065
#
#
# Mechanical properties :
#
#
# Convention : Reuss Voigt Hill
#
# Bulk Modulus (GPa) = 53.49150 56.42042 54.95596
# Shear Modulus (GPa) = 27.60001 32.15789 29.87895
#
# Velocity S-wave (km/s) = 3.66990 3.96135 3.81841
# Velocity P-wave (km/s) = 6.63778 6.96096 6.80129
#
# Compressibility (1/GPa) = 0.01869456
#
# Stress axis : x y z
#
# Youngs Moduli (GPa) = 82.40784 49.06963 50.87607
#
# Poissons Ratio (x) = -0.02784 0.32437
# Poissons Ratio (y) = -0.04676 0.55603
# Poissons Ratio (z) = 0.52541 0.53629
#
# Static dielectric constant tensor:
#      x y z
#    x 3.837480 0.000000 0.000000 
#    y 0.000000 3.681680 0.000000 
#    z 0.000000 0.000000 3.880900 
# 
# 
# High freq. dielectric constant tensor:
#      x y z
#    x 1.820030 0.000000 0.000000 
#    y 0.000000 1.811640 0.000000 
#    z 0.000000 0.000000 1.809000 
# 
# From -- ./inp_files/24966.got.cif
#   From: 2010.06.25/outbox.cif.g09.slc.cpg/sg58_13_cif.got.tgz:24966.got - 2010.06.26 21:38:00.
