data_PCOD8238578
_publ_section_title
;
Structure prediction by ZEFSAII (Michael W. Deem and Ramdas Pophale) SiO2 
 PCOD8238578
Probable space group: P N N M
;
_chemical_formula_sum "Si O2"
_cell_formula_units_Z 32
_cell_length_a 9.947242
_cell_length_b 20.574260
_cell_length_c 7.598959
_cell_angle_alpha 90.000000
_cell_angle_beta 90.000000
_cell_angle_gamma 90.000000
_cell_volume 1555.181240
_symmetry_space_group_name_H-M "P N N M"
_symmetry_group_IT_number 58
_symmetry_cell_setting 'orthorhombic'
loop_
_space_group_symop_operation_xyz
x,y,z
-x,-y,z
1/2+x,1/2-y,1/2-z
1/2-x,1/2+y,1/2-z
-x,-y,-z
x,y,-z
1/2-x,1/2+y,1/2+z
1/2+x,1/2-y,1/2+z
loop_
_atom_site_type_symbol
_atom_site_label
_atom_site_fract_x
_atom_site_fract_y
_atom_site_fract_z
Si Si1 0.703243 0.540709 0.500000
Si Si2 0.673112 0.306855 0.197410
Si Si3 0.089504 0.098311 0.000000
Si Si4 0.525496 0.799670 0.702263
Si Si5 0.590667 0.061066 0.702415
O O1 0.687194 0.463285 0.500000
O O2 0.564000 0.577843 0.500000
O O3 0.778871 0.562681 0.676131
O O4 0.614292 0.361341 0.323790
O O5 0.577010 0.244260 0.188052
O O6 0.821596 0.285293 0.262134
O O7 0.684270 0.336198 0.000000
O O8 0.503330 0.780679 0.500000
O O9 0.497277 0.875124 0.738224
O O10 0.638394 0.056756 0.500000
O O11 0.500000 0.000000 0.755896
#
# Coordination Sequence:
#
# PCOD8238578 Si02
#       5
#     4   8   4   8   8
#     4  11  25  42  70  92 133 180 216 273 331 389
#     4  11  25  42  66  93 132 173 215 269 334 386
#     4  11  26  46  62  98 135 167 224 278 319 398
#     4  10  23  41  64  97 131 168 217 272 322 391
#     4  10  22  41  67  98 132 171 225 272 321 395
#
# _framework density 20.576377999999998
#
# number of rings (size 3 to 8) (size 9 to 14) (size 15 to 20)
#    0.000    1.500    1.250    1.875    7.000    4.000 
#    0.000    2.500    0.000    0.000    0.000    0.000 
#    0.000    0.000    0.000    0.000    0.000    0.000 
#
# Total GULP energy -396982.503344 kJ/mol
# GULP energy per Si atom -12405.703229 kJ/mol
# Density = 2.052955 g / cm^3
# Si number density = 20.576378 Si / 1000 Ang^3
#
#
#
# Elastic Constant Matrix: (Units=GPa)
#
#
# Indices 1 2 3 4 5 6 
#
# 1 131.9533 66.9452 48.9605 0.0000 0.0000 0.0000
# 2 66.9452 108.4399 38.3876 0.0000 0.0000 0.0000
# 3 48.9605 38.3876 102.3704 0.0000 0.0000 0.0000
# 4 0.0000 0.0000 0.0000 7.8080 0.0000 0.0000
# 5 0.0000 0.0000 0.0000 0.0000 34.0916 0.0000
# 6 0.0000 0.0000 0.0000 0.0000 0.0000 30.7677
#
#
#
# Elastic Compliance Matrix: (Units=1/GPa)
#
#
# Indices 1 2 3 4 5 6 
#
# 1 0.011985 -0.006192 -0.003410 0.000000 0.000000 0.000000
# 2 -0.006192 0.013832 -0.002225 0.000000 0.000000 0.000000
# 3 -0.003410 -0.002225 0.012234 0.000000 0.000000 0.000000
# 4 0.000000 0.000000 0.000000 0.128074 0.000000 0.000000
# 5 0.000000 0.000000 0.000000 0.000000 0.029333 0.000000
# 6 0.000000 0.000000 0.000000 0.000000 0.000000 0.032502
#
#
# Mechanical properties :
#
#
# Convention : Reuss Voigt Hill
#
# Bulk Modulus (GPa) = 69.46346 72.37225 70.91786
# Shear Modulus (GPa) = 19.49980 27.09815 23.29898
#
# Velocity S-wave (km/s) = 3.08178 3.63292 3.36864
# Velocity P-wave (km/s) = 6.81874 7.26955 7.04775
#
# Compressibility (1/GPa) = 0.01439606
#
# Stress axis : x y z
#
# Youngs Moduli (GPa) = 83.43670 72.29618 81.73935
#
# Poissons Ratio (x) = 0.44764 0.27875
# Poissons Ratio (y) = 0.51662 0.18191
# Poissons Ratio (z) = 0.28454 0.16089
#
# Static dielectric constant tensor:
#      x y z
#    x 3.761650 0.000000 0.000000 
#    y 0.000000 3.757340 0.000000 
#    z 0.000000 0.000000 3.771500 
# 
# 
# High freq. dielectric constant tensor:
#      x y z
#    x 1.812410 0.000000 0.000000 
#    y 0.000000 1.808990 0.000000 
#    z 0.000000 0.000000 1.813810 
# 
# From -- ./inp_files/2182.got.cif
#   From: 2010.06.25/outbox.cif.g09.slc.cpg/sg58_2_cif.got.tgz:2182.got - 2010.06.26 21:38:00.
