data_PCOD8238812
_publ_section_title
;
Structure prediction by ZEFSAII (Michael W. Deem and Ramdas Pophale) SiO2 
 PCOD8238812
Probable space group: P N N M
;
_chemical_formula_sum "Si O2"
_cell_formula_units_Z 32
_cell_length_a 16.971381
_cell_length_b 4.943148
_cell_length_c 19.284885
_cell_angle_alpha 90.000000
_cell_angle_beta 90.000000
_cell_angle_gamma 90.000000
_cell_volume 1617.848499
_symmetry_space_group_name_H-M "P N N M"
_symmetry_group_IT_number 58
_symmetry_cell_setting 'orthorhombic'
loop_
_space_group_symop_operation_xyz
x,y,z
-x,-y,z
1/2+x,1/2-y,1/2-z
1/2-x,1/2+y,1/2-z
-x,-y,-z
x,y,-z
1/2-x,1/2+y,1/2+z
1/2+x,1/2-y,1/2+z
loop_
_atom_site_type_symbol
_atom_site_label
_atom_site_fract_x
_atom_site_fract_y
_atom_site_fract_z
Si Si1 0.774666 0.639343 0.707446
Si Si2 0.448836 0.760895 0.773196
Si Si3 0.826688 0.136096 0.077339
Si Si4 0.077274 0.358635 0.111936
O O1 0.777062 0.374342 0.756342
O O2 0.862553 0.749911 0.692440
O O3 0.737608 0.547129 0.634164
O O4 0.500000 0.500000 0.789380
O O5 0.436205 0.804255 0.692179
O O6 0.500000 0.000000 0.806288
O O7 0.851201 0.439072 0.097292
O O8 0.901369 0.930997 0.078607
O O9 0.789995 0.134665 0.000000
O O10 0.000000 0.500000 0.078482
#
# Coordination Sequence:
#
# PCOD8238812 Si02
#       4
#     8   8   8   8
#     4  12  22  40  62  87 115 157 200 248 291 346
#     4  11  21  36  61  87 116 148 196 246 292 341
#     4  12  24  39  58  87 122 161 199 242 294 350
#     4  11  22  37  58  86 124 161 197 232 287 361
#
# _framework density 19.779354000000001
#
# number of rings (size 3 to 8) (size 9 to 14) (size 15 to 20)
#    0.000    0.500    5.000    6.000    0.000    3.000 
#    0.000    0.000    0.000    1.500    0.000    0.000 
#    0.000    0.000    0.000    0.000    0.000    0.000 
#
# Total GULP energy -396779.759772 kJ/mol
# GULP energy per Si atom -12399.367493 kJ/mol
# Density = 1.973433 g / cm^3
# Si number density = 19.779354 Si / 1000 Ang^3
#
#
#
# Elastic Constant Matrix: (Units=GPa)
#
#
# Indices 1 2 3 4 5 6 
#
# 1 108.5507 24.8800 32.6264 0.0000 0.0000 0.0000
# 2 24.8800 116.9815 22.4037 0.0000 0.0000 0.0000
# 3 32.6264 22.4037 80.8728 0.0000 0.0000 0.0000
# 4 0.0000 0.0000 0.0000 29.3924 0.0000 0.0000
# 5 0.0000 0.0000 0.0000 0.0000 10.5207 0.0000
# 6 0.0000 0.0000 0.0000 0.0000 0.0000 33.0419
#
#
#
# Elastic Compliance Matrix: (Units=1/GPa)
#
#
# Indices 1 2 3 4 5 6 
#
# 1 0.010739 -0.001536 -0.003907 0.000000 0.000000 0.000000
# 2 -0.001536 0.009247 -0.001942 0.000000 0.000000 0.000000
# 3 -0.003907 -0.001942 0.014479 0.000000 0.000000 0.000000
# 4 0.000000 0.000000 0.000000 0.034022 0.000000 0.000000
# 5 0.000000 0.000000 0.000000 0.000000 0.095051 0.000000
# 6 0.000000 0.000000 0.000000 0.000000 0.000000 0.030265
#
#
# Mechanical properties :
#
#
# Convention : Reuss Voigt Hill
#
# Bulk Modulus (GPa) = 50.77299 51.80279 51.28789
# Shear Modulus (GPa) = 23.24106 29.69067 26.46586
#
# Velocity S-wave (km/s) = 3.43157 3.87860 3.66191
# Velocity P-wave (km/s) = 6.43633 6.80479 6.62312
#
# Compressibility (1/GPa) = 0.01969551
#
# Stress axis : x y z
#
# Youngs Moduli (GPa) = 93.12282 108.14419 69.06460
#
# Poissons Ratio (x) = 0.16608 0.26982
# Poissons Ratio (y) = 0.14301 0.13413
# Poissons Ratio (z) = 0.36381 0.21002
#
# Static dielectric constant tensor:
#      x y z
#    x 3.740320 0.000000 0.000000 
#    y 0.000000 3.890520 0.000000 
#    z 0.000000 0.000000 3.290150 
# 
# 
# High freq. dielectric constant tensor:
#      x y z
#    x 1.759720 0.000000 0.000000 
#    y 0.000000 1.796330 0.000000 
#    z 0.000000 0.000000 1.731290 
# 
# From -- ./inp_files/27138.got.cif
#   From: 2010.06.25/outbox.cif.g09.slc.cpg/sg58_14_cif.got.tgz:27138.got - 2010.06.26 21:38:00.
