data_PCOD8238090
_publ_section_title
;
Structure prediction by ZEFSAII (Michael W. Deem and Ramdas Pophale) SiO2 
 PCOD8238090
Probable space group: P N N M
;
_chemical_formula_sum "Si O2"
_cell_formula_units_Z 64
_cell_length_a 18.898292
_cell_length_b 19.789134
_cell_length_c 8.520597
_cell_angle_alpha 90.000000
_cell_angle_beta 90.000000
_cell_angle_gamma 90.000000
_cell_volume 3186.539962
_symmetry_space_group_name_H-M "P N N M"
_symmetry_group_IT_number 58
_symmetry_cell_setting 'orthorhombic'
loop_
_space_group_symop_operation_xyz
x,y,z
-x,-y,z
1/2+x,1/2-y,1/2-z
1/2-x,1/2+y,1/2-z
-x,-y,-z
x,y,-z
1/2-x,1/2+y,1/2+z
1/2+x,1/2-y,1/2+z
loop_
_atom_site_type_symbol
_atom_site_label
_atom_site_fract_x
_atom_site_fract_y
_atom_site_fract_z
Si Si1 0.307494 0.095421 0.317601
Si Si2 0.047856 0.562394 0.317214
Si Si3 0.955683 0.195580 0.820557
Si Si4 0.182212 0.739750 0.682728
Si Si5 0.544402 0.177781 0.316918
Si Si6 0.713489 0.527571 0.814121
Si Si7 0.057146 0.947962 0.684365
Si Si8 0.201952 0.344730 0.185969
O O1 0.303433 0.114857 0.500000
O O2 0.380910 0.057370 0.283745
O O3 0.300518 0.161779 0.212601
O O4 0.243839 0.045565 0.267998
O O5 0.067040 0.558506 0.500000
O O6 0.000000 0.500000 0.262592
O O7 0.008660 0.632357 0.283267
O O8 0.885646 0.237236 0.779307
O O9 0.965476 0.128804 0.717271
O O10 0.023087 0.244028 0.791533
O O11 0.950997 0.172604 0.000000
O O12 0.166569 0.752025 0.500000
O O13 0.249464 0.782525 0.740624
O O14 0.538127 0.157909 0.500000
O O15 0.623015 0.166398 0.248092
O O16 0.634689 0.536212 0.742957
O O17 0.764492 0.586211 0.745308
O O18 0.711076 0.536661 0.000000
O O19 0.060532 0.959150 0.500000
O O20 0.000000 0.000000 0.758114
O O21 0.197535 0.347251 0.000000
#
# Coordination Sequence:
#
# PCOD8238090 Si02
#       8
#     8   8   8   8   8   8   8   8
#     4  11  22  36  58  85 116 153 196 243 292 351
#     4  11  23  37  54  81 118 154 192 239 292 350
#     4  11  22  37  59  88 120 154 198 247 297 353
#     4  11  21  37  62  85 116 156 197 241 293 353
#     4  10  21  37  59  86 115 152 199 242 292 354
#     4   9  18  35  58  84 114 152 199 243 286 350
#     4  10  21  39  64  90 117 157 204 247 302 360
#     4   9  18  35  60  85 109 151 200 239 284 347
#
# _framework density 20.084481
#
# number of rings (size 3 to 8) (size 9 to 14) (size 15 to 20)
#    0.000    1.750    2.500    2.250    0.000    3.750 
#    0.000    2.500    0.000    0.000    0.000    0.000 
#    0.000    0.000    0.000    0.000    0.000    0.000 
#
# Total GULP energy -793783.058270 kJ/mol
# GULP energy per Si atom -12402.860285 kJ/mol
# Density = 2.003877 g / cm^3
# Si number density = 20.084481 Si / 1000 Ang^3
#
#
#
# Elastic Constant Matrix: (Units=GPa)
#
#
# Indices 1 2 3 4 5 6 
#
# 1 130.2180 49.2221 11.6262 0.0000 0.0000 0.0000
# 2 49.2221 121.3241 5.1054 0.0000 0.0000 0.0000
# 3 11.6262 5.1054 18.2044 0.0000 0.0000 0.0000
# 4 0.0000 0.0000 0.0000 29.0848 0.0000 0.0000
# 5 0.0000 0.0000 0.0000 0.0000 13.1014 0.0000
# 6 0.0000 0.0000 0.0000 0.0000 0.0000 40.9402
#
#
#
# Elastic Compliance Matrix: (Units=1/GPa)
#
#
# Indices 1 2 3 4 5 6 
#
# 1 0.009508 -0.003645 -0.005050 0.000000 0.000000 0.000000
# 2 -0.003645 0.009738 -0.000403 0.000000 0.000000 0.000000
# 3 -0.005050 -0.000403 0.058270 0.000000 0.000000 0.000000
# 4 0.000000 0.000000 0.000000 0.034382 0.000000 0.000000
# 5 0.000000 0.000000 0.000000 0.000000 0.076328 0.000000
# 6 0.000000 0.000000 0.000000 0.000000 0.000000 0.024426
#
#
# Mechanical properties :
#
#
# Convention : Reuss Voigt Hill
#
# Bulk Modulus (GPa) = 16.85780 44.62822 30.74301
# Shear Modulus (GPa) = 19.95038 30.21147 25.08093
#
# Velocity S-wave (km/s) = 3.15512 3.88263 3.53763
# Velocity P-wave (km/s) = 4.65669 6.50909 5.65920
#
# Compressibility (1/GPa) = 0.05931973
#
# Stress axis : x y z
#
# Youngs Moduli (GPa) = 105.17332 102.68888 17.16149
#
# Poissons Ratio (x) = 0.37430 0.08667
# Poissons Ratio (y) = 0.38336 0.00692
# Poissons Ratio (z) = 0.53113 0.04140
#
# Static dielectric constant tensor:
#      x y z
#    x 3.938950 0.000000 0.000000 
#    y 0.000000 3.705950 0.000000 
#    z 0.000000 0.000000 3.304780 
# 
# 
# High freq. dielectric constant tensor:
#      x y z
#    x 1.789590 0.000000 0.000000 
#    y 0.000000 1.793230 0.000000 
#    z 0.000000 0.000000 1.755660 
# 
# From -- ./inp_files/9228.got.cif
#   From: 2010.06.25/outbox.cif.g09.slc.cpg/sg58_5_cif.got.tgz:9228.got - 2010.06.26 21:38:00.
