data_PCOD8238878
_publ_section_title
;
Structure prediction by ZEFSAII (Michael W. Deem and Ramdas Pophale) SiO2 
 PCOD8238878
Probable space group: P N N M
;
_chemical_formula_sum "Si O2"
_cell_formula_units_Z 56
_cell_length_a 18.870953
_cell_length_b 16.711138
_cell_length_c 8.285597
_cell_angle_alpha 90.000000
_cell_angle_beta 90.000000
_cell_angle_gamma 90.000000
_cell_volume 2612.905269
_symmetry_space_group_name_H-M "P N N M"
_symmetry_group_IT_number 58
_symmetry_cell_setting 'orthorhombic'
loop_
_space_group_symop_operation_xyz
x,y,z
-x,-y,z
1/2+x,1/2-y,1/2-z
1/2-x,1/2+y,1/2-z
-x,-y,-z
x,y,-z
1/2-x,1/2+y,1/2+z
1/2+x,1/2-y,1/2+z
loop_
_atom_site_type_symbol
_atom_site_label
_atom_site_fract_x
_atom_site_fract_y
_atom_site_fract_z
Si Si1 0.580535 0.407976 0.690670
Si Si2 0.919988 0.403644 0.500000
Si Si3 0.076273 0.913967 0.186901
Si Si4 0.847162 0.588554 0.177704
Si Si5 0.292608 0.331996 0.179804
Si Si6 0.850326 0.404438 0.823324
Si Si7 0.582610 0.093185 0.000000
Si Si8 0.212699 0.181952 0.319507
O O1 0.588300 0.403480 0.500000
O O2 0.500841 0.384780 0.751538
O O3 0.596864 0.498143 0.757040
O O4 0.635659 0.343830 0.759732
O O5 0.887848 0.364954 0.665459
O O6 0.904464 0.498137 0.500000
O O7 0.001653 0.382511 0.500000
O O8 0.137472 0.848288 0.214849
O O9 0.065355 0.927383 0.000000
O O10 0.762569 0.595021 0.200269
O O11 0.884231 0.630142 0.333975
O O12 0.869916 0.496979 0.175147
O O13 0.868621 0.626159 0.000000
O O14 0.248893 0.252523 0.219303
O O15 0.321949 0.325501 0.000000
O O16 0.765891 0.393445 0.806990
O O17 0.875114 0.368161 0.000000
O O18 0.204418 0.214013 0.500000
#
# Coordination Sequence:
#
# PCOD8238878 Si02
#       8
#     8   4   8   8   8   8   4   8
#     4   9  19  37  62  91 121 155 196 245 301 359
#     4   9  18  32  54  82 107 139 182 228 281 338
#     4   9  19  37  62  91 121 155 196 245 301 359
#     4   9  19  35  55  81 111 145 190 241 293 349
#     4  11  23  37  56  83 116 154 197 241 296 354
#     4   9  19  35  55  81 111 145 190 241 293 349
#     4   9  18  32  54  82 107 139 182 228 281 338
#     4  11  23  37  56  83 116 154 197 241 296 354
#
# _framework density 21.432082999999999
#
# number of rings (size 3 to 8) (size 9 to 14) (size 15 to 20)
#    0.000    2.429    0.000    2.571    4.000    2.857 
#    0.000    5.714    0.000    1.714    0.000    0.000 
#    0.000    0.000    0.000    0.000    0.000    0.000 
#
# Total GULP energy -693739.314443 kJ/mol
# GULP energy per Si atom -12388.202044 kJ/mol
# Density = 2.138330 g / cm^3
# Si number density = 21.432083 Si / 1000 Ang^3
#
#
#
# Elastic Constant Matrix: (Units=GPa)
#
#
# Indices 1 2 3 4 5 6 
#
# 1 142.9534 28.7761 62.7596 0.0000 0.0000 0.0000
# 2 28.7761 40.9778 7.9003 0.0000 0.0000 0.0000
# 3 62.7596 7.9003 143.5305 0.0000 0.0000 0.0000
# 4 0.0000 0.0000 0.0000 19.7581 0.0000 0.0000
# 5 0.0000 0.0000 0.0000 0.0000 33.9697 0.0000
# 6 0.0000 0.0000 0.0000 0.0000 0.0000 24.7386
#
#
#
# Elastic Compliance Matrix: (Units=1/GPa)
#
#
# Indices 1 2 3 4 5 6 
#
# 1 0.010030 -0.006265 -0.004041 0.000000 0.000000 0.000000
# 2 -0.006265 0.028578 0.001166 0.000000 0.000000 0.000000
# 3 -0.004041 0.001166 0.008670 0.000000 0.000000 0.000000
# 4 0.000000 0.000000 0.000000 0.050612 0.000000 0.000000
# 5 0.000000 0.000000 0.000000 0.000000 0.029438 0.000000
# 6 0.000000 0.000000 0.000000 0.000000 0.000000 0.040423
#
#
# Mechanical properties :
#
#
# Convention : Reuss Voigt Hill
#
# Bulk Modulus (GPa) = 34.48351 58.48154 46.48252
# Shear Modulus (GPa) = 25.54977 30.89499 28.22238
#
# Velocity S-wave (km/s) = 3.45647 3.80087 3.63275
# Velocity P-wave (km/s) = 5.66164 6.82703 6.27146
#
# Compressibility (1/GPa) = 0.02899937
#
# Stress axis : x y z
#
# Youngs Moduli (GPa) = 99.69634 34.99209 115.34099
#
# Poissons Ratio (x) = 0.21921 0.46610
# Poissons Ratio (y) = 0.62456 -0.13452
# Poissons Ratio (z) = 0.40288 -0.04081
#
# Static dielectric constant tensor:
#      x y z
#    x 3.807100 0.000000 0.000000 
#    y 0.000000 3.475880 0.000000 
#    z 0.000000 0.000000 4.259510 
# 
# 
# High freq. dielectric constant tensor:
#      x y z
#    x 1.835840 0.000000 0.000000 
#    y 0.000000 1.804480 0.000000 
#    z 0.000000 0.000000 1.853060 
# 
# From -- ./inp_files/6529.got.cif
#   From: 2010.06.25/outbox.cif.g09.slc.cpg/sg58_4_cif.got.tgz:6529.got - 2010.06.26 21:38:00.
