data_PCOD8238162
_publ_section_title
;
Structure prediction by ZEFSAII (Michael W. Deem and Ramdas Pophale) SiO2 
 PCOD8238162
Probable space group: P N N M
;
_chemical_formula_sum "Si O2"
_cell_formula_units_Z 28
_cell_length_a 7.238677
_cell_length_b 6.965417
_cell_length_c 26.271806
_cell_angle_alpha 90.000000
_cell_angle_beta 90.000000
_cell_angle_gamma 90.000000
_cell_volume 1324.635068
_symmetry_space_group_name_H-M "P N N M"
_symmetry_group_IT_number 58
_symmetry_cell_setting 'orthorhombic'
loop_
_space_group_symop_operation_xyz
x,y,z
-x,-y,z
1/2+x,1/2-y,1/2-z
1/2-x,1/2+y,1/2-z
-x,-y,-z
x,y,-z
1/2-x,1/2+y,1/2+z
1/2+x,1/2-y,1/2+z
loop_
_atom_site_type_symbol
_atom_site_label
_atom_site_fract_x
_atom_site_fract_y
_atom_site_fract_z
Si Si1 0.822641 0.133483 0.193030
Si Si2 0.836828 0.283257 0.500000
Si Si3 0.798427 0.075153 0.918917
Si Si4 0.244701 0.128853 0.500000
Si Si5 0.000000 0.500000 0.765881
O O1 0.722793 0.107854 0.137936
O O2 0.898418 0.348875 0.197785
O O3 0.659012 0.099914 0.232724
O O4 0.000000 0.000000 0.202778
O O5 0.819625 0.416849 0.549858
O O6 0.028894 0.176810 0.500000
O O7 0.698834 0.098060 0.500000
O O8 0.822793 0.274279 0.949036
O O9 0.000000 0.000000 0.910957
#
# Coordination Sequence:
#
# PCOD8238162 Si02
#       5
#     8   4   8   4   4
#     4  11  25  43  68  99 131 175 222 278 338 395
#     4  10  21  38  59  91 132 164 213 254 321 383
#     4  10  22  38  62  90 125 166 210 260 321 384
#     4  10  21  38  59  93 126 170 209 261 306 399
#     4  12  24  46  68  96 134 174 224 282 330 402
#
# _framework density 21.137898
#
# number of rings (size 3 to 8) (size 9 to 14) (size 15 to 20)
#    0.000    1.429    2.857    3.429    4.000    6.857 
#    0.000    0.000    0.000    0.000    0.000    0.000 
#    0.000    0.000    0.000    0.000    0.000    0.000 
#
# Total GULP energy -347016.112053 kJ/mol
# GULP energy per Si atom -12393.432573 kJ/mol
# Density = 2.108979 g / cm^3
# Si number density = 21.137898 Si / 1000 Ang^3
#
#
#
# Elastic Constant Matrix: (Units=GPa)
#
#
# Indices 1 2 3 4 5 6 
#
# 1 39.9633 17.4353 24.6301 0.0000 0.0000 0.0000
# 2 17.4353 165.9258 66.4727 0.0000 0.0000 0.0000
# 3 24.6301 66.4727 137.2070 0.0000 0.0000 0.0000
# 4 0.0000 0.0000 0.0000 14.4033 0.0000 0.0000
# 5 0.0000 0.0000 0.0000 0.0000 16.9179 0.0000
# 6 0.0000 0.0000 0.0000 0.0000 0.0000 42.3689
#
#
#
# Elastic Compliance Matrix: (Units=1/GPa)
#
#
# Indices 1 2 3 4 5 6 
#
# 1 0.028316 -0.001165 -0.004519 0.000000 0.000000 0.000000
# 2 -0.001165 0.007526 -0.003437 0.000000 0.000000 0.000000
# 3 -0.004519 -0.003437 0.009765 0.000000 0.000000 0.000000
# 4 0.000000 0.000000 0.000000 0.069429 0.000000 0.000000
# 5 0.000000 0.000000 0.000000 0.000000 0.059109 0.000000
# 6 0.000000 0.000000 0.000000 0.000000 0.000000 0.023602
#
#
# Mechanical properties :
#
#
# Convention : Reuss Voigt Hill
#
# Bulk Modulus (GPa) = 36.54268 62.24138 49.39203
# Shear Modulus (GPa) = 22.21134 30.37521 26.29327
#
# Velocity S-wave (km/s) = 3.24509 3.79489 3.53071
# Velocity P-wave (km/s) = 5.60055 6.97932 6.32760
#
# Compressibility (1/GPa) = 0.02736526
#
# Stress axis : x y z
#
# Youngs Moduli (GPa) = 35.31552 132.86976 102.41154
#
# Poissons Ratio (x) = 0.15482 0.46275
# Poissons Ratio (y) = 0.04115 0.35199
# Poissons Ratio (z) = 0.15957 0.45668
#
# Static dielectric constant tensor:
#      x y z
#    x 3.845850 0.000000 0.000000 
#    y 0.000000 4.463690 0.000000 
#    z 0.000000 0.000000 3.093210 
# 
# 
# High freq. dielectric constant tensor:
#      x y z
#    x 1.838660 0.000000 0.000000 
#    y 0.000000 1.837900 0.000000 
#    z 0.000000 0.000000 1.823330 
# 
# From -- ./inp_files/33079.got.cif
#   From: 2010.06.25/outbox.cif.g09.slc.cpg/sg58_17_cif.got.tgz:33079.got - 2010.06.26 21:38:00.
