data_PCOD8238805
_publ_section_title
;
Structure prediction by ZEFSAII (Michael W. Deem and Ramdas Pophale) SiO2 
 PCOD8238805
Probable space group: P N N M
;
_chemical_formula_sum "Si O2"
_cell_formula_units_Z 48
_cell_length_a 5.000769
_cell_length_b 16.737680
_cell_length_c 29.620238
_cell_angle_alpha 90.000000
_cell_angle_beta 90.000000
_cell_angle_gamma 90.000000
_cell_volume 2479.251576
_symmetry_space_group_name_H-M "P N N M"
_symmetry_group_IT_number 58
_symmetry_cell_setting 'orthorhombic'
loop_
_space_group_symop_operation_xyz
x,y,z
-x,-y,z
1/2+x,1/2-y,1/2-z
1/2-x,1/2+y,1/2-z
-x,-y,-z
x,y,-z
1/2-x,1/2+y,1/2+z
1/2+x,1/2-y,1/2+z
loop_
_atom_site_type_symbol
_atom_site_label
_atom_site_fract_x
_atom_site_fract_y
_atom_site_fract_z
Si Si1 0.236209 0.051096 0.147976
Si Si2 0.100334 0.242486 0.692691
Si Si3 0.749641 0.953366 0.553516
Si Si4 0.606436 0.337096 0.720732
Si Si5 0.861243 0.273603 0.947379
Si Si6 0.614255 0.784494 0.898862
O O1 0.102236 0.077100 0.196179
O O2 0.311225 0.126766 0.117159
O O3 0.500000 0.000000 0.156482
O O4 0.000000 0.000000 0.123668
O O5 0.401184 0.277654 0.694688
O O6 0.062897 0.163176 0.724665
O O7 0.909993 0.308863 0.714241
O O8 0.006219 0.228598 0.641384
O O9 0.751978 0.961337 0.500000
O O10 0.746567 0.860669 0.566921
O O11 0.500000 0.000000 0.574443
O O12 0.000000 0.000000 0.574672
O O13 0.624338 0.210935 0.935733
O O14 0.127737 0.257044 0.919495
O O15 0.933326 0.267792 0.000000
#
# Coordination Sequence:
#
# PCOD8238805 Si02
#       6
#     8   8   8   8   8   8
#     4  11  21  35  56  82 112 148 193 243 286 328
#     4   9  17  31  53  79 106 134 169 220 275 337
#     4   9  17  31  52  78 104 130 166 214 270 333
#     4   9  17  31  52  80 107 132 170 219 277 338
#     4  11  22  36  57  83 112 148 192 242 288 333
#     4  11  21  36  56  82 112 148 195 241 285 333
#
# _framework density 19.360681
#
# number of rings (size 3 to 8) (size 9 to 14) (size 15 to 20)
#    0.000    2.000    0.000    6.500    0.000    2.667 
#    0.000    0.000    0.000   14.000    0.000    7.000 
#    0.000    0.000    0.000    0.000    0.000    0.000 
#
# Total GULP energy -594691.481842 kJ/mol
# GULP energy per Si atom -12389.405872 kJ/mol
# Density = 1.931662 g / cm^3
# Si number density = 19.360681 Si / 1000 Ang^3
#
#
#
# Elastic Constant Matrix: (Units=GPa)
#
#
# Indices 1 2 3 4 5 6 
#
# 1 137.8345 48.8325 39.9933 0.0000 0.0000 0.0000
# 2 48.8325 86.5641 56.5509 0.0000 0.0000 0.0000
# 3 39.9933 56.5509 82.6620 0.0000 0.0000 0.0000
# 4 0.0000 0.0000 0.0000 12.7565 0.0000 0.0000
# 5 0.0000 0.0000 0.0000 0.0000 26.0660 0.0000
# 6 0.0000 0.0000 0.0000 0.0000 0.0000 36.5023
#
#
#
# Elastic Compliance Matrix: (Units=1/GPa)
#
#
# Indices 1 2 3 4 5 6 
#
# 1 0.009187 -0.004120 -0.001626 0.000000 0.000000 0.000000
# 2 -0.004120 0.022735 -0.013560 0.000000 0.000000 0.000000
# 3 -0.001626 -0.013560 0.022161 0.000000 0.000000 0.000000
# 4 0.000000 0.000000 0.000000 0.078391 0.000000 0.000000
# 5 0.000000 0.000000 0.000000 0.000000 0.038364 0.000000
# 6 0.000000 0.000000 0.000000 0.000000 0.000000 0.027396
#
#
# Mechanical properties :
#
#
# Convention : Reuss Voigt Hill
#
# Bulk Modulus (GPa) = 64.64099 66.42379 65.53239
# Shear Modulus (GPa) = 20.66096 25.84389 23.25242
#
# Velocity S-wave (km/s) = 3.27029 3.65754 3.46932
# Velocity P-wave (km/s) = 6.90796 7.22633 7.06894
#
# Compressibility (1/GPa) = 0.01547006
#
# Stress axis : x y z
#
# Youngs Moduli (GPa) = 108.85494 43.98518 45.12457
#
# Poissons Ratio (x) = 0.18122 0.07337
# Poissons Ratio (y) = 0.44849 0.61189
# Poissons Ratio (z) = 0.17699 0.59644
#
# Static dielectric constant tensor:
#      x y z
#    x 3.847910 0.000000 0.000000 
#    y 0.000000 3.474360 0.000000 
#    z 0.000000 0.000000 3.649320 
# 
# 
# High freq. dielectric constant tensor:
#      x y z
#    x 1.784590 0.000000 0.000000 
#    y 0.000000 1.723790 0.000000 
#    z 0.000000 0.000000 1.730880 
# 
# From -- ./inp_files/32788.got.cif
#   From: 2010.06.25/outbox.cif.g09.slc.cpg/sg58_17_cif.got.tgz:32788.got - 2010.06.26 21:38:00.
