data_PCOD8238917
_publ_section_title
;
Structure prediction by ZEFSAII (Michael W. Deem and Ramdas Pophale) SiO2 
 PCOD8238917
Probable space group: P N N M
;
_chemical_formula_sum "Si O2"
_cell_formula_units_Z 20
_cell_length_a 8.023892
_cell_length_b 4.752294
_cell_length_c 18.803166
_cell_angle_alpha 90.000000
_cell_angle_beta 90.000000
_cell_angle_gamma 90.000000
_cell_volume 717.000329
_symmetry_space_group_name_H-M "P N N M"
_symmetry_group_IT_number 58
_symmetry_cell_setting 'orthorhombic'
loop_
_space_group_symop_operation_xyz
x,y,z
-x,-y,z
1/2+x,1/2-y,1/2-z
1/2-x,1/2+y,1/2-z
-x,-y,-z
x,y,-z
1/2-x,1/2+y,1/2+z
1/2+x,1/2-y,1/2+z
loop_
_atom_site_type_symbol
_atom_site_label
_atom_site_fract_x
_atom_site_fract_y
_atom_site_fract_z
Si Si1 0.201039 0.977222 0.664437
Si Si2 0.805449 0.004283 0.919784
Si Si3 0.500000 0.000000 0.230117
O O1 0.249853 0.817082 0.591827
O O2 0.338581 0.914272 0.724259
O O3 0.030424 0.798362 0.688191
O O4 0.205897 0.306239 0.638816
O O5 0.764463 0.099486 0.000000
O O6 0.000000 0.000000 0.903457
#
# Coordination Sequence:
#
# PCOD8238917 Si02
#       3
#     8   8   4
#     4  12  26  46  73 112 149 204 251 323 375 469
#     4  11  23  45  75 107 144 201 265 315 373 454
#     4  12  28  46  76 110 160 198 258 310 398 460
#
# _framework density 27.893991
#
# number of rings (size 3 to 8) (size 9 to 14) (size 15 to 20)
#    0.000    0.400    4.000    3.600    0.000   11.200 
#    0.000    6.000    0.000    0.000    0.000    0.000 
#    0.000    0.000    0.000    0.000    0.000    0.000 
#
# Total GULP energy -247858.033185 kJ/mol
# GULP energy per Si atom -12392.901659 kJ/mol
# Density = 2.783050 g / cm^3
# Si number density = 27.893991 Si / 1000 Ang^3
#
#
#
# Elastic Constant Matrix: (Units=GPa)
#
#
# Indices 1 2 3 4 5 6 
#
# 1 110.9891 51.4184 47.3874 0.0000 0.0000 0.0000
# 2 51.4184 218.3836 61.7033 0.0000 0.0000 0.0000
# 3 47.3874 61.7033 129.0842 0.0000 0.0000 0.0000
# 4 0.0000 0.0000 0.0000 101.3416 0.0000 0.0000
# 5 0.0000 0.0000 0.0000 0.0000 -15.9389 0.0000
# 6 0.0000 0.0000 0.0000 0.0000 0.0000 34.4428
#
#
#
# Elastic Compliance Matrix: (Units=1/GPa)
#
#
# Indices 1 2 3 4 5 6 
#
# 1 0.011209 -0.001707 -0.003299 0.000000 0.000000 0.000000
# 2 -0.001707 0.005554 -0.002028 0.000000 0.000000 0.000000
# 3 -0.003299 -0.002028 0.009927 0.000000 0.000000 0.000000
# 4 0.000000 0.000000 0.000000 0.009868 0.000000 0.000000
# 5 0.000000 0.000000 0.000000 0.000000 -0.062739 0.000000
# 6 0.000000 0.000000 0.000000 0.000000 0.000000 0.029034
#
#
# Mechanical properties :
#
#
# Convention : Reuss Voigt Hill
#
# Bulk Modulus (GPa) = 79.22527 86.60835 82.91681
# Shear Modulus (GPa) = 236.64601 43.83227 140.23914
#
# Velocity S-wave (km/s) = 9.22073 3.96837 7.09823
# Velocity P-wave (km/s) = 11.90909 7.21899 9.84734
#
# Compressibility (1/GPa) = 0.01262224
#
# Stress axis : x y z
#
# Youngs Moduli (GPa) = 89.21193 180.04718 100.73081
#
# Poissons Ratio (x) = 0.30736 0.33231
# Poissons Ratio (y) = 0.15229 0.20430
# Poissons Ratio (z) = 0.29431 0.36517
#
# Static dielectric constant tensor:
#      x y z
#    x 5.773350 0.000000 0.000000 
#    y 0.000000 5.393460 0.000000 
#    z 0.000000 0.000000 4.873400 
# 
# 
# High freq. dielectric constant tensor:
#      x y z
#    x 2.176650 0.000000 0.000000 
#    y 0.000000 2.184350 0.000000 
#    z 0.000000 0.000000 2.116530 
# 
# From -- ./inp_files/24566.got.cif
#   From: 2010.06.25/outbox.cif.g09.slc.cpg/sg58_13_cif.got.tgz:24566.got - 2010.06.26 21:38:00.
