data_PCOD8238992
_publ_section_title
;
Structure prediction by ZEFSAII (Michael W. Deem and Ramdas Pophale) SiO2 
 PCOD8238992
Probable space group: P N N M
;
_chemical_formula_sum "Si O2"
_cell_formula_units_Z 64
_cell_length_a 19.527093
_cell_length_b 19.965427
_cell_length_c 9.632856
_cell_angle_alpha 90.000000
_cell_angle_beta 90.000000
_cell_angle_gamma 90.000000
_cell_volume 3755.530260
_symmetry_space_group_name_H-M "P N N M"
_symmetry_group_IT_number 58
_symmetry_cell_setting 'orthorhombic'
loop_
_space_group_symop_operation_xyz
x,y,z
-x,-y,z
1/2+x,1/2-y,1/2-z
1/2-x,1/2+y,1/2-z
-x,-y,-z
x,y,-z
1/2-x,1/2+y,1/2+z
1/2+x,1/2-y,1/2+z
loop_
_atom_site_type_symbol
_atom_site_label
_atom_site_fract_x
_atom_site_fract_y
_atom_site_fract_z
Si Si1 0.591110 0.688834 0.659592
Si Si2 0.928241 0.314933 0.661970
Si Si3 0.819986 0.590750 0.335806
Si Si4 0.211355 0.014503 0.165363
Si Si5 0.433216 0.461446 0.665124
Si Si6 0.727342 0.845367 0.838727
Si Si7 0.971007 0.569474 0.665519
Si Si8 0.247076 0.777513 0.157816
O O1 0.569720 0.701342 0.500000
O O2 0.558104 0.746643 0.754011
O O3 0.564891 0.616310 0.712284
O O4 0.672626 0.689974 0.676635
O O5 0.937515 0.298412 0.500000
O O6 0.853773 0.346819 0.691470
O O7 0.982662 0.368939 0.716973
O O8 0.820816 0.580693 0.500000
O O9 0.764719 0.539364 0.271990
O O10 0.894827 0.576967 0.273337
O O11 0.801090 0.666427 0.296971
O O12 0.236863 0.087109 0.215550
O O13 0.135203 0.998249 0.222544
O O14 0.211583 0.010520 0.000000
O O15 0.500000 0.500000 0.724286
O O16 0.432197 0.464173 0.500000
O O17 0.761778 0.785012 0.755903
O O18 0.742196 0.833896 0.000000
O O19 0.970986 0.568301 0.500000
O O20 0.000000 0.500000 0.725101
O O21 0.258039 0.753956 0.000000
#
# Coordination Sequence:
#
# PCOD8238992 Si02
#       8
#     8   8   8   8   8   8   8   8
#     4   9  16  29  48  67  87 117 154 185 217 263
#     4   9  17  29  45  68  95 121 147 179 222 268
#     4   9  15  25  44  65  86 115 149 186 220 256
#     4   9  15  26  44  66  88 112 148 189 225 258
#     4   9  16  27  44  65  88 114 149 191 227 260
#     4   9  17  28  45  68  93 117 142 180 225 263
#     4   9  16  26  42  66  92 116 147 185 223 262
#     4   9  16  28  46  65  87 116 150 181 212 261
#
# _framework density 17.041536000000001
#
# number of rings (size 3 to 8) (size 9 to 14) (size 15 to 20)
#    0.000    3.000    1.250    0.750    0.000    3.000 
#    2.250    0.000    0.000    2.250    0.000    0.000 
#    0.000    0.000    0.000    0.000    0.000    0.000 
#
# Total GULP energy -793425.354289 kJ/mol
# GULP energy per Si atom -12397.271161 kJ/mol
# Density = 1.700275 g / cm^3
# Si number density = 17.041536 Si / 1000 Ang^3
#
#
#
# Elastic Constant Matrix: (Units=GPa)
#
#
# Indices 1 2 3 4 5 6 
#
# 1 127.7388 91.6949 22.8487 0.0000 0.0000 0.0000
# 2 91.6949 164.1548 40.7691 0.0000 0.0000 0.0000
# 3 22.8487 40.7691 26.8290 0.0000 0.0000 0.0000
# 4 0.0000 0.0000 0.0000 25.8506 0.0000 0.0000
# 5 0.0000 0.0000 0.0000 0.0000 8.8150 0.0000
# 6 0.0000 0.0000 0.0000 0.0000 0.0000 31.4448
#
#
#
# Elastic Compliance Matrix: (Units=1/GPa)
#
#
# Indices 1 2 3 4 5 6 
#
# 1 0.013069 -0.007285 -0.000059 0.000000 0.000000 0.000000
# 2 -0.007285 0.013846 -0.014835 0.000000 0.000000 0.000000
# 3 -0.000059 -0.014835 0.059867 0.000000 0.000000 0.000000
# 4 0.000000 0.000000 0.000000 0.038684 0.000000 0.000000
# 5 0.000000 0.000000 0.000000 0.000000 0.113443 0.000000
# 6 0.000000 0.000000 0.000000 0.000000 0.000000 0.031802
#
#
# Mechanical properties :
#
#
# Convention : Reuss Voigt Hill
#
# Bulk Modulus (GPa) = 23.57270 69.92754 46.75012
# Shear Modulus (GPa) = 15.18785 24.11608 19.65197
#
# Velocity S-wave (km/s) = 2.98858 3.76591 3.39954
# Velocity P-wave (km/s) = 5.07655 7.74804 6.54994
#
# Compressibility (1/GPa) = 0.04242195
#
# Stress axis : x y z
#
# Youngs Moduli (GPa) = 76.51879 72.22401 16.70361
#
# Poissons Ratio (x) = 0.52618 0.00099
# Poissons Ratio (y) = 0.55746 0.24781
# Poissons Ratio (z) = 0.00452 1.07148
#
# Static dielectric constant tensor:
#      x y z
#    x 3.318920 0.000000 0.000000 
#    y 0.000000 3.322680 0.000000 
#    z 0.000000 0.000000 2.684110 
# 
# 
# High freq. dielectric constant tensor:
#      x y z
#    x 1.654820 0.000000 0.000000 
#    y 0.000000 1.670500 0.000000 
#    z 0.000000 0.000000 1.595370 
# 
# From -- ./inp_files/16667.got.cif
#   From: 2010.06.25/outbox.cif.g09.slc.cpg/sg58_9_cif.got.tgz:16667.got - 2010.06.26 21:38:00.
