data_PCOD8238888
_publ_section_title
;
Structure prediction by ZEFSAII (Michael W. Deem and Ramdas Pophale) SiO2 
 PCOD8238888
Probable space group: P N N M
;
_chemical_formula_sum "Si O2"
_cell_formula_units_Z 44
_cell_length_a 27.910830
_cell_length_b 7.578352
_cell_length_c 11.263127
_cell_angle_alpha 90.000000
_cell_angle_beta 90.000000
_cell_angle_gamma 90.000000
_cell_volume 2382.355159
_symmetry_space_group_name_H-M "P N N M"
_symmetry_group_IT_number 58
_symmetry_cell_setting 'orthorhombic'
loop_
_space_group_symop_operation_xyz
x,y,z
-x,-y,z
1/2+x,1/2-y,1/2-z
1/2-x,1/2+y,1/2-z
-x,-y,-z
x,y,-z
1/2-x,1/2+y,1/2+z
1/2+x,1/2-y,1/2+z
loop_
_atom_site_type_symbol
_atom_site_label
_atom_site_fract_x
_atom_site_fract_y
_atom_site_fract_z
Si Si1 0.139810 0.079546 0.863518
Si Si2 0.930041 0.238498 0.500000
Si Si3 0.535771 0.184450 0.000000
Si Si4 0.051201 0.037310 0.699979
Si Si5 0.693761 0.110702 0.767001
Si Si6 0.207391 0.754397 0.137182
Si Si7 0.136436 0.483455 0.500000
O O1 0.088429 0.076538 0.803076
O O2 0.172884 0.230947 0.809351
O O3 0.163616 0.888540 0.847722
O O4 0.132159 0.127110 0.000000
O O5 0.873845 0.306904 0.500000
O O6 0.978629 0.370057 0.500000
O O7 0.932638 0.125739 0.619279
O O8 0.545335 0.294186 0.881836
O O9 0.579023 0.046575 0.000000
O O10 0.000000 0.000000 0.761883
O O11 0.747963 0.159075 0.796428
O O12 0.692063 0.930484 0.693690
O O13 0.663194 0.090340 0.886235
O O14 0.220603 0.723343 0.000000
#
# Coordination Sequence:
#
# PCOD8238888 Si02
#       7
#     8   4   4   8   8   8   4
#     4  11  23  40  61  83 118 160 195 237 295 341
#     4   9  19  33  57  91 117 151 181 243 305 340
#     4   9  17  33  57  83 123 145 185 240 296 346
#     4   9  18  36  58  85 116 151 193 239 290 349
#     4  12  23  39  61  87 115 151 198 243 280 353
#     4  11  24  42  59  84 116 152 193 238 292 339
#     4  12  21  34  58  90 116 148 197 234 297 346
#
# _framework density 18.469118000000002
#
# number of rings (size 3 to 8) (size 9 to 14) (size 15 to 20)
#    0.000    1.455    4.545    3.000    0.000    0.364 
#    1.636    0.000    0.000    0.000    0.000    6.364 
#    0.000    0.000    0.000    0.000    0.000    0.000 
#
# Total GULP energy -545331.052120 kJ/mol
# GULP energy per Si atom -12393.887548 kJ/mol
# Density = 1.842708 g / cm^3
# Si number density = 18.469118 Si / 1000 Ang^3
#
#
#
# Elastic Constant Matrix: (Units=GPa)
#
#
# Indices 1 2 3 4 5 6 
#
# 1 85.8230 12.3955 46.1023 0.0000 0.0000 0.0000
# 2 12.3955 59.7640 30.3305 0.0000 0.0000 0.0000
# 3 46.1023 30.3305 119.0267 0.0000 0.0000 0.0000
# 4 0.0000 0.0000 0.0000 26.7808 0.0000 0.0000
# 5 0.0000 0.0000 0.0000 0.0000 56.5029 0.0000
# 6 0.0000 0.0000 0.0000 0.0000 0.0000 28.4090
#
#
#
# Elastic Compliance Matrix: (Units=1/GPa)
#
#
# Indices 1 2 3 4 5 6 
#
# 1 0.014715 -0.000183 -0.005653 0.000000 0.000000 0.000000
# 2 -0.000183 0.019220 -0.004827 0.000000 0.000000 0.000000
# 3 -0.005653 -0.004827 0.011821 0.000000 0.000000 0.000000
# 4 0.000000 0.000000 0.000000 0.037340 0.000000 0.000000
# 5 0.000000 0.000000 0.000000 0.000000 0.017698 0.000000
# 6 0.000000 0.000000 0.000000 0.000000 0.000000 0.035200
#
#
# Mechanical properties :
#
#
# Convention : Reuss Voigt Hill
#
# Bulk Modulus (GPa) = 40.93248 49.14115 45.03681
# Shear Modulus (GPa) = 30.21817 34.05755 32.13786
#
# Velocity S-wave (km/s) = 4.04932 4.29887 4.17596
# Velocity P-wave (km/s) = 6.63878 7.16278 6.90575
#
# Compressibility (1/GPa) = 0.02443048
#
# Stress axis : x y z
#
# Youngs Moduli (GPa) = 67.95825 52.02896 84.59583
#
# Poissons Ratio (x) = 0.00953 0.47820
# Poissons Ratio (y) = 0.01245 0.40832
# Poissons Ratio (z) = 0.38416 0.25113
#
# Static dielectric constant tensor:
#      x y z
#    x 3.545540 0.000000 0.000000 
#    y 0.000000 3.513300 0.000000 
#    z 0.000000 0.000000 3.310780 
# 
# 
# High freq. dielectric constant tensor:
#      x y z
#    x 1.732910 0.000000 0.000000 
#    y 0.000000 1.730620 0.000000 
#    z 0.000000 0.000000 1.708520 
# 
# From -- ./inp_files/10718.got.cif
#   From: 2010.06.25/outbox.cif.g09.slc.cpg/sg58_6_cif.got.tgz:10718.got - 2010.06.26 21:38:00.
