data_PCOD8238294
_publ_section_title
;
Structure prediction by ZEFSAII (Michael W. Deem and Ramdas Pophale) SiO2 
 PCOD8238294
Probable space group: P N N M
;
_chemical_formula_sum "Si O2"
_cell_formula_units_Z 48
_cell_length_a 17.627123
_cell_length_b 8.467534
_cell_length_c 14.351656
_cell_angle_alpha 90.000000
_cell_angle_beta 90.000000
_cell_angle_gamma 90.000000
_cell_volume 2142.103250
_symmetry_space_group_name_H-M "P N N M"
_symmetry_group_IT_number 58
_symmetry_cell_setting 'orthorhombic'
loop_
_space_group_symop_operation_xyz
x,y,z
-x,-y,z
1/2+x,1/2-y,1/2-z
1/2-x,1/2+y,1/2-z
-x,-y,-z
x,y,-z
1/2-x,1/2+y,1/2+z
1/2+x,1/2-y,1/2+z
loop_
_atom_site_type_symbol
_atom_site_label
_atom_site_fract_x
_atom_site_fract_y
_atom_site_fract_z
Si Si1 0.367488 0.816832 0.606580
Si Si2 0.652284 0.865049 0.290301
Si Si3 0.465141 0.673925 0.102267
Si Si4 0.008325 0.814777 0.798454
Si Si5 0.708693 0.257545 0.897461
Si Si6 0.718458 0.885093 0.896461
O O1 0.365113 0.878753 0.500000
O O2 0.447564 0.733404 0.624275
O O3 0.299963 0.693119 0.625254
O O4 0.367050 0.956657 0.681755
O O5 0.590708 0.744324 0.333724
O O6 0.737200 0.841868 0.325183
O O7 0.655594 0.833002 0.178859
O O8 0.500000 0.500000 0.096789
O O9 0.498209 0.761953 0.194075
O O10 0.375171 0.677373 0.121677
O O11 0.480640 0.756258 0.000000
O O12 0.000000 0.000000 0.787382
O O13 0.722499 0.072252 0.887711
O O14 0.733746 0.312377 0.000000
O O15 0.690659 0.834565 0.000000
#
# Coordination Sequence:
#
# PCOD8238294 Si02
#       6
#     8   8   8   8   8   8
#     4  11  25  43  62  89 125 164 209 260 315 375
#     4  12  23  38  64  92 123 161 207 261 314 374
#     4   9  19  37  62  93 129 165 207 260 316 378
#     4  11  24  40  61  89 122 166 211 257 317 379
#     4  10  21  39  63  90 121 161 208 256 311 373
#     4  10  22  40  63  91 124 162 204 256 315 376
#
# _framework density 22.407883999999999
#
# number of rings (size 3 to 8) (size 9 to 14) (size 15 to 20)
#    0.000    1.500    0.000    5.000    0.000    7.000 
#    0.000    5.000    0.000    5.000    0.000    0.000 
#    0.000    0.000    0.000    0.000    0.000    0.000 
#
# Total GULP energy -594767.112549 kJ/mol
# GULP energy per Si atom -12390.981511 kJ/mol
# Density = 2.235688 g / cm^3
# Si number density = 22.407884 Si / 1000 Ang^3
#
#
#
# Elastic Constant Matrix: (Units=GPa)
#
#
# Indices 1 2 3 4 5 6 
#
# 1 133.5780 55.7541 42.0049 0.0000 0.0000 0.0000
# 2 55.7541 79.3068 16.9010 0.0000 0.0000 0.0000
# 3 42.0049 16.9010 96.7039 0.0000 0.0000 0.0000
# 4 0.0000 0.0000 0.0000 38.5407 0.0000 0.0000
# 5 0.0000 0.0000 0.0000 0.0000 800.5684 0.0000
# 6 0.0000 0.0000 0.0000 0.0000 0.0000 39.7369
#
#
#
# Elastic Compliance Matrix: (Units=1/GPa)
#
#
# Indices 1 2 3 4 5 6 
#
# 1 0.011815 -0.007492 -0.003823 0.000000 0.000000 0.000000
# 2 -0.007492 0.017847 0.000135 0.000000 0.000000 0.000000
# 3 -0.003823 0.000135 0.011978 0.000000 0.000000 0.000000
# 4 0.000000 0.000000 0.000000 0.025947 0.000000 0.000000
# 5 0.000000 0.000000 0.000000 0.000000 0.001249 0.000000
# 6 0.000000 0.000000 0.000000 0.000000 0.000000 0.025166
#
#
# Mechanical properties :
#
#
# Convention : Reuss Voigt Hill
#
# Bulk Modulus (GPa) = 51.86395 59.87874 55.87135
# Shear Modulus (GPa) = 40.72057 188.76444 114.74251
#
# Velocity S-wave (km/s) = 4.26754 9.18820 7.16362
# Velocity P-wave (km/s) = 6.89044 11.80442 9.66495
#
# Compressibility (1/GPa) = 0.01928121
#
# Stress axis : x y z
#
# Youngs Moduli (GPa) = 84.63548 56.03083 83.48790
#
# Poissons Ratio (x) = 0.41977 0.31916
# Poissons Ratio (y) = 0.63407 -0.01127
# Poissons Ratio (z) = 0.32355 -0.00756
#
# Static dielectric constant tensor:
#      x y z
#    x 4.073620 0.000000 0.000000 
#    y 0.000000 3.853870 0.000000 
#    z 0.000000 0.000000 4.662740 
# 
# 
# High freq. dielectric constant tensor:
#      x y z
#    x 1.886170 0.000000 0.000000 
#    y 0.000000 1.860910 0.000000 
#    z 0.000000 0.000000 1.905280 
# 
# From -- ./inp_files/22777.got.cif
#   From: 2010.06.25/outbox.cif.g09.slc.cpg/sg58_12_cif.got.tgz:22777.got - 2010.06.26 21:38:00.
