data_PCOD8238879
_publ_section_title
;
Structure prediction by ZEFSAII (Michael W. Deem and Ramdas Pophale) SiO2 
 PCOD8238879
Probable space group: P N N M
;
_chemical_formula_sum "Si O2"
_cell_formula_units_Z 48
_cell_length_a 11.595872
_cell_length_b 23.547881
_cell_length_c 8.933017
_cell_angle_alpha 90.000000
_cell_angle_beta 90.000000
_cell_angle_gamma 90.000000
_cell_volume 2439.233667
_symmetry_space_group_name_H-M "P N N M"
_symmetry_group_IT_number 58
_symmetry_cell_setting 'orthorhombic'
loop_
_space_group_symop_operation_xyz
x,y,z
-x,-y,z
1/2+x,1/2-y,1/2-z
1/2-x,1/2+y,1/2-z
-x,-y,-z
x,y,-z
1/2-x,1/2+y,1/2+z
1/2+x,1/2-y,1/2+z
loop_
_atom_site_type_symbol
_atom_site_label
_atom_site_fract_x
_atom_site_fract_y
_atom_site_fract_z
Si Si1 0.792306 0.913115 0.675419
Si Si2 0.866897 0.324167 0.677147
Si Si3 0.113916 0.365131 0.322231
Si Si4 0.755478 0.526315 0.673644
Si Si5 0.528270 0.596208 0.668939
Si Si6 0.826304 0.207037 0.827279
O O1 0.776563 0.908409 0.500000
O O2 0.738735 0.857450 0.750428
O O3 0.926825 0.915752 0.715230
O O4 0.726552 0.969037 0.733315
O O5 0.858860 0.329077 0.500000
O O6 0.861888 0.258916 0.723453
O O7 0.987032 0.350597 0.737201
O O8 0.121850 0.366003 0.500000
O O9 0.152229 0.427528 0.265253
O O10 0.204207 0.317294 0.267285
O O11 0.777517 0.512472 0.500000
O O12 0.627177 0.550101 0.698670
O O13 0.480638 0.589131 0.500000
O O14 0.576353 0.659331 0.691906
O O15 0.817328 0.226560 0.000000
#
# Coordination Sequence:
#
# PCOD8238879 Si02
#       6
#     8   8   8   8   8   8
#     4  12  25  37  53  83 121 154 190 240 286 328
#     4  11  23  38  57  84 114 152 195 230 280 345
#     4   8  18  38  62  83 109 147 188 230 282 345
#     4   9  18  38  64  85 110 149 191 235 285 342
#     4   9  19  37  62  88 115 150 190 232 286 347
#     4   9  19  38  61  86 115 144 182 236 290 336
#
# _framework density 19.678311000000001
#
# number of rings (size 3 to 8) (size 9 to 14) (size 15 to 20)
#    0.000    2.333    0.000    4.500    2.333    4.000 
#    0.000    8.333    0.000    0.000    0.000    0.000 
#    0.000    0.000    0.000    0.000    0.000    0.000 
#
# Total GULP energy -595304.369162 kJ/mol
# GULP energy per Si atom -12402.174358 kJ/mol
# Density = 1.963352 g / cm^3
# Si number density = 19.678311 Si / 1000 Ang^3
#
#
#
# Elastic Constant Matrix: (Units=GPa)
#
#
# Indices 1 2 3 4 5 6 
#
# 1 46.2551 8.7525 20.5582 0.0000 0.0000 0.0000
# 2 8.7525 94.4381 35.5605 0.0000 0.0000 0.0000
# 3 20.5582 35.5605 79.4227 0.0000 0.0000 0.0000
# 4 0.0000 0.0000 0.0000 34.8095 0.0000 0.0000
# 5 0.0000 0.0000 0.0000 0.0000 10.9466 0.0000
# 6 0.0000 0.0000 0.0000 0.0000 0.0000 19.2069
#
#
#
# Elastic Compliance Matrix: (Units=1/GPa)
#
#
# Indices 1 2 3 4 5 6 
#
# 1 0.024431 0.000141 -0.006387 0.000000 0.000000 0.000000
# 2 0.000141 0.012737 -0.005739 0.000000 0.000000 0.000000
# 3 -0.006387 -0.005739 0.016814 0.000000 0.000000 0.000000
# 4 0.000000 0.000000 0.000000 0.028728 0.000000 0.000000
# 5 0.000000 0.000000 0.000000 0.000000 0.091353 0.000000
# 6 0.000000 0.000000 0.000000 0.000000 0.000000 0.052065
#
#
# Mechanical properties :
#
#
# Convention : Reuss Voigt Hill
#
# Bulk Modulus (GPa) = 33.32098 38.87315 36.09707
# Shear Modulus (GPa) = 19.22323 23.34222 21.28273
#
# Velocity S-wave (km/s) = 3.12889 3.44785 3.29223
# Velocity P-wave (km/s) = 5.47931 5.97054 5.73020
#
# Compressibility (1/GPa) = 0.03001112
#
# Stress axis : x y z
#
# Youngs Moduli (GPa) = 40.93107 78.51134 59.47506
#
# Poissons Ratio (x) = -0.01105 0.37986
# Poissons Ratio (y) = -0.00576 0.34134
# Poissons Ratio (z) = 0.26142 0.45060
#
# Static dielectric constant tensor:
#      x y z
#    x 3.661610 0.000000 0.000000 
#    y 0.000000 3.639100 0.000000 
#    z 0.000000 0.000000 3.270780 
# 
# 
# High freq. dielectric constant tensor:
#      x y z
#    x 1.766670 0.000000 0.000000 
#    y 0.000000 1.779580 0.000000 
#    z 0.000000 0.000000 1.739550 
# 
# From -- ./inp_files/4213.got.cif
#   From: 2010.06.25/outbox.cif.g09.slc.cpg/sg58_3_cif.got.tgz:4213.got - 2010.06.26 21:38:00.
