data_PCOD8238799
_publ_section_title
;
Structure prediction by ZEFSAII (Michael W. Deem and Ramdas Pophale) SiO2 
 PCOD8238799
Probable space group: P N N M
;
_chemical_formula_sum "Si O2"
_cell_formula_units_Z 48
_cell_length_a 11.521441
_cell_length_b 8.037138
_cell_length_c 25.518880
_cell_angle_alpha 90.000000
_cell_angle_beta 90.000000
_cell_angle_gamma 90.000000
_cell_volume 2363.033264
_symmetry_space_group_name_H-M "P N N M"
_symmetry_group_IT_number 58
_symmetry_cell_setting 'orthorhombic'
loop_
_space_group_symop_operation_xyz
x,y,z
-x,-y,z
1/2+x,1/2-y,1/2-z
1/2-x,1/2+y,1/2-z
-x,-y,-z
x,y,-z
1/2-x,1/2+y,1/2+z
1/2+x,1/2-y,1/2+z
loop_
_atom_site_type_symbol
_atom_site_label
_atom_site_fract_x
_atom_site_fract_y
_atom_site_fract_z
Si Si1 0.085998 0.736749 0.713508
Si Si2 0.564747 0.325883 0.560320
Si Si3 0.000000 0.500000 0.884607
Si Si4 0.175554 0.490968 0.205755
Si Si5 0.328510 0.791119 0.197301
Si Si6 0.286161 0.606033 0.349674
Si Si7 0.500000 0.500000 0.711941
O O1 0.094218 0.579793 0.751518
O O2 0.193446 0.744379 0.671615
O O3 0.964483 0.715508 0.683180
O O4 0.086633 0.896252 0.751268
O O5 0.500000 0.500000 0.569312
O O6 0.593845 0.294181 0.500000
O O7 0.487346 0.167604 0.580407
O O8 0.688587 0.346463 0.590135
O O9 0.890096 0.544415 0.848218
O O10 0.284240 0.603908 0.188991
O O11 0.204130 0.325016 0.240696
O O12 0.267249 0.921883 0.157954
O O13 0.414635 0.615715 0.322424
#
# Coordination Sequence:
#
# PCOD8238799 Si02
#       7
#     8   8   4   8   8   8   4
#     4  11  22  35  52  86 129 164 206 236 295 384
#     4  11  25  44  65  91 119 156 217 282 333 374
#     4  12  23  40  66  92 124 174 205 266 322 388
#     4  11  21  34  54  86 124 168 203 241 301 373
#     4  11  22  35  54  85 128 167 205 241 293 385
#     4  11  22  37  59  84 123 167 201 257 311 377
#     4  12  22  34  57  90 129 166 196 246 304 390
#
# _framework density 20.312875999999999
#
# number of rings (size 3 to 8) (size 9 to 14) (size 15 to 20)
#    0.000    0.833    4.167    5.750    4.667    0.000 
#    0.000    0.000    0.000    2.000    0.000    4.083 
#    0.000    0.000    0.000    0.000    0.000    0.000 
#
# Total GULP energy -594844.333881 kJ/mol
# GULP energy per Si atom -12392.590289 kJ/mol
# Density = 2.026664 g / cm^3
# Si number density = 20.312876 Si / 1000 Ang^3
#
#
#
# Elastic Constant Matrix: (Units=GPa)
#
#
# Indices 1 2 3 4 5 6 
#
# 1 122.3060 19.8397 51.8137 0.0000 0.0000 0.0000
# 2 19.8397 75.7419 42.4223 0.0000 0.0000 0.0000
# 3 51.8137 42.4223 125.8005 0.0000 0.0000 0.0000
# 4 0.0000 0.0000 0.0000 25.3240 0.0000 0.0000
# 5 0.0000 0.0000 0.0000 0.0000 22.2818 0.0000
# 6 0.0000 0.0000 0.0000 0.0000 0.0000 37.3772
#
#
#
# Elastic Compliance Matrix: (Units=1/GPa)
#
#
# Indices 1 2 3 4 5 6 
#
# 1 0.009913 -0.000382 -0.003954 0.000000 0.000000 0.000000
# 2 -0.000382 0.016292 -0.005337 0.000000 0.000000 0.000000
# 3 -0.003954 -0.005337 0.011377 0.000000 0.000000 0.000000
# 4 0.000000 0.000000 0.000000 0.039488 0.000000 0.000000
# 5 0.000000 0.000000 0.000000 0.000000 0.044880 0.000000
# 6 0.000000 0.000000 0.000000 0.000000 0.000000 0.026754
#
#
# Mechanical properties :
#
#
# Convention : Reuss Voigt Hill
#
# Bulk Modulus (GPa) = 54.83387 61.33331 58.08359
# Shear Modulus (GPa) = 28.71434 30.98145 29.84789
#
# Velocity S-wave (km/s) = 3.76387 3.90963 3.83744
# Velocity P-wave (km/s) = 6.77807 7.11619 6.94919
#
# Compressibility (1/GPa) = 0.01823690
#
# Stress axis : x y z
#
# Youngs Moduli (GPa) = 100.87415 61.38080 87.89421
#
# Poissons Ratio (x) = 0.02345 0.34755
# Poissons Ratio (y) = 0.03853 0.46905
# Poissons Ratio (z) = 0.39888 0.32756
#
# Static dielectric constant tensor:
#      x y z
#    x -3.402770 0.000000 0.000000 
#    y 0.000000 4.960860 0.000000 
#    z 0.000000 0.000000 3.398900 
# 
# 
# High freq. dielectric constant tensor:
#      x y z
#    x 1.804320 0.000000 0.000000 
#    y 0.000000 1.830180 0.000000 
#    z 0.000000 0.000000 1.730520 
# 
# From -- ./inp_files/33530.got.cif
#   From: 2010.06.25/outbox.cif.g09.slc.cpg/sg58_17_cif.got.tgz:33530.got - 2010.06.26 21:38:00.
