data_PCOD8238110
_publ_section_title
;
Structure prediction by ZEFSAII (Michael W. Deem and Ramdas Pophale) SiO2 
 PCOD8238110
Probable space group: P N N M
;
_chemical_formula_sum "Si O2"
_cell_formula_units_Z 64
_cell_length_a 19.684108
_cell_length_b 18.640578
_cell_length_c 8.711697
_cell_angle_alpha 90.000000
_cell_angle_beta 90.000000
_cell_angle_gamma 90.000000
_cell_volume 3196.523310
_symmetry_space_group_name_H-M "P N N M"
_symmetry_group_IT_number 58
_symmetry_cell_setting 'orthorhombic'
loop_
_space_group_symop_operation_xyz
x,y,z
-x,-y,z
1/2+x,1/2-y,1/2-z
1/2-x,1/2+y,1/2-z
-x,-y,-z
x,y,-z
1/2-x,1/2+y,1/2+z
1/2+x,1/2-y,1/2+z
loop_
_atom_site_type_symbol
_atom_site_label
_atom_site_fract_x
_atom_site_fract_y
_atom_site_fract_z
Si Si1 0.855214 0.785923 0.679192
Si Si2 0.192767 0.058518 0.318205
Si Si3 0.297519 0.962717 0.819675
Si Si4 0.058085 0.443020 0.179983
Si Si5 0.095183 0.803911 0.678521
Si Si6 0.432467 0.462386 0.182728
Si Si7 0.982025 0.715197 0.180379
Si Si8 0.749460 0.180492 0.677960
O O1 0.870475 0.786751 0.500000
O O2 0.825882 0.861558 0.735051
O O3 0.926287 0.771408 0.761597
O O4 0.801505 0.724774 0.717496
O O5 0.204712 0.053937 0.500000
O O6 0.261727 0.037092 0.229679
O O7 0.132602 0.006664 0.261182
O O8 0.376052 0.966345 0.774141
O O9 0.257341 0.902018 0.725170
O O10 0.290846 0.949092 0.000000
O O11 0.034056 0.365005 0.239433
O O12 0.000000 0.500000 0.217838
O O13 0.075886 0.441490 0.000000
O O14 0.077998 0.800510 0.500000
O O15 0.072122 0.881170 0.745542
O O16 0.174745 0.792110 0.709000
O O17 0.055761 0.739661 0.761308
O O18 0.500000 0.500000 0.249217
O O19 0.434064 0.461776 0.000000
O O20 0.983002 0.715459 0.000000
O O21 0.729185 0.188765 0.500000
#
# Coordination Sequence:
#
# PCOD8238110 Si02
#       8
#     8   8   8   8   8   8   8   8
#     4  11  23  39  64  94 123 162 210 259 311 375
#     4  10  21  39  62  88 123 164 207 254 308 376
#     4  12  24  39  64  94 126 163 208 265 317 373
#     4  10  23  44  68  91 120 166 216 259 314 381
#     4  10  21  37  60  87 119 160 205 250 301 371
#     4   9  16  31  56  83 112 153 202 243 288 353
#     4  11  23  39  62  90 127 167 205 260 316 373
#     4  11  22  40  64  88 123 169 210 254 315 378
#
# _framework density 20.021754000000001
#
# number of rings (size 3 to 8) (size 9 to 14) (size 15 to 20)
#    0.000    1.500    2.500    3.000    0.000    5.750 
#    0.000    3.750    0.000    1.500    0.000    0.000 
#    0.000    0.000    0.000    0.000    0.000    0.000 
#
# Total GULP energy -793907.659906 kJ/mol
# GULP energy per Si atom -12404.807186 kJ/mol
# Density = 1.997618 g / cm^3
# Si number density = 20.021754 Si / 1000 Ang^3
#
#
#
# Elastic Constant Matrix: (Units=GPa)
#
#
# Indices 1 2 3 4 5 6 
#
# 1 104.8166 34.4807 35.6378 0.0000 0.0000 0.0000
# 2 34.4807 83.2058 17.9689 0.0000 0.0000 0.0000
# 3 35.6378 17.9689 37.1771 0.0000 0.0000 0.0000
# 4 0.0000 0.0000 0.0000 26.2548 0.0000 0.0000
# 5 0.0000 0.0000 0.0000 0.0000 29.3930 0.0000
# 6 0.0000 0.0000 0.0000 0.0000 0.0000 39.9378
#
#
#
# Elastic Compliance Matrix: (Units=1/GPa)
#
#
# Indices 1 2 3 4 5 6 
#
# 1 0.015002 -0.003474 -0.012702 0.000000 0.000000 0.000000
# 2 -0.003474 0.014223 -0.003545 0.000000 0.000000 0.000000
# 3 -0.012702 -0.003545 0.040787 0.000000 0.000000 0.000000
# 4 0.000000 0.000000 0.000000 0.038088 0.000000 0.000000
# 5 0.000000 0.000000 0.000000 0.000000 0.034022 0.000000
# 6 0.000000 0.000000 0.000000 0.000000 0.000000 0.025039
#
#
# Mechanical properties :
#
#
# Convention : Reuss Voigt Hill
#
# Bulk Modulus (GPa) = 32.70941 44.59715 38.65328
# Shear Modulus (GPa) = 23.06353 28.25794 25.66074
#
# Velocity S-wave (km/s) = 3.39768 3.76089 3.58389
# Velocity P-wave (km/s) = 5.63602 6.41730 6.03931
#
# Compressibility (1/GPa) = 0.03057225
#
# Stress axis : x y z
#
# Youngs Moduli (GPa) = 66.65873 70.30643 24.51743
#
# Poissons Ratio (x) = 0.24423 0.31141
# Poissons Ratio (y) = 0.23156 0.08691
# Poissons Ratio (z) = 0.84668 0.24922
#
# Static dielectric constant tensor:
#      x y z
#    x 3.703030 0.000000 0.000000 
#    y 0.000000 3.834350 0.000000 
#    z 0.000000 0.000000 3.387640 
# 
# 
# High freq. dielectric constant tensor:
#      x y z
#    x 1.793480 0.000000 0.000000 
#    y 0.000000 1.786040 0.000000 
#    z 0.000000 0.000000 1.763030 
# 
# From -- ./inp_files/9326.got.cif
#   From: 2010.06.25/outbox.cif.g09.slc.cpg/sg58_5_cif.got.tgz:9326.got - 2010.06.26 21:38:00.
