data_PCOD8238576
_publ_section_title
;
Structure prediction by ZEFSAII (Michael W. Deem and Ramdas Pophale) SiO2 
 PCOD8238576
Probable space group: P N N M
;
_chemical_formula_sum "Si O2"
_cell_formula_units_Z 64
_cell_length_a 11.396424
_cell_length_b 18.219368
_cell_length_c 14.984828
_cell_angle_alpha 90.000000
_cell_angle_beta 90.000000
_cell_angle_gamma 90.000000
_cell_volume 3111.384393
_symmetry_space_group_name_H-M "P N N M"
_symmetry_group_IT_number 58
_symmetry_cell_setting 'orthorhombic'
loop_
_space_group_symop_operation_xyz
x,y,z
-x,-y,z
1/2+x,1/2-y,1/2-z
1/2-x,1/2+y,1/2-z
-x,-y,-z
x,y,-z
1/2-x,1/2+y,1/2+z
1/2+x,1/2-y,1/2+z
loop_
_atom_site_type_symbol
_atom_site_label
_atom_site_fract_x
_atom_site_fract_y
_atom_site_fract_z
Si Si1 0.214104 0.079084 0.254258
Si Si2 0.602761 0.315081 0.899473
Si Si3 0.352196 0.290072 0.167580
Si Si4 0.661089 0.580375 0.697287
Si Si5 0.550307 0.853103 0.752319
Si Si6 0.564957 0.373362 0.601448
Si Si7 0.368080 0.849810 0.102869
Si Si8 0.096867 0.290953 0.098573
O O1 0.144097 0.121798 0.332081
O O2 0.353712 0.084957 0.270769
O O3 0.183365 0.113495 0.157677
O O4 0.179393 0.994281 0.252093
O O5 0.462274 0.305794 0.896608
O O6 0.660119 0.236008 0.873251
O O7 0.639344 0.337510 0.000000
O O8 0.329123 0.358940 0.228576
O O9 0.378050 0.221394 0.231341
O O10 0.235494 0.277413 0.110215
O O11 0.537063 0.578736 0.646915
O O12 0.758751 0.597266 0.622381
O O13 0.478384 0.877442 0.839443
O O14 0.459564 0.845577 0.670318
O O15 0.585299 0.399650 0.500000
O O16 0.531819 0.287589 0.605915
O O17 0.403802 0.856685 0.000000
O O18 0.075460 0.324152 0.000000
#
# Coordination Sequence:
#
# PCOD8238576 Si02
#       8
#     8   8   8   8   8   8   8   8
#     4  12  25  40  60  92 131 173 203 257 318 381
#     4  10  22  41  67  94 122 160 213 268 315 370
#     4  11  20  40  66  90 120 164 208 266 308 371
#     4  12  23  39  63  88 128 168 211 250 319 377
#     4  11  22  40  64  90 128 164 209 263 314 373
#     4  11  23  39  62  93 126 163 206 260 320 382
#     4  10  22  41  67  93 120 163 216 267 314 368
#     4  11  22  39  68  98 123 160 213 269 320 369
#
# _framework density 20.569621999999999
#
# number of rings (size 3 to 8) (size 9 to 14) (size 15 to 20)
#    0.000    1.000    5.000    2.625    0.000    3.500 
#    0.000    2.500    0.000    0.750    0.000    0.000 
#    0.000    0.000    0.000    0.000    0.000    0.000 
#
# Total GULP energy -793708.770356 kJ/mol
# GULP energy per Si atom -12401.699537 kJ/mol
# Density = 2.052280 g / cm^3
# Si number density = 20.569622 Si / 1000 Ang^3
#
#
#
# Elastic Constant Matrix: (Units=GPa)
#
#
# Indices 1 2 3 4 5 6 
#
# 1 107.4418 22.2930 35.8088 0.0000 0.0000 0.0000
# 2 22.2930 50.0338 23.8119 0.0000 0.0000 0.0000
# 3 35.8088 23.8119 100.4719 0.0000 0.0000 0.0000
# 4 0.0000 0.0000 0.0000 22.5594 0.0000 0.0000
# 5 0.0000 0.0000 0.0000 0.0000 20.6648 0.0000
# 6 0.0000 0.0000 0.0000 0.0000 0.0000 21.5243
#
#
#
# Elastic Compliance Matrix: (Units=1/GPa)
#
#
# Indices 1 2 3 4 5 6 
#
# 1 0.011064 -0.003441 -0.003128 0.000000 0.000000 0.000000
# 2 -0.003441 0.023598 -0.004366 0.000000 0.000000 0.000000
# 3 -0.003128 -0.004366 0.012103 0.000000 0.000000 0.000000
# 4 0.000000 0.000000 0.000000 0.044327 0.000000 0.000000
# 5 0.000000 0.000000 0.000000 0.000000 0.048391 0.000000
# 6 0.000000 0.000000 0.000000 0.000000 0.000000 0.046459
#
#
# Mechanical properties :
#
#
# Convention : Reuss Voigt Hill
#
# Bulk Modulus (GPa) = 40.17023 46.86385 43.51704
# Shear Modulus (GPa) = 23.13639 24.68530 23.91084
#
# Velocity S-wave (km/s) = 3.35742 3.46798 3.41315
# Velocity P-wave (km/s) = 5.88226 6.23445 6.06091
#
# Compressibility (1/GPa) = 0.02489406
#
# Stress axis : x y z
#
# Youngs Moduli (GPa) = 90.38532 42.37713 82.62723
#
# Poissons Ratio (x) = 0.14582 0.25843
# Poissons Ratio (y) = 0.31102 0.36077
# Poissons Ratio (z) = 0.28269 0.18503
#
# Static dielectric constant tensor:
#      x y z
#    x 3.904210 0.000000 0.000000 
#    y 0.000000 3.549070 0.000000 
#    z 0.000000 0.000000 3.748210 
# 
# 
# High freq. dielectric constant tensor:
#      x y z
#    x 1.810230 0.000000 0.000000 
#    y 0.000000 1.780470 0.000000 
#    z 0.000000 0.000000 1.806810 
# 
# From -- ./inp_files/21510.got.cif
#   From: 2010.06.25/outbox.cif.g09.slc.cpg/sg58_11_cif.got.tgz:21510.got - 2010.06.26 21:38:00.
