data_PCOD8238784
_publ_section_title
;
Structure prediction by ZEFSAII (Michael W. Deem and Ramdas Pophale) SiO2 
 PCOD8238784
Probable space group: P N N M
;
_chemical_formula_sum "Si O2"
_cell_formula_units_Z 56
_cell_length_a 21.038022
_cell_length_b 8.631156
_cell_length_c 14.599121
_cell_angle_alpha 90.000000
_cell_angle_beta 90.000000
_cell_angle_gamma 90.000000
_cell_volume 2650.944156
_symmetry_space_group_name_H-M "P N N M"
_symmetry_group_IT_number 58
_symmetry_cell_setting 'orthorhombic'
loop_
_space_group_symop_operation_xyz
x,y,z
-x,-y,z
1/2+x,1/2-y,1/2-z
1/2-x,1/2+y,1/2-z
-x,-y,-z
x,y,-z
1/2-x,1/2+y,1/2+z
1/2+x,1/2-y,1/2+z
loop_
_atom_site_type_symbol
_atom_site_label
_atom_site_fract_x
_atom_site_fract_y
_atom_site_fract_z
Si Si1 0.122184 0.414216 0.744182
Si Si2 0.068025 0.925936 0.151517
Si Si3 0.064729 0.591386 0.901904
Si Si4 0.164730 0.181612 0.101051
Si Si5 0.091071 0.882308 0.354670
Si Si6 0.950211 0.782949 0.602133
Si Si7 0.811363 0.381509 0.398596
O O1 0.102553 0.555125 0.809711
O O2 0.148713 0.287587 0.813119
O O3 0.066966 0.339534 0.681674
O O4 0.172335 0.485988 0.674399
O O5 0.054062 0.774732 0.091588
O O6 0.099357 0.879024 0.246660
O O7 0.117541 0.035188 0.099272
O O8 0.000000 0.000000 0.172043
O O9 0.000000 0.500000 0.892410
O O10 0.096863 0.543412 0.000000
O O11 0.237234 0.139906 0.116690
O O12 0.156875 0.260362 0.000000
O O13 0.149822 0.780429 0.391593
O O14 0.025021 0.809559 0.387771
O O15 0.092164 0.060729 0.388686
O O16 0.937745 0.715374 0.500000
O O17 0.824081 0.448524 0.500000
#
# Coordination Sequence:
#
# PCOD8238784 Si02
#       7
#     8   8   8   8   8   8   8
#     4  12  24  40  66  92 133 168 217 270 327 387
#     4  12  22  43  72  97 129 170 217 272 331 398
#     4  11  24  40  63  98 133 167 214 274 335 391
#     4  11  26  46  66  94 130 176 226 269 325 397
#     4  11  20  41  65  93 132 169 216 269 329 389
#     4  11  22  38  66 100 132 169 216 271 333 398
#     4  11  26  44  65  94 132 175 223 274 327 393
#
# _framework density 21.124549999999999
#
# number of rings (size 3 to 8) (size 9 to 14) (size 15 to 20)
#    0.000    0.714    4.286    4.714    2.000    2.286 
#    0.000    1.429    0.000    6.857    0.000    0.000 
#    0.000    0.000    0.000    0.000    0.000    0.000 
#
# Total GULP energy -693965.537303 kJ/mol
# GULP energy per Si atom -12392.241738 kJ/mol
# Density = 2.107647 g / cm^3
# Si number density = 21.124550 Si / 1000 Ang^3
#
#
#
# Elastic Constant Matrix: (Units=GPa)
#
#
# Indices 1 2 3 4 5 6 
#
# 1 92.3875 36.3948 31.2485 0.0000 0.0000 0.0000
# 2 36.3948 99.4896 31.4921 0.0000 0.0000 0.0000
# 3 31.2485 31.4921 172.3941 0.0000 0.0000 0.0000
# 4 0.0000 0.0000 0.0000 -23.1832 0.0000 0.0000
# 5 0.0000 0.0000 0.0000 0.0000 216.0909 0.0000
# 6 0.0000 0.0000 0.0000 0.0000 0.0000 18.6292
#
#
#
# Elastic Compliance Matrix: (Units=1/GPa)
#
#
# Indices 1 2 3 4 5 6 
#
# 1 0.013042 -0.004269 -0.001584 0.000000 0.000000 0.000000
# 2 -0.004269 0.012066 -0.001430 0.000000 0.000000 0.000000
# 3 -0.001584 -0.001430 0.006349 0.000000 0.000000 0.000000
# 4 0.000000 0.000000 0.000000 -0.043135 0.000000 0.000000
# 5 0.000000 0.000000 0.000000 0.000000 0.004628 0.000000
# 6 0.000000 0.000000 0.000000 0.000000 0.000000 0.053679
#
#
# Mechanical properties :
#
#
# Convention : Reuss Voigt Hill
#
# Bulk Modulus (GPa) = 59.20966 62.50465 60.85716
# Shear Modulus (GPa) = 74.82161 59.98311 67.40236
#
# Velocity S-wave (km/s) = 5.95787 5.33447 5.65477
# Velocity P-wave (km/s) = 8.68435 8.22162 8.45615
#
# Compressibility (1/GPa) = 0.01688913
#
# Stress axis : x y z
#
# Youngs Moduli (GPa) = 76.67761 82.87858 157.50365
#
# Poissons Ratio (x) = 0.35384 0.24949
# Poissons Ratio (y) = 0.32737 0.22527
# Poissons Ratio (z) = 0.12146 0.11854
#
# Static dielectric constant tensor:
#      x y z
#    x 3.337110 0.000000 0.000000 
#    y 0.000000 3.844700 0.000000 
#    z 0.000000 0.000000 4.308950 
# 
# 
# High freq. dielectric constant tensor:
#      x y z
#    x 1.804010 0.000000 0.000000 
#    y 0.000000 1.827150 0.000000 
#    z 0.000000 0.000000 1.865080 
# 
# From -- ./inp_files/23237.got.cif
#   From: 2010.06.25/outbox.cif.g09.slc.cpg/sg58_12_cif.got.tgz:23237.got - 2010.06.26 21:38:00.
