data_PCOD8238444
_publ_section_title
;
Structure prediction by ZEFSAII (Michael W. Deem and Ramdas Pophale) SiO2 
 PCOD8238444
Probable space group: P N N M
;
_chemical_formula_sum "Si O2"
_cell_formula_units_Z 48
_cell_length_a 11.778930
_cell_length_b 23.173341
_cell_length_c 8.840072
_cell_angle_alpha 90.000000
_cell_angle_beta 90.000000
_cell_angle_gamma 90.000000
_cell_volume 2412.960961
_symmetry_space_group_name_H-M "P N N M"
_symmetry_group_IT_number 58
_symmetry_cell_setting 'orthorhombic'
loop_
_space_group_symop_operation_xyz
x,y,z
-x,-y,z
1/2+x,1/2-y,1/2-z
1/2-x,1/2+y,1/2-z
-x,-y,-z
x,y,-z
1/2-x,1/2+y,1/2+z
1/2+x,1/2-y,1/2+z
loop_
_atom_site_type_symbol
_atom_site_label
_atom_site_fract_x
_atom_site_fract_y
_atom_site_fract_z
Si Si1 0.416611 0.841478 0.333277
Si Si2 0.186623 0.851790 0.822422
Si Si3 0.372013 0.225711 0.320082
Si Si4 0.992416 0.066380 0.679464
Si Si5 0.273346 0.619454 0.818939
Si Si6 0.571802 0.951097 0.333358
O O1 0.366881 0.825086 0.500000
O O2 0.319287 0.856400 0.214338
O O3 0.500372 0.791599 0.268496
O O4 0.495447 0.895845 0.352785
O O5 0.147743 0.789774 0.756324
O O6 0.120099 0.904061 0.744346
O O7 0.166982 0.856403 0.000000
O O8 0.365442 0.224984 0.500000
O O9 0.273177 0.181671 0.259128
O O10 0.985366 0.067634 0.500000
O O11 0.100410 0.103987 0.738347
O O12 0.000000 0.000000 0.736334
O O13 0.189864 0.568589 0.755055
O O14 0.267469 0.618467 0.000000
O O15 0.601493 0.976796 0.500000
O O16 0.500000 0.000000 0.241501
#
# Coordination Sequence:
#
# PCOD8238444 Si02
#       6
#     8   8   8   8   8   8
#     4   9  18  34  55  79 105 134 180 229 265 316
#     4  11  23  36  54  79 113 150 179 219 281 340
#     4   8  17  34  54  79 107 140 179 222 275 330
#     4  10  22  37  57  84 110 143 192 237 271 322
#     4   8  15  30  51  77 108 136 171 224 274 316
#     4   8  14  25  50  81 103 126 163 219 274 310
#
# _framework density 19.892571
#
# number of rings (size 3 to 8) (size 9 to 14) (size 15 to 20)
#    0.000    3.000    0.000    2.500    4.667    0.333 
#    0.000    0.833    0.000    4.500    0.000    0.000 
#    0.000    0.000    0.000    0.000    0.000    0.000 
#
# Total GULP energy -594678.086229 kJ/mol
# GULP energy per Si atom -12389.126796 kJ/mol
# Density = 1.984729 g / cm^3
# Si number density = 19.892571 Si / 1000 Ang^3
#
#
#
# Elastic Constant Matrix: (Units=GPa)
#
#
# Indices 1 2 3 4 5 6 
#
# 1 108.4238 27.9077 16.3541 0.0000 0.0000 0.0000
# 2 27.9077 69.0665 16.6656 0.0000 0.0000 0.0000
# 3 16.3541 16.6656 18.0586 0.0000 0.0000 0.0000
# 4 0.0000 0.0000 0.0000 17.2631 0.0000 0.0000
# 5 0.0000 0.0000 0.0000 0.0000 -36.6615 0.0000
# 6 0.0000 0.0000 0.0000 0.0000 0.0000 9.9250
#
#
#
# Elastic Compliance Matrix: (Units=1/GPa)
#
#
# Indices 1 2 3 4 5 6 
#
# 1 0.011043 -0.002636 -0.007568 0.000000 0.000000 0.000000
# 2 -0.002636 0.019256 -0.015383 0.000000 0.000000 0.000000
# 3 -0.007568 -0.015383 0.076426 0.000000 0.000000 0.000000
# 4 0.000000 0.000000 0.000000 0.057927 0.000000 0.000000
# 5 0.000000 0.000000 0.000000 0.000000 -0.027277 0.000000
# 6 0.000000 0.000000 0.000000 0.000000 0.000000 0.100756
#
#
# Mechanical properties :
#
#
# Convention : Reuss Voigt Hill
#
# Bulk Modulus (GPa) = 18.00187 35.26707 26.63447
# Shear Modulus (GPa) = 16.24313 7.08008 11.66161
#
# Velocity S-wave (km/s) = 2.86062 1.88862 2.42384
# Velocity P-wave (km/s) = 4.46991 4.74585 4.60994
#
# Compressibility (1/GPa) = 0.05554978
#
# Stress axis : x y z
#
# Youngs Moduli (GPa) = 90.55426 51.93207 13.08460
#
# Poissons Ratio (x) = 0.13689 0.09903
# Poissons Ratio (y) = 0.23870 0.20129
# Poissons Ratio (z) = 0.68532 0.79889
#
# Static dielectric constant tensor:
#      x y z
#    x 4.093870 0.000000 0.000000 
#    y 0.000000 3.945890 0.000000 
#    z 0.000000 0.000000 3.005610 
# 
# 
# High freq. dielectric constant tensor:
#      x y z
#    x 1.784380 0.000000 0.000000 
#    y 0.000000 1.784720 0.000000 
#    z 0.000000 0.000000 1.707780 
# 
# From -- ./inp_files/4229.got.cif
#   From: 2010.06.25/outbox.cif.g09.slc.cpg/sg58_3_cif.got.tgz:4229.got - 2010.06.26 21:38:00.
