data_PCOD8238045
_publ_section_title
;
Structure prediction by ZEFSAII (Michael W. Deem and Ramdas Pophale) SiO2 
 PCOD8238045
Probable space group: P N N M
;
_chemical_formula_sum "Si O2"
_cell_formula_units_Z 56
_cell_length_a 21.166304
_cell_length_b 15.106095
_cell_length_c 9.071782
_cell_angle_alpha 90.000000
_cell_angle_beta 90.000000
_cell_angle_gamma 90.000000
_cell_volume 2900.613382
_symmetry_space_group_name_H-M "P N N M"
_symmetry_group_IT_number 58
_symmetry_cell_setting 'orthorhombic'
loop_
_space_group_symop_operation_xyz
x,y,z
-x,-y,z
1/2+x,1/2-y,1/2-z
1/2-x,1/2+y,1/2-z
-x,-y,-z
x,y,-z
1/2-x,1/2+y,1/2+z
1/2+x,1/2-y,1/2+z
loop_
_atom_site_type_symbol
_atom_site_label
_atom_site_fract_x
_atom_site_fract_y
_atom_site_fract_z
Si Si1 0.740905 0.730294 0.674643
Si Si2 0.101274 0.715293 0.826573
Si Si3 0.472235 0.359219 0.833417
Si Si4 0.096809 0.041174 0.667342
Si Si5 0.931628 0.467536 0.673310
Si Si6 0.195128 0.447130 0.672679
Si Si7 0.715470 0.400134 0.327236
O O1 0.747283 0.733455 0.500000
O O2 0.668059 0.741891 0.724184
O O3 0.771703 0.640145 0.741248
O O4 0.782208 0.808615 0.741044
O O5 0.046009 0.781534 0.778012
O O6 0.090045 0.621222 0.752441
O O7 0.098869 0.701459 0.000000
O O8 0.545871 0.380748 0.812717
O O9 0.432908 0.446618 0.797737
O O10 0.458936 0.327087 0.000000
O O11 0.123462 0.043859 0.500000
O O12 0.149827 0.053353 0.789590
O O13 0.934176 0.447612 0.500000
O O14 0.879705 0.544303 0.709024
O O15 0.000000 0.500000 0.731165
O O16 0.207079 0.441942 0.500000
O O17 0.229018 0.535732 0.731853
O O18 0.720779 0.382021 0.500000
#
# Coordination Sequence:
#
# PCOD8238045 Si02
#       7
#     8   8   8   8   8   8   8
#     4  10  21  37  57  81 112 154 195 237 293 350
#     4  11  22  36  57  85 118 152 191 243 299 353
#     4   9  19  36  58  81 111 152 194 232 279 345
#     4   9  19  36  56  82 114 149 190 237 284 340
#     4  10  21  39  62  83 109 153 204 246 291 351
#     4   9  19  37  58  81 113 149 194 244 289 344
#     4  11  21  35  57  84 115 149 185 238 292 343
#
# _framework density 19.306262
#
# number of rings (size 3 to 8) (size 9 to 14) (size 15 to 20)
#    0.000    2.143    1.429    2.571    0.000    4.286 
#    0.000    6.429    0.000    0.000    0.000    0.000 
#    0.000    0.000    0.000    0.000    0.000    0.000 
#
# Total GULP energy -694378.766523 kJ/mol
# GULP energy per Si atom -12399.620831 kJ/mol
# Density = 1.926232 g / cm^3
# Si number density = 19.306262 Si / 1000 Ang^3
#
#
#
# Elastic Constant Matrix: (Units=GPa)
#
#
# Indices 1 2 3 4 5 6 
#
# 1 118.6023 52.6064 31.0538 0.0000 0.0000 0.0000
# 2 52.6064 118.8333 30.0382 0.0000 0.0000 0.0000
# 3 31.0538 30.0382 36.2560 0.0000 0.0000 0.0000
# 4 0.0000 0.0000 0.0000 29.9031 0.0000 0.0000
# 5 0.0000 0.0000 0.0000 0.0000 25.3723 0.0000
# 6 0.0000 0.0000 0.0000 0.0000 0.0000 29.8505
#
#
#
# Elastic Compliance Matrix: (Units=1/GPa)
#
#
# Indices 1 2 3 4 5 6 
#
# 1 0.011860 -0.003393 -0.007347 0.000000 0.000000 0.000000
# 2 -0.003393 0.011615 -0.006717 0.000000 0.000000 0.000000
# 3 -0.007347 -0.006717 0.039440 0.000000 0.000000 0.000000
# 4 0.000000 0.000000 0.000000 0.033441 0.000000 0.000000
# 5 0.000000 0.000000 0.000000 0.000000 0.039413 0.000000
# 6 0.000000 0.000000 0.000000 0.000000 0.000000 0.033500
#
#
# Mechanical properties :
#
#
# Convention : Reuss Voigt Hill
#
# Bulk Modulus (GPa) = 35.71372 55.67650 45.69511
# Shear Modulus (GPa) = 23.41722 27.69139 25.55430
#
# Velocity S-wave (km/s) = 3.48650 3.79135 3.64212
# Velocity P-wave (km/s) = 5.89459 6.93304 6.43480
#
# Compressibility (1/GPa) = 0.02800044
#
# Stress axis : x y z
#
# Youngs Moduli (GPa) = 84.31436 86.09427 25.35522
#
# Poissons Ratio (x) = 0.29214 0.18629
# Poissons Ratio (y) = 0.28610 0.17031
# Poissons Ratio (z) = 0.61948 0.57828
#
# Static dielectric constant tensor:
#      x y z
#    x 3.680800 0.000000 0.000000 
#    y 0.000000 3.565670 0.000000 
#    z 0.000000 0.000000 3.276060 
# 
# 
# High freq. dielectric constant tensor:
#      x y z
#    x 1.757560 0.000000 0.000000 
#    y 0.000000 1.754680 0.000000 
#    z 0.000000 0.000000 1.729990 
# 
# From -- ./inp_files/8976.got.cif
#   From: 2010.06.25/outbox.cif.g09.slc.cpg/sg58_5_cif.got.tgz:8976.got - 2010.06.26 21:38:00.
