data_PCOD8238297
_publ_section_title
;
Structure prediction by ZEFSAII (Michael W. Deem and Ramdas Pophale) SiO2 
 PCOD8238297
Probable space group: P N N M
;
_chemical_formula_sum "Si O2"
_cell_formula_units_Z 64
_cell_length_a 14.870444
_cell_length_b 23.437230
_cell_length_c 9.175718
_cell_angle_alpha 90.000000
_cell_angle_beta 90.000000
_cell_angle_gamma 90.000000
_cell_volume 3197.939738
_symmetry_space_group_name_H-M "P N N M"
_symmetry_group_IT_number 58
_symmetry_cell_setting 'orthorhombic'
loop_
_space_group_symop_operation_xyz
x,y,z
-x,-y,z
1/2+x,1/2-y,1/2-z
1/2-x,1/2+y,1/2-z
-x,-y,-z
x,y,-z
1/2-x,1/2+y,1/2+z
1/2+x,1/2-y,1/2+z
loop_
_atom_site_type_symbol
_atom_site_label
_atom_site_fract_x
_atom_site_fract_y
_atom_site_fract_z
Si Si1 0.566900 0.219992 0.329640
Si Si2 0.896079 0.012147 0.666758
Si Si3 0.754009 0.420966 0.829025
Si Si4 0.654700 0.122221 0.162026
Si Si5 0.903670 0.232225 0.668505
Si Si6 0.273565 0.696551 0.667685
Si Si7 0.140099 0.875358 0.837025
Si Si8 0.396488 0.003727 0.170145
O O1 0.547522 0.218072 0.500000
O O2 0.603664 0.158671 0.282224
O O3 0.474666 0.226746 0.244131
O O4 0.634984 0.270961 0.289023
O O5 0.879445 0.030724 0.500000
O O6 0.867118 0.062089 0.772583
O O7 0.835449 0.957402 0.706481
O O8 0.000000 0.000000 0.695880
O O9 0.737318 0.357947 0.769119
O O10 0.843345 0.447453 0.756955
O O11 0.771851 0.416944 0.000000
O O12 0.756651 0.142909 0.159473
O O13 0.650191 0.056195 0.207339
O O14 0.612003 0.130478 0.000000
O O15 0.927424 0.225813 0.500000
O O16 0.806178 0.258809 0.694469
O O17 0.913094 0.169796 0.739204
O O18 0.275320 0.676502 0.500000
O O19 0.099205 0.874820 0.000000
O O20 0.500000 0.000000 0.221410
O O21 0.390437 0.019213 0.000000
#
# Coordination Sequence:
#
# PCOD8238297 Si02
#       8
#     8   8   8   8   8   8   8   8
#     4  11  24  42  64  94 125 160 206 257 307 362
#     4  10  23  42  62  89 124 164 206 249 306 370
#     4  11  24  40  62  91 124 160 203 255 307 357
#     4  10  21  39  63  91 122 161 206 254 306 362
#     4  11  24  43  65  90 123 166 206 249 310 370
#     4  10  24  44  63  85 123 167 204 245 305 370
#     4  11  22  39  65  94 122 157 207 261 307 359
#     4  10  22  41  64  89 122 164 207 247 301 370
#
# _framework density 20.012885000000001
#
# number of rings (size 3 to 8) (size 9 to 14) (size 15 to 20)
#    0.000    1.500    2.500    1.500    3.500    4.000 
#    0.000    0.000    0.000    0.000    0.000    0.000 
#    0.000    0.000    0.000    0.000    0.000    0.000 
#
# Total GULP energy -793887.582022 kJ/mol
# GULP energy per Si atom -12404.493469 kJ/mol
# Density = 1.996733 g / cm^3
# Si number density = 20.012885 Si / 1000 Ang^3
#
#
#
# Elastic Constant Matrix: (Units=GPa)
#
#
# Indices 1 2 3 4 5 6 
#
# 1 61.8382 -7.8726 28.1022 0.0000 0.0000 0.0000
# 2 -7.8726 76.5052 46.6245 0.0000 0.0000 0.0000
# 3 28.1022 46.6245 110.3547 0.0000 0.0000 0.0000
# 4 0.0000 0.0000 0.0000 39.4187 0.0000 0.0000
# 5 0.0000 0.0000 0.0000 0.0000 28.9903 0.0000
# 6 0.0000 0.0000 0.0000 0.0000 0.0000 27.3184
#
#
#
# Elastic Compliance Matrix: (Units=1/GPa)
#
#
# Indices 1 2 3 4 5 6 
#
# 1 0.020912 0.007269 -0.008397 0.000000 0.000000 0.000000
# 2 0.007269 0.020130 -0.010356 0.000000 0.000000 0.000000
# 3 -0.008397 -0.010356 0.015575 0.000000 0.000000 0.000000
# 4 0.000000 0.000000 0.000000 0.025369 0.000000 0.000000
# 5 0.000000 0.000000 0.000000 0.000000 0.034494 0.000000
# 6 0.000000 0.000000 0.000000 0.000000 0.000000 0.036605
#
#
# Mechanical properties :
#
#
# Convention : Reuss Voigt Hill
#
# Bulk Modulus (GPa) = 29.71688 42.48959 36.10323
# Shear Modulus (GPa) = 26.69933 31.26842 28.98387
#
# Velocity S-wave (km/s) = 3.65651 3.95703 3.80973
# Velocity P-wave (km/s) = 5.71908 6.49266 6.11811
#
# Compressibility (1/GPa) = 0.03365091
#
# Stress axis : x y z
#
# Youngs Moduli (GPa) = 47.81838 49.67627 64.20408
#
# Poissons Ratio (x) = -0.36110 0.53910
# Poissons Ratio (y) = -0.34760 0.66490
# Poissons Ratio (z) = 0.40151 0.51445
#
# Static dielectric constant tensor:
#      x y z
#    x 3.736470 0.000000 0.000000 
#    y 0.000000 3.520950 0.000000 
#    z 0.000000 0.000000 3.673510 
# 
# 
# High freq. dielectric constant tensor:
#      x y z
#    x 1.785840 0.000000 0.000000 
#    y 0.000000 1.785030 0.000000 
#    z 0.000000 0.000000 1.785370 
# 
# From -- ./inp_files/6811.got.cif
#   From: 2010.06.25/outbox.cif.g09.slc.cpg/sg58_4_cif.got.tgz:6811.got - 2010.06.26 21:38:00.
