data_PCOD8238817
_publ_section_title
;
Structure prediction by ZEFSAII (Michael W. Deem and Ramdas Pophale) SiO2 
 PCOD8238817
Probable space group: P N N M
;
_chemical_formula_sum "Si O2"
_cell_formula_units_Z 48
_cell_length_a 10.180294
_cell_length_b 28.258533
_cell_length_c 8.269766
_cell_angle_alpha 90.000000
_cell_angle_beta 90.000000
_cell_angle_gamma 90.000000
_cell_volume 2379.047721
_symmetry_space_group_name_H-M "P N N M"
_symmetry_group_IT_number 58
_symmetry_cell_setting 'orthorhombic'
loop_
_space_group_symop_operation_xyz
x,y,z
-x,-y,z
1/2+x,1/2-y,1/2-z
1/2-x,1/2+y,1/2-z
-x,-y,-z
x,y,-z
1/2-x,1/2+y,1/2+z
1/2+x,1/2-y,1/2+z
loop_
_atom_site_type_symbol
_atom_site_label
_atom_site_fract_x
_atom_site_fract_y
_atom_site_fract_z
Si Si1 0.232132 0.351990 0.308310
Si Si2 0.646638 0.448793 0.308207
Si Si3 0.987398 0.197597 0.313588
Si Si4 0.240979 0.149425 0.187293
Si Si5 0.513293 0.799231 0.684469
Si Si6 0.352369 0.448069 0.308032
O O1 0.219199 0.350044 0.500000
O O2 0.344592 0.316019 0.252355
O O3 0.095249 0.337913 0.228749
O O4 0.262721 0.405155 0.243883
O O5 0.636333 0.447301 0.500000
O O6 0.738559 0.405384 0.251429
O O7 0.499569 0.441741 0.238224
O O8 0.702950 0.500206 0.252142
O O9 0.002563 0.183286 0.500000
O O10 0.096500 0.171111 0.208159
O O11 0.003994 0.253870 0.297944
O O12 0.344062 0.177702 0.294448
O O13 0.282067 0.152896 0.000000
O O14 0.497628 0.782937 0.500000
O O15 0.356829 0.445768 0.500000
#
# Coordination Sequence:
#
# PCOD8238817 Si02
#       6
#     8   8   8   8   8   8
#     4  11  21  38  62  89 117 151 193 239 285 337
#     4   8  14  28  55  89 117 143 183 234 280 329
#     4  12  24  40  61  86 115 151 194 239 287 344
#     4  11  21  38  62  89 117 151 193 239 285 337
#     4  12  26  42  57  80 117 157 194 239 291 346
#     4   8  14  28  55  89 117 143 183 234 280 329
#
# _framework density 20.17614
#
# number of rings (size 3 to 8) (size 9 to 14) (size 15 to 20)
#    0.000    1.667    1.667    6.000    0.000    0.000 
#    0.000    0.833    0.000   10.000    0.000    0.000 
#    0.000    0.000    0.000    0.000    0.000    0.000 
#
# Total GULP energy -595163.126853 kJ/mol
# GULP energy per Si atom -12399.231809 kJ/mol
# Density = 2.013022 g / cm^3
# Si number density = 20.176140 Si / 1000 Ang^3
#
#
#
# Elastic Constant Matrix: (Units=GPa)
#
#
# Indices 1 2 3 4 5 6 
#
# 1 58.4058 28.7721 17.4926 0.0000 0.0000 0.0000
# 2 28.7721 134.2872 8.9633 0.0000 0.0000 0.0000
# 3 17.4926 8.9633 53.1929 0.0000 0.0000 0.0000
# 4 0.0000 0.0000 0.0000 15.7636 0.0000 0.0000
# 5 0.0000 0.0000 0.0000 0.0000 28.9276 0.0000
# 6 0.0000 0.0000 0.0000 0.0000 0.0000 18.5986
#
#
#
# Elastic Compliance Matrix: (Units=1/GPa)
#
#
# Indices 1 2 3 4 5 6 
#
# 1 0.020995 -0.004083 -0.006216 0.000000 0.000000 0.000000
# 2 -0.004083 0.008326 -0.000060 0.000000 0.000000 0.000000
# 3 -0.006216 -0.000060 0.020854 0.000000 0.000000 0.000000
# 4 0.000000 0.000000 0.000000 0.063437 0.000000 0.000000
# 5 0.000000 0.000000 0.000000 0.000000 0.034569 0.000000
# 6 0.000000 0.000000 0.000000 0.000000 0.000000 0.053768
#
#
# Mechanical properties :
#
#
# Convention : Reuss Voigt Hill
#
# Bulk Modulus (GPa) = 33.94999 39.59355 36.77177
# Shear Modulus (GPa) = 21.50669 25.36849 23.43759
#
# Velocity S-wave (km/s) = 3.26843 3.54976 3.41199
# Velocity P-wave (km/s) = 5.57735 6.03884 5.81268
#
# Compressibility (1/GPa) = 0.02945509
#
# Stress axis : x y z
#
# Youngs Moduli (GPa) = 47.63057 120.11092 47.95282
#
# Poissons Ratio (x) = 0.49046 0.29808
# Poissons Ratio (y) = 0.19450 0.00288
# Poissons Ratio (z) = 0.29608 0.00721
#
# Static dielectric constant tensor:
#      x y z
#    x 3.461270 0.000000 0.000000 
#    y 0.000000 4.201540 0.000000 
#    z 0.000000 0.000000 3.322650 
# 
# 
# High freq. dielectric constant tensor:
#      x y z
#    x 1.765460 0.000000 0.000000 
#    y 0.000000 1.808460 0.000000 
#    z 0.000000 0.000000 1.764140 
# 
# From -- ./inp_files/3003.got.cif
#   From: 2010.06.25/outbox.cif.g09.slc.cpg/sg58_2_cif.got.tgz:3003.got - 2010.06.26 21:38:00.
