data_PCOD8238720
_publ_section_title
;
Structure prediction by ZEFSAII (Michael W. Deem and Ramdas Pophale) SiO2 
 PCOD8238720
Probable space group: P N N M
;
_chemical_formula_sum "Si O2"
_cell_formula_units_Z 40
_cell_length_a 8.878811
_cell_length_b 10.779863
_cell_length_c 20.005305
_cell_angle_alpha 90.000000
_cell_angle_beta 90.000000
_cell_angle_gamma 90.000000
_cell_volume 1914.755078
_symmetry_space_group_name_H-M "P N N M"
_symmetry_group_IT_number 58
_symmetry_cell_setting 'orthorhombic'
loop_
_space_group_symop_operation_xyz
x,y,z
-x,-y,z
1/2+x,1/2-y,1/2-z
1/2-x,1/2+y,1/2-z
-x,-y,-z
x,y,-z
1/2-x,1/2+y,1/2+z
1/2+x,1/2-y,1/2+z
loop_
_atom_site_type_symbol
_atom_site_label
_atom_site_fract_x
_atom_site_fract_y
_atom_site_fract_z
Si Si1 0.500000 0.000000 0.230112
Si Si2 0.265844 0.859944 0.857768
Si Si3 0.000000 0.000000 0.213271
Si Si4 0.781027 0.066148 0.000000
Si Si5 0.237709 0.087382 0.314425
Si Si6 0.398964 0.698384 0.500000
Si Si7 0.155585 0.434190 0.073050
O O1 0.400941 0.906514 0.187425
O O2 0.605861 0.914087 0.274887
O O3 0.104859 0.916156 0.834485
O O4 0.264062 0.712457 0.856296
O O5 0.307200 0.897210 0.933285
O O6 0.101598 0.084327 0.261788
O O7 0.935579 0.142457 0.000000
O O8 0.787535 0.917041 0.000000
O O9 0.228328 0.971633 0.367745
O O10 0.370031 0.784538 0.433696
O O11 0.000000 0.500000 0.092250
O O12 0.211512 0.484156 0.000000
#
# Coordination Sequence:
#
# PCOD8238720 Si02
#       7
#     4   8   4   4   8   4   8
#     4  10  24  43  61  94 130 172 202 260 326 378
#     4  11  24  42  64  95 128 165 222 254 320 383
#     4  10  24  43  61  98 128 170 210 258 324 384
#     4  11  22  37  66  88 128 173 208 267 311 367
#     4  11  21  41  68  95 127 167 207 269 321 375
#     4   9  19  36  54  98 124 162 207 263 303 377
#     4   9  18  33  60  95 123 154 210 257 311 369
#
# _framework density 20.8904
#
# number of rings (size 3 to 8) (size 9 to 14) (size 15 to 20)
#    0.600    1.200    1.000    3.600    1.400    0.400 
#   18.000    0.500    0.000    0.000    0.000    0.000 
#    0.000    0.000    0.000    0.000    0.000    0.000 
#
# Total GULP energy -495787.681747 kJ/mol
# GULP energy per Si atom -12394.692044 kJ/mol
# Density = 2.084285 g / cm^3
# Si number density = 20.890400 Si / 1000 Ang^3
#
#
#
# Elastic Constant Matrix: (Units=GPa)
#
#
# Indices 1 2 3 4 5 6 
#
# 1 71.0816 23.0766 30.5176 0.0000 0.0000 0.0000
# 2 23.0766 150.0388 46.2438 0.0000 0.0000 0.0000
# 3 30.5176 46.2438 134.8482 0.0000 0.0000 0.0000
# 4 0.0000 0.0000 0.0000 21.9314 0.0000 0.0000
# 5 0.0000 0.0000 0.0000 0.0000 1.5704 0.0000
# 6 0.0000 0.0000 0.0000 0.0000 0.0000 16.6915
#
#
#
# Elastic Compliance Matrix: (Units=1/GPa)
#
#
# Indices 1 2 3 4 5 6 
#
# 1 0.015876 -0.001492 -0.003081 0.000000 0.000000 0.000000
# 2 -0.001492 0.007593 -0.002266 0.000000 0.000000 0.000000
# 3 -0.003081 -0.002266 0.008890 0.000000 0.000000 0.000000
# 4 0.000000 0.000000 0.000000 0.045597 0.000000 0.000000
# 5 0.000000 0.000000 0.000000 0.000000 0.636796 0.000000
# 6 0.000000 0.000000 0.000000 0.000000 0.000000 0.059911
#
#
# Mechanical properties :
#
#
# Convention : Reuss Voigt Hill
#
# Bulk Modulus (GPa) = 53.53355 61.73828 57.63592
# Shear Modulus (GPa) = 6.29273 25.11404 15.70339
#
# Velocity S-wave (km/s) = 1.73747 3.47101 2.74470
# Velocity P-wave (km/s) = 5.45038 6.75881 6.13955
#
# Compressibility (1/GPa) = 0.01867987
#
# Stress axis : x y z
#
# Youngs Moduli (GPa) = 62.98987 131.70211 112.48366
#
# Poissons Ratio (x) = 0.19651 0.34658
# Poissons Ratio (y) = 0.09399 0.25491
# Poissons Ratio (z) = 0.19408 0.29846
#
# Static dielectric constant tensor:
#      x y z
#    x 3.642970 0.000000 0.000000 
#    y 0.000000 3.675950 0.000000 
#    z 0.000000 0.000000 3.942770 
# 
# 
# High freq. dielectric constant tensor:
#      x y z
#    x 1.789550 0.000000 0.000000 
#    y 0.000000 1.816080 0.000000 
#    z 0.000000 0.000000 1.832400 
# 
# From -- ./inp_files/28774.got.cif
#   From: 2010.06.25/outbox.cif.g09.slc.cpg/sg58_15_cif.got.tgz:28774.got - 2010.06.26 21:38:00.
