data_PCOD8238866
_publ_section_title
;
Structure prediction by ZEFSAII (Michael W. Deem and Ramdas Pophale) SiO2 
 PCOD8238866
Probable space group: P N N M
;
_chemical_formula_sum "Si O2"
_cell_formula_units_Z 48
_cell_length_a 13.160445
_cell_length_b 9.932453
_cell_length_c 16.628068
_cell_angle_alpha 90.000000
_cell_angle_beta 90.000000
_cell_angle_gamma 90.000000
_cell_volume 2173.546246
_symmetry_space_group_name_H-M "P N N M"
_symmetry_group_IT_number 58
_symmetry_cell_setting 'orthorhombic'
loop_
_space_group_symop_operation_xyz
x,y,z
-x,-y,z
1/2+x,1/2-y,1/2-z
1/2-x,1/2+y,1/2-z
-x,-y,-z
x,y,-z
1/2-x,1/2+y,1/2+z
1/2+x,1/2-y,1/2+z
loop_
_atom_site_type_symbol
_atom_site_label
_atom_site_fract_x
_atom_site_fract_y
_atom_site_fract_z
Si Si1 0.763771 0.464253 0.357557
Si Si2 0.075594 0.379080 0.812290
Si Si3 0.869872 0.726794 0.639056
Si Si4 0.783100 0.004358 0.672154
Si Si5 0.055015 0.127868 0.909827
Si Si6 0.595246 0.734550 0.092740
O O1 0.804088 0.603275 0.397239
O O2 0.720421 0.489874 0.268450
O O3 0.675493 0.397556 0.410056
O O4 0.857534 0.360507 0.358954
O O5 0.107408 0.305872 0.731246
O O6 0.175360 0.436080 0.857771
O O7 0.022688 0.265543 0.866342
O O8 0.000000 0.500000 0.793573
O O9 0.801177 0.859599 0.632129
O O10 0.973937 0.749190 0.591258
O O11 0.873606 0.101289 0.642197
O O12 0.014653 0.143039 0.000000
O O13 0.000000 0.000000 0.867899
O O14 0.632637 0.727368 0.000000
#
# Coordination Sequence:
#
# PCOD8238866 Si02
#       6
#     8   8   8   8   8   8
#     4  11  22  44  69  97 134 182 234 283 340 415
#     4  11  24  42  70  99 134 178 235 290 339 408
#     4  11  24  40  68 102 133 178 236 275 338 426
#     4  11  23  42  67 102 133 181 233 279 343 416
#     4  11  25  43  66  98 133 178 230 291 358 407
#     4  12  26  45  68 101 145 182 224 291 360 412
#
# _framework density 22.083725999999999
#
# number of rings (size 3 to 8) (size 9 to 14) (size 15 to 20)
#    0.000    0.833    3.333    4.500    4.667    3.667 
#    0.000    0.000    0.000    0.000    0.000    0.000 
#    0.000    0.000    0.000    0.000    0.000    0.000 
#
# Total GULP energy -595294.603023 kJ/mol
# GULP energy per Si atom -12401.970896 kJ/mol
# Density = 2.203346 g / cm^3
# Si number density = 22.083726 Si / 1000 Ang^3
#
#
#
# Elastic Constant Matrix: (Units=GPa)
#
#
# Indices 1 2 3 4 5 6 
#
# 1 62.3490 24.8108 8.0161 0.0000 0.0000 0.0000
# 2 24.8108 170.4711 30.5174 0.0000 0.0000 0.0000
# 3 8.0161 30.5174 80.6383 0.0000 0.0000 0.0000
# 4 0.0000 0.0000 0.0000 14.1965 0.0000 0.0000
# 5 0.0000 0.0000 0.0000 0.0000 25.1618 0.0000
# 6 0.0000 0.0000 0.0000 0.0000 0.0000 55.6222
#
#
#
# Elastic Compliance Matrix: (Units=1/GPa)
#
#
# Indices 1 2 3 4 5 6 
#
# 1 0.017074 -0.002340 -0.000812 0.000000 0.000000 0.000000
# 2 -0.002340 0.006613 -0.002270 0.000000 0.000000 0.000000
# 3 -0.000812 -0.002270 0.013341 0.000000 0.000000 0.000000
# 4 0.000000 0.000000 0.000000 0.070440 0.000000 0.000000
# 5 0.000000 0.000000 0.000000 0.000000 0.039743 0.000000
# 6 0.000000 0.000000 0.000000 0.000000 0.000000 0.017978
#
#
# Mechanical properties :
#
#
# Convention : Reuss Voigt Hill
#
# Bulk Modulus (GPa) = 38.19013 48.90521 43.54767
# Shear Modulus (GPa) = 27.06202 35.67037 31.36619
#
# Velocity S-wave (km/s) = 3.50441 4.02336 3.77282
# Velocity P-wave (km/s) = 5.80563 6.61639 6.22423
#
# Compressibility (1/GPa) = 0.02618478
#
# Stress axis : x y z
#
# Youngs Moduli (GPa) = 58.56798 151.21711 74.95764
#
# Poissons Ratio (x) = 0.35380 0.06086
# Poissons Ratio (y) = 0.13703 0.17016
# Poissons Ratio (z) = 0.04755 0.34328
#
# Static dielectric constant tensor:
#      x y z
#    x 4.049440 0.000000 0.000000 
#    y 0.000000 4.365400 0.000000 
#    z 0.000000 0.000000 3.655330 
# 
# 
# High freq. dielectric constant tensor:
#      x y z
#    x 1.869490 0.000000 0.000000 
#    y 0.000000 1.890300 0.000000 
#    z 0.000000 0.000000 1.846680 
# 
# From -- ./inp_files/25293.got.cif
#   From: 2010.06.25/outbox.cif.g09.slc.cpg/sg58_13_cif.got.tgz:25293.got - 2010.06.26 21:38:00.
