data_PCOD8238536
_publ_section_title
;
Structure prediction by ZEFSAII (Michael W. Deem and Ramdas Pophale) SiO2 
 PCOD8238536
Probable space group: P N N M
;
_chemical_formula_sum "Si O2"
_cell_formula_units_Z 56
_cell_length_a 14.211864
_cell_length_b 5.812021
_cell_length_c 30.815115
_cell_angle_alpha 90.000000
_cell_angle_beta 90.000000
_cell_angle_gamma 90.000000
_cell_volume 2545.317776
_symmetry_space_group_name_H-M "P N N M"
_symmetry_group_IT_number 58
_symmetry_cell_setting 'orthorhombic'
loop_
_space_group_symop_operation_xyz
x,y,z
-x,-y,z
1/2+x,1/2-y,1/2-z
1/2-x,1/2+y,1/2-z
-x,-y,-z
x,y,-z
1/2-x,1/2+y,1/2+z
1/2+x,1/2-y,1/2+z
loop_
_atom_site_type_symbol
_atom_site_label
_atom_site_fract_x
_atom_site_fract_y
_atom_site_fract_z
Si Si1 0.751379 0.241146 0.047615
Si Si2 0.400899 0.377461 0.048500
Si Si3 0.914947 0.832275 0.325131
Si Si4 0.399960 0.959976 0.256601
Si Si5 0.719478 0.711143 0.799901
Si Si6 0.340628 0.033242 0.883940
Si Si7 0.030418 0.745402 0.951127
O O1 0.687178 0.459091 0.059686
O O2 0.859551 0.298581 0.048695
O O3 0.739205 0.040959 0.082485
O O4 0.720973 0.151515 0.000000
O O5 0.500000 0.500000 0.048438
O O6 0.407457 0.201316 0.088677
O O7 0.386196 0.268044 0.000000
O O8 0.940835 0.678402 0.284263
O O9 0.903754 0.680028 0.368156
O O10 0.818644 0.962408 0.313392
O O11 0.000000 0.000000 0.335814
O O12 0.328700 0.810410 0.286014
O O13 0.500000 0.000000 0.282326
O O14 0.342630 0.184921 0.239818
O O15 0.713310 0.870006 0.842059
O O16 0.000000 0.500000 0.928156
O O17 0.988375 0.750010 0.000000
O O18 0.000000 0.000000 0.930337
#
# Coordination Sequence:
#
# PCOD8238536 Si02
#       7
#     8   8   8   8   8   8   8
#     4  10  22  40  66  95 130 180 230 283 346 412
#     4  10  23  44  67  96 137 187 238 287 349 418
#     4  11  23  41  65  99 130 170 232 279 339 409
#     4  11  22  41  71  98 129 178 220 275 342 409
#     4  11  23  40  66  99 137 169 223 279 334 416
#     4  11  25  40  65  97 140 179 224 290 345 409
#     4   9  19  36  64  97 123 160 224 293 349 406
#
# _framework density 22.001183999999999
#
# number of rings (size 3 to 8) (size 9 to 14) (size 15 to 20)
#    0.000    1.571    2.857    1.286    2.000    4.000 
#    0.000    2.143    6.286    1.286    0.000    0.000 
#    0.000    0.000    0.000    0.000    0.000    0.000 
#
# Total GULP energy -693800.949404 kJ/mol
# GULP energy per Si atom -12389.302668 kJ/mol
# Density = 2.195111 g / cm^3
# Si number density = 22.001184 Si / 1000 Ang^3
#
#
#
# Elastic Constant Matrix: (Units=GPa)
#
#
# Indices 1 2 3 4 5 6 
#
# 1 150.6067 59.2288 43.5405 0.0000 0.0000 0.0000
# 2 59.2288 129.9412 40.6567 0.0000 0.0000 0.0000
# 3 43.5405 40.6567 97.6568 0.0000 0.0000 0.0000
# 4 0.0000 0.0000 0.0000 79.5227 0.0000 0.0000
# 5 0.0000 0.0000 0.0000 0.0000 -198.3466 0.0000
# 6 0.0000 0.0000 0.0000 0.0000 0.0000 36.8386
#
#
#
# Elastic Compliance Matrix: (Units=1/GPa)
#
#
# Indices 1 2 3 4 5 6 
#
# 1 0.008602 -0.003129 -0.002533 0.000000 0.000000 0.000000
# 2 -0.003129 0.009986 -0.002763 0.000000 0.000000 0.000000
# 3 -0.002533 -0.002763 0.012519 0.000000 0.000000 0.000000
# 4 0.000000 0.000000 0.000000 0.012575 0.000000 0.000000
# 5 0.000000 0.000000 0.000000 0.000000 -0.005042 0.000000
# 6 0.000000 0.000000 0.000000 0.000000 0.000000 0.027145
#
#
# Mechanical properties :
#
#
# Convention : Reuss Voigt Hill
#
# Bulk Modulus (GPa) = 70.12705 73.89521 72.01113
# Shear Modulus (GPa) = 57.21592 -0.74513 28.23539
#
# Velocity S-wave (km/s) = 5.10512 -0.58259 3.58629
# Velocity P-wave (km/s) = 8.16659 5.76258 7.06755
#
# Compressibility (1/GPa) = 0.01425983
#
# Stress axis : x y z
#
# Youngs Moduli (GPa) = 116.24593 100.13805 79.87620
#
# Poissons Ratio (x) = 0.31329 0.20232
# Poissons Ratio (y) = 0.36369 0.22067
# Poissons Ratio (z) = 0.29444 0.27664
#
# Static dielectric constant tensor:
#      x y z
#    x 3.775690 0.000000 0.000000 
#    y 0.000000 4.120210 0.000000 
#    z 0.000000 0.000000 3.977090 
# 
# 
# High freq. dielectric constant tensor:
#      x y z
#    x 1.866140 0.000000 0.000000 
#    y 0.000000 1.871290 0.000000 
#    z 0.000000 0.000000 1.845140 
# 
# From -- ./inp_files/35027.got.cif
#   From: 2010.06.25/outbox.cif.g09.slc.cpg/sg58_18_cif.got.tgz:35027.got - 2010.06.26 21:38:00.
