data_PCOD8238607
_publ_section_title
;
Structure prediction by ZEFSAII (Michael W. Deem and Ramdas Pophale) SiO2 
 PCOD8238607
Probable space group: P N N M
;
_chemical_formula_sum "Si O2"
_cell_formula_units_Z 56
_cell_length_a 13.700497
_cell_length_b 9.342982
_cell_length_c 21.657377
_cell_angle_alpha 90.000000
_cell_angle_beta 90.000000
_cell_angle_gamma 90.000000
_cell_volume 2772.219989
_symmetry_space_group_name_H-M "P N N M"
_symmetry_group_IT_number 58
_symmetry_cell_setting 'orthorhombic'
loop_
_space_group_symop_operation_xyz
x,y,z
-x,-y,z
1/2+x,1/2-y,1/2-z
1/2-x,1/2+y,1/2-z
-x,-y,-z
x,y,-z
1/2-x,1/2+y,1/2+z
1/2+x,1/2-y,1/2+z
loop_
_atom_site_type_symbol
_atom_site_label
_atom_site_fract_x
_atom_site_fract_y
_atom_site_fract_z
Si Si1 0.909913 0.590097 0.750653
Si Si2 0.106226 0.452322 0.392987
Si Si3 0.722373 0.309957 0.933354
Si Si4 0.891983 0.829942 0.000000
Si Si5 0.734282 0.329406 0.614616
Si Si6 0.114005 0.830033 0.000000
Si Si7 0.404626 0.582225 0.721071
Si Si8 0.278846 0.459643 0.173249
O O1 0.889274 0.553267 0.680363
O O2 0.930996 0.757274 0.759101
O O3 0.820441 0.532807 0.789591
O O4 0.000000 0.500000 0.776327
O O5 0.134000 0.299208 0.420560
O O6 0.185227 0.568196 0.415993
O O7 0.000000 0.500000 0.417238
O O8 0.826895 0.225806 0.939111
O O9 0.727410 0.426043 0.880806
O O10 0.699891 0.383482 0.000000
O O11 0.838378 0.771327 0.061394
O O12 0.003071 0.770952 0.000000
O O13 0.888472 0.000247 0.000000
O O14 0.673811 0.416707 0.666167
O O15 0.792973 0.197771 0.645151
O O16 0.500000 0.500000 0.696340
O O17 0.367032 0.495282 0.780747
#
# Coordination Sequence:
#
# PCOD8238607 Si02
#       8
#     8   8   8   4   8   4   8   8
#     4  10  23  40  62  94 122 167 205 262 318 383
#     4  11  22  40  66  91 126 161 218 260 314 384
#     4  10  22  43  65  92 122 175 207 261 321 372
#     4  11  22  43  63 101 130 160 219 256 315 387
#     4  11  25  42  64  96 128 172 205 267 318 376
#     4   9  22  39  69  93 126 166 209 262 307 385
#     4  11  25  40  64  96 128 169 209 265 326 377
#     4  11  24  41  65  92 133 161 215 262 321 379
#
# _framework density 20.200417999999999
#
# number of rings (size 3 to 8) (size 9 to 14) (size 15 to 20)
#    0.429    1.000    4.286    0.000    7.000    3.714 
#    0.000    0.714    0.000    1.286    0.000    0.000 
#    0.000    0.000    0.000    0.000    0.000    0.000 
#
# Total GULP energy -694419.757642 kJ/mol
# GULP energy per Si atom -12400.352815 kJ/mol
# Density = 2.015444 g / cm^3
# Si number density = 20.200418 Si / 1000 Ang^3
#
#
#
# Elastic Constant Matrix: (Units=GPa)
#
#
# Indices 1 2 3 4 5 6 
#
# 1 110.4230 52.0941 24.4134 0.0000 0.0000 0.0000
# 2 52.0941 81.8541 25.3720 0.0000 0.0000 0.0000
# 3 24.4134 25.3720 81.8985 0.0000 0.0000 0.0000
# 4 0.0000 0.0000 0.0000 -134.3028 0.0000 0.0000
# 5 0.0000 0.0000 0.0000 0.0000 30.6907 0.0000
# 6 0.0000 0.0000 0.0000 0.0000 0.0000 30.5037
#
#
#
# Elastic Compliance Matrix: (Units=1/GPa)
#
#
# Indices 1 2 3 4 5 6 
#
# 1 0.013098 -0.007883 -0.001462 0.000000 0.000000 0.000000
# 2 -0.007883 0.018259 -0.003307 0.000000 0.000000 0.000000
# 3 -0.001462 -0.003307 0.013671 0.000000 0.000000 0.000000
# 4 0.000000 0.000000 0.000000 -0.007446 0.000000 0.000000
# 5 0.000000 0.000000 0.000000 0.000000 0.032583 0.000000
# 6 0.000000 0.000000 0.000000 0.000000 0.000000 0.032783
#
#
# Mechanical properties :
#
#
# Convention : Reuss Voigt Hill
#
# Bulk Modulus (GPa) = 50.70048 53.10384 51.90216
# Shear Modulus (GPa) = 37.08484 -3.13526 16.97479
#
# Velocity S-wave (km/s) = 4.28932 -1.24718 2.90197
# Velocity P-wave (km/s) = 7.04871 4.92662 6.08095
#
# Compressibility (1/GPa) = 0.01972368
#
# Stress axis : x y z
#
# Youngs Moduli (GPa) = 76.34604 54.76863 73.14971
#
# Poissons Ratio (x) = 0.43173 0.10698
# Poissons Ratio (y) = 0.60182 0.24188
# Poissons Ratio (z) = 0.11165 0.18110
#
# Static dielectric constant tensor:
#      x y z
#    x 3.793780 0.000000 0.000000 
#    y 0.000000 3.604940 0.000000 
#    z 0.000000 0.000000 3.804970 
# 
# 
# High freq. dielectric constant tensor:
#      x y z
#    x 1.790600 0.000000 0.000000 
#    y 0.000000 1.783050 0.000000 
#    z 0.000000 0.000000 1.792250 
# 
# From -- ./inp_files/30056.got.cif
#   From: 2010.06.25/outbox.cif.g09.slc.cpg/sg58_16_cif.got.tgz:30056.got - 2010.06.26 21:38:00.
