data_PCOD8238483
_publ_section_title
;
Structure prediction by ZEFSAII (Michael W. Deem and Ramdas Pophale) SiO2 
 PCOD8238483
Probable space group: P N N M
;
_chemical_formula_sum "Si O2"
_cell_formula_units_Z 64
_cell_length_a 15.202678
_cell_length_b 23.617567
_cell_length_c 8.799556
_cell_angle_alpha 90.000000
_cell_angle_beta 90.000000
_cell_angle_gamma 90.000000
_cell_volume 3159.482925
_symmetry_space_group_name_H-M "P N N M"
_symmetry_group_IT_number 58
_symmetry_cell_setting 'orthorhombic'
loop_
_space_group_symop_operation_xyz
x,y,z
-x,-y,z
1/2+x,1/2-y,1/2-z
1/2-x,1/2+y,1/2-z
-x,-y,-z
x,y,-z
1/2-x,1/2+y,1/2+z
1/2+x,1/2-y,1/2+z
loop_
_atom_site_type_symbol
_atom_site_label
_atom_site_fract_x
_atom_site_fract_y
_atom_site_fract_z
Si Si1 0.243622 0.802659 0.677728
Si Si2 0.582631 0.893779 0.824010
Si Si3 0.337718 0.002206 0.323032
Si Si4 0.093843 0.873741 0.820573
Si Si5 0.652340 0.502508 0.321024
Si Si6 0.758531 0.827774 0.824705
Si Si7 0.406394 0.878461 0.677079
Si Si8 0.084743 0.105849 0.321285
O O1 0.225337 0.811835 0.500000
O O2 0.159612 0.824821 0.768688
O O3 0.259283 0.737775 0.719816
O O4 0.329839 0.836439 0.730876
O O5 0.661636 0.850904 0.790354
O O6 0.493173 0.862898 0.772334
O O7 0.591734 0.950514 0.723708
O O8 0.577794 0.910540 0.000000
O O9 0.313852 0.006882 0.500000
O O10 0.377375 0.941747 0.282110
O O11 0.250913 0.013631 0.225321
O O12 0.999314 0.861615 0.746471
O O13 0.129933 0.934540 0.763519
O O14 0.083887 0.872139 0.000000
O O15 0.641897 0.496785 0.500000
O O16 0.586136 0.457776 0.245341
O O17 0.827687 0.860220 0.720813
O O18 0.784883 0.837154 0.000000
O O19 0.427103 0.871031 0.500000
O O20 0.075950 0.102314 0.500000
#
# Coordination Sequence:
#
# PCOD8238483 Si02
#       8
#     8   8   8   8   8   8   8   8
#     4  10  22  43  66  89 121 163 209 256 306 360
#     4  11  23  38  60  89 123 162 201 246 302 367
#     4  11  21  36  61  91 122 156 198 249 304 365
#     4  11  24  41  64  93 127 163 201 254 310 368
#     4  11  22  38  62  92 126 161 198 248 311 372
#     4  10  23  43  64  88 123 163 205 258 310 358
#     4  10  22  39  61  89 122 158 199 252 303 358
#     4  12  25  40  64  93 124 164 207 253 304 370
#
# _framework density 20.25648
#
# number of rings (size 3 to 8) (size 9 to 14) (size 15 to 20)
#    0.000    1.250    2.500    3.375    0.000    8.000 
#    0.000    2.500    0.000    0.000    0.000    0.000 
#    0.000    0.000    0.000    0.000    0.000    0.000 
#
# Total GULP energy -794109.698309 kJ/mol
# GULP energy per Si atom -12407.964036 kJ/mol
# Density = 2.021038 g / cm^3
# Si number density = 20.256480 Si / 1000 Ang^3
#
#
#
# Elastic Constant Matrix: (Units=GPa)
#
#
# Indices 1 2 3 4 5 6 
#
# 1 106.5693 21.1700 36.9296 0.0000 0.0000 0.0000
# 2 21.1700 87.5351 30.1885 0.0000 0.0000 0.0000
# 3 36.9296 30.1885 81.5340 0.0000 0.0000 0.0000
# 4 0.0000 0.0000 0.0000 23.4298 0.0000 0.0000
# 5 0.0000 0.0000 0.0000 0.0000 36.7852 0.0000
# 6 0.0000 0.0000 0.0000 0.0000 0.0000 10.6751
#
#
#
# Elastic Compliance Matrix: (Units=1/GPa)
#
#
# Indices 1 2 3 4 5 6 
#
# 1 0.011223 -0.001102 -0.004675 0.000000 0.000000 0.000000
# 2 -0.001102 0.013204 -0.004390 0.000000 0.000000 0.000000
# 3 -0.004675 -0.004390 0.016008 0.000000 0.000000 0.000000
# 4 0.000000 0.000000 0.000000 0.042681 0.000000 0.000000
# 5 0.000000 0.000000 0.000000 0.000000 0.027185 0.000000
# 6 0.000000 0.000000 0.000000 0.000000 0.000000 0.093676
#
#
# Mechanical properties :
#
#
# Convention : Reuss Voigt Hill
#
# Bulk Modulus (GPa) = 49.74897 50.24606 49.99751
# Shear Modulus (GPa) = 21.64408 26.66804 24.15606
#
# Velocity S-wave (km/s) = 3.27234 3.63232 3.45702
# Velocity P-wave (km/s) = 6.23622 6.51540 6.37734
#
# Compressibility (1/GPa) = 0.02010092
#
# Stress axis : x y z
#
# Youngs Moduli (GPa) = 89.10659 75.73202 62.46960
#
# Poissons Ratio (x) = 0.08344 0.29205
# Poissons Ratio (y) = 0.09818 0.27424
# Poissons Ratio (z) = 0.41658 0.33246
#
# Static dielectric constant tensor:
#      x y z
#    x 3.758800 0.000000 0.000000 
#    y 0.000000 3.699660 0.000000 
#    z 0.000000 0.000000 3.580650 
# 
# 
# High freq. dielectric constant tensor:
#      x y z
#    x 1.803850 0.000000 0.000000 
#    y 0.000000 1.788240 0.000000 
#    z 0.000000 0.000000 1.790840 
# 
# From -- ./inp_files/6875.got.cif
#   From: 2010.06.25/outbox.cif.g09.slc.cpg/sg58_4_cif.got.tgz:6875.got - 2010.06.26 21:38:00.
