data_PCOD8238507
_publ_section_title
;
Structure prediction by ZEFSAII (Michael W. Deem and Ramdas Pophale) SiO2 
 PCOD8238507
Probable space group: P N N M
;
_chemical_formula_sum "Si O2"
_cell_formula_units_Z 48
_cell_length_a 17.516575
_cell_length_b 15.273384
_cell_length_c 8.855526
_cell_angle_alpha 90.000000
_cell_angle_beta 90.000000
_cell_angle_gamma 90.000000
_cell_volume 2369.184192
_symmetry_space_group_name_H-M "P N N M"
_symmetry_group_IT_number 58
_symmetry_cell_setting 'orthorhombic'
loop_
_space_group_symop_operation_xyz
x,y,z
-x,-y,z
1/2+x,1/2-y,1/2-z
1/2-x,1/2+y,1/2-z
-x,-y,-z
x,y,-z
1/2-x,1/2+y,1/2+z
1/2+x,1/2-y,1/2+z
loop_
_atom_site_type_symbol
_atom_site_label
_atom_site_fract_x
_atom_site_fract_y
_atom_site_fract_z
Si Si1 0.295554 0.255305 0.823570
Si Si2 0.047905 0.417115 0.321649
Si Si3 0.298353 0.608089 0.824713
Si Si4 0.043606 0.736610 0.174214
Si Si5 0.544347 0.412264 0.327432
Si Si6 0.289000 0.930921 0.324369
O O1 0.229965 0.187706 0.777568
O O2 0.371256 0.228892 0.735495
O O3 0.267846 0.352344 0.779040
O O4 0.312412 0.247836 0.000000
O O5 0.044395 0.412373 0.500000
O O6 0.134874 0.425554 0.272204
O O7 0.000000 0.500000 0.260411
O O8 0.012944 0.328638 0.257717
O O9 0.386503 0.593784 0.788297
O O10 0.252235 0.520928 0.782924
O O11 0.289060 0.632034 0.000000
O O12 0.014256 0.834074 0.202035
O O13 0.044826 0.710251 0.000000
O O14 0.500000 0.500000 0.288538
O O15 0.574448 0.411529 0.500000
O O16 0.310872 0.924588 0.500000
#
# Coordination Sequence:
#
# PCOD8238507 Si02
#       6
#     8   8   8   8   8   8
#     4  11  23  40  61  86 118 154 194 240 290 345
#     4  11  24  40  60  87 117 153 196 241 290 344
#     4  11  23  39  61  89 119 153 195 241 290 345
#     4  11  23  39  61  88 118 154 194 238 290 344
#     4  10  22  40  61  87 120 156 194 238 289 345
#     4  10  23  41  60  85 118 155 193 238 291 344
#
# _framework density 20.260138000000001
#
# number of rings (size 3 to 8) (size 9 to 14) (size 15 to 20)
#    0.000    1.333    0.000    5.000    0.000   12.333 
#    0.000    0.000    0.000    0.000    0.000    0.000 
#    0.000    0.000    0.000    0.000    0.000    0.000 
#
# Total GULP energy -595574.403248 kJ/mol
# GULP energy per Si atom -12407.800068 kJ/mol
# Density = 2.021403 g / cm^3
# Si number density = 20.260138 Si / 1000 Ang^3
#
#
#
# Elastic Constant Matrix: (Units=GPa)
#
#
# Indices 1 2 3 4 5 6 
#
# 1 92.0233 5.8446 29.9391 0.0000 0.0000 0.0000
# 2 5.8446 89.1593 24.8517 0.0000 0.0000 0.0000
# 3 29.9391 24.8517 47.7885 0.0000 0.0000 0.0000
# 4 0.0000 0.0000 0.0000 30.4238 0.0000 0.0000
# 5 0.0000 0.0000 0.0000 0.0000 39.2293 0.0000
# 6 0.0000 0.0000 0.0000 0.0000 0.0000 32.3505
#
#
#
# Elastic Compliance Matrix: (Units=1/GPa)
#
#
# Indices 1 2 3 4 5 6 
#
# 1 0.013884 0.001771 -0.009619 0.000000 0.000000 0.000000
# 2 0.001771 0.013343 -0.008048 0.000000 0.000000 0.000000
# 3 -0.009619 -0.008048 0.031137 0.000000 0.000000 0.000000
# 4 0.000000 0.000000 0.000000 0.032869 0.000000 0.000000
# 5 0.000000 0.000000 0.000000 0.000000 0.025491 0.000000
# 6 0.000000 0.000000 0.000000 0.000000 0.000000 0.030911
#
#
# Mechanical properties :
#
#
# Convention : Reuss Voigt Hill
#
# Bulk Modulus (GPa) = 37.63466 38.91578 38.27522
# Shear Modulus (GPa) = 26.55533 31.62310 29.08922
#
# Velocity S-wave (km/s) = 3.62431 3.95505 3.79329
# Velocity P-wave (km/s) = 6.01084 6.33295 6.17400
#
# Compressibility (1/GPa) = 0.02657125
#
# Stress axis : x y z
#
# Youngs Moduli (GPa) = 72.02618 74.94474 32.11578
#
# Poissons Ratio (x) = -0.13273 0.30893
# Poissons Ratio (y) = -0.12756 0.25848
# Poissons Ratio (z) = 0.69283 0.60319
#
# Static dielectric constant tensor:
#      x y z
#    x 5.414340 0.000000 0.000000 
#    y 0.000000 4.011380 0.000000 
#    z 0.000000 0.000000 3.691170 
# 
# 
# High freq. dielectric constant tensor:
#      x y z
#    x 1.802830 0.000000 0.000000 
#    y 0.000000 1.811020 0.000000 
#    z 0.000000 0.000000 1.795930 
# 
# From -- ./inp_files/5863.got.cif
#   From: 2010.06.25/outbox.cif.g09.slc.cpg/sg58_3_cif.got.tgz:5863.got - 2010.06.26 21:38:00.
