data_PCOD8238102
_publ_section_title
;
Structure prediction by ZEFSAII (Michael W. Deem and Ramdas Pophale) SiO2 
 PCOD8238102
Probable space group: P N N M
;
_chemical_formula_sum "Si O2"
_cell_formula_units_Z 56
_cell_length_a 15.906589
_cell_length_b 20.052769
_cell_length_c 8.925669
_cell_angle_alpha 90.000000
_cell_angle_beta 90.000000
_cell_angle_gamma 90.000000
_cell_volume 2847.030948
_symmetry_space_group_name_H-M "P N N M"
_symmetry_group_IT_number 58
_symmetry_cell_setting 'orthorhombic'
loop_
_space_group_symop_operation_xyz
x,y,z
-x,-y,z
1/2+x,1/2-y,1/2-z
1/2-x,1/2+y,1/2-z
-x,-y,-z
x,y,-z
1/2-x,1/2+y,1/2+z
1/2+x,1/2-y,1/2+z
loop_
_atom_site_type_symbol
_atom_site_label
_atom_site_fract_x
_atom_site_fract_y
_atom_site_fract_z
Si Si1 0.255846 0.536626 0.171082
Si Si2 0.819077 0.108312 0.676040
Si Si3 0.812848 0.705415 0.674892
Si Si4 0.563047 0.942911 0.672020
Si Si5 0.029856 0.823765 0.825079
Si Si6 0.494164 0.188216 0.174702
Si Si7 0.162714 0.159592 0.174088
O O1 0.297593 0.467289 0.218305
O O2 0.156349 0.529078 0.192243
O O3 0.291518 0.592024 0.281396
O O4 0.278084 0.555580 0.000000
O O5 0.822221 0.119571 0.500000
O O6 0.748369 0.155838 0.741685
O O7 0.909580 0.123565 0.745785
O O8 0.793025 0.703415 0.500000
O O9 0.796635 0.780130 0.732813
O O10 0.907344 0.682595 0.712729
O O11 0.543198 0.924036 0.500000
O O12 0.552443 0.878172 0.773789
O O13 0.500000 0.000000 0.729341
O O14 0.047081 0.750019 0.761673
O O15 0.935697 0.847268 0.788307
O O16 0.049476 0.822693 0.000000
O O17 0.478629 0.199696 0.000000
O O18 0.177235 0.174320 0.000000
#
# Coordination Sequence:
#
# PCOD8238102 Si02
#       7
#     8   8   8   8   8   8   8
#     4  10  23  40  59  86 120 159 199 245 302 358
#     4  11  23  39  61  88 118 155 201 247 297 358
#     4  10  21  38  61  87 120 157 195 245 301 354
#     4  10  21  38  60  85 119 161 200 241 295 359
#     4  10  22  40  61  86 116 154 198 246 301 356
#     4  10  21  37  59  88 118 152 196 246 296 351
#     4  10  22  40  62  87 117 156 201 248 298 358
#
# _framework density 19.669615
#
# number of rings (size 3 to 8) (size 9 to 14) (size 15 to 20)
#    0.000    1.857    0.000    3.000    2.000    7.143 
#    0.000    2.857    0.000    0.000    0.000    0.000 
#    0.000    0.000    0.000    0.000    0.000    0.000 
#
# Total GULP energy -694784.202724 kJ/mol
# GULP energy per Si atom -12406.860763 kJ/mol
# Density = 1.962485 g / cm^3
# Si number density = 19.669615 Si / 1000 Ang^3
#
#
#
# Elastic Constant Matrix: (Units=GPa)
#
#
# Indices 1 2 3 4 5 6 
#
# 1 40.6577 22.3965 24.1913 0.0000 0.0000 0.0000
# 2 22.3965 97.0937 36.4562 0.0000 0.0000 0.0000
# 3 24.1913 36.4562 79.0624 0.0000 0.0000 0.0000
# 4 0.0000 0.0000 0.0000 34.5865 0.0000 0.0000
# 5 0.0000 0.0000 0.0000 0.0000 34.7750 0.0000
# 6 0.0000 0.0000 0.0000 0.0000 0.0000 34.7948
#
#
#
# Elastic Compliance Matrix: (Units=1/GPa)
#
#
# Indices 1 2 3 4 5 6 
#
# 1 0.031564 -0.004420 -0.007620 0.000000 0.000000 0.000000
# 2 -0.004420 0.013075 -0.004677 0.000000 0.000000 0.000000
# 3 -0.007620 -0.004677 0.017136 0.000000 0.000000 0.000000
# 4 0.000000 0.000000 0.000000 0.028913 0.000000 0.000000
# 5 0.000000 0.000000 0.000000 0.000000 0.028756 0.000000
# 6 0.000000 0.000000 0.000000 0.000000 0.000000 0.028740
#
#
# Mechanical properties :
#
#
# Convention : Reuss Voigt Hill
#
# Bulk Modulus (GPa) = 35.28258 42.54464 38.91361
# Shear Modulus (GPa) = 26.16924 29.74925 27.95925
#
# Velocity S-wave (km/s) = 3.65148 3.89324 3.77429
# Velocity P-wave (km/s) = 5.97949 6.47196 6.23059
#
# Compressibility (1/GPa) = 0.02834260
#
# Stress axis : x y z
#
# Youngs Moduli (GPa) = 31.68160 76.48331 58.35626
#
# Poissons Ratio (x) = 0.33804 0.44467
# Poissons Ratio (y) = 0.14002 0.27290
# Poissons Ratio (z) = 0.24141 0.35768
#
# Static dielectric constant tensor:
#      x y z
#    x 3.654370 0.000000 0.000000 
#    y 0.000000 3.650540 0.000000 
#    z 0.000000 0.000000 3.622140 
# 
# 
# High freq. dielectric constant tensor:
#      x y z
#    x 1.773050 0.000000 0.000000 
#    y 0.000000 1.770140 0.000000 
#    z 0.000000 0.000000 1.774560 
# 
# From -- ./inp_files/6422.got.cif
#   From: 2010.06.25/outbox.cif.g09.slc.cpg/sg58_4_cif.got.tgz:6422.got - 2010.06.26 21:38:00.
