data_PCOD8238055
_publ_section_title
;
Structure prediction by ZEFSAII (Michael W. Deem and Ramdas Pophale) SiO2 
 PCOD8238055
Probable space group: P N N M
;
_chemical_formula_sum "Si O2"
_cell_formula_units_Z 40
_cell_length_a 28.395616
_cell_length_b 7.744018
_cell_length_c 9.009123
_cell_angle_alpha 90.000000
_cell_angle_beta 90.000000
_cell_angle_gamma 90.000000
_cell_volume 1981.071566
_symmetry_space_group_name_H-M "P N N M"
_symmetry_group_IT_number 58
_symmetry_cell_setting 'orthorhombic'
loop_
_space_group_symop_operation_xyz
x,y,z
-x,-y,z
1/2+x,1/2-y,1/2-z
1/2-x,1/2+y,1/2-z
-x,-y,-z
x,y,-z
1/2-x,1/2+y,1/2+z
1/2+x,1/2-y,1/2+z
loop_
_atom_site_type_symbol
_atom_site_label
_atom_site_fract_x
_atom_site_fract_y
_atom_site_fract_z
Si Si1 0.299792 0.181685 0.330659
Si Si2 0.111723 0.207523 0.826449
Si Si3 0.600049 0.676090 0.332170
Si Si4 0.299586 0.828632 0.825535
Si Si5 0.445085 0.010536 0.172205
O O1 0.293603 0.117350 0.500000
O O2 0.343559 0.310628 0.315149
O O3 0.252971 0.278432 0.275101
O O4 0.310659 0.021591 0.225531
O O5 0.163080 0.202357 0.751561
O O6 0.079958 0.359233 0.761859
O O7 0.086854 0.022752 0.796212
O O8 0.118563 0.241493 0.000000
O O9 0.584994 0.724142 0.500000
O O10 0.572772 0.801302 0.221168
O O11 0.306331 0.815914 0.000000
O O12 0.500000 0.000000 0.205703
O O13 0.433385 0.985162 0.000000
#
# Coordination Sequence:
#
# PCOD8238055 Si02
#       5
#     8   8   8   8   8
#     4  10  21  37  57  86 125 166 209 257 308 368
#     4  11  23  41  65  93 128 166 210 261 314 378
#     4  10  22  41  65  92 125 167 211 258 312 374
#     4  11  22  36  58  90 126 167 213 257 310 369
#     4  11  25  44  66  94 127 164 210 266 325 380
#
# _framework density 20.191095000000001
#
# number of rings (size 3 to 8) (size 9 to 14) (size 15 to 20)
#    0.000    1.400    2.000    3.000    0.000    7.200 
#    0.000    4.000    0.000    0.000    0.000    0.000 
#    0.000    0.000    0.000    0.000    0.000    0.000 
#
# Total GULP energy -496177.064897 kJ/mol
# GULP energy per Si atom -12404.426622 kJ/mol
# Density = 2.014514 g / cm^3
# Si number density = 20.191095 Si / 1000 Ang^3
#
#
#
# Elastic Constant Matrix: (Units=GPa)
#
#
# Indices 1 2 3 4 5 6 
#
# 1 76.4510 23.2519 40.7927 0.0000 0.0000 0.0000
# 2 23.2519 108.0414 44.4237 0.0000 0.0000 0.0000
# 3 40.7927 44.4237 96.6858 0.0000 0.0000 0.0000
# 4 0.0000 0.0000 0.0000 23.0444 0.0000 0.0000
# 5 0.0000 0.0000 0.0000 0.0000 28.2027 0.0000
# 6 0.0000 0.0000 0.0000 0.0000 0.0000 26.0002
#
#
#
# Elastic Compliance Matrix: (Units=1/GPa)
#
#
# Indices 1 2 3 4 5 6 
#
# 1 0.016947 -0.000872 -0.006749 0.000000 0.000000 0.000000
# 2 -0.000872 0.011456 -0.004896 0.000000 0.000000 0.000000
# 3 -0.006749 -0.004896 0.015440 0.000000 0.000000 0.000000
# 4 0.000000 0.000000 0.000000 0.043394 0.000000 0.000000
# 5 0.000000 0.000000 0.000000 0.000000 0.035458 0.000000
# 6 0.000000 0.000000 0.000000 0.000000 0.000000 0.038461
#
#
# Mechanical properties :
#
#
# Convention : Reuss Voigt Hill
#
# Bulk Modulus (GPa) = 53.16726 55.34609 54.25668
# Shear Modulus (GPa) = 25.97934 26.96346 26.47140
#
# Velocity S-wave (km/s) = 3.59091 3.65830 3.62476
# Velocity P-wave (km/s) = 6.60167 6.73163 6.66697
#
# Compressibility (1/GPa) = 0.01880857
#
# Stress axis : x y z
#
# Youngs Moduli (GPa) = 59.00806 87.28704 64.76716
#
# Poissons Ratio (x) = 0.07611 0.43714
# Poissons Ratio (y) = 0.05146 0.31710
# Poissons Ratio (z) = 0.39827 0.42735
#
# Static dielectric constant tensor:
#      x y z
#    x 3.776130 0.000000 0.000000 
#    y 0.000000 3.673440 0.000000 
#    z 0.000000 0.000000 3.700200 
# 
# 
# High freq. dielectric constant tensor:
#      x y z
#    x 1.790010 0.000000 0.000000 
#    y 0.000000 1.794540 0.000000 
#    z 0.000000 0.000000 1.792490 
# 
# From -- ./inp_files/10269.got.cif
#   From: 2010.06.25/outbox.cif.g09.slc.cpg/sg58_6_cif.got.tgz:10269.got - 2010.06.26 21:38:00.
