data_PCOD8238401
_publ_section_title
;
Structure prediction by ZEFSAII (Michael W. Deem and Ramdas Pophale) SiO2 
 PCOD8238401
Probable space group: P N N M
;
_chemical_formula_sum "Si O2"
_cell_formula_units_Z 48
_cell_length_a 26.948668
_cell_length_b 9.903701
_cell_length_c 8.948069
_cell_angle_alpha 90.000000
_cell_angle_beta 90.000000
_cell_angle_gamma 90.000000
_cell_volume 2388.164007
_symmetry_space_group_name_H-M "P N N M"
_symmetry_group_IT_number 58
_symmetry_cell_setting 'orthorhombic'
loop_
_space_group_symop_operation_xyz
x,y,z
-x,-y,z
1/2+x,1/2-y,1/2-z
1/2-x,1/2+y,1/2-z
-x,-y,-z
x,y,-z
1/2-x,1/2+y,1/2+z
1/2+x,1/2-y,1/2+z
loop_
_atom_site_type_symbol
_atom_site_label
_atom_site_fract_x
_atom_site_fract_y
_atom_site_fract_z
Si Si1 0.887370 0.983343 0.673929
Si Si2 0.604166 0.011325 0.826689
Si Si3 0.569850 0.741018 0.324085
Si Si4 0.702925 0.100438 0.325039
Si Si5 0.966195 0.754313 0.328980
Si Si6 0.780661 0.869969 0.673892
O O1 0.890162 0.022324 0.500000
O O2 0.926005 0.866185 0.714206
O O3 0.833082 0.933876 0.719931
O O4 0.898846 0.113158 0.772185
O O5 0.651469 0.087423 0.761355
O O6 0.556395 0.106195 0.803809
O O7 0.595299 0.872124 0.743976
O O8 0.613607 0.982595 0.000000
O O9 0.572658 0.753454 0.500000
O O10 0.513020 0.725755 0.276324
O O11 0.692425 0.110119 0.500000
O O12 0.729929 0.236314 0.269921
O O13 0.737615 0.974499 0.285665
O O14 0.983726 0.771751 0.500000
O O15 0.780588 0.831073 0.500000
#
# Coordination Sequence:
#
# PCOD8238401 Si02
#       6
#     8   8   8   8   8   8
#     4  10  21  42  66  89 122 167 214 254 299 373
#     4  11  23  43  67  90 123 168 213 255 307 373
#     4  12  26  39  58  95 132 163 203 261 317 367
#     4  11  24  41  66  99 129 160 205 259 314 364
#     4  10  21  41  67  90 116 164 217 257 305 375
#     4  10  23  44  66  93 126 165 209 250 304 374
#
# _framework density 20.099122000000001
#
# number of rings (size 3 to 8) (size 9 to 14) (size 15 to 20)
#    0.000    1.333    1.667    3.500    2.333    8.000 
#    0.000    0.000    0.000    0.000    0.000    0.000 
#    0.000    0.000    0.000    0.000    0.000    0.000 
#
# Total GULP energy -595545.897392 kJ/mol
# GULP energy per Si atom -12407.206196 kJ/mol
# Density = 2.005338 g / cm^3
# Si number density = 20.099122 Si / 1000 Ang^3
#
#
#
# Elastic Constant Matrix: (Units=GPa)
#
#
# Indices 1 2 3 4 5 6 
#
# 1 98.9628 41.7930 64.6870 0.0000 0.0000 0.0000
# 2 41.7930 130.3961 84.1348 0.0000 0.0000 0.0000
# 3 64.6870 84.1348 141.4602 0.0000 0.0000 0.0000
# 4 0.0000 0.0000 0.0000 32.4231 0.0000 0.0000
# 5 0.0000 0.0000 0.0000 0.0000 27.8323 0.0000
# 6 0.0000 0.0000 0.0000 0.0000 0.0000 33.8427
#
#
#
# Elastic Compliance Matrix: (Units=1/GPa)
#
#
# Indices 1 2 3 4 5 6 
#
# 1 0.014441 -0.000597 -0.006249 0.000000 0.000000 0.000000
# 2 -0.000597 0.012469 -0.007143 0.000000 0.000000 0.000000
# 3 -0.006249 -0.007143 0.014175 0.000000 0.000000 0.000000
# 4 0.000000 0.000000 0.000000 0.030842 0.000000 0.000000
# 5 0.000000 0.000000 0.000000 0.000000 0.035929 0.000000
# 6 0.000000 0.000000 0.000000 0.000000 0.000000 0.029549
#
#
# Mechanical properties :
#
#
# Convention : Reuss Voigt Hill
#
# Bulk Modulus (GPa) = 76.28923 83.56097 79.92510
# Shear Modulus (GPa) = 29.45453 30.83323 30.14388
#
# Velocity S-wave (km/s) = 3.83229 3.92095 3.87688
# Velocity P-wave (km/s) = 7.59084 7.88436 7.73899
#
# Compressibility (1/GPa) = 0.01310801
#
# Stress axis : x y z
#
# Youngs Moduli (GPa) = 69.24558 80.19724 70.54563
#
# Poissons Ratio (x) = 0.04785 0.44083
# Poissons Ratio (y) = 0.04131 0.50393
# Poissons Ratio (z) = 0.43271 0.57288
#
# Static dielectric constant tensor:
#      x y z
#    x 3.686450 0.000000 0.000000 
#    y 0.000000 3.806770 0.000000 
#    z 0.000000 0.000000 3.591580 
# 
# 
# High freq. dielectric constant tensor:
#      x y z
#    x 1.792600 0.000000 0.000000 
#    y 0.000000 1.802080 0.000000 
#    z 0.000000 0.000000 1.782180 
# 
# From -- ./inp_files/2965.got.cif
#   From: 2010.06.25/outbox.cif.g09.slc.cpg/sg58_2_cif.got.tgz:2965.got - 2010.06.26 21:38:00.
