data_PCOD8238265
_publ_section_title
;
Structure prediction by ZEFSAII (Michael W. Deem and Ramdas Pophale) SiO2 
 PCOD8238265
Probable space group: P N N M
;
_chemical_formula_sum "Si O2"
_cell_formula_units_Z 64
_cell_length_a 15.144742
_cell_length_b 24.496151
_cell_length_c 8.636453
_cell_angle_alpha 90.000000
_cell_angle_beta 90.000000
_cell_angle_gamma 90.000000
_cell_volume 3204.019449
_symmetry_space_group_name_H-M "P N N M"
_symmetry_group_IT_number 58
_symmetry_cell_setting 'orthorhombic'
loop_
_space_group_symop_operation_xyz
x,y,z
-x,-y,z
1/2+x,1/2-y,1/2-z
1/2-x,1/2+y,1/2-z
-x,-y,-z
x,y,-z
1/2-x,1/2+y,1/2+z
1/2+x,1/2-y,1/2+z
loop_
_atom_site_type_symbol
_atom_site_label
_atom_site_fract_x
_atom_site_fract_y
_atom_site_fract_z
Si Si1 0.821275 0.364366 0.319023
Si Si2 0.280597 0.247676 0.675715
Si Si3 0.977492 0.222214 0.175125
Si Si4 0.671362 0.567899 0.177787
Si Si5 0.181296 0.057552 0.322476
Si Si6 0.008281 0.104291 0.817128
Si Si7 0.815022 0.645606 0.318845
Si Si8 0.494399 0.840648 0.683468
O O1 0.815820 0.375870 0.500000
O O2 0.778603 0.305016 0.285476
O O3 0.767954 0.410476 0.229168
O O4 0.922063 0.369474 0.262355
O O5 0.265598 0.227317 0.500000
O O6 0.372095 0.280162 0.687990
O O7 0.207602 0.291749 0.727510
O O8 0.014530 0.166472 0.251224
O O9 0.011829 0.278537 0.251775
O O10 0.010633 0.223246 0.000000
O O11 0.702315 0.505931 0.200013
O O12 0.571214 0.572534 0.235885
O O13 0.736422 0.605399 0.275786
O O14 0.676200 0.586301 0.000000
O O15 0.158155 0.071082 0.500000
O O16 0.098858 0.073809 0.216561
O O17 0.989807 0.105469 0.000000
O O18 0.832352 0.640781 0.500000
O O19 0.904347 0.628490 0.228632
O O20 0.510526 0.840998 0.500000
#
# Coordination Sequence:
#
# PCOD8238265 Si02
#       8
#     8   8   8   8   8   8   8   8
#     4  11  23  40  62  90 120 155 205 256 303 355
#     4   9  18  36  58  84 121 160 192 238 301 358
#     4   8  16  33  55  83 119 157 192 233 286 351
#     4  11  24  42  62  87 122 163 206 249 302 364
#     4  11  25  43  61  85 120 163 207 251 304 365
#     4  11  21  37  61  92 124 158 202 250 301 355
#     4  11  22  38  62  92 123 157 204 253 300 355
#     4  10  21  39  61  87 126 164 197 243 305 367
#
# _framework density 19.974910000000001
#
# number of rings (size 3 to 8) (size 9 to 14) (size 15 to 20)
#    0.000    1.750    1.250    4.125    1.750    4.500 
#    0.000    1.875    0.000    3.750    0.000    0.000 
#    0.000    0.000    0.000    0.000    0.000    0.000 
#
# Total GULP energy -793632.854040 kJ/mol
# GULP energy per Si atom -12400.513344 kJ/mol
# Density = 1.992945 g / cm^3
# Si number density = 19.974910 Si / 1000 Ang^3
#
#
#
# Elastic Constant Matrix: (Units=GPa)
#
#
# Indices 1 2 3 4 5 6 
#
# 1 94.0667 21.7952 5.7200 0.0000 0.0000 0.0000
# 2 21.7952 53.9092 21.1323 0.0000 0.0000 0.0000
# 3 5.7200 21.1323 47.0136 0.0000 0.0000 0.0000
# 4 0.0000 0.0000 0.0000 26.8815 0.0000 0.0000
# 5 0.0000 0.0000 0.0000 0.0000 33.6282 0.0000
# 6 0.0000 0.0000 0.0000 0.0000 0.0000 23.6406
#
#
#
# Elastic Compliance Matrix: (Units=1/GPa)
#
#
# Indices 1 2 3 4 5 6 
#
# 1 0.011758 -0.005090 0.000857 0.000000 0.000000 0.000000
# 2 -0.005090 0.024721 -0.010492 0.000000 0.000000 0.000000
# 3 0.000857 -0.010492 0.025882 0.000000 0.000000 0.000000
# 4 0.000000 0.000000 0.000000 0.037200 0.000000 0.000000
# 5 0.000000 0.000000 0.000000 0.000000 0.029737 0.000000
# 6 0.000000 0.000000 0.000000 0.000000 0.000000 0.042300
#
#
# Mechanical properties :
#
#
# Convention : Reuss Voigt Hill
#
# Bulk Modulus (GPa) = 30.38498 32.47606 31.43052
# Shear Modulus (GPa) = 23.58286 26.58620 25.08453
#
# Velocity S-wave (km/s) = 3.43975 3.65222 3.54757
# Velocity P-wave (km/s) = 5.56960 5.83769 5.70522
#
# Compressibility (1/GPa) = 0.03291100
#
# Stress axis : x y z
#
# Youngs Moduli (GPa) = 85.04920 40.45225 38.63619
#
# Poissons Ratio (x) = 0.20589 -0.03312
# Poissons Ratio (y) = 0.43287 0.40539
# Poissons Ratio (z) = -0.07291 0.42444
#
# Static dielectric constant tensor:
#      x y z
#    x 3.552460 0.000000 0.000000 
#    y 0.000000 3.658810 0.000000 
#    z 0.000000 0.000000 3.527780 
# 
# 
# High freq. dielectric constant tensor:
#      x y z
#    x 1.780760 0.000000 0.000000 
#    y 0.000000 1.772660 0.000000 
#    z 0.000000 0.000000 1.774300 
# 
# From -- ./inp_files/6827.got.cif
#   From: 2010.06.25/outbox.cif.g09.slc.cpg/sg58_4_cif.got.tgz:6827.got - 2010.06.26 21:38:00.
