data_PCOD8238850
_publ_section_title
;
Structure prediction by ZEFSAII (Michael W. Deem and Ramdas Pophale) SiO2 
 PCOD8238850
Probable space group: P N N M
;
_chemical_formula_sum "Si O2"
_cell_formula_units_Z 32
_cell_length_a 5.080927
_cell_length_b 16.668876
_cell_length_c 16.645872
_cell_angle_alpha 90.000000
_cell_angle_beta 90.000000
_cell_angle_gamma 90.000000
_cell_volume 1409.794532
_symmetry_space_group_name_H-M "P N N M"
_symmetry_group_IT_number 58
_symmetry_cell_setting 'orthorhombic'
loop_
_space_group_symop_operation_xyz
x,y,z
-x,-y,z
1/2+x,1/2-y,1/2-z
1/2-x,1/2+y,1/2-z
-x,-y,-z
x,y,-z
1/2-x,1/2+y,1/2+z
1/2+x,1/2-y,1/2+z
loop_
_atom_site_type_symbol
_atom_site_label
_atom_site_fract_x
_atom_site_fract_y
_atom_site_fract_z
Si Si1 0.447550 0.666217 0.335477
Si Si2 0.024943 0.336897 0.092532
Si Si3 0.448033 0.909813 0.906459
Si Si4 0.473466 0.592031 0.164957
O O1 0.502850 0.759084 0.351535
O O2 0.647890 0.612487 0.387530
O O3 0.492232 0.649077 0.242188
O O4 0.147132 0.647628 0.359109
O O5 0.299141 0.382220 0.103877
O O6 0.799048 0.398525 0.118088
O O7 0.995507 0.310962 0.000000
O O8 0.500000 0.000000 0.877234
O O9 0.504534 0.899527 0.000000
O O10 0.500000 0.500000 0.192238
#
# Coordination Sequence:
#
# PCOD8238850 Si02
#       4
#     8   8   8   8
#     4  12  24  44  68  97 132 172 222 275 332 390
#     4  12  26  45  70  99 134 176 222 274 330 392
#     4  11  22  37  62  97 136 177 218 266 328 396
#     4  12  26  45  70  99 134 176 222 274 330 392
#
# _framework density 22.698343000000001
#
# number of rings (size 3 to 8) (size 9 to 14) (size 15 to 20)
#    0.000    0.250    0.000   10.500    0.000    5.000 
#    0.000    0.000    0.000    0.000    0.000    0.000 
#    0.000    0.000    0.000    0.000    0.000    0.000 
#
# Total GULP energy -397161.434452 kJ/mol
# GULP energy per Si atom -12411.294827 kJ/mol
# Density = 2.264668 g / cm^3
# Si number density = 22.698343 Si / 1000 Ang^3
#
#
#
# Elastic Constant Matrix: (Units=GPa)
#
#
# Indices 1 2 3 4 5 6 
#
# 1 91.4653 12.0172 31.4656 0.0000 0.0000 0.0000
# 2 12.0172 91.4878 42.1093 0.0000 0.0000 0.0000
# 3 31.4656 42.1093 108.3899 0.0000 0.0000 0.0000
# 4 0.0000 0.0000 0.0000 28.5724 0.0000 0.0000
# 5 0.0000 0.0000 0.0000 0.0000 33.3358 0.0000
# 6 0.0000 0.0000 0.0000 0.0000 0.0000 33.1913
#
#
#
# Elastic Compliance Matrix: (Units=1/GPa)
#
#
# Indices 1 2 3 4 5 6 
#
# 1 0.012146 0.000033 -0.003539 0.000000 0.000000 0.000000
# 2 0.000033 0.013311 -0.005181 0.000000 0.000000 0.000000
# 3 -0.003539 -0.005181 0.012266 0.000000 0.000000 0.000000
# 4 0.000000 0.000000 0.000000 0.034999 0.000000 0.000000
# 5 0.000000 0.000000 0.000000 0.000000 0.029998 0.000000
# 6 0.000000 0.000000 0.000000 0.000000 0.000000 0.030128
#
#
# Mechanical properties :
#
#
# Convention : Reuss Voigt Hill
#
# Bulk Modulus (GPa) = 49.13994 51.39191 50.26592
# Shear Modulus (GPa) = 31.84629 32.73663 32.29146
#
# Velocity S-wave (km/s) = 3.74976 3.80181 3.77588
# Velocity P-wave (km/s) = 6.35954 6.47782 6.41895
#
# Compressibility (1/GPa) = 0.02035005
#
# Stress axis : x y z
#
# Youngs Moduli (GPa) = 82.33024 75.12785 81.52550
#
# Poissons Ratio (x) = -0.00252 0.28852
# Poissons Ratio (y) = -0.00276 0.42237
# Poissons Ratio (z) = 0.29137 0.38923
#
# Static dielectric constant tensor:
#      x y z
#    x 4.261670 0.000000 0.000000 
#    y 0.000000 4.075490 0.000000 
#    z 0.000000 0.000000 4.009360 
# 
# 
# High freq. dielectric constant tensor:
#      x y z
#    x 1.912970 0.000000 0.000000 
#    y 0.000000 1.901440 0.000000 
#    z 0.000000 0.000000 1.900350 
# 
# From -- ./inp_files/24039.got.cif
#   From: 2010.06.25/outbox.cif.g09.slc.cpg/sg58_13_cif.got.tgz:24039.got - 2010.06.26 21:38:00.
