data_PCOD8238824
_publ_section_title
;
Structure prediction by ZEFSAII (Michael W. Deem and Ramdas Pophale) SiO2 
 PCOD8238824
Probable space group: P N N M
;
_chemical_formula_sum "Si O2"
_cell_formula_units_Z 64
_cell_length_a 11.365062
_cell_length_b 15.012694
_cell_length_c 17.719251
_cell_angle_alpha 90.000000
_cell_angle_beta 90.000000
_cell_angle_gamma 90.000000
_cell_volume 3023.262116
_symmetry_space_group_name_H-M "P N N M"
_symmetry_group_IT_number 58
_symmetry_cell_setting 'orthorhombic'
loop_
_space_group_symop_operation_xyz
x,y,z
-x,-y,z
1/2+x,1/2-y,1/2-z
1/2-x,1/2+y,1/2-z
-x,-y,-z
x,y,-z
1/2-x,1/2+y,1/2+z
1/2+x,1/2-y,1/2+z
loop_
_atom_site_type_symbol
_atom_site_label
_atom_site_fract_x
_atom_site_fract_y
_atom_site_fract_z
Si Si1 0.264893 0.167132 0.844807
Si Si2 0.208408 0.841697 0.156530
Si Si3 0.907091 0.162044 0.684674
Si Si4 0.823228 0.839855 0.316056
Si Si5 0.061903 0.416327 0.086758
Si Si6 0.681704 0.515153 0.087030
Si Si7 0.023236 0.222559 0.911651
Si Si8 0.133320 0.494635 0.587863
O O1 0.349617 0.252497 0.856332
O O2 0.256993 0.139060 0.756956
O O3 0.132948 0.179596 0.871391
O O4 0.314527 0.090998 0.897630
O O5 0.171166 0.860723 0.242445
O O6 0.278625 0.750276 0.145150
O O7 0.292136 0.921684 0.132569
O O8 0.092045 0.835621 0.105101
O O9 0.914182 0.076563 0.628912
O O10 0.041805 0.178590 0.707979
O O11 0.805841 0.918805 0.375570
O O12 0.200904 0.426071 0.095648
O O13 0.014444 0.323660 0.121728
O O14 0.000000 0.500000 0.128479
O O15 0.022199 0.416811 0.000000
O O16 0.646336 0.501336 0.000000
O O17 0.048147 0.225003 0.000000
O O18 0.138332 0.470289 0.500000
O O19 0.000000 0.500000 0.617752
#
# Coordination Sequence:
#
# PCOD8238824 Si02
#       8
#     8   8   8   8   8   8   8   8
#     4  11  23  43  67  94 127 174 219 270 328 393
#     4  11  24  43  66  96 130 173 220 271 325 392
#     4  11  23  42  66  93 133 173 216 266 322 392
#     4  11  24  42  65  94 132 174 216 266 322 394
#     4   9  18  34  58  91 130 162 197 252 315 377
#     4  11  23  39  61  94 128 167 214 263 323 387
#     4  11  21  39  67  97 129 168 215 272 332 386
#     4  11  25  45  67  95 130 171 223 278 330 390
#
# _framework density 21.169187999999998
#
# number of rings (size 3 to 8) (size 9 to 14) (size 15 to 20)
#    0.000    1.250    2.500    3.375    0.000    4.000 
#    0.000    2.500    0.000    0.000    0.000    0.000 
#    0.000    0.000    0.000    0.000    0.000    0.000 
#
# Total GULP energy -793737.389400 kJ/mol
# GULP energy per Si atom -12402.146709 kJ/mol
# Density = 2.112101 g / cm^3
# Si number density = 21.169188 Si / 1000 Ang^3
#
#
#
# Elastic Constant Matrix: (Units=GPa)
#
#
# Indices 1 2 3 4 5 6 
#
# 1 85.2899 31.9972 8.8514 0.0000 0.0000 0.0000
# 2 31.9972 124.5947 41.5422 0.0000 0.0000 0.0000
# 3 8.8514 41.5422 76.9230 0.0000 0.0000 0.0000
# 4 0.0000 0.0000 0.0000 -80.2114 0.0000 0.0000
# 5 0.0000 0.0000 0.0000 0.0000 25.7495 0.0000
# 6 0.0000 0.0000 0.0000 0.0000 0.0000 32.5406
#
#
#
# Elastic Compliance Matrix: (Units=1/GPa)
#
#
# Indices 1 2 3 4 5 6 
#
# 1 0.012984 -0.003459 0.000374 0.000000 0.000000 0.000000
# 2 -0.003459 0.010710 -0.005386 0.000000 0.000000 0.000000
# 3 0.000374 -0.005386 0.015866 0.000000 0.000000 0.000000
# 4 0.000000 0.000000 0.000000 -0.012467 0.000000 0.000000
# 5 0.000000 0.000000 0.000000 0.000000 0.038836 0.000000
# 6 0.000000 0.000000 0.000000 0.000000 0.000000 0.030731
#
#
# Mechanical properties :
#
#
# Convention : Reuss Voigt Hill
#
# Bulk Modulus (GPa) = 44.21364 50.17657 47.19511
# Shear Modulus (GPa) = 41.27462 9.24355 25.25909
#
# Velocity S-wave (km/s) = 4.42039 2.09189 3.45802
# Velocity P-wave (km/s) = 6.85451 5.43955 6.18761
#
# Compressibility (1/GPa) = 0.02261746
#
# Stress axis : x y z
#
# Youngs Moduli (GPa) = 77.02041 93.36975 63.02929
#
# Poissons Ratio (x) = 0.32297 -0.02358
# Poissons Ratio (y) = 0.26642 0.33947
# Poissons Ratio (z) = -0.02881 0.50288
#
# Static dielectric constant tensor:
#      x y z
#    x 3.336150 0.000000 0.000000 
#    y 0.000000 3.886620 0.000000 
#    z 0.000000 0.000000 3.682760 
# 
# 
# High freq. dielectric constant tensor:
#      x y z
#    x 1.842470 0.000000 0.000000 
#    y 0.000000 1.837670 0.000000 
#    z 0.000000 0.000000 1.820860 
# 
# From -- ./inp_files/26399.got.cif
#   From: 2010.06.25/outbox.cif.g09.slc.cpg/sg58_14_cif.got.tgz:26399.got - 2010.06.26 21:38:00.
