data_PCOD8238342
_publ_section_title
;
Structure prediction by ZEFSAII (Michael W. Deem and Ramdas Pophale) SiO2 
 PCOD8238342
Probable space group: P N N M
;
_chemical_formula_sum "Si O2"
_cell_formula_units_Z 56
_cell_length_a 14.553398
_cell_length_b 21.638350
_cell_length_c 8.822850
_cell_angle_alpha 90.000000
_cell_angle_beta 90.000000
_cell_angle_gamma 90.000000
_cell_volume 2778.417101
_symmetry_space_group_name_H-M "P N N M"
_symmetry_group_IT_number 58
_symmetry_cell_setting 'orthorhombic'
loop_
_space_group_symop_operation_xyz
x,y,z
-x,-y,z
1/2+x,1/2-y,1/2-z
1/2-x,1/2+y,1/2-z
-x,-y,-z
x,y,-z
1/2-x,1/2+y,1/2+z
1/2+x,1/2-y,1/2+z
loop_
_atom_site_type_symbol
_atom_site_label
_atom_site_fract_x
_atom_site_fract_y
_atom_site_fract_z
Si Si1 0.077878 0.889211 0.821934
Si Si2 0.538421 0.180617 0.672971
Si Si3 0.086248 0.457223 0.823837
Si Si4 0.386245 0.258025 0.176939
Si Si5 0.111767 0.097229 0.321968
Si Si6 0.224601 0.990302 0.822244
Si Si7 0.185602 0.216995 0.172769
O O1 0.093826 0.819746 0.769024
O O2 0.164513 0.930863 0.774070
O O3 0.987356 0.918715 0.747610
O O4 0.061849 0.888629 0.000000
O O5 0.502002 0.181987 0.500000
O O6 0.560559 0.111701 0.726245
O O7 0.460940 0.206570 0.783645
O O8 0.631445 0.219188 0.689726
O O9 0.170952 0.480169 0.724802
O O10 0.000000 0.500000 0.786676
O O11 0.113935 0.460150 0.000000
O O12 0.288810 0.230128 0.225837
O O13 0.389184 0.274265 0.000000
O O14 0.104553 0.090544 0.500000
O O15 0.140120 0.166802 0.281282
O O16 0.188243 0.050980 0.260568
O O17 0.218708 0.002132 0.000000
O O18 0.182143 0.192511 0.000000
#
# Coordination Sequence:
#
# PCOD8238342 Si02
#       7
#     8   8   8   8   8   8   8
#     4  11  23  42  65  93 129 168 208 257 321 382
#     4  10  21  40  64  89 127 172 207 255 316 372
#     4  10  23  43  66  95 130 169 215 264 314 373
#     4  11  23  38  63  96 126 163 209 257 308 371
#     4  12  25  40  64  95 126 164 212 265 317 379
#     4  11  25  43  65  92 126 170 212 261 321 381
#     4  10  22  40  61  89 128 170 208 256 318 378
#
# _framework density 20.155360999999999
#
# number of rings (size 3 to 8) (size 9 to 14) (size 15 to 20)
#    0.000    1.286    1.429    3.857    2.000    7.143 
#    0.000    0.000    0.000    0.000    0.000    0.000 
#    0.000    0.000    0.000    0.000    0.000    0.000 
#
# Total GULP energy -694835.430637 kJ/mol
# GULP energy per Si atom -12407.775547 kJ/mol
# Density = 2.010949 g / cm^3
# Si number density = 20.155361 Si / 1000 Ang^3
#
#
#
# Elastic Constant Matrix: (Units=GPa)
#
#
# Indices 1 2 3 4 5 6 
#
# 1 126.7413 44.1870 43.6357 0.0000 0.0000 0.0000
# 2 44.1870 119.3323 45.0277 0.0000 0.0000 0.0000
# 3 43.6357 45.0277 81.8260 0.0000 0.0000 0.0000
# 4 0.0000 0.0000 0.0000 14.3312 0.0000 0.0000
# 5 0.0000 0.0000 0.0000 0.0000 33.6001 0.0000
# 6 0.0000 0.0000 0.0000 0.0000 0.0000 30.3156
#
#
#
# Elastic Compliance Matrix: (Units=1/GPa)
#
#
# Indices 1 2 3 4 5 6 
#
# 1 0.010084 -0.002152 -0.004194 0.000000 0.000000 0.000000
# 2 -0.002152 0.011035 -0.004925 0.000000 0.000000 0.000000
# 3 -0.004194 -0.004925 0.017168 0.000000 0.000000 0.000000
# 4 0.000000 0.000000 0.000000 0.069778 0.000000 0.000000
# 5 0.000000 0.000000 0.000000 0.000000 0.029762 0.000000
# 6 0.000000 0.000000 0.000000 0.000000 0.000000 0.032986
#
#
# Mechanical properties :
#
#
# Convention : Reuss Voigt Hill
#
# Bulk Modulus (GPa) = 63.50729 65.95560 64.73145
# Shear Modulus (GPa) = 25.17603 28.65266 26.91434
#
# Velocity S-wave (km/s) = 3.53809 3.77449 3.65820
# Velocity P-wave (km/s) = 6.94752 7.19655 7.07313
#
# Compressibility (1/GPa) = 0.01574622
#
# Stress axis : x y z
#
# Youngs Moduli (GPa) = 99.16686 90.62053 58.24949
#
# Poissons Ratio (x) = 0.19498 0.24427
# Poissons Ratio (y) = 0.21337 0.28688
# Poissons Ratio (z) = 0.41586 0.44631
#
# Static dielectric constant tensor:
#      x y z
#    x 3.832100 0.000000 0.000000 
#    y 0.000000 3.764400 0.000000 
#    z 0.000000 0.000000 3.636140 
# 
# 
# High freq. dielectric constant tensor:
#      x y z
#    x 1.800270 0.000000 0.000000 
#    y 0.000000 1.797540 0.000000 
#    z 0.000000 0.000000 1.786790 
# 
# From -- ./inp_files/6382.got.cif
#   From: 2010.06.25/outbox.cif.g09.slc.cpg/sg58_4_cif.got.tgz:6382.got - 2010.06.26 21:38:00.
