data_PCOD8238949
_publ_section_title
;
Structure prediction by ZEFSAII (Michael W. Deem and Ramdas Pophale) SiO2 
 PCOD8238949
Probable space group: P N N M
;
_chemical_formula_sum "Si O2"
_cell_formula_units_Z 36
_cell_length_a 10.061751
_cell_length_b 6.890047
_cell_length_c 26.161742
_cell_angle_alpha 90.000000
_cell_angle_beta 90.000000
_cell_angle_gamma 90.000000
_cell_volume 1813.687285
_symmetry_space_group_name_H-M "P N N M"
_symmetry_group_IT_number 58
_symmetry_cell_setting 'orthorhombic'
loop_
_space_group_symop_operation_xyz
x,y,z
-x,-y,z
1/2+x,1/2-y,1/2-z
1/2-x,1/2+y,1/2-z
-x,-y,-z
x,y,-z
1/2-x,1/2+y,1/2+z
1/2+x,1/2-y,1/2+z
loop_
_atom_site_type_symbol
_atom_site_label
_atom_site_fract_x
_atom_site_fract_y
_atom_site_fract_z
Si Si1 0.648528 0.526723 0.134986
Si Si2 0.374596 0.124403 0.787117
Si Si3 0.121721 0.362518 0.059337
Si Si4 0.500000 0.500000 0.394510
Si Si5 0.314271 0.300013 0.315879
O O1 0.500000 0.500000 0.112808
O O2 0.647663 0.692600 0.177222
O O3 0.745208 0.579722 0.088795
O O4 0.695056 0.328762 0.161750
O O5 0.394839 0.188010 0.728347
O O6 0.500000 0.000000 0.805345
O O7 0.242989 0.995071 0.791088
O O8 0.090731 0.136225 0.069888
O O9 0.000000 0.500000 0.076936
O O10 0.151844 0.392369 0.000000
O O11 0.414914 0.352991 0.360601
#
# Coordination Sequence:
#
# PCOD8238949 Si02
#       5
#     8   8   8   4   8
#     4  12  25  44  66  96 137 177 218 274 332 401
#     4  12  26  40  61  95 137 181 220 263 326 397
#     4  11  25  46  71  98 129 171 227 287 340 391
#     4  12  25  42  70  98 130 172 227 280 326 398
#     4  12  26  39  63  98 136 179 218 268 326 396
#
# _framework density 19.849067000000002
#
# number of rings (size 3 to 8) (size 9 to 14) (size 15 to 20)
#    0.000    0.222    8.889    0.333    7.778    0.444 
#    0.000    0.000    0.000    2.000    0.000    0.000 
#    0.000    0.000    0.000    0.000    0.000    0.000 
#
# Total GULP energy -446604.804327 kJ/mol
# GULP energy per Si atom -12405.689009 kJ/mol
# Density = 1.980389 g / cm^3
# Si number density = 19.849067 Si / 1000 Ang^3
#
#
#
# Elastic Constant Matrix: (Units=GPa)
#
#
# Indices 1 2 3 4 5 6 
#
# 1 122.3225 50.3263 55.9773 0.0000 0.0000 0.0000
# 2 50.3263 107.4874 37.9376 0.0000 0.0000 0.0000
# 3 55.9773 37.9376 92.4291 0.0000 0.0000 0.0000
# 4 0.0000 0.0000 0.0000 31.9363 0.0000 0.0000
# 5 0.0000 0.0000 0.0000 0.0000 26.0668 0.0000
# 6 0.0000 0.0000 0.0000 0.0000 0.0000 44.2264
#
#
#
# Elastic Compliance Matrix: (Units=1/GPa)
#
#
# Indices 1 2 3 4 5 6 
#
# 1 0.012456 -0.003706 -0.006022 0.000000 0.000000 0.000000
# 2 -0.003706 0.011982 -0.002674 0.000000 0.000000 0.000000
# 3 -0.006022 -0.002674 0.015564 0.000000 0.000000 0.000000
# 4 0.000000 0.000000 0.000000 0.031312 0.000000 0.000000
# 5 0.000000 0.000000 0.000000 0.000000 0.038363 0.000000
# 6 0.000000 0.000000 0.000000 0.000000 0.000000 0.022611
#
#
# Mechanical properties :
#
#
# Convention : Reuss Voigt Hill
#
# Bulk Modulus (GPa) = 65.79988 67.85797 66.82892
# Shear Modulus (GPa) = 30.83400 32.31241 31.57321
#
# Velocity S-wave (km/s) = 3.94562 4.03911 3.99264
# Velocity P-wave (km/s) = 7.34706 7.48423 7.41597
#
# Compressibility (1/GPa) = 0.01519760
#
# Stress axis : x y z
#
# Youngs Moduli (GPa) = 80.28289 83.45589 64.25200
#
# Poissons Ratio (x) = 0.30932 0.38695
# Poissons Ratio (y) = 0.29756 0.17178
# Poissons Ratio (z) = 0.48349 0.22312
#
# Static dielectric constant tensor:
#      x y z
#    x 3.726800 0.000000 0.000000 
#    y 0.000000 3.892930 0.000000 
#    z 0.000000 0.000000 3.419750 
# 
# 
# High freq. dielectric constant tensor:
#      x y z
#    x 1.774710 0.000000 0.000000 
#    y 0.000000 1.796950 0.000000 
#    z 0.000000 0.000000 1.764520 
# 
# From -- ./inp_files/31800.got.cif
#   From: 2010.06.25/outbox.cif.g09.slc.cpg/sg58_16_cif.got.tgz:31800.got - 2010.06.26 21:38:00.
