data_PCOD8238212
_publ_section_title
;
Structure prediction by ZEFSAII (Michael W. Deem and Ramdas Pophale) SiO2 
 PCOD8238212
Probable space group: P N N M
;
_chemical_formula_sum "Si O2"
_cell_formula_units_Z 48
_cell_length_a 17.736263
_cell_length_b 15.312936
_cell_length_c 8.452448
_cell_angle_alpha 90.000000
_cell_angle_beta 90.000000
_cell_angle_gamma 90.000000
_cell_volume 2295.636361
_symmetry_space_group_name_H-M "P N N M"
_symmetry_group_IT_number 58
_symmetry_cell_setting 'orthorhombic'
loop_
_space_group_symop_operation_xyz
x,y,z
-x,-y,z
1/2+x,1/2-y,1/2-z
1/2-x,1/2+y,1/2-z
-x,-y,-z
x,y,-z
1/2-x,1/2+y,1/2+z
1/2+x,1/2-y,1/2+z
loop_
_atom_site_type_symbol
_atom_site_label
_atom_site_fract_x
_atom_site_fract_y
_atom_site_fract_z
Si Si1 0.452910 0.081132 0.312057
Si Si2 0.792922 0.081809 0.181976
Si Si3 0.217827 0.585217 0.184588
Si Si4 0.212114 0.255343 0.818215
Si Si5 0.544985 0.585015 0.183068
Si Si6 0.037412 0.246308 0.814825
O O1 0.453806 0.077327 0.500000
O O2 0.367310 0.077549 0.249514
O O3 0.491825 0.169704 0.253855
O O4 0.500000 0.000000 0.241223
O O5 0.746328 0.149602 0.287061
O O6 0.881188 0.094678 0.211024
O O7 0.770242 0.983120 0.224208
O O8 0.775444 0.100871 0.000000
O O9 0.247570 0.682894 0.211425
O O10 0.221072 0.563378 0.000000
O O11 0.124533 0.261113 0.776429
O O12 0.225053 0.229937 0.000000
O O13 0.500000 0.500000 0.238599
O O14 0.490393 0.666078 0.210993
O O15 0.568575 0.578757 0.000000
O O16 0.023421 0.228319 0.000000
#
# Coordination Sequence:
#
# PCOD8238212 Si02
#       6
#     8   8   8   8   8   8
#     4   9  18  35  59  85 113 149 193 238 288 350
#     4  12  25  41  62  88 122 164 208 253 303 362
#     4  11  22  38  62  90 121 157 199 251 309 367
#     4  11  23  40  63  91 124 161 203 251 302 362
#     4  11  24  41  62  88 119 156 200 253 310 365
#     4  10  21  38  62  90 119 156 199 243 298 363
#
# _framework density 20.909234999999999
#
# number of rings (size 3 to 8) (size 9 to 14) (size 15 to 20)
#    0.000    1.333    0.000    6.000    0.000    9.333 
#    0.000    0.833    0.000    3.500    0.000    0.000 
#    0.000    0.000    0.000    0.000    0.000    0.000 
#
# Total GULP energy -595575.859951 kJ/mol
# GULP energy per Si atom -12407.830416 kJ/mol
# Density = 2.086164 g / cm^3
# Si number density = 20.909235 Si / 1000 Ang^3
#
#
#
# Elastic Constant Matrix: (Units=GPa)
#
#
# Indices 1 2 3 4 5 6 
#
# 1 125.0601 35.7570 33.7206 0.0000 0.0000 0.0000
# 2 35.7570 124.2352 17.8748 0.0000 0.0000 0.0000
# 3 33.7206 17.8748 44.9381 0.0000 0.0000 0.0000
# 4 0.0000 0.0000 0.0000 14.1355 0.0000 0.0000
# 5 0.0000 0.0000 0.0000 0.0000 26.5850 0.0000
# 6 0.0000 0.0000 0.0000 0.0000 0.0000 47.3931
#
#
#
# Elastic Compliance Matrix: (Units=1/GPa)
#
#
# Indices 1 2 3 4 5 6 
#
# 1 0.010472 -0.001998 -0.007063 0.000000 0.000000 0.000000
# 2 -0.001998 0.008919 -0.002049 0.000000 0.000000 0.000000
# 3 -0.007063 -0.002049 0.028368 0.000000 0.000000 0.000000
# 4 0.000000 0.000000 0.000000 0.070744 0.000000 0.000000
# 5 0.000000 0.000000 0.000000 0.000000 0.037615 0.000000
# 6 0.000000 0.000000 0.000000 0.000000 0.000000 0.021100
#
#
# Mechanical properties :
#
#
# Convention : Reuss Voigt Hill
#
# Bulk Modulus (GPa) = 39.15501 52.10424 45.62963
# Shear Modulus (GPa) = 24.04420 31.41477 27.72949
#
# Velocity S-wave (km/s) = 3.39474 3.88033 3.64563
# Velocity P-wave (km/s) = 5.84231 6.71188 6.29213
#
# Compressibility (1/GPa) = 0.02553951
#
# Stress axis : x y z
#
# Youngs Moduli (GPa) = 95.49417 112.12048 35.25119
#
# Poissons Ratio (x) = 0.22399 0.24899
# Poissons Ratio (y) = 0.19077 0.07222
# Poissons Ratio (z) = 0.67450 0.22969
#
# Static dielectric constant tensor:
#      x y z
#    x 3.914800 0.000000 0.000000 
#    y 0.000000 3.834910 0.000000 
#    z 0.000000 0.000000 3.514170 
# 
# 
# High freq. dielectric constant tensor:
#      x y z
#    x 1.835250 0.000000 0.000000 
#    y 0.000000 1.833690 0.000000 
#    z 0.000000 0.000000 1.802410 
# 
# From -- ./inp_files/7723.got.cif
#   From: 2010.06.25/outbox.cif.g09.slc.cpg/sg58_4_cif.got.tgz:7723.got - 2010.06.26 21:38:00.
