data_PCOD8238901
_publ_section_title
;
Structure prediction by ZEFSAII (Michael W. Deem and Ramdas Pophale) SiO2 
 PCOD8238901
Probable space group: P N N M
;
_chemical_formula_sum "Si O2"
_cell_formula_units_Z 48
_cell_length_a 8.800297
_cell_length_b 10.189825
_cell_length_c 27.383354
_cell_angle_alpha 90.000000
_cell_angle_beta 90.000000
_cell_angle_gamma 90.000000
_cell_volume 2455.560822
_symmetry_space_group_name_H-M "P N N M"
_symmetry_group_IT_number 58
_symmetry_cell_setting 'orthorhombic'
loop_
_space_group_symop_operation_xyz
x,y,z
-x,-y,z
1/2+x,1/2-y,1/2-z
1/2-x,1/2+y,1/2-z
-x,-y,-z
x,y,-z
1/2-x,1/2+y,1/2+z
1/2+x,1/2-y,1/2+z
loop_
_atom_site_type_symbol
_atom_site_label
_atom_site_fract_x
_atom_site_fract_y
_atom_site_fract_z
Si Si1 0.234170 0.427076 0.555217
Si Si2 0.590102 0.634815 0.145796
Si Si3 0.911456 0.298009 0.555076
Si Si4 0.082961 0.366026 0.698316
Si Si5 0.904307 0.125237 0.849806
Si Si6 0.082185 0.367590 0.187849
O O1 0.295748 0.409608 0.500000
O O2 0.197247 0.578826 0.565918
O O3 0.361358 0.379730 0.592981
O O4 0.085149 0.339999 0.563237
O O5 0.500000 0.500000 0.144680
O O6 0.631522 0.678718 0.090744
O O7 0.487462 0.746055 0.169461
O O8 0.740803 0.616823 0.177139
O O9 0.887052 0.247823 0.500000
O O10 0.259558 0.373917 0.685492
O O11 0.060003 0.338833 0.755194
O O12 0.000000 0.500000 0.681844
O O13 0.008087 0.252039 0.843189
O O14 0.000000 0.000000 0.833592
O O15 0.000000 0.500000 0.171722
#
# Coordination Sequence:
#
# PCOD8238901 Si02
#       6
#     8   8   8   8   8   8
#     4   9  18  35  63  93 122 157 200 250 303 361
#     4  12  24  40  65  89 119 164 207 250 302 363
#     4   9  18  36  63  93 121 156 206 251 290 358
#     4  11  23  42  64  86 118 163 211 250 297 367
#     4  12  23  37  63  94 125 156 199 258 312 359
#     4  11  26  42  58  87 126 161 200 255 313 363
#
# _framework density 19.547470000000001
#
# number of rings (size 3 to 8) (size 9 to 14) (size 15 to 20)
#    0.000    1.333    1.667    6.000    0.000    6.000 
#    0.000    0.833    0.000    1.000    0.000    0.000 
#    0.000    0.000    0.000    0.000    0.000    0.000 
#
# Total GULP energy -595447.479319 kJ/mol
# GULP energy per Si atom -12405.155819 kJ/mol
# Density = 1.950298 g / cm^3
# Si number density = 19.547470 Si / 1000 Ang^3
#
#
#
# Elastic Constant Matrix: (Units=GPa)
#
#
# Indices 1 2 3 4 5 6 
#
# 1 76.8132 33.4665 27.9804 0.0000 0.0000 0.0000
# 2 33.4665 126.5543 64.2394 0.0000 0.0000 0.0000
# 3 27.9804 64.2394 99.1726 0.0000 0.0000 0.0000
# 4 0.0000 0.0000 0.0000 47.3820 0.0000 0.0000
# 5 0.0000 0.0000 0.0000 0.0000 32.6533 0.0000
# 6 0.0000 0.0000 0.0000 0.0000 0.0000 37.8173
#
#
#
# Elastic Compliance Matrix: (Units=1/GPa)
#
#
# Indices 1 2 3 4 5 6 
#
# 1 0.015118 -0.002730 -0.002497 0.000000 0.000000 0.000000
# 2 -0.002730 0.012266 -0.007175 0.000000 0.000000 0.000000
# 3 -0.002497 -0.007175 0.015435 0.000000 0.000000 0.000000
# 4 0.000000 0.000000 0.000000 0.021105 0.000000 0.000000
# 5 0.000000 0.000000 0.000000 0.000000 0.030625 0.000000
# 6 0.000000 0.000000 0.000000 0.000000 0.000000 0.026443
#
#
# Mechanical properties :
#
#
# Convention : Reuss Voigt Hill
#
# Bulk Modulus (GPa) = 55.50942 61.54585 58.52764
# Shear Modulus (GPa) = 32.93801 35.36077 34.14939
#
# Velocity S-wave (km/s) = 4.10936 4.25781 4.18424
# Velocity P-wave (km/s) = 7.13966 7.46496 7.30412
#
# Compressibility (1/GPa) = 0.01801496
#
# Stress axis : x y z
#
# Youngs Moduli (GPa) = 66.14777 81.52767 64.78643
#
# Poissons Ratio (x) = 0.22261 0.16175
# Poissons Ratio (y) = 0.18062 0.46483
# Poissons Ratio (z) = 0.16514 0.58495
#
# Static dielectric constant tensor:
#      x y z
#    x 3.494860 0.000000 0.000000 
#    y 0.000000 3.692760 0.000000 
#    z 0.000000 0.000000 3.733360 
# 
# 
# High freq. dielectric constant tensor:
#      x y z
#    x 1.762230 0.000000 0.000000 
#    y 0.000000 1.755820 0.000000 
#    z 0.000000 0.000000 1.775430 
# 
# From -- ./inp_files/34598.got.cif
#   From: 2010.06.25/outbox.cif.g09.slc.cpg/sg58_18_cif.got.tgz:34598.got - 2010.06.26 21:38:00.
