data_PCOD8238318
_publ_section_title
;
Structure prediction by ZEFSAII (Michael W. Deem and Ramdas Pophale) SiO2 
 PCOD8238318
Probable space group: P N N M
;
_chemical_formula_sum "Si O2"
_cell_formula_units_Z 48
_cell_length_a 31.104096
_cell_length_b 9.416459
_cell_length_c 7.721901
_cell_angle_alpha 90.000000
_cell_angle_beta 90.000000
_cell_angle_gamma 90.000000
_cell_volume 2261.671018
_symmetry_space_group_name_H-M "P N N M"
_symmetry_group_IT_number 58
_symmetry_cell_setting 'orthorhombic'
loop_
_space_group_symop_operation_xyz
x,y,z
-x,-y,z
1/2+x,1/2-y,1/2-z
1/2-x,1/2+y,1/2-z
-x,-y,-z
x,y,-z
1/2-x,1/2+y,1/2+z
1/2+x,1/2-y,1/2+z
loop_
_atom_site_type_symbol
_atom_site_label
_atom_site_fract_x
_atom_site_fract_y
_atom_site_fract_z
Si Si1 0.477009 0.707480 0.500000
Si Si2 0.565362 0.593382 0.500000
Si Si3 0.542426 0.091201 0.801246
Si Si4 0.291137 0.839520 0.794754
Si Si5 0.633266 0.968105 0.202044
Si Si6 0.629131 0.652128 0.196534
Si Si7 0.208634 0.015577 0.197921
O O1 0.529083 0.716269 0.500000
O O2 0.460027 0.550925 0.500000
O O3 0.458825 0.776017 0.674868
O O4 0.592622 0.598142 0.324842
O O5 0.584085 0.999819 0.747832
O O6 0.500000 0.000000 0.770775
O O7 0.545607 0.144248 0.000000
O O8 0.333744 0.917028 0.716603
O O9 0.286445 0.684276 0.713977
O O10 0.251393 0.937332 0.735052
O O11 0.293218 0.823506 0.000000
O O12 0.644311 0.807952 0.262793
O O13 0.640791 0.978107 0.000000
O O14 0.668615 0.542692 0.192852
O O15 0.610519 0.661405 0.000000
O O16 0.199800 0.975423 0.000000
#
# Coordination Sequence:
#
# PCOD8238318 Si02
#       7
#     4   4   8   8   8   8   8
#     4  11  25  42  64  92 139 168 217 282 331 382
#     4  11  26  44  62  98 130 173 226 267 323 407
#     4  10  21  39  66  96 128 170 223 271 328 393
#     4  10  22  40  63  91 128 171 215 266 324 386
#     4   9  20  38  62  93 126 166 218 268 320 391
#     4  11  23  43  68  90 130 174 214 268 332 382
#     4  11  23  40  62  94 132 167 219 270 317 393
#
# _framework density 21.223243
#
# number of rings (size 3 to 8) (size 9 to 14) (size 15 to 20)
#    0.000    1.667    0.833    2.750    2.333    6.000 
#    1.500    1.667    0.000    0.000    0.000    0.000 
#    0.000    0.000    0.000    0.000    0.000    0.000 
#
# Total GULP energy -595224.687337 kJ/mol
# GULP energy per Si atom -12400.514320 kJ/mol
# Density = 2.117494 g / cm^3
# Si number density = 21.223243 Si / 1000 Ang^3
#
#
#
# Elastic Constant Matrix: (Units=GPa)
#
#
# Indices 1 2 3 4 5 6 
#
# 1 136.4415 67.1585 33.5569 0.0000 0.0000 0.0000
# 2 67.1585 137.1585 28.7006 0.0000 0.0000 0.0000
# 3 33.5569 28.7006 87.9528 0.0000 0.0000 0.0000
# 4 0.0000 0.0000 0.0000 31.4207 0.0000 0.0000
# 5 0.0000 0.0000 0.0000 0.0000 -14.0565 0.0000
# 6 0.0000 0.0000 0.0000 0.0000 0.0000 39.3053
#
#
#
# Elastic Compliance Matrix: (Units=1/GPa)
#
#
# Indices 1 2 3 4 5 6 
#
# 1 0.010110 -0.004447 -0.002406 0.000000 0.000000 0.000000
# 2 -0.004447 0.009781 -0.001495 0.000000 0.000000 0.000000
# 3 -0.002406 -0.001495 0.012776 0.000000 0.000000 0.000000
# 4 0.000000 0.000000 0.000000 0.031826 0.000000 0.000000
# 5 0.000000 0.000000 0.000000 0.000000 -0.071141 0.000000
# 6 0.000000 0.000000 0.000000 0.000000 0.000000 0.025442
#
#
# Mechanical properties :
#
#
# Convention : Reuss Voigt Hill
#
# Bulk Modulus (GPa) = 62.61591 68.93164 65.77377
# Shear Modulus (GPa) = 122.51269 26.80968 74.66119
#
# Velocity S-wave (km/s) = 7.60599 3.55804 5.93762
# Velocity P-wave (km/s) = 10.32968 7.03060 8.83548
#
# Compressibility (1/GPa) = 0.01597038
#
# Stress axis : x y z
#
# Youngs Moduli (GPa) = 98.91588 102.23963 78.27381
#
# Poissons Ratio (x) = 0.45462 0.18834
# Poissons Ratio (y) = 0.43984 0.11703
# Poissons Ratio (z) = 0.23801 0.15287
#
# Static dielectric constant tensor:
#      x y z
#    x 4.092750 0.000000 0.000000 
#    y 0.000000 3.839740 0.000000 
#    z 0.000000 0.000000 3.737320 
# 
# 
# High freq. dielectric constant tensor:
#      x y z
#    x 1.841060 0.000000 0.000000 
#    y 0.000000 1.836310 0.000000 
#    z 0.000000 0.000000 1.828110 
# 
# From -- ./inp_files/10791.got.cif
#   From: 2010.06.25/outbox.cif.g09.slc.cpg/sg58_6_cif.got.tgz:10791.got - 2010.06.26 21:38:00.
