data_PCOD8238779
_publ_section_title
;
Structure prediction by ZEFSAII (Michael W. Deem and Ramdas Pophale) SiO2 
 PCOD8238779
Probable space group: P N N M
;
_chemical_formula_sum "Si O2"
_cell_formula_units_Z 48
_cell_length_a 18.827143
_cell_length_b 9.513814
_cell_length_c 14.261978
_cell_angle_alpha 90.000000
_cell_angle_beta 90.000000
_cell_angle_gamma 90.000000
_cell_volume 2554.576072
_symmetry_space_group_name_H-M "P N N M"
_symmetry_group_IT_number 58
_symmetry_cell_setting 'orthorhombic'
loop_
_space_group_symop_operation_xyz
x,y,z
-x,-y,z
1/2+x,1/2-y,1/2-z
1/2-x,1/2+y,1/2-z
-x,-y,-z
x,y,-z
1/2-x,1/2+y,1/2+z
1/2+x,1/2-y,1/2+z
loop_
_atom_site_type_symbol
_atom_site_label
_atom_site_fract_x
_atom_site_fract_y
_atom_site_fract_z
Si Si1 0.885081 0.745475 0.000000
Si Si2 0.691051 0.703870 0.797718
Si Si3 0.387233 0.421012 0.500000
Si Si4 0.050471 0.870453 0.801416
Si Si5 0.270208 0.278507 0.000000
Si Si6 0.728943 0.048699 0.000000
Si Si7 0.046390 0.372442 0.815669
Si Si8 0.181485 0.462093 0.703595
O O1 0.922303 0.702111 0.905389
O O2 0.885419 0.912340 0.000000
O O3 0.809982 0.662929 0.000000
O O4 0.623737 0.623893 0.755316
O O5 0.760971 0.630489 0.757808
O O6 0.694458 0.871607 0.778313
O O7 0.686672 0.673563 0.908787
O O8 0.429746 0.361756 0.588845
O O9 0.304817 0.368420 0.500000
O O10 0.007545 0.734965 0.766125
O O11 0.000000 0.000000 0.777315
O O12 0.254639 0.114345 0.000000
O O13 0.684532 0.082629 0.905997
O O14 0.104140 0.420853 0.740146
O O15 0.000000 0.500000 0.853189
#
# Coordination Sequence:
#
# PCOD8238779 Si02
#       8
#     4   8   4   8   4   4   8   8
#     4  11  20  37  63  92 128 163 200 260 313 376
#     4  11  23  42  65  91 123 165 209 254 303 376
#     4  11  20  38  62  96 123 162 211 251 307 386
#     4  12  24  39  63  91 129 167 204 254 314 378
#     4   9  20  38  64  90 117 161 207 251 305 360
#     4   9  20  38  65  90 118 159 212 249 296 370
#     4  12  24  40  58  94 133 160 202 260 320 361
#     4  11  23  42  65  91 125 163 210 253 304 372
#
# _framework density 18.789809000000002
#
# number of rings (size 3 to 8) (size 9 to 14) (size 15 to 20)
#    0.000    1.000    6.667    1.000    2.333    0.000 
#    0.000    4.167    0.000    0.000    0.000    0.000 
#    0.000    0.000    0.000    0.000    0.000    0.000 
#
# Total GULP energy -595091.378288 kJ/mol
# GULP energy per Si atom -12397.737048 kJ/mol
# Density = 1.874704 g / cm^3
# Si number density = 18.789809 Si / 1000 Ang^3
#
#
#
# Elastic Constant Matrix: (Units=GPa)
#
#
# Indices 1 2 3 4 5 6 
#
# 1 108.5888 32.5268 44.6137 0.0000 0.0000 0.0000
# 2 32.5268 63.9624 28.5622 0.0000 0.0000 0.0000
# 3 44.6137 28.5622 121.2052 0.0000 0.0000 0.0000
# 4 0.0000 0.0000 0.0000 23.9869 0.0000 0.0000
# 5 0.0000 0.0000 0.0000 0.0000 65.2606 0.0000
# 6 0.0000 0.0000 0.0000 0.0000 0.0000 38.2494
#
#
#
# Elastic Compliance Matrix: (Units=1/GPa)
#
#
# Indices 1 2 3 4 5 6 
#
# 1 0.011947 -0.004595 -0.003315 0.000000 0.000000 0.000000
# 2 -0.004595 0.019240 -0.002843 0.000000 0.000000 0.000000
# 3 -0.003315 -0.002843 0.010140 0.000000 0.000000 0.000000
# 4 0.000000 0.000000 0.000000 0.041689 0.000000 0.000000
# 5 0.000000 0.000000 0.000000 0.000000 0.015323 0.000000
# 6 0.000000 0.000000 0.000000 0.000000 0.000000 0.026144
#
#
# Mechanical properties :
#
#
# Convention : Reuss Voigt Hill
#
# Bulk Modulus (GPa) = 50.44679 56.12910 53.28795
# Shear Modulus (GPa) = 32.76581 38.03630 35.40106
#
# Velocity S-wave (km/s) = 4.18042 4.50411 4.34528
# Velocity P-wave (km/s) = 7.08572 7.54893 7.32099
#
# Compressibility (1/GPa) = 0.01982287
#
# Stress axis : x y z
#
# Youngs Moduli (GPa) = 83.69996 51.97388 98.61527
#
# Poissons Ratio (x) = 0.23884 0.32688
# Poissons Ratio (y) = 0.38464 0.28032
# Poissons Ratio (z) = 0.27744 0.14774
#
# Static dielectric constant tensor:
#      x y z
#    x 3.643190 0.000000 0.000000 
#    y 0.000000 3.244890 0.000000 
#    z 0.000000 0.000000 3.831790 
# 
# 
# High freq. dielectric constant tensor:
#      x y z
#    x 1.742990 0.000000 0.000000 
#    y 0.000000 1.723270 0.000000 
#    z 0.000000 0.000000 1.725730 
# 
# From -- ./inp_files/22822.got.cif
#   From: 2010.06.25/outbox.cif.g09.slc.cpg/sg58_12_cif.got.tgz:22822.got - 2010.06.26 21:38:00.
