data_PCOD8238732
_publ_section_title
;
Structure prediction by ZEFSAII (Michael W. Deem and Ramdas Pophale) SiO2 
 PCOD8238732
Probable space group: P N N M
;
_chemical_formula_sum "Si O2"
_cell_formula_units_Z 48
_cell_length_a 9.387345
_cell_length_b 8.019976
_cell_length_c 29.428473
_cell_angle_alpha 90.000000
_cell_angle_beta 90.000000
_cell_angle_gamma 90.000000
_cell_volume 2215.560305
_symmetry_space_group_name_H-M "P N N M"
_symmetry_group_IT_number 58
_symmetry_cell_setting 'orthorhombic'
loop_
_space_group_symop_operation_xyz
x,y,z
-x,-y,z
1/2+x,1/2-y,1/2-z
1/2-x,1/2+y,1/2-z
-x,-y,-z
x,y,-z
1/2-x,1/2+y,1/2+z
1/2+x,1/2-y,1/2+z
loop_
_atom_site_type_symbol
_atom_site_label
_atom_site_fract_x
_atom_site_fract_y
_atom_site_fract_z
Si Si1 0.734957 0.174012 0.318928
Si Si2 0.901783 0.255906 0.500000
Si Si3 0.891189 0.260372 0.598258
Si Si4 0.644216 0.903690 0.252679
Si Si5 0.055539 0.815025 0.170378
Si Si6 0.300419 0.867190 0.000000
Si Si7 0.213832 0.371494 0.402116
O O1 0.841855 0.138612 0.361016
O O2 0.775304 0.347782 0.293103
O O3 0.575986 0.189966 0.339559
O O4 0.743733 0.019934 0.284120
O O5 0.845939 0.182364 0.548518
O O6 0.868789 0.450644 0.500000
O O7 0.071888 0.232916 0.500000
O O8 0.806623 0.432571 0.607082
O O9 0.060604 0.282972 0.600635
O O10 0.614495 0.733087 0.280079
O O11 0.500000 0.000000 0.238405
O O12 0.178454 0.788041 0.133195
O O13 0.000000 0.000000 0.170184
O O14 0.215271 0.844414 0.952586
#
# Coordination Sequence:
#
# PCOD8238732 Si02
#       7
#     8   4   8   8   8   4   8
#     4  11  22  38  58  81 111 151 191 242 291 346
#     4   7  12  26  47  83 108 144 185 238 282 343
#     4   9  17  30  57  81 115 147 192 234 292 350
#     4  10  25  41  59  84 116 153 200 244 292 352
#     4  11  21  37  57  82 113 146 184 236 292 343
#     4   7  12  26  46  78 115 144 182 234 286 340
#     4   9  17  30  54  83 114 149 188 237 290 347
#
# _framework density 21.664950000000001
#
# number of rings (size 3 to 8) (size 9 to 14) (size 15 to 20)
#    0.000    2.500    1.667    3.000    2.333    1.333 
#    0.000    5.417    0.000    1.000    0.000    7.000 
#    0.000    0.000    0.000    0.000    0.000    0.000 
#
# Total GULP energy -594686.273594 kJ/mol
# GULP energy per Si atom -12389.297367 kJ/mol
# Density = 2.161564 g / cm^3
# Si number density = 21.664950 Si / 1000 Ang^3
#
#
#
# Elastic Constant Matrix: (Units=GPa)
#
#
# Indices 1 2 3 4 5 6 
#
# 1 75.4221 9.7485 61.9308 0.0000 0.0000 0.0000
# 2 9.7485 20.9342 16.2523 0.0000 0.0000 0.0000
# 3 61.9308 16.2523 152.2356 0.0000 0.0000 0.0000
# 4 0.0000 0.0000 0.0000 5.4317 0.0000 0.0000
# 5 0.0000 0.0000 0.0000 0.0000 29.5842 0.0000
# 6 0.0000 0.0000 0.0000 0.0000 0.0000 20.3228
#
#
#
# Elastic Compliance Matrix: (Units=1/GPa)
#
#
# Indices 1 2 3 4 5 6 
#
# 1 0.020114 -0.003286 -0.007832 0.000000 0.000000 0.000000
# 2 -0.003286 0.052623 -0.004281 0.000000 0.000000 0.000000
# 3 -0.007832 -0.004281 0.010212 0.000000 0.000000 0.000000
# 4 0.000000 0.000000 0.000000 0.184104 0.000000 0.000000
# 5 0.000000 0.000000 0.000000 0.000000 0.033802 0.000000
# 6 0.000000 0.000000 0.000000 0.000000 0.000000 0.049206
#
#
# Mechanical properties :
#
#
# Convention : Reuss Voigt Hill
#
# Bulk Modulus (GPa) = 19.17526 47.16168 33.16847
# Shear Modulus (GPa) = 12.55516 21.77842 17.16679
#
# Velocity S-wave (km/s) = 2.40992 3.17399 2.81797
# Velocity P-wave (km/s) = 4.07599 5.93702 5.09224
#
# Compressibility (1/GPa) = 0.05215052
#
# Stress axis : x y z
#
# Youngs Moduli (GPa) = 49.71561 19.00320 97.92528
#
# Poissons Ratio (x) = 0.06245 0.76694
# Poissons Ratio (y) = 0.16339 0.41921
# Poissons Ratio (z) = 0.38937 0.08135
#
# Static dielectric constant tensor:
#      x y z
#    x 3.741490 0.000000 0.000000 
#    y 0.000000 3.510850 0.000000 
#    z 0.000000 0.000000 4.328450 
# 
# 
# High freq. dielectric constant tensor:
#      x y z
#    x 1.821570 0.000000 0.000000 
#    y 0.000000 1.816170 0.000000 
#    z 0.000000 0.000000 1.868680 
# 
# From -- ./inp_files/34642.got.cif
#   From: 2010.06.25/outbox.cif.g09.slc.cpg/sg58_18_cif.got.tgz:34642.got - 2010.06.26 21:38:00.
