data_PCOD8238188
_publ_section_title
;
Structure prediction by ZEFSAII (Michael W. Deem and Ramdas Pophale) SiO2 
 PCOD8238188
Probable space group: P N N M
;
_chemical_formula_sum "Si O2"
_cell_formula_units_Z 64
_cell_length_a 14.325191
_cell_length_b 24.803585
_cell_length_c 9.275265
_cell_angle_alpha 90.000000
_cell_angle_beta 90.000000
_cell_angle_gamma 90.000000
_cell_volume 3295.650918
_symmetry_space_group_name_H-M "P N N M"
_symmetry_group_IT_number 58
_symmetry_cell_setting 'orthorhombic'
loop_
_space_group_symop_operation_xyz
x,y,z
-x,-y,z
1/2+x,1/2-y,1/2-z
1/2-x,1/2+y,1/2-z
-x,-y,-z
x,y,-z
1/2-x,1/2+y,1/2+z
1/2+x,1/2-y,1/2+z
loop_
_atom_site_type_symbol
_atom_site_label
_atom_site_fract_x
_atom_site_fract_y
_atom_site_fract_z
Si Si1 0.641486 0.733426 0.332612
Si Si2 0.765661 0.816273 0.835858
Si Si3 0.603303 0.517917 0.830663
Si Si4 0.932229 0.738070 0.161477
Si Si5 0.595119 0.133073 0.831908
Si Si6 0.253960 0.575330 0.833090
Si Si7 0.539592 0.943459 0.332797
Si Si8 0.196501 0.885542 0.168031
O O1 0.666997 0.741071 0.500000
O O2 0.689542 0.780665 0.244386
O O3 0.532889 0.739030 0.300604
O O4 0.673752 0.674822 0.277697
O O5 0.866007 0.789209 0.826434
O O6 0.777579 0.873693 0.762532
O O7 0.732448 0.824001 0.000000
O O8 0.500000 0.500000 0.780957
O O9 0.676548 0.472045 0.785540
O O10 0.631824 0.573056 0.753215
O O11 0.606126 0.529250 0.000000
O O12 0.898296 0.693737 0.274412
O O13 0.929866 0.713148 0.000000
O O14 0.509630 0.103928 0.754365
O O15 0.693724 0.103229 0.801984
O O16 0.573111 0.135292 0.000000
O O17 0.149106 0.556242 0.802083
O O18 0.268029 0.590473 0.000000
O O19 0.516290 0.934373 0.500000
O O20 0.500000 0.000000 0.276820
O O21 0.172560 0.891213 0.000000
#
# Coordination Sequence:
#
# PCOD8238188 Si02
#       8
#     8   8   8   8   8   8   8   8
#     4  10  21  40  61  84 119 160 198 238 293 360
#     4  11  23  38  59  90 120 151 196 245 290 341
#     4  10  23  42  63  89 118 154 202 251 295 343
#     4  10  22  38  58  83 114 155 198 236 286 355
#     4  11  22  37  59  89 121 151 190 245 299 346
#     4  10  22  40  60  84 119 159 195 238 298 358
#     4  10  21  38  61  86 114 156 198 233 286 356
#     4  10  22  39  61  87 117 156 197 240 298 356
#
# _framework density 19.419532
#
# number of rings (size 3 to 8) (size 9 to 14) (size 15 to 20)
#    0.000    1.750    1.250    2.250    1.750    8.000 
#    0.000    0.000    0.000    0.000    0.000    0.000 
#    0.000    0.000    0.000    0.000    0.000    0.000 
#
# Total GULP energy -793918.674495 kJ/mol
# GULP energy per Si atom -12404.979289 kJ/mol
# Density = 1.937533 g / cm^3
# Si number density = 19.419532 Si / 1000 Ang^3
#
#
#
# Elastic Constant Matrix: (Units=GPa)
#
#
# Indices 1 2 3 4 5 6 
#
# 1 107.7137 27.8996 36.3689 0.0000 0.0000 0.0000
# 2 27.8996 99.0325 41.8115 0.0000 0.0000 0.0000
# 3 36.3689 41.8115 65.4353 0.0000 0.0000 0.0000
# 4 0.0000 0.0000 0.0000 39.6661 0.0000 0.0000
# 5 0.0000 0.0000 0.0000 0.0000 21.9769 0.0000
# 6 0.0000 0.0000 0.0000 0.0000 0.0000 33.9425
#
#
#
# Elastic Compliance Matrix: (Units=1/GPa)
#
#
# Indices 1 2 3 4 5 6 
#
# 1 0.011468 -0.000739 -0.005902 0.000000 0.000000 0.000000
# 2 -0.000739 0.013876 -0.008456 0.000000 0.000000 0.000000
# 3 -0.005902 -0.008456 0.023965 0.000000 0.000000 0.000000
# 4 0.000000 0.000000 0.000000 0.025210 0.000000 0.000000
# 5 0.000000 0.000000 0.000000 0.000000 0.045502 0.000000
# 6 0.000000 0.000000 0.000000 0.000000 0.000000 0.029462
#
#
# Mechanical properties :
#
#
# Convention : Reuss Voigt Hill
#
# Bulk Modulus (GPa) = 52.31065 53.81572 53.06318
# Shear Modulus (GPa) = 26.87477 30.19053 28.53265
#
# Velocity S-wave (km/s) = 3.72412 3.94718 3.83727
# Velocity P-wave (km/s) = 6.74446 6.96749 6.85688
#
# Compressibility (1/GPa) = 0.01911657
#
# Stress axis : x y z
#
# Youngs Moduli (GPa) = 87.19950 72.06771 41.72707
#
# Poissons Ratio (x) = 0.05327 0.24626
# Poissons Ratio (y) = 0.06445 0.35282
# Poissons Ratio (z) = 0.51462 0.60937
#
# Static dielectric constant tensor:
#      x y z
#    x 4.984350 0.000000 0.000000 
#    y 0.000000 3.552830 0.000000 
#    z 0.000000 0.000000 3.538380 
# 
# 
# High freq. dielectric constant tensor:
#      x y z
#    x 1.771650 0.000000 0.000000 
#    y 0.000000 1.760470 0.000000 
#    z 0.000000 0.000000 1.752020 
# 
# From -- ./inp_files/6858.got.cif
#   From: 2010.06.25/outbox.cif.g09.slc.cpg/sg58_4_cif.got.tgz:6858.got - 2010.06.26 21:38:00.
