data_PCOD8238883
_publ_section_title
;
Structure prediction by ZEFSAII (Michael W. Deem and Ramdas Pophale) SiO2 
 PCOD8238883
Probable space group: P N N M
;
_chemical_formula_sum "Si O2"
_cell_formula_units_Z 56
_cell_length_a 20.976929
_cell_length_b 14.711108
_cell_length_c 8.651360
_cell_angle_alpha 90.000000
_cell_angle_beta 90.000000
_cell_angle_gamma 90.000000
_cell_volume 2669.756646
_symmetry_space_group_name_H-M "P N N M"
_symmetry_group_IT_number 58
_symmetry_cell_setting 'orthorhombic'
loop_
_space_group_symop_operation_xyz
x,y,z
-x,-y,z
1/2+x,1/2-y,1/2-z
1/2-x,1/2+y,1/2-z
-x,-y,-z
x,y,-z
1/2-x,1/2+y,1/2+z
1/2+x,1/2-y,1/2+z
loop_
_atom_site_type_symbol
_atom_site_label
_atom_site_fract_x
_atom_site_fract_y
_atom_site_fract_z
Si Si1 0.808007 0.558495 0.819811
Si Si2 0.725525 0.410718 0.678050
Si Si3 0.599080 0.463672 0.823032
Si Si4 0.260062 0.270364 0.679921
Si Si5 0.399676 0.205995 0.322375
Si Si6 0.428149 0.015924 0.181164
Si Si7 0.523036 0.644471 0.176522
O O1 0.778852 0.459457 0.782699
O O2 0.765196 0.631787 0.731026
O O3 0.881494 0.557064 0.763875
O O4 0.805242 0.579480 0.000000
O O5 0.744628 0.421862 0.500000
O O6 0.657001 0.455194 0.705512
O O7 0.721458 0.305591 0.725813
O O8 0.550968 0.379502 0.797862
O O9 0.564728 0.557051 0.781461
O O10 0.623633 0.464235 0.000000
O O11 0.246102 0.257112 0.500000
O O12 0.335030 0.260687 0.717699
O O13 0.401705 0.174877 0.500000
O O14 0.405386 0.117681 0.216613
O O15 0.458626 0.272659 0.287458
O O16 0.500000 0.000000 0.242597
O O17 0.424128 0.997694 0.000000
O O18 0.535368 0.673866 0.000000
#
# Coordination Sequence:
#
# PCOD8238883 Si02
#       7
#     8   8   8   8   8   8   8
#     4  12  25  43  67  96 130 169 213 269 327 387
#     4  12  24  39  62  92 126 165 206 258 317 377
#     4   9  19  37  59  87 123 163 208 258 313 374
#     4  11  24  42  65  94 126 166 214 265 321 382
#     4  11  23  39  63  93 125 165 213 264 319 384
#     4  11  25  45  69  94 125 168 215 266 325 390
#     4   9  19  36  60  87 120 164 208 254 312 376
#
# _framework density 20.975693
#
# number of rings (size 3 to 8) (size 9 to 14) (size 15 to 20)
#    0.000    1.286    1.429    5.571    0.000    7.429 
#    0.000    2.857    0.000    0.000    0.000    0.000 
#    0.000    0.000    0.000    0.000    0.000    0.000 
#
# Total GULP energy -694724.677074 kJ/mol
# GULP energy per Si atom -12405.797805 kJ/mol
# Density = 2.092795 g / cm^3
# Si number density = 20.975693 Si / 1000 Ang^3
#
#
#
# Elastic Constant Matrix: (Units=GPa)
#
#
# Indices 1 2 3 4 5 6 
#
# 1 109.5698 23.9871 36.1979 0.0000 0.0000 0.0000
# 2 23.9871 71.0350 14.4802 0.0000 0.0000 0.0000
# 3 36.1979 14.4802 85.8927 0.0000 0.0000 0.0000
# 4 0.0000 0.0000 0.0000 32.1945 0.0000 0.0000
# 5 0.0000 0.0000 0.0000 0.0000 30.1634 0.0000
# 6 0.0000 0.0000 0.0000 0.0000 0.0000 32.4562
#
#
#
# Elastic Compliance Matrix: (Units=1/GPa)
#
#
# Indices 1 2 3 4 5 6 
#
# 1 0.011154 -0.002908 -0.004210 0.000000 0.000000 0.000000
# 2 -0.002908 0.015337 -0.001360 0.000000 0.000000 0.000000
# 3 -0.004210 -0.001360 0.013646 0.000000 0.000000 0.000000
# 4 0.000000 0.000000 0.000000 0.031061 0.000000 0.000000
# 5 0.000000 0.000000 0.000000 0.000000 0.033153 0.000000
# 6 0.000000 0.000000 0.000000 0.000000 0.000000 0.030811
#
#
# Mechanical properties :
#
#
# Convention : Reuss Voigt Hill
#
# Bulk Modulus (GPa) = 43.14082 46.20309 44.67195
# Shear Modulus (GPa) = 31.28014 31.75166 31.51590
#
# Velocity S-wave (km/s) = 3.86587 3.89490 3.88041
# Velocity P-wave (km/s) = 6.36697 6.50398 6.43584
#
# Compressibility (1/GPa) = 0.02317991
#
# Stress axis : x y z
#
# Youngs Moduli (GPa) = 89.65170 65.20239 73.28097
#
# Poissons Ratio (x) = 0.18963 0.30855
# Poissons Ratio (y) = 0.26073 0.09966
# Poissons Ratio (z) = 0.37748 0.08867
#
# Static dielectric constant tensor:
#      x y z
#    x 3.938610 0.000000 0.000000 
#    y 0.000000 3.648870 0.000000 
#    z 0.000000 0.000000 3.657400 
# 
# 
# High freq. dielectric constant tensor:
#      x y z
#    x 1.828480 0.000000 0.000000 
#    y 0.000000 1.818730 0.000000 
#    z 0.000000 0.000000 1.819990 
# 
# From -- ./inp_files/9037.got.cif
#   From: 2010.06.25/outbox.cif.g09.slc.cpg/sg58_5_cif.got.tgz:9037.got - 2010.06.26 21:38:00.
