data_PCOD8238587
_publ_section_title
;
Structure prediction by ZEFSAII (Michael W. Deem and Ramdas Pophale) SiO2 
 PCOD8238587
Probable space group: P N N M
;
_chemical_formula_sum "Si O2"
_cell_formula_units_Z 48
_cell_length_a 18.938994
_cell_length_b 15.035969
_cell_length_c 8.406065
_cell_angle_alpha 90.000000
_cell_angle_beta 90.000000
_cell_angle_gamma 90.000000
_cell_volume 2393.762571
_symmetry_space_group_name_H-M "P N N M"
_symmetry_group_IT_number 58
_symmetry_cell_setting 'orthorhombic'
loop_
_space_group_symop_operation_xyz
x,y,z
-x,-y,z
1/2+x,1/2-y,1/2-z
1/2-x,1/2+y,1/2-z
-x,-y,-z
x,y,-z
1/2-x,1/2+y,1/2+z
1/2+x,1/2-y,1/2+z
loop_
_atom_site_type_symbol
_atom_site_label
_atom_site_fract_x
_atom_site_fract_y
_atom_site_fract_z
Si Si1 0.332737 0.884901 0.316017
Si Si2 0.078145 0.228752 0.315041
Si Si3 0.570319 0.774913 0.682741
Si Si4 0.924805 0.462783 0.315605
Si Si5 0.075098 0.030069 0.311711
Si Si6 0.828752 0.130581 0.687399
O O1 0.337766 0.911782 0.500000
O O2 0.373983 0.793437 0.288948
O O3 0.252415 0.872469 0.261388
O O4 0.365415 0.963409 0.211644
O O5 0.096863 0.241432 0.500000
O O6 0.094451 0.129087 0.253059
O O7 0.995647 0.249699 0.293137
O O8 0.548185 0.764388 0.500000
O O9 0.594560 0.875574 0.715743
O O10 0.636200 0.712232 0.721142
O O11 0.928203 0.437212 0.500000
O O12 0.000000 0.500000 0.256032
O O13 0.067799 0.032434 0.500000
O O14 0.135393 0.961729 0.256793
O O15 0.000000 0.000000 0.237417
O O16 0.838460 0.145406 0.500000
#
# Coordination Sequence:
#
# PCOD8238587 Si02
#       6
#     8   8   8   8   8   8
#     4  11  24  40  61  92 129 161 198 255 313 367
#     4  11  21  37  63  90 120 160 208 254 304 370
#     4  12  24  38  62  93 124 159 206 258 307 363
#     4  11  23  40  65  91 119 162 209 253 306 372
#     4   9  17  34  63  89 112 152 205 247 288 357
#     4  10  22  42  63  89 126 164 201 248 310 369
#
# _framework density 20.052114
#
# number of rings (size 3 to 8) (size 9 to 14) (size 15 to 20)
#    0.000    1.333    3.333    3.000    0.000    3.333 
#    0.000    4.167    0.000    0.000    0.000    0.000 
#    0.000    0.000    0.000    0.000    0.000    0.000 
#
# Total GULP energy -595485.922497 kJ/mol
# GULP energy per Si atom -12405.956719 kJ/mol
# Density = 2.000647 g / cm^3
# Si number density = 20.052114 Si / 1000 Ang^3
#
#
#
# Elastic Constant Matrix: (Units=GPa)
#
#
# Indices 1 2 3 4 5 6 
#
# 1 133.7368 59.4317 15.5614 0.0000 0.0000 0.0000
# 2 59.4317 161.3155 19.4817 0.0000 0.0000 0.0000
# 3 15.5614 19.4817 46.3648 0.0000 0.0000 0.0000
# 4 0.0000 0.0000 0.0000 20.8137 0.0000 0.0000
# 5 0.0000 0.0000 0.0000 0.0000 22.1483 0.0000
# 6 0.0000 0.0000 0.0000 0.0000 0.0000 32.1861
#
#
#
# Elastic Compliance Matrix: (Units=1/GPa)
#
#
# Indices 1 2 3 4 5 6 
#
# 1 0.009071 -0.003133 -0.001728 0.000000 0.000000 0.000000
# 2 -0.003133 0.007613 -0.002147 0.000000 0.000000 0.000000
# 3 -0.001728 -0.002147 0.023050 0.000000 0.000000 0.000000
# 4 0.000000 0.000000 0.000000 0.048045 0.000000 0.000000
# 5 0.000000 0.000000 0.000000 0.000000 0.045150 0.000000
# 6 0.000000 0.000000 0.000000 0.000000 0.000000 0.031069
#
#
# Mechanical properties :
#
#
# Convention : Reuss Voigt Hill
#
# Bulk Modulus (GPa) = 38.88443 58.92962 48.90702
# Shear Modulus (GPa) = 26.79709 31.49242 29.14476
#
# Velocity S-wave (km/s) = 3.65961 3.96729 3.81655
# Velocity P-wave (km/s) = 6.10662 7.10196 6.62301
#
# Compressibility (1/GPa) = 0.02571724
#
# Stress axis : x y z
#
# Youngs Moduli (GPa) = 110.24392 131.36018 43.38353
#
# Poissons Ratio (x) = 0.41157 0.07496
# Poissons Ratio (y) = 0.34541 0.09315
# Poissons Ratio (z) = 0.19049 0.28205
#
# Static dielectric constant tensor:
#      x y z
#    x 3.621330 0.000000 0.000000 
#    y 0.000000 3.872730 0.000000 
#    z 0.000000 0.000000 3.390310 
# 
# 
# High freq. dielectric constant tensor:
#      x y z
#    x 1.776480 0.000000 0.000000 
#    y 0.000000 1.799260 0.000000 
#    z 0.000000 0.000000 1.768520 
# 
# From -- ./inp_files/6029.got.cif
#   From: 2010.06.25/outbox.cif.g09.slc.cpg/sg58_4_cif.got.tgz:6029.got - 2010.06.26 21:38:00.
