data_PCOD8238508
_publ_section_title
;
Structure prediction by ZEFSAII (Michael W. Deem and Ramdas Pophale) SiO2 
 PCOD8238508
Probable space group: P N N M
;
_chemical_formula_sum "Si O2"
_cell_formula_units_Z 48
_cell_length_a 27.960638
_cell_length_b 10.234369
_cell_length_c 8.371402
_cell_angle_alpha 90.000000
_cell_angle_beta 90.000000
_cell_angle_gamma 90.000000
_cell_volume 2395.556100
_symmetry_space_group_name_H-M "P N N M"
_symmetry_group_IT_number 58
_symmetry_cell_setting 'orthorhombic'
loop_
_space_group_symop_operation_xyz
x,y,z
-x,-y,z
1/2+x,1/2-y,1/2-z
1/2-x,1/2+y,1/2-z
-x,-y,-z
x,y,-z
1/2-x,1/2+y,1/2+z
1/2+x,1/2-y,1/2+z
loop_
_atom_site_type_symbol
_atom_site_label
_atom_site_fract_x
_atom_site_fract_y
_atom_site_fract_z
Si Si1 0.808729 0.020229 0.684509
Si Si2 0.050108 0.365531 0.814930
Si Si3 0.647947 0.776468 0.683565
Si Si4 0.550795 0.850607 0.186441
Si Si5 0.641346 0.253316 0.812304
Si Si6 0.205636 0.488559 0.315314
O O1 0.819068 0.051476 0.500000
O O2 0.835885 0.889929 0.739964
O O3 0.752545 0.998546 0.708096
O O4 0.827180 0.137488 0.793238
O O5 0.060549 0.495902 0.713640
O O6 0.090851 0.259819 0.777827
O O7 0.998980 0.305700 0.765924
O O8 0.049795 0.403774 0.000000
O O9 0.652535 0.818851 0.500000
O O10 0.592615 0.765414 0.733969
O O11 0.673370 0.883831 0.793169
O O12 0.548930 0.820583 0.000000
O O13 0.676816 0.138435 0.756732
O O14 0.632071 0.245264 0.000000
O O15 0.220286 0.475724 0.500000
#
# Coordination Sequence:
#
# PCOD8238508 Si02
#       6
#     8   8   8   8   8   8
#     4  11  24  41  61  88 124 163 203 249 304 360
#     4  11  21  35  60  92 121 152 195 247 300 357
#     4  12  24  40  61  90 124 160 204 251 300 358
#     4  11  21  37  61  88 120 156 197 247 300 354
#     4  10  22  40  61  87 121 160 201 247 300 359
#     4  11  22  39  64  91 120 157 204 253 302 356
#
# _framework density 20.037099999999999
#
# number of rings (size 3 to 8) (size 9 to 14) (size 15 to 20)
#    0.000    1.000    1.667    7.500    0.000    3.333 
#    0.000    0.833    0.000    5.000    0.000    0.000 
#    0.000    0.000    0.000    0.000    0.000    0.000 
#
# Total GULP energy -595595.455412 kJ/mol
# GULP energy per Si atom -12408.238654 kJ/mol
# Density = 1.999149 g / cm^3
# Si number density = 20.037100 Si / 1000 Ang^3
#
#
#
# Elastic Constant Matrix: (Units=GPa)
#
#
# Indices 1 2 3 4 5 6 
#
# 1 128.6701 34.2698 24.9878 0.0000 0.0000 0.0000
# 2 34.2698 90.8363 17.5528 0.0000 0.0000 0.0000
# 3 24.9878 17.5528 68.5746 0.0000 0.0000 0.0000
# 4 0.0000 0.0000 0.0000 20.7104 0.0000 0.0000
# 5 0.0000 0.0000 0.0000 0.0000 32.9398 0.0000
# 6 0.0000 0.0000 0.0000 0.0000 0.0000 5.1462
#
#
#
# Elastic Compliance Matrix: (Units=1/GPa)
#
#
# Indices 1 2 3 4 5 6 
#
# 1 0.009044 -0.002920 -0.002548 0.000000 0.000000 0.000000
# 2 -0.002920 0.012524 -0.002142 0.000000 0.000000 0.000000
# 3 -0.002548 -0.002142 0.016059 0.000000 0.000000 0.000000
# 4 0.000000 0.000000 0.000000 0.048285 0.000000 0.000000
# 5 0.000000 0.000000 0.000000 0.000000 0.030358 0.000000
# 6 0.000000 0.000000 0.000000 0.000000 0.000000 0.194317
#
#
# Mechanical properties :
#
#
# Convention : Reuss Voigt Hill
#
# Bulk Modulus (GPa) = 44.62643 49.07798 46.85221
# Shear Modulus (GPa) = 15.00251 25.84398 20.42324
#
# Velocity S-wave (km/s) = 2.73927 3.59528 3.19607
# Velocity P-wave (km/s) = 5.68551 6.46386 6.08714
#
# Compressibility (1/GPa) = 0.02240824
#
# Stress axis : x y z
#
# Youngs Moduli (GPa) = 110.56646 79.84520 62.26849
#
# Poissons Ratio (x) = 0.23313 0.15868
# Poissons Ratio (y) = 0.32282 0.13337
# Poissons Ratio (z) = 0.28176 0.17102
#
# Static dielectric constant tensor:
#      x y z
#    x 3.825890 0.000000 0.000000 
#    y 0.000000 3.438150 0.000000 
#    z 0.000000 0.000000 3.547980 
# 
# 
# High freq. dielectric constant tensor:
#      x y z
#    x 1.798460 0.000000 0.000000 
#    y 0.000000 1.759110 0.000000 
#    z 0.000000 0.000000 1.790620 
# 
# From -- ./inp_files/10327.got.cif
#   From: 2010.06.25/outbox.cif.g09.slc.cpg/sg58_6_cif.got.tgz:10327.got - 2010.06.26 21:38:00.
