data_PCOD8238283
_publ_section_title
;
Structure prediction by ZEFSAII (Michael W. Deem and Ramdas Pophale) SiO2 
 PCOD8238283
Probable space group: P N N M
;
_chemical_formula_sum "Si O2"
_cell_formula_units_Z 56
_cell_length_a 18.947261
_cell_length_b 15.628250
_cell_length_c 9.363723
_cell_angle_alpha 90.000000
_cell_angle_beta 90.000000
_cell_angle_gamma 90.000000
_cell_volume 2772.715724
_symmetry_space_group_name_H-M "P N N M"
_symmetry_group_IT_number 58
_symmetry_cell_setting 'orthorhombic'
loop_
_space_group_symop_operation_xyz
x,y,z
-x,-y,z
1/2+x,1/2-y,1/2-z
1/2-x,1/2+y,1/2-z
-x,-y,-z
x,y,-z
1/2-x,1/2+y,1/2+z
1/2+x,1/2-y,1/2+z
loop_
_atom_site_type_symbol
_atom_site_label
_atom_site_fract_x
_atom_site_fract_y
_atom_site_fract_z
Si Si1 0.831113 0.619953 0.669253
Si Si2 0.746988 0.454163 0.669100
Si Si3 0.614839 0.485048 0.840358
Si Si4 0.266348 0.223581 0.666700
Si Si5 0.427283 0.223276 0.335926
Si Si6 0.489453 0.900066 0.160975
Si Si7 0.506930 0.636042 0.158706
O O1 0.826372 0.621409 0.500000
O O2 0.802315 0.527056 0.719822
O O3 0.784360 0.700457 0.726875
O O4 0.912175 0.627573 0.721419
O O5 0.749670 0.438818 0.500000
O O6 0.671638 0.491207 0.715607
O O7 0.757380 0.364360 0.748245
O O8 0.573651 0.395029 0.828298
O O9 0.559915 0.559464 0.811977
O O10 0.648199 0.492469 0.000000
O O11 0.250942 0.205476 0.500000
O O12 0.347049 0.252999 0.690737
O O13 0.443231 0.207961 0.500000
O O14 0.446335 0.136027 0.254664
O O15 0.481447 0.293045 0.277245
O O16 0.500000 0.000000 0.164661
O O17 0.497010 0.865384 0.000000
O O18 0.519680 0.673967 0.000000
#
# Coordination Sequence:
#
# PCOD8238283 Si02
#       7
#     8   8   8   8   8   8   8
#     4   9  20  39  61  84 115 159 202 242 294 362
#     4  11  22  37  60  88 118 150 195 252 301 351
#     4   9  19  36  57  83 115 153 192 232 285 353
#     4  10  22  40  59  82 117 162 202 237 298 369
#     4  11  23  37  57  85 119 152 192 251 307 349
#     4  10  21  39  63  86 112 154 207 253 297 360
#     4   9  19  36  58  82 112 153 197 232 278 353
#
# _framework density 20.196805000000001
#
# number of rings (size 3 to 8) (size 9 to 14) (size 15 to 20)
#    0.000    2.143    0.000    3.429    2.000    4.857 
#    0.000    4.286    0.000    0.000    0.000    0.000 
#    0.000    0.000    0.000    0.000    0.000    0.000 
#
# Total GULP energy -694217.456354 kJ/mol
# GULP energy per Si atom -12396.740292 kJ/mol
# Density = 2.015084 g / cm^3
# Si number density = 20.196805 Si / 1000 Ang^3
#
#
#
# Elastic Constant Matrix: (Units=GPa)
#
#
# Indices 1 2 3 4 5 6 
#
# 1 85.4337 22.1465 35.0280 0.0000 0.0000 0.0000
# 2 22.1465 94.3949 32.0049 0.0000 0.0000 0.0000
# 3 35.0280 32.0049 74.3097 0.0000 0.0000 0.0000
# 4 0.0000 0.0000 0.0000 29.8533 0.0000 0.0000
# 5 0.0000 0.0000 0.0000 0.0000 8.0401 0.0000
# 6 0.0000 0.0000 0.0000 0.0000 0.0000 27.7771
#
#
#
# Elastic Compliance Matrix: (Units=1/GPa)
#
#
# Indices 1 2 3 4 5 6 
#
# 1 0.014640 -0.001282 -0.006349 0.000000 0.000000 0.000000
# 2 -0.001282 0.012518 -0.004787 0.000000 0.000000 0.000000
# 3 -0.006349 -0.004787 0.018512 0.000000 0.000000 0.000000
# 4 0.000000 0.000000 0.000000 0.033497 0.000000 0.000000
# 5 0.000000 0.000000 0.000000 0.000000 0.124376 0.000000
# 6 0.000000 0.000000 0.000000 0.000000 0.000000 0.036001
#
#
# Mechanical properties :
#
#
# Convention : Reuss Voigt Hill
#
# Bulk Modulus (GPa) = 47.99939 48.05525 48.02732
# Shear Modulus (GPa) = 18.42812 24.13136 21.27974
#
# Velocity S-wave (km/s) = 3.02392 3.46035 3.24947
# Velocity P-wave (km/s) = 6.00079 6.30956 6.15711
#
# Compressibility (1/GPa) = 0.02083360
#
# Stress axis : x y z
#
# Youngs Moduli (GPa) = 68.30388 79.88733 54.02014
#
# Poissons Ratio (x) = 0.10244 0.34297
# Poissons Ratio (y) = 0.08758 0.25859
# Poissons Ratio (z) = 0.43366 0.38241
#
# Static dielectric constant tensor:
#      x y z
#    x 3.907380 0.000000 0.000000 
#    y 0.000000 3.852070 0.000000 
#    z 0.000000 0.000000 3.500970 
# 
# 
# High freq. dielectric constant tensor:
#      x y z
#    x 1.795250 0.000000 0.000000 
#    y 0.000000 1.798780 0.000000 
#    z 0.000000 0.000000 1.764470 
# 
# From -- ./inp_files/9038.got.cif
#   From: 2010.06.25/outbox.cif.g09.slc.cpg/sg58_5_cif.got.tgz:9038.got - 2010.06.26 21:38:00.
