data_PCOD8238347
_publ_section_title
;
Structure prediction by ZEFSAII (Michael W. Deem and Ramdas Pophale) SiO2 
 PCOD8238347
Probable space group: P N N M
;
_chemical_formula_sum "Si O2"
_cell_formula_units_Z 48
_cell_length_a 14.618058
_cell_length_b 18.423840
_cell_length_c 8.881317
_cell_angle_alpha 90.000000
_cell_angle_beta 90.000000
_cell_angle_gamma 90.000000
_cell_volume 2391.923059
_symmetry_space_group_name_H-M "P N N M"
_symmetry_group_IT_number 58
_symmetry_cell_setting 'orthorhombic'
loop_
_space_group_symop_operation_xyz
x,y,z
-x,-y,z
1/2+x,1/2-y,1/2-z
1/2-x,1/2+y,1/2-z
-x,-y,-z
x,y,-z
1/2-x,1/2+y,1/2+z
1/2+x,1/2-y,1/2+z
loop_
_atom_site_type_symbol
_atom_site_label
_atom_site_fract_x
_atom_site_fract_y
_atom_site_fract_z
Si Si1 0.743493 0.579069 0.677680
Si Si2 0.936852 0.568657 0.824866
Si Si3 0.783770 0.230940 0.675012
Si Si4 0.046094 0.708946 0.826818
Si Si5 0.107133 0.176739 0.171483
Si Si6 0.899618 0.973751 0.675785
O O1 0.744131 0.581684 0.500000
O O2 0.843900 0.558825 0.734470
O O3 0.708299 0.655930 0.737004
O O4 0.674662 0.517251 0.730428
O O5 0.000000 0.500000 0.792697
O O6 0.988891 0.640257 0.767143
O O7 0.911486 0.576768 0.000000
O O8 0.794872 0.213852 0.500000
O O9 0.862884 0.285497 0.727934
O O10 0.687108 0.267218 0.711656
O O11 0.988397 0.782212 0.806635
O O12 0.073911 0.696395 0.000000
O O13 0.110676 0.110761 0.286696
O O14 0.117559 0.148601 0.000000
O O15 0.881669 0.986087 0.500000
O O16 0.000000 0.000000 0.723936
#
# Coordination Sequence:
#
# PCOD8238347 Si02
#       6
#     8   8   8   8   8   8
#     4  12  25  42  66  95 129 169 213 259 316 377
#     4  10  22  42  66  93 128 170 212 260 318 378
#     4  11  23  41  64  92 127 165 208 258 314 371
#     4  10  21  40  64  93 127 165 208 257 315 373
#     4  10  22  41  63  90 127 164 203 255 313 372
#     4  11  25  43  65  93 125 164 211 262 319 378
#
# _framework density 20.067534999999999
#
# number of rings (size 3 to 8) (size 9 to 14) (size 15 to 20)
#    0.000    1.333    1.667    3.500    2.333    7.000 
#    0.000    0.000    0.000    0.000    0.000    0.000 
#    0.000    0.000    0.000    0.000    0.000    0.000 
#
# Total GULP energy -595560.082160 kJ/mol
# GULP energy per Si atom -12407.501712 kJ/mol
# Density = 2.002186 g / cm^3
# Si number density = 20.067535 Si / 1000 Ang^3
#
#
#
# Elastic Constant Matrix: (Units=GPa)
#
#
# Indices 1 2 3 4 5 6 
#
# 1 87.0364 13.4207 47.7937 0.0000 0.0000 0.0000
# 2 13.4207 92.0729 37.9030 0.0000 0.0000 0.0000
# 3 47.7937 37.9030 95.9863 0.0000 0.0000 0.0000
# 4 0.0000 0.0000 0.0000 23.3753 0.0000 0.0000
# 5 0.0000 0.0000 0.0000 0.0000 28.0853 0.0000
# 6 0.0000 0.0000 0.0000 0.0000 0.0000 28.5529
#
#
#
# Elastic Compliance Matrix: (Units=1/GPa)
#
#
# Indices 1 2 3 4 5 6 
#
# 1 0.015910 0.001125 -0.008366 0.000000 0.000000 0.000000
# 2 0.001125 0.013049 -0.005713 0.000000 0.000000 0.000000
# 3 -0.008366 -0.005713 0.016840 0.000000 0.000000 0.000000
# 4 0.000000 0.000000 0.000000 0.042780 0.000000 0.000000
# 5 0.000000 0.000000 0.000000 0.000000 0.035606 0.000000
# 6 0.000000 0.000000 0.000000 0.000000 0.000000 0.035023
#
#
# Mechanical properties :
#
#
# Convention : Reuss Voigt Hill
#
# Bulk Modulus (GPa) = 50.27542 52.59228 51.43385
# Shear Modulus (GPa) = 26.07623 27.73457 26.90540
#
# Velocity S-wave (km/s) = 3.60866 3.72164 3.66559
# Velocity P-wave (km/s) = 6.51696 6.68820 6.60314
#
# Compressibility (1/GPa) = 0.01989044
#
# Stress axis : x y z
#
# Youngs Moduli (GPa) = 62.85338 76.63577 59.38338
#
# Poissons Ratio (x) = -0.08621 0.49681
# Poissons Ratio (y) = -0.07071 0.33925
# Poissons Ratio (z) = 0.52584 0.43781
#
# Static dielectric constant tensor:
#      x y z
#    x 3.726000 0.000000 0.000000 
#    y 0.000000 3.665630 0.000000 
#    z 0.000000 0.000000 3.588900 
# 
# 
# High freq. dielectric constant tensor:
#      x y z
#    x 1.797990 0.000000 0.000000 
#    y 0.000000 1.793180 0.000000 
#    z 0.000000 0.000000 1.780130 
# 
# From -- ./inp_files/5898.got.cif
#   From: 2010.06.25/outbox.cif.g09.slc.cpg/sg58_3_cif.got.tgz:5898.got - 2010.06.26 21:38:00.
