data_PCOD8238579
_publ_section_title
;
Structure prediction by ZEFSAII (Michael W. Deem and Ramdas Pophale) SiO2 
 PCOD8238579
Probable space group: P N N M
;
_chemical_formula_sum "Si O2"
_cell_formula_units_Z 64
_cell_length_a 17.032614
_cell_length_b 11.774604
_cell_length_c 14.775612
_cell_angle_alpha 90.000000
_cell_angle_beta 90.000000
_cell_angle_gamma 90.000000
_cell_volume 2963.282748
_symmetry_space_group_name_H-M "P N N M"
_symmetry_group_IT_number 58
_symmetry_cell_setting 'orthorhombic'
loop_
_space_group_symop_operation_xyz
x,y,z
-x,-y,z
1/2+x,1/2-y,1/2-z
1/2-x,1/2+y,1/2-z
-x,-y,-z
x,y,-z
1/2-x,1/2+y,1/2+z
1/2+x,1/2-y,1/2+z
loop_
_atom_site_type_symbol
_atom_site_label
_atom_site_fract_x
_atom_site_fract_y
_atom_site_fract_z
Si Si1 0.650667 0.578072 0.899576
Si Si2 0.914813 0.549656 0.598797
Si Si3 0.319281 0.172480 0.868690
Si Si4 0.915084 0.046533 0.208539
Si Si5 0.674343 0.002748 0.599792
Si Si6 0.392042 0.195470 0.315137
Si Si7 0.142355 0.149624 0.896791
Si Si8 0.431166 0.843979 0.281552
O O1 0.638686 0.714059 0.906227
O O2 0.596399 0.534555 0.817177
O O3 0.737381 0.534312 0.871576
O O4 0.627817 0.528899 0.000000
O O5 0.910713 0.610045 0.500000
O O6 0.853741 0.445000 0.594037
O O7 0.900503 0.644330 0.677108
O O8 0.000000 0.500000 0.617904
O O9 0.327208 0.172547 0.761426
O O10 0.230702 0.192880 0.900095
O O11 0.903552 0.171859 0.168622
O O12 0.854575 0.974475 0.148264
O O13 0.000000 0.000000 0.183582
O O14 0.660186 0.052023 0.500000
O O15 0.611357 0.055901 0.666286
O O16 0.650658 0.868451 0.600925
O O17 0.475206 0.140101 0.286474
O O18 0.090626 0.225130 0.828089
O O19 0.108318 0.150608 0.000000
#
# Coordination Sequence:
#
# PCOD8238579 Si02
#       8
#     8   8   8   8   8   8   8   8
#     4  10  22  41  68  99 130 173 224 273 334 409
#     4  11  22  37  65 102 137 172 215 278 342 399
#     4  11  21  42  66  96 134 177 221 268 330 406
#     4  11  25  45  64  92 130 177 230 273 336 399
#     4  11  22  39  66 101 132 169 219 275 341 402
#     4  11  23  41  66  96 134 175 215 285 341 390
#     4  12  26  43  68  95 131 183 232 274 330 412
#     4  12  22  42  63  99 136 166 221 276 338 394
#
# _framework density 21.597669
#
# number of rings (size 3 to 8) (size 9 to 14) (size 15 to 20)
#    0.000    0.875    5.000    2.625    0.000    2.500 
#    0.000    0.625    0.000    2.250    0.000    0.000 
#    0.000    0.000    0.000    0.000    0.000    0.000 
#
# Total GULP energy -793107.221112 kJ/mol
# GULP energy per Si atom -12392.300330 kJ/mol
# Density = 2.154851 g / cm^3
# Si number density = 21.597669 Si / 1000 Ang^3
#
#
#
# Elastic Constant Matrix: (Units=GPa)
#
#
# Indices 1 2 3 4 5 6 
#
# 1 42.1396 11.0169 9.8776 0.0000 0.0000 0.0000
# 2 11.0169 75.5923 29.2648 0.0000 0.0000 0.0000
# 3 9.8776 29.2648 120.8533 0.0000 0.0000 0.0000
# 4 0.0000 0.0000 0.0000 6.4197 0.0000 0.0000
# 5 0.0000 0.0000 0.0000 0.0000 25.7323 0.0000
# 6 0.0000 0.0000 0.0000 0.0000 0.0000 26.3368
#
#
#
# Elastic Compliance Matrix: (Units=1/GPa)
#
#
# Indices 1 2 3 4 5 6 
#
# 1 0.024847 -0.003128 -0.001273 0.000000 0.000000 0.000000
# 2 -0.003128 0.014991 -0.003374 0.000000 0.000000 0.000000
# 3 -0.001273 -0.003374 0.009196 0.000000 0.000000 0.000000
# 4 0.000000 0.000000 0.000000 0.155770 0.000000 0.000000
# 5 0.000000 0.000000 0.000000 0.000000 0.038862 0.000000
# 6 0.000000 0.000000 0.000000 0.000000 0.000000 0.037970
#
#
# Mechanical properties :
#
#
# Convention : Reuss Voigt Hill
#
# Bulk Modulus (GPa) = 29.86697 37.65596 33.76147
# Shear Modulus (GPa) = 16.21544 24.25950 20.23747
#
# Velocity S-wave (km/s) = 2.74304 3.35512 3.06440
# Velocity P-wave (km/s) = 4.88786 5.69931 5.30911
#
# Compressibility (1/GPa) = 0.03348180
#
# Stress axis : x y z
#
# Youngs Moduli (GPa) = 40.24640 66.70597 108.74666
#
# Poissons Ratio (x) = 0.20867 0.13846
# Poissons Ratio (y) = 0.12590 0.36696
# Poissons Ratio (z) = 0.05124 0.22510
#
# Static dielectric constant tensor:
#      x y z
#    x 3.783140 0.000000 0.000000 
#    y 0.000000 4.050720 0.000000 
#    z 0.000000 0.000000 4.052050 
# 
# 
# High freq. dielectric constant tensor:
#      x y z
#    x 1.837420 0.000000 0.000000 
#    y 0.000000 1.842550 0.000000 
#    z 0.000000 0.000000 1.856260 
# 
# From -- ./inp_files/22942.got.cif
#   From: 2010.06.25/outbox.cif.g09.slc.cpg/sg58_12_cif.got.tgz:22942.got - 2010.06.26 21:38:00.
