data_PCOD8238217
_publ_section_title
;
Structure prediction by ZEFSAII (Michael W. Deem and Ramdas Pophale) SiO2 
 PCOD8238217
Probable space group: P N N M
;
_chemical_formula_sum "Si O2"
_cell_formula_units_Z 32
_cell_length_a 27.980977
_cell_length_b 4.777941
_cell_length_c 8.213513
_cell_angle_alpha 90.000000
_cell_angle_beta 90.000000
_cell_angle_gamma 90.000000
_cell_volume 1098.076522
_symmetry_space_group_name_H-M "P N N M"
_symmetry_group_IT_number 58
_symmetry_cell_setting 'orthorhombic'
loop_
_space_group_symop_operation_xyz
x,y,z
-x,-y,z
1/2+x,1/2-y,1/2-z
1/2-x,1/2+y,1/2-z
-x,-y,-z
x,y,-z
1/2-x,1/2+y,1/2+z
1/2+x,1/2-y,1/2+z
loop_
_atom_site_type_symbol
_atom_site_label
_atom_site_fract_x
_atom_site_fract_y
_atom_site_fract_z
Si Si1 0.219813 0.469396 0.306179
Si Si2 0.568700 0.845493 0.000000
Si Si3 0.457016 0.284416 0.326417
Si Si4 0.366242 0.670604 0.000000
Si Si5 0.652549 0.581055 0.678517
O O1 0.265488 0.677497 0.285564
O O2 0.208299 0.424671 0.500000
O O3 0.174606 0.612792 0.213800
O O4 0.538474 0.910961 0.835026
O O5 0.586096 0.521441 0.000000
O O6 0.617932 0.010518 0.000000
O O7 0.500000 0.500000 0.317691
O O8 0.460919 0.117078 0.500000
O O9 0.404879 0.422368 0.321091
O O10 0.334535 0.623194 0.166327
O O11 0.670229 0.477934 0.500000
#
# Coordination Sequence:
#
# PCOD8238217 Si02
#       5
#     8   4   8   4   8
#     4  12  26  47  73 105 142 183 237 294 360 432
#     4  10  21  38  62  90 130 172 222 272 330 390
#     4   9  19  38  66  99 137 182 231 283 342 411
#     4  10  22  40  63  94 128 172 218 274 329 402
#     4  10  21  42  67  98 137 178 227 283 346 412
#
# _framework density 29.141864000000002
#
# number of rings (size 3 to 8) (size 9 to 14) (size 15 to 20)
#    0.000    1.750    1.250    2.625    0.000    5.000 
#    0.000   15.000    0.000   13.500    0.000    0.000 
#    0.000    0.000    0.000    0.000    0.000    0.000 
#
# Total GULP energy -396436.210654 kJ/mol
# GULP energy per Si atom -12388.631583 kJ/mol
# Density = 2.907554 g / cm^3
# Si number density = 29.141864 Si / 1000 Ang^3
#
#
#
# Elastic Constant Matrix: (Units=GPa)
#
#
# Indices 1 2 3 4 5 6 
#
# 1 159.3383 15.1924 52.7911 0.0000 0.0000 0.0000
# 2 15.1924 76.0120 77.4680 0.0000 0.0000 0.0000
# 3 52.7911 77.4680 368.9207 0.0000 0.0000 0.0000
# 4 0.0000 0.0000 0.0000 69.0507 0.0000 0.0000
# 5 0.0000 0.0000 0.0000 0.0000 277.2319 0.0000
# 6 0.0000 0.0000 0.0000 0.0000 0.0000 50.6526
#
#
#
# Elastic Compliance Matrix: (Units=1/GPa)
#
#
# Indices 1 2 3 4 5 6 
#
# 1 0.006601 -0.000454 -0.000849 0.000000 0.000000 0.000000
# 2 -0.000454 0.016769 -0.003456 0.000000 0.000000 0.000000
# 3 -0.000849 -0.003456 0.003558 0.000000 0.000000 0.000000
# 4 0.000000 0.000000 0.000000 0.014482 0.000000 0.000000
# 5 0.000000 0.000000 0.000000 0.000000 0.003607 0.000000
# 6 0.000000 0.000000 0.000000 0.000000 0.000000 0.019742
#
#
# Mechanical properties :
#
#
# Convention : Reuss Voigt Hill
#
# Bulk Modulus (GPa) = 57.44182 99.46378 78.45280
# Shear Modulus (GPa) = 62.43706 109.97501 86.20604
#
# Velocity S-wave (km/s) = 4.63376 6.14978 5.44479
# Velocity P-wave (km/s) = 6.95578 9.19953 8.15519
#
# Compressibility (1/GPa) = 0.01740892
#
# Stress axis : x y z
#
# Youngs Moduli (GPa) = 151.50176 59.63373 281.06381
#
# Poissons Ratio (x) = 0.02706 0.23869
# Poissons Ratio (y) = 0.06874 0.97145
# Poissons Ratio (z) = 0.12866 0.20611
#
# Static dielectric constant tensor:
#      x y z
#    x 5.648560 0.000000 0.000000 
#    y 0.000000 4.928370 0.000000 
#    z 0.000000 0.000000 7.250720 
# 
# 
# High freq. dielectric constant tensor:
#      x y z
#    x 2.245370 0.000000 0.000000 
#    y 0.000000 2.154310 0.000000 
#    z 0.000000 0.000000 2.230200 
# 
# From -- ./inp_files/1389.got.cif
#   From: 2010.06.25/outbox.cif.g09.slc.cpg/sg58_1_cif.got.tgz:1389.got - 2010.06.26 21:38:00.
