data_PCOD8238400
_publ_section_title
;
Structure prediction by ZEFSAII (Michael W. Deem and Ramdas Pophale) SiO2 
 PCOD8238400
Probable space group: P N N M
;
_chemical_formula_sum "Si O2"
_cell_formula_units_Z 64
_cell_length_a 12.712630
_cell_length_b 13.254438
_cell_length_c 18.668651
_cell_angle_alpha 90.000000
_cell_angle_beta 90.000000
_cell_angle_gamma 90.000000
_cell_volume 3145.644659
_symmetry_space_group_name_H-M "P N N M"
_symmetry_group_IT_number 58
_symmetry_cell_setting 'orthorhombic'
loop_
_space_group_symop_operation_xyz
x,y,z
-x,-y,z
1/2+x,1/2-y,1/2-z
1/2-x,1/2+y,1/2-z
-x,-y,-z
x,y,-z
1/2-x,1/2+y,1/2+z
1/2+x,1/2-y,1/2+z
loop_
_atom_site_type_symbol
_atom_site_label
_atom_site_fract_x
_atom_site_fract_y
_atom_site_fract_z
Si Si1 0.461062 0.386866 0.692300
Si Si2 0.147235 0.236889 0.416520
Si Si3 0.556196 0.704348 0.156441
Si Si4 0.466240 0.768568 0.581082
Si Si5 0.717337 0.118306 0.352427
Si Si6 0.905043 0.419222 0.291664
Si Si7 0.781377 0.600533 0.312689
Si Si8 0.656244 0.892058 0.366262
O O1 0.500000 0.500000 0.698152
O O2 0.485758 0.332107 0.766806
O O3 0.518213 0.330065 0.628601
O O4 0.339457 0.381192 0.671999
O O5 0.157598 0.263038 0.500000
O O6 0.148308 0.338363 0.369131
O O7 0.243370 0.169802 0.390828
O O8 0.035985 0.181379 0.401005
O O9 0.659893 0.642274 0.133708
O O10 0.574065 0.825367 0.156367
O O11 0.467752 0.731386 0.500000
O O12 0.350598 0.807020 0.600109
O O13 0.553348 0.856693 0.590445
O O14 0.688850 0.132504 0.268666
O O15 0.686250 0.007533 0.379719
O O16 0.806734 0.482020 0.323162
O O17 0.871436 0.370434 0.216196
O O18 0.000000 0.500000 0.282936
#
# Coordination Sequence:
#
# PCOD8238400 Si02
#       8
#     8   8   8   8   8   8   8   8
#     4  11  25  41  69 100 128 169 215 276 337 383
#     4  12  25  42  65  93 139 182 215 264 327 402
#     4  11  24  43  66  98 132 169 223 274 320 390
#     4  12  24  42  66  96 136 175 215 269 332 403
#     4  10  24  41  67  97 128 172 221 280 324 378
#     4  11  20  39  70 101 124 163 218 282 321 375
#     4  10  21  41  66  98 126 168 222 272 321 390
#     4  11  22  40  65  96 128 170 222 266 332 389
#
# _framework density 20.345590999999999
#
# number of rings (size 3 to 8) (size 9 to 14) (size 15 to 20)
#    0.000    1.000    3.750    3.750    7.000    2.250 
#    0.000    1.875    0.000    0.000    0.000    0.000 
#    0.000    0.000    0.000    0.000    0.000    0.000 
#
# Total GULP energy -793677.701587 kJ/mol
# GULP energy per Si atom -12401.214087 kJ/mol
# Density = 2.029928 g / cm^3
# Si number density = 20.345591 Si / 1000 Ang^3
#
#
#
# Elastic Constant Matrix: (Units=GPa)
#
#
# Indices 1 2 3 4 5 6 
#
# 1 73.6588 6.6132 16.8001 0.0000 0.0000 0.0000
# 2 6.6132 78.7936 21.4363 0.0000 0.0000 0.0000
# 3 16.8001 21.4363 52.6542 0.0000 0.0000 0.0000
# 4 0.0000 0.0000 0.0000 8.6022 0.0000 0.0000
# 5 0.0000 0.0000 0.0000 0.0000 -1.1332 0.0000
# 6 0.0000 0.0000 0.0000 0.0000 0.0000 30.2486
#
#
#
# Elastic Compliance Matrix: (Units=1/GPa)
#
#
# Indices 1 2 3 4 5 6 
#
# 1 0.014642 0.000047 -0.004691 0.000000 0.000000 0.000000
# 2 0.000047 0.014272 -0.005826 0.000000 0.000000 0.000000
# 3 -0.004691 -0.005826 0.022860 0.000000 0.000000 0.000000
# 4 0.000000 0.000000 0.000000 0.116249 0.000000 0.000000
# 5 0.000000 0.000000 0.000000 0.000000 -0.882465 0.000000
# 6 0.000000 0.000000 0.000000 0.000000 0.000000 0.033059
#
#
# Mechanical properties :
#
#
# Convention : Reuss Voigt Hill
#
# Bulk Modulus (GPa) = 32.42973 32.75621 32.59297
# Shear Modulus (GPa) = -7.69035 18.22733 5.26849
#
# Velocity S-wave (km/s) = -1.94630 2.99638 1.61094
# Velocity P-wave (km/s) = 3.30504 5.30150 4.41753
#
# Compressibility (1/GPa) = 0.03083591
#
# Stress axis : x y z
#
# Youngs Moduli (GPa) = 68.29778 70.06576 43.74412
#
# Poissons Ratio (x) = -0.00331 0.20520
# Poissons Ratio (y) = -0.00323 0.25483
# Poissons Ratio (z) = 0.32038 0.40817
#
# Static dielectric constant tensor:
#      x y z
#    x 3.955070 0.000000 0.000000 
#    y 0.000000 3.942250 0.000000 
#    z 0.000000 0.000000 3.491150 
# 
# 
# High freq. dielectric constant tensor:
#      x y z
#    x 1.812360 0.000000 0.000000 
#    y 0.000000 1.799050 0.000000 
#    z 0.000000 0.000000 1.768660 
# 
# From -- ./inp_files/26386.got.cif
#   From: 2010.06.25/outbox.cif.g09.slc.cpg/sg58_14_cif.got.tgz:26386.got - 2010.06.26 21:38:00.
