data_PCOD8238925
_publ_section_title
;
Structure prediction by ZEFSAII (Michael W. Deem and Ramdas Pophale) SiO2 
 PCOD8238925
Probable space group: P N N M
;
_chemical_formula_sum "Si O2"
_cell_formula_units_Z 48
_cell_length_a 9.671137
_cell_length_b 22.987414
_cell_length_c 10.846734
_cell_angle_alpha 90.000000
_cell_angle_beta 90.000000
_cell_angle_gamma 90.000000
_cell_volume 2411.385487
_symmetry_space_group_name_H-M "P N N M"
_symmetry_group_IT_number 58
_symmetry_cell_setting 'orthorhombic'
loop_
_space_group_symop_operation_xyz
x,y,z
-x,-y,z
1/2+x,1/2-y,1/2-z
1/2-x,1/2+y,1/2-z
-x,-y,-z
x,y,-z
1/2-x,1/2+y,1/2+z
1/2+x,1/2-y,1/2+z
loop_
_atom_site_type_symbol
_atom_site_label
_atom_site_fract_x
_atom_site_fract_y
_atom_site_fract_z
Si Si1 0.786564 0.269351 0.639018
Si Si2 0.053323 0.153695 0.138503
Si Si3 0.503673 0.142898 0.858711
Si Si4 0.157443 0.982852 0.637015
Si Si5 0.761617 0.448016 0.361300
Si Si6 0.717334 0.641237 0.213425
O O1 0.784480 0.294434 0.500000
O O2 0.651063 0.297527 0.705567
O O3 0.780657 0.200172 0.634496
O O4 0.927242 0.298379 0.693202
O O5 0.125603 0.091296 0.151118
O O6 0.900217 0.151124 0.187441
O O7 0.032014 0.173605 0.000000
O O8 0.401058 0.088388 0.843644
O O9 0.636332 0.130322 0.776647
O O10 0.551784 0.150233 0.000000
O O11 0.199578 0.007089 0.500000
O O12 0.176728 0.913282 0.629009
O O13 0.253541 0.005553 0.749514
O O14 0.000000 0.000000 0.664926
O O15 0.762466 0.476813 0.500000
#
# Coordination Sequence:
#
# PCOD8238925 Si02
#       6
#     8   8   8   8   8   8
#     4   9  19  36  54  78 114 154 187 236 299 352
#     4   9  18  33  56  81 107 139 189 242 284 334
#     4   9  20  37  59  87 119 145 189 254 305 340
#     4  11  24  40  57  86 123 157 195 243 290 347
#     4   9  19  40  62  83 112 155 194 237 292 343
#     4  12  20  33  57  86 111 153 194 235 286 353
#
# _framework density 19.905569
#
# number of rings (size 3 to 8) (size 9 to 14) (size 15 to 20)
#    0.000    2.167    1.667    4.000    0.000    2.333 
#    0.000    4.167    0.000    4.000    0.000    0.000 
#    0.000    0.000    0.000    0.000    0.000    0.000 
#
# Total GULP energy -594729.208402 kJ/mol
# GULP energy per Si atom -12390.191842 kJ/mol
# Density = 1.986026 g / cm^3
# Si number density = 19.905569 Si / 1000 Ang^3
#
#
#
# Elastic Constant Matrix: (Units=GPa)
#
#
# Indices 1 2 3 4 5 6 
#
# 1 117.7176 26.3802 38.6546 0.0000 0.0000 0.0000
# 2 26.3802 101.7730 35.0059 0.0000 0.0000 0.0000
# 3 38.6546 35.0059 88.0379 0.0000 0.0000 0.0000
# 4 0.0000 0.0000 0.0000 25.9843 0.0000 0.0000
# 5 0.0000 0.0000 0.0000 0.0000 15.0211 0.0000
# 6 0.0000 0.0000 0.0000 0.0000 0.0000 23.6676
#
#
#
# Elastic Compliance Matrix: (Units=1/GPa)
#
#
# Indices 1 2 3 4 5 6 
#
# 1 0.010064 -0.001261 -0.003917 0.000000 0.000000 0.000000
# 2 -0.001261 0.011541 -0.004035 0.000000 0.000000 0.000000
# 3 -0.003917 -0.004035 0.014683 0.000000 0.000000 0.000000
# 4 0.000000 0.000000 0.000000 0.038485 0.000000 0.000000
# 5 0.000000 0.000000 0.000000 0.000000 0.066573 0.000000
# 6 0.000000 0.000000 0.000000 0.000000 0.000000 0.042252
#
#
# Mechanical properties :
#
#
# Convention : Reuss Voigt Hill
#
# Bulk Modulus (GPa) = 55.98932 56.40110 56.19521
# Shear Modulus (GPa) = 24.04101 26.76710 25.40406
#
# Velocity S-wave (km/s) = 3.47904 3.67100 3.57631
# Velocity P-wave (km/s) = 6.65784 6.80912 6.73391
#
# Compressibility (1/GPa) = 0.01786055
#
# Stress axis : x y z
#
# Youngs Moduli (GPa) = 99.36568 86.65061 68.10558
#
# Poissons Ratio (x) = 0.10929 0.26678
# Poissons Ratio (y) = 0.12532 0.27481
# Poissons Ratio (z) = 0.38924 0.34964
#
# Static dielectric constant tensor:
#      x y z
#    x 3.629610 0.000000 0.000000 
#    y 0.000000 3.598240 0.000000 
#    z 0.000000 0.000000 3.381880 
# 
# 
# High freq. dielectric constant tensor:
#      x y z
#    x 1.782530 0.000000 0.000000 
#    y 0.000000 1.774450 0.000000 
#    z 0.000000 0.000000 1.754830 
# 
# From -- ./inp_files/13046.got.cif
#   From: 2010.06.25/outbox.cif.g09.slc.cpg/sg58_7_cif.got.tgz:13046.got - 2010.06.26 21:38:00.
