data_PCOD8238377
_publ_section_title
;
Structure prediction by ZEFSAII (Michael W. Deem and Ramdas Pophale) SiO2 
 PCOD8238377
Probable space group: P N N M
;
_chemical_formula_sum "Si O2"
_cell_formula_units_Z 32
_cell_length_a 7.146224
_cell_length_b 12.367478
_cell_length_c 13.975008
_cell_angle_alpha 90.000000
_cell_angle_beta 90.000000
_cell_angle_gamma 90.000000
_cell_volume 1235.121941
_symmetry_space_group_name_H-M "P N N M"
_symmetry_group_IT_number 58
_symmetry_cell_setting 'orthorhombic'
loop_
_space_group_symop_operation_xyz
x,y,z
-x,-y,z
1/2+x,1/2-y,1/2-z
1/2-x,1/2+y,1/2-z
-x,-y,-z
x,y,-z
1/2-x,1/2+y,1/2+z
1/2+x,1/2-y,1/2+z
loop_
_atom_site_type_symbol
_atom_site_label
_atom_site_fract_x
_atom_site_fract_y
_atom_site_fract_z
Si Si1 0.493843 0.164894 0.691102
Si Si2 0.461860 0.383518 0.393235
Si Si3 0.719222 0.498430 0.111647
Si Si4 0.969102 0.626233 0.602020
O O1 0.561812 0.283670 0.659110
O O2 0.312825 0.118489 0.634108
O O3 0.436442 0.175217 0.803340
O O4 0.673239 0.086731 0.676462
O O5 0.500000 0.500000 0.341906
O O6 0.547031 0.392058 0.500000
O O7 0.248485 0.349975 0.393333
O O8 0.500000 0.500000 0.138182
O O9 0.749100 0.525559 0.000000
O O10 0.047487 0.674336 0.500000
O O11 0.000000 0.500000 0.602130
#
# Coordination Sequence:
#
# PCOD8238377 Si02
#       4
#     8   8   8   8
#     4  11  21  44  73 106 144 194 243 300 363 440
#     4  10  23  44  70 101 143 191 242 299 359 431
#     4  10  21  40  71 112 152 188 239 305 374 437
#     4  10  22  44  68 100 143 189 241 301 361 429
#
# _framework density 25.908373000000001
#
# number of rings (size 3 to 8) (size 9 to 14) (size 15 to 20)
#    0.000    1.750    2.500    3.000    0.000    3.000 
#    9.000    0.000    0.000    3.000    0.000    0.000 
#    0.000    0.000    0.000    0.000    0.000    0.000 
#
# Total GULP energy -396605.250919 kJ/mol
# GULP energy per Si atom -12393.914091 kJ/mol
# Density = 2.584940 g / cm^3
# Si number density = 25.908373 Si / 1000 Ang^3
#
#
#
# Elastic Constant Matrix: (Units=GPa)
#
#
# Indices 1 2 3 4 5 6 
#
# 1 132.4995 22.5767 16.9874 0.0000 0.0000 0.0000
# 2 22.5767 181.6990 55.3992 0.0000 0.0000 0.0000
# 3 16.9874 55.3992 183.8508 0.0000 0.0000 0.0000
# 4 0.0000 0.0000 0.0000 22.0352 0.0000 0.0000
# 5 0.0000 0.0000 0.0000 0.0000 22.5047 0.0000
# 6 0.0000 0.0000 0.0000 0.0000 0.0000 20.7780
#
#
#
# Elastic Compliance Matrix: (Units=1/GPa)
#
#
# Indices 1 2 3 4 5 6 
#
# 1 0.007747 -0.000820 -0.000469 0.000000 0.000000 0.000000
# 2 -0.000820 0.006147 -0.001777 0.000000 0.000000 0.000000
# 3 -0.000469 -0.001777 0.006018 0.000000 0.000000 0.000000
# 4 0.000000 0.000000 0.000000 0.045382 0.000000 0.000000
# 5 0.000000 0.000000 0.000000 0.000000 0.044435 0.000000
# 6 0.000000 0.000000 0.000000 0.000000 0.000000 0.048128
#
#
# Mechanical properties :
#
#
# Convention : Reuss Voigt Hill
#
# Bulk Modulus (GPa) = 72.55910 76.44177 74.50043
# Shear Modulus (GPa) = 29.65938 39.93599 34.79769
#
# Velocity S-wave (km/s) = 3.38713 3.93037 3.66882
# Velocity P-wave (km/s) = 6.58511 7.08278 6.83847
#
# Compressibility (1/GPa) = 0.01378187
#
# Stress axis : x y z
#
# Youngs Moduli (GPa) = 129.08287 162.67787 166.17265
#
# Poissons Ratio (x) = 0.13334 0.07791
# Poissons Ratio (y) = 0.10580 0.29522
# Poissons Ratio (z) = 0.06052 0.28901
#
# Static dielectric constant tensor:
#      x y z
#    x 4.569210 0.000000 0.000000 
#    y 0.000000 4.510420 0.000000 
#    z 0.000000 0.000000 5.243590 
# 
# 
# High freq. dielectric constant tensor:
#      x y z
#    x 2.030180 0.000000 0.000000 
#    y 0.000000 2.023750 0.000000 
#    z 0.000000 0.000000 2.050200 
# 
# From -- ./inp_files/19104.got.cif
#   From: 2010.06.25/outbox.cif.g09.slc.cpg/sg58_10_cif.got.tgz:19104.got - 2010.06.26 21:38:00.
