data_PCOD8238145
_publ_section_title
;
Structure prediction by ZEFSAII (Michael W. Deem and Ramdas Pophale) SiO2 
 PCOD8238145
Probable space group: P N N M
;
_chemical_formula_sum "Si O2"
_cell_formula_units_Z 56
_cell_length_a 22.908594
_cell_length_b 13.969099
_cell_length_c 8.890849
_cell_angle_alpha 90.000000
_cell_angle_beta 90.000000
_cell_angle_gamma 90.000000
_cell_volume 2845.182082
_symmetry_space_group_name_H-M "P N N M"
_symmetry_group_IT_number 58
_symmetry_cell_setting 'orthorhombic'
loop_
_space_group_symop_operation_xyz
x,y,z
-x,-y,z
1/2+x,1/2-y,1/2-z
1/2-x,1/2+y,1/2-z
-x,-y,-z
x,y,-z
1/2-x,1/2+y,1/2+z
1/2+x,1/2-y,1/2+z
loop_
_atom_site_type_symbol
_atom_site_label
_atom_site_fract_x
_atom_site_fract_y
_atom_site_fract_z
Si Si1 0.113206 0.209084 0.322478
Si Si2 0.995802 0.889383 0.175732
Si Si3 0.846737 0.406640 0.323652
Si Si4 0.115159 0.786923 0.823487
Si Si5 0.765093 0.141565 0.835596
Si Si6 0.233848 0.139253 0.335443
Si Si7 0.652361 0.096741 0.323552
O O1 0.113220 0.227168 0.500000
O O2 0.054251 0.159689 0.271716
O O3 0.166655 0.137292 0.277976
O O4 0.119528 0.311848 0.243733
O O5 0.055554 0.837841 0.222194
O O6 0.981888 0.877149 0.000000
O O7 0.000000 0.000000 0.220763
O O8 0.855278 0.412742 0.500000
O O9 0.879622 0.312882 0.264169
O O10 0.777404 0.407778 0.284541
O O11 0.875631 0.500378 0.246989
O O12 0.167473 0.861163 0.779780
O O13 0.118635 0.763524 0.000000
O O14 0.749824 0.251303 0.855766
O O15 0.721751 0.094933 0.714788
O O16 0.757596 0.091247 0.000000
O O17 0.240716 0.089016 0.500000
O O18 0.643025 0.096729 0.500000
#
# Coordination Sequence:
#
# PCOD8238145 Si02
#       7
#     8   8   8   8   8   8   8
#     4  10  21  38  58  82 114 148 186 234 280 323
#     4  10  22  40  61  84 109 143 187 229 275 333
#     4  11  21  33  54  84 115 147 186 229 274 330
#     4   9  19  37  57  79 113 150 184 228 277 325
#     4   8  15  30  51  76 108 144 180 221 268 316
#     4   8  16  32  52  76 109 145 177 216 270 323
#     4  11  21  34  55  83 116 151 185 224 276 337
#
# _framework density 19.682395
#
# number of rings (size 3 to 8) (size 9 to 14) (size 15 to 20)
#    0.000    2.429    0.000    4.714    0.000    7.714 
#    0.000    2.143    0.000    4.286    0.000    0.000 
#    0.000    0.000    0.000    0.000    0.000    0.000 
#
# Total GULP energy -694136.325726 kJ/mol
# GULP energy per Si atom -12395.291531 kJ/mol
# Density = 1.963760 g / cm^3
# Si number density = 19.682395 Si / 1000 Ang^3
#
#
#
# Elastic Constant Matrix: (Units=GPa)
#
#
# Indices 1 2 3 4 5 6 
#
# 1 121.1691 43.9943 41.8265 0.0000 0.0000 0.0000
# 2 43.9943 108.6202 57.6588 0.0000 0.0000 0.0000
# 3 41.8265 57.6588 112.6438 0.0000 0.0000 0.0000
# 4 0.0000 0.0000 0.0000 24.9784 0.0000 0.0000
# 5 0.0000 0.0000 0.0000 0.0000 6.4284 0.0000
# 6 0.0000 0.0000 0.0000 0.0000 0.0000 18.6782
#
#
#
# Elastic Compliance Matrix: (Units=1/GPa)
#
#
# Indices 1 2 3 4 5 6 
#
# 1 0.010082 -0.002878 -0.002270 0.000000 0.000000 0.000000
# 2 -0.002878 0.013463 -0.005822 0.000000 0.000000 0.000000
# 3 -0.002270 -0.005822 0.012701 0.000000 0.000000 0.000000
# 4 0.000000 0.000000 0.000000 0.040035 0.000000 0.000000
# 5 0.000000 0.000000 0.000000 0.000000 0.155560 0.000000
# 6 0.000000 0.000000 0.000000 0.000000 0.000000 0.053538
#
#
# Mechanical properties :
#
#
# Convention : Reuss Voigt Hill
#
# Bulk Modulus (GPa) = 69.91294 69.93249 69.92272
# Shear Modulus (GPa) = 16.02112 23.28058 19.65085
#
# Velocity S-wave (km/s) = 2.85613 3.44294 3.16317
# Velocity P-wave (km/s) = 6.81721 7.17026 6.99596
#
# Compressibility (1/GPa) = 0.01430350
#
# Stress axis : x y z
#
# Youngs Moduli (GPa) = 99.19042 74.27807 78.73494
#
# Poissons Ratio (x) = 0.21379 0.17874
# Poissons Ratio (y) = 0.28550 0.45843
# Poissons Ratio (z) = 0.22518 0.43248
#
# Static dielectric constant tensor:
#      x y z
#    x 3.873860 0.000000 0.000000 
#    y 0.000000 3.683670 0.000000 
#    z 0.000000 0.000000 3.481150 
# 
# 
# High freq. dielectric constant tensor:
#      x y z
#    x 1.752030 0.000000 0.000000 
#    y 0.000000 1.766550 0.000000 
#    z 0.000000 0.000000 1.763860 
# 
# From -- ./inp_files/9068.got.cif
#   From: 2010.06.25/outbox.cif.g09.slc.cpg/sg58_5_cif.got.tgz:9068.got - 2010.06.26 21:38:00.
