data_PCOD8238210
_publ_section_title
;
Structure prediction by ZEFSAII (Michael W. Deem and Ramdas Pophale) SiO2 
 PCOD8238210
Probable space group: P N N M
;
_chemical_formula_sum "Si O2"
_cell_formula_units_Z 48
_cell_length_a 7.858428
_cell_length_b 8.655000
_cell_length_c 32.469257
_cell_angle_alpha 90.000000
_cell_angle_beta 90.000000
_cell_angle_gamma 90.000000
_cell_volume 2208.386590
_symmetry_space_group_name_H-M "P N N M"
_symmetry_group_IT_number 58
_symmetry_cell_setting 'orthorhombic'
loop_
_space_group_symop_operation_xyz
x,y,z
-x,-y,z
1/2+x,1/2-y,1/2-z
1/2-x,1/2+y,1/2-z
-x,-y,-z
x,y,-z
1/2-x,1/2+y,1/2+z
1/2+x,1/2-y,1/2+z
loop_
_atom_site_type_symbol
_atom_site_label
_atom_site_fract_x
_atom_site_fract_y
_atom_site_fract_z
Si Si1 0.300059 0.308670 0.597963
Si Si2 0.341979 0.604674 0.171025
Si Si3 0.513772 0.817217 0.954250
Si Si4 0.034093 0.675134 0.732185
Si Si5 0.176938 0.166224 0.897556
Si Si6 0.345432 0.811740 0.691677
O O1 0.259014 0.198679 0.636095
O O2 0.167426 0.257398 0.562611
O O3 0.494519 0.297621 0.580783
O O4 0.278110 0.487754 0.610767
O O5 0.500000 0.500000 0.153344
O O6 0.407641 0.719433 0.205576
O O7 0.203729 0.491450 0.191102
O O8 0.670528 0.762341 0.925032
O O9 0.500000 0.000000 0.956450
O O10 0.544087 0.748923 0.000000
O O11 0.223889 0.713921 0.720816
O O12 0.000000 0.500000 0.719501
O O13 0.018562 0.703985 0.781852
O O14 0.155230 0.246244 0.853833
#
# Coordination Sequence:
#
# PCOD8238210 Si02
#       6
#     8   8   8   8   8   8
#     4  10  21  38  62  89 124 161 202 247 308 368
#     4  10  22  39  60  86 119 161 210 257 307 364
#     4   9  18  36  63  94 125 154 192 247 307 368
#     4  11  23  39  57  81 116 156 208 259 303 350
#     4  10  22  38  61  92 123 162 202 250 307 366
#     4  11  24  39  58  86 116 161 205 253 306 352
#
# _framework density 21.735327000000002
#
# number of rings (size 3 to 8) (size 9 to 14) (size 15 to 20)
#    0.000    1.833    0.000    4.000    4.667    2.000 
#    6.000    3.333    0.000    4.500    0.000    5.833 
#    0.000    0.000    0.000    0.000    0.000    0.000 
#
# Total GULP energy -594804.722760 kJ/mol
# GULP energy per Si atom -12391.765058 kJ/mol
# Density = 2.168586 g / cm^3
# Si number density = 21.735327 Si / 1000 Ang^3
#
#
#
# Elastic Constant Matrix: (Units=GPa)
#
#
# Indices 1 2 3 4 5 6 
#
# 1 133.8871 22.2351 58.8117 0.0000 0.0000 0.0000
# 2 22.2351 82.6662 34.7424 0.0000 0.0000 0.0000
# 3 58.8117 34.7424 108.1351 0.0000 0.0000 0.0000
# 4 0.0000 0.0000 0.0000 25.9157 0.0000 0.0000
# 5 0.0000 0.0000 0.0000 0.0000 28.4293 0.0000
# 6 0.0000 0.0000 0.0000 0.0000 0.0000 26.5794
#
#
#
# Elastic Compliance Matrix: (Units=1/GPa)
#
#
# Indices 1 2 3 4 5 6 
#
# 1 0.009828 -0.000459 -0.005198 0.000000 0.000000 0.000000
# 2 -0.000459 0.014007 -0.004251 0.000000 0.000000 0.000000
# 3 -0.005198 -0.004251 0.013440 0.000000 0.000000 0.000000
# 4 0.000000 0.000000 0.000000 0.038587 0.000000 0.000000
# 5 0.000000 0.000000 0.000000 0.000000 0.035175 0.000000
# 6 0.000000 0.000000 0.000000 0.000000 0.000000 0.037623
#
#
# Mechanical properties :
#
#
# Convention : Reuss Voigt Hill
#
# Bulk Modulus (GPa) = 57.27209 61.80741 59.53975
# Shear Modulus (GPa) = 28.68692 30.11149 29.39921
#
# Velocity S-wave (km/s) = 3.63689 3.72610 3.68176
# Velocity P-wave (km/s) = 6.63648 6.85637 6.74732
#
# Compressibility (1/GPa) = 0.01746051
#
# Stress axis : x y z
#
# Youngs Moduli (GPa) = 101.74507 71.39446 74.40283
#
# Poissons Ratio (x) = 0.03277 0.38674
# Poissons Ratio (y) = 0.04671 0.31625
# Poissons Ratio (z) = 0.52887 0.30346
#
# Static dielectric constant tensor:
#      x y z
#    x 4.382680 0.000000 0.000000 
#    y 0.000000 3.890120 0.000000 
#    z 0.000000 0.000000 3.856960 
# 
# 
# High freq. dielectric constant tensor:
#      x y z
#    x 1.876910 0.000000 0.000000 
#    y 0.000000 1.841670 0.000000 
#    z 0.000000 0.000000 1.837550 
# 
# From -- ./inp_files/34549.got.cif
#   From: 2010.06.25/outbox.cif.g09.slc.cpg/sg58_18_cif.got.tgz:34549.got - 2010.06.26 21:38:00.
