data_PCOD8238012
_publ_section_title
;
Structure prediction by ZEFSAII (Michael W. Deem and Ramdas Pophale) SiO2 
 PCOD8238012
Probable space group: P N N M
;
_chemical_formula_sum "Si O2"
_cell_formula_units_Z 44
_cell_length_a 18.222655
_cell_length_b 16.846407
_cell_length_c 7.528590
_cell_angle_alpha 90.000000
_cell_angle_beta 90.000000
_cell_angle_gamma 90.000000
_cell_volume 2311.173708
_symmetry_space_group_name_H-M "P N N M"
_symmetry_group_IT_number 58
_symmetry_cell_setting 'orthorhombic'
loop_
_space_group_symop_operation_xyz
x,y,z
-x,-y,z
1/2+x,1/2-y,1/2-z
1/2-x,1/2+y,1/2-z
-x,-y,-z
x,y,-z
1/2-x,1/2+y,1/2+z
1/2+x,1/2-y,1/2+z
loop_
_atom_site_type_symbol
_atom_site_label
_atom_site_fract_x
_atom_site_fract_y
_atom_site_fract_z
Si Si1 0.457990 0.216912 0.297709
Si Si2 0.324674 0.467161 0.000000
Si Si3 0.870638 0.735289 0.797684
Si Si4 0.689625 0.075099 0.696363
Si Si5 0.947372 0.161200 0.500000
Si Si6 0.118138 0.142926 0.500000
Si Si7 0.927668 0.456485 0.788705
O O1 0.433823 0.235254 0.500000
O O2 0.545295 0.208937 0.283092
O O3 0.428701 0.287995 0.175167
O O4 0.424354 0.134594 0.222815
O O5 0.275852 0.447325 0.176660
O O6 0.398286 0.416931 0.000000
O O7 0.342924 0.558950 0.000000
O O8 0.822330 0.661896 0.716954
O O9 0.855061 0.811362 0.675902
O O10 0.848816 0.757816 0.000000
O O11 0.653368 0.085072 0.500000
O O12 0.643535 0.003893 0.788288
O O13 0.030832 0.131820 0.500000
O O14 0.000000 0.500000 0.714380
O O15 0.929531 0.452578 0.000000
#
# Coordination Sequence:
#
# PCOD8238012 Si02
#       7
#     8   4   8   8   4   4   8
#     4   9  17  30  55  85 106 133 180 223 269 319
#     4  10  21  38  51  75 112 150 182 216 272 315
#     4   9  16  33  56  81 106 136 174 222 274 314
#     4   8  16  30  51  75 106 146 166 206 278 326
#     4  10  21  38  54  77 106 144 188 231 262 293
#     4  10  21  36  61  79  99 143 195 224 251 319
#     4   9  13  24  49  79 108 135 169 211 262 330
#
# _framework density 19.037946000000002
#
# number of rings (size 3 to 8) (size 9 to 14) (size 15 to 20)
#    0.545    2.364    1.818    0.273    0.000    0.000 
#    3.273    2.273    2.000    4.364    0.000    0.000 
#    0.000    0.000    0.000    0.000    0.000    0.000 
#
# Total GULP energy -545206.524751 kJ/mol
# GULP energy per Si atom -12391.057381 kJ/mol
# Density = 1.899462 g / cm^3
# Si number density = 19.037946 Si / 1000 Ang^3
#
#
#
# Elastic Constant Matrix: (Units=GPa)
#
#
# Indices 1 2 3 4 5 6 
#
# 1 71.9784 61.2497 19.9662 0.0000 0.0000 0.0000
# 2 61.2497 165.0213 46.9651 0.0000 0.0000 0.0000
# 3 19.9662 46.9651 69.8877 0.0000 0.0000 0.0000
# 4 0.0000 0.0000 0.0000 -44.1250 0.0000 0.0000
# 5 0.0000 0.0000 0.0000 0.0000 6.0020 0.0000
# 6 0.0000 0.0000 0.0000 0.0000 0.0000 32.0058
#
#
#
# Elastic Compliance Matrix: (Units=1/GPa)
#
#
# Indices 1 2 3 4 5 6 
#
# 1 0.020354 -0.007295 -0.000913 0.000000 0.000000 0.000000
# 2 -0.007295 0.010107 -0.004708 0.000000 0.000000 0.000000
# 3 -0.000913 -0.004708 0.017733 0.000000 0.000000 0.000000
# 4 0.000000 0.000000 0.000000 -0.022663 0.000000 0.000000
# 5 0.000000 0.000000 0.000000 0.000000 0.166611 0.000000
# 6 0.000000 0.000000 0.000000 0.000000 0.000000 0.031244
#
#
# Mechanical properties :
#
#
# Convention : Reuss Voigt Hill
#
# Bulk Modulus (GPa) = 44.71656 62.58328 53.64992
# Shear Modulus (GPa) = 19.48009 10.69031 15.08520
#
# Velocity S-wave (km/s) = 3.20226 2.37223 2.81797
# Velocity P-wave (km/s) = 6.10014 6.35984 6.23134
#
# Compressibility (1/GPa) = 0.02236308
#
# Stress axis : x y z
#
# Youngs Moduli (GPa) = 49.13118 98.93834 56.39096
#
# Poissons Ratio (x) = 0.72173 0.05147
# Poissons Ratio (y) = 0.35840 0.26550
# Poissons Ratio (z) = 0.04484 0.46582
#
# Static dielectric constant tensor:
#      x y z
#    x 3.153320 0.000000 0.000000 
#    y 0.000000 3.441340 0.000000 
#    z 0.000000 0.000000 3.342650 
# 
# 
# High freq. dielectric constant tensor:
#      x y z
#    x 1.708920 0.000000 0.000000 
#    y 0.000000 1.743120 0.000000 
#    z 0.000000 0.000000 1.710000 
# 
# From -- ./inp_files/7696.got.cif
#   From: 2010.06.25/outbox.cif.g09.slc.cpg/sg58_4_cif.got.tgz:7696.got - 2010.06.26 21:38:00.
