data_PCOD8238848
_publ_section_title
;
Structure prediction by ZEFSAII (Michael W. Deem and Ramdas Pophale) SiO2 
 PCOD8238848
Probable space group: P N N M
;
_chemical_formula_sum "Si O2"
_cell_formula_units_Z 48
_cell_length_a 18.953459
_cell_length_b 14.856781
_cell_length_c 8.277636
_cell_angle_alpha 90.000000
_cell_angle_beta 90.000000
_cell_angle_gamma 90.000000
_cell_volume 2330.877913
_symmetry_space_group_name_H-M "P N N M"
_symmetry_group_IT_number 58
_symmetry_cell_setting 'orthorhombic'
loop_
_space_group_symop_operation_xyz
x,y,z
-x,-y,z
1/2+x,1/2-y,1/2-z
1/2-x,1/2+y,1/2-z
-x,-y,-z
x,y,-z
1/2-x,1/2+y,1/2+z
1/2+x,1/2-y,1/2+z
loop_
_atom_site_type_symbol
_atom_site_label
_atom_site_fract_x
_atom_site_fract_y
_atom_site_fract_z
Si Si1 0.237873 0.703612 0.812931
Si Si2 0.026626 0.404658 0.192306
Si Si3 0.418656 0.243851 0.307668
Si Si4 0.433867 0.444882 0.692295
Si Si5 0.285157 0.520102 0.687167
Si Si6 0.814852 0.625706 0.812592
O O1 0.158481 0.714612 0.746111
O O2 0.276578 0.626459 0.711494
O O3 0.278647 0.796886 0.791614
O O4 0.237742 0.676452 0.000000
O O5 0.105741 0.386372 0.252194
O O6 0.000000 0.500000 0.262332
O O7 0.976115 0.326096 0.260644
O O8 0.023714 0.406661 0.000000
O O9 0.418983 0.245607 0.500000
O O10 0.437050 0.343002 0.240627
O O11 0.500000 0.500000 0.764532
O O12 0.437118 0.445280 0.500000
O O13 0.362001 0.491594 0.752222
O O14 0.277230 0.494569 0.500000
O O15 0.225687 0.468104 0.788208
O O16 0.814055 0.652825 0.000000
#
# Coordination Sequence:
#
# PCOD8238848 Si02
#       6
#     8   8   8   8   8   8
#     4  11  22  38  60  86 117 153 191 238 292 345
#     4   9  18  32  54  85 114 144 192 242 279 331
#     4   9  17  33  56  81 111 148 191 238 281 329
#     4   9  18  32  54  82 110 145 193 241 279 327
#     4  11  22  38  60  87 116 151 195 242 290 343
#     4  11  22  37  60  90 119 150 189 239 293 347
#
# _framework density 20.5931
#
# number of rings (size 3 to 8) (size 9 to 14) (size 15 to 20)
#    0.000    2.000    1.667    2.500    2.333    2.667 
#    0.000    0.000    0.000   15.000    0.000    0.000 
#    0.000    0.000    0.000    0.000    0.000    0.000 
#
# Total GULP energy -595376.896959 kJ/mol
# GULP energy per Si atom -12403.685353 kJ/mol
# Density = 2.054623 g / cm^3
# Si number density = 20.593100 Si / 1000 Ang^3
#
#
#
# Elastic Constant Matrix: (Units=GPa)
#
#
# Indices 1 2 3 4 5 6 
#
# 1 189.3608 74.4522 20.3137 0.0000 0.0000 0.0000
# 2 74.4522 141.0981 10.9534 0.0000 0.0000 0.0000
# 3 20.3137 10.9534 23.4093 0.0000 0.0000 0.0000
# 4 0.0000 0.0000 0.0000 28.2562 0.0000 0.0000
# 5 0.0000 0.0000 0.0000 0.0000 20.0965 0.0000
# 6 0.0000 0.0000 0.0000 0.0000 0.0000 47.8308
#
#
#
# Elastic Compliance Matrix: (Units=1/GPa)
#
#
# Indices 1 2 3 4 5 6 
#
# 1 0.007107 -0.003395 -0.004579 0.000000 0.000000 0.000000
# 2 -0.003395 0.008976 -0.001254 0.000000 0.000000 0.000000
# 3 -0.004579 -0.001254 0.047278 0.000000 0.000000 0.000000
# 4 0.000000 0.000000 0.000000 0.035390 0.000000 0.000000
# 5 0.000000 0.000000 0.000000 0.000000 0.049760 0.000000
# 6 0.000000 0.000000 0.000000 0.000000 0.000000 0.020907
#
#
# Mechanical properties :
#
#
# Convention : Reuss Voigt Hill
#
# Bulk Modulus (GPa) = 22.26881 62.81186 42.54034
# Shear Modulus (GPa) = 24.64981 35.77996 30.21489
#
# Velocity S-wave (km/s) = 3.46351 4.17282 3.83460
# Velocity P-wave (km/s) = 5.17994 7.33377 6.34886
#
# Compressibility (1/GPa) = 0.04490586
#
# Stress axis : x y z
#
# Youngs Moduli (GPa) = 140.71135 111.41068 21.15146
#
# Poissons Ratio (x) = 0.37819 0.09684
# Poissons Ratio (y) = 0.47765 0.02653
# Poissons Ratio (z) = 0.64427 0.13973
#
# Static dielectric constant tensor:
#      x y z
#    x 3.947870 0.000000 0.000000 
#    y 0.000000 3.821480 0.000000 
#    z 0.000000 0.000000 3.139910 
# 
# 
# High freq. dielectric constant tensor:
#      x y z
#    x 1.818420 0.000000 0.000000 
#    y 0.000000 1.819520 0.000000 
#    z 0.000000 0.000000 1.757610 
# 
# From -- ./inp_files/5809.got.cif
#   From: 2010.06.25/outbox.cif.g09.slc.cpg/sg58_3_cif.got.tgz:5809.got - 2010.06.26 21:38:00.
