data_PCOD8238367
_publ_section_title
;
Structure prediction by ZEFSAII (Michael W. Deem and Ramdas Pophale) SiO2 
 PCOD8238367
Probable space group: P N N M
;
_chemical_formula_sum "Si O2"
_cell_formula_units_Z 40
_cell_length_a 18.320889
_cell_length_b 12.257626
_cell_length_c 8.478959
_cell_angle_alpha 90.000000
_cell_angle_beta 90.000000
_cell_angle_gamma 90.000000
_cell_volume 1904.124955
_symmetry_space_group_name_H-M "P N N M"
_symmetry_group_IT_number 58
_symmetry_cell_setting 'orthorhombic'
loop_
_space_group_symop_operation_xyz
x,y,z
-x,-y,z
1/2+x,1/2-y,1/2-z
1/2-x,1/2+y,1/2-z
-x,-y,-z
x,y,-z
1/2-x,1/2+y,1/2+z
1/2+x,1/2-y,1/2+z
loop_
_atom_site_type_symbol
_atom_site_label
_atom_site_fract_x
_atom_site_fract_y
_atom_site_fract_z
Si Si1 0.882848 0.677720 0.317796
Si Si2 0.549055 0.789322 0.182959
Si Si3 0.809010 0.882239 0.818107
Si Si4 0.160041 0.547576 0.180918
Si Si5 0.573418 0.560075 0.684591
O O1 0.878739 0.643116 0.500000
O O2 0.830344 0.779840 0.288622
O O3 0.855892 0.578482 0.212002
O O4 0.964438 0.710966 0.267721
O O5 0.587963 0.883186 0.282566
O O6 0.583484 0.672084 0.221289
O O7 0.559667 0.816052 0.000000
O O8 0.725041 0.910529 0.791113
O O9 0.857675 0.986127 0.770084
O O10 0.822373 0.851940 0.000000
O O11 0.182767 0.562703 0.000000
O O12 0.500000 0.500000 0.741042
O O13 0.569853 0.587105 0.500000
#
# Coordination Sequence:
#
# PCOD8238367 Si02
#       5
#     8   8   8   8   8
#     4  11  24  44  68  96 131 169 215 269 326 388
#     4  11  24  42  68  98 131 169 216 270 324 386
#     4  11  24  43  67  95 131 171 215 269 325 386
#     4  12  27  44  66  94 131 175 219 269 326 387
#     4  10  21  40  66  96 129 167 214 264 318 384
#
# _framework density 21.007024999999999
#
# number of rings (size 3 to 8) (size 9 to 14) (size 15 to 20)
#    0.000    1.000    2.000    4.200    2.800    6.800 
#    0.000    0.000    0.000    0.000    0.000    0.000 
#    0.000    0.000    0.000    0.000    0.000    0.000 
#
# Total GULP energy -496400.467007 kJ/mol
# GULP energy per Si atom -12410.011675 kJ/mol
# Density = 2.095921 g / cm^3
# Si number density = 21.007025 Si / 1000 Ang^3
#
#
#
# Elastic Constant Matrix: (Units=GPa)
#
#
# Indices 1 2 3 4 5 6 
#
# 1 76.2886 46.6010 21.3357 0.0000 0.0000 0.0000
# 2 46.6010 121.8536 23.4298 0.0000 0.0000 0.0000
# 3 21.3357 23.4298 62.8172 0.0000 0.0000 0.0000
# 4 0.0000 0.0000 0.0000 37.7104 0.0000 0.0000
# 5 0.0000 0.0000 0.0000 0.0000 27.4736 0.0000
# 6 0.0000 0.0000 0.0000 0.0000 0.0000 30.3175
#
#
#
# Elastic Compliance Matrix: (Units=1/GPa)
#
#
# Indices 1 2 3 4 5 6 
#
# 1 0.017908 -0.006118 -0.003801 0.000000 0.000000 0.000000
# 2 -0.006118 0.010931 -0.001999 0.000000 0.000000 0.000000
# 3 -0.003801 -0.001999 0.017956 0.000000 0.000000 0.000000
# 4 0.000000 0.000000 0.000000 0.026518 0.000000 0.000000
# 5 0.000000 0.000000 0.000000 0.000000 0.036399 0.000000
# 6 0.000000 0.000000 0.000000 0.000000 0.000000 0.032984
#
#
# Mechanical properties :
#
#
# Convention : Reuss Voigt Hill
#
# Bulk Modulus (GPa) = 43.55506 49.29915 46.42711
# Shear Modulus (GPa) = 28.70538 30.40650 29.55594
#
# Velocity S-wave (km/s) = 3.70058 3.80866 3.75501
# Velocity P-wave (km/s) = 6.24801 6.54676 6.39913
#
# Compressibility (1/GPa) = 0.02295945
#
# Stress axis : x y z
#
# Youngs Moduli (GPa) = 55.84040 91.48588 55.69272
#
# Poissons Ratio (x) = 0.55970 0.21166
# Poissons Ratio (y) = 0.34163 0.11133
# Poissons Ratio (z) = 0.21223 0.18288
#
# Static dielectric constant tensor:
#      x y z
#    x 3.808260 0.000000 0.000000 
#    y 0.000000 3.773040 0.000000 
#    z 0.000000 0.000000 3.646780 
# 
# 
# High freq. dielectric constant tensor:
#      x y z
#    x 1.829160 0.000000 0.000000 
#    y 0.000000 1.834440 0.000000 
#    z 0.000000 0.000000 1.824000 
# 
# From -- ./inp_files/3794.got.cif
#   From: 2010.06.25/outbox.cif.g09.slc.cpg/sg58_2_cif.got.tgz:3794.got - 2010.06.26 21:38:00.
