data_PCOD8238170
_publ_section_title
;
Structure prediction by ZEFSAII (Michael W. Deem and Ramdas Pophale) SiO2 
 PCOD8238170
Probable space group: P N N M
;
_chemical_formula_sum "Si O2"
_cell_formula_units_Z 48
_cell_length_a 11.868590
_cell_length_b 23.413405
_cell_length_c 8.479199
_cell_angle_alpha 90.000000
_cell_angle_beta 90.000000
_cell_angle_gamma 90.000000
_cell_volume 2356.234621
_symmetry_space_group_name_H-M "P N N M"
_symmetry_group_IT_number 58
_symmetry_cell_setting 'orthorhombic'
loop_
_space_group_symop_operation_xyz
x,y,z
-x,-y,z
1/2+x,1/2-y,1/2-z
1/2-x,1/2+y,1/2-z
-x,-y,-z
x,y,-z
1/2-x,1/2+y,1/2+z
1/2+x,1/2-y,1/2+z
loop_
_atom_site_type_symbol
_atom_site_label
_atom_site_fract_x
_atom_site_fract_y
_atom_site_fract_z
Si Si1 0.164121 0.347327 0.686125
Si Si2 0.242408 0.623034 0.815980
Si Si3 0.987114 0.434995 0.186315
Si Si4 0.380690 0.725158 0.688317
Si Si5 0.909733 0.158736 0.826552
Si Si6 0.062942 0.053276 0.176160
O O1 0.162402 0.358635 0.500000
O O2 0.117369 0.285396 0.726680
O O3 0.290221 0.347098 0.761608
O O4 0.095380 0.398090 0.766905
O O5 0.124534 0.597762 0.748372
O O6 0.276613 0.682999 0.732721
O O7 0.335841 0.574616 0.785291
O O8 0.233008 0.635879 0.000000
O O9 0.000000 0.500000 0.253902
O O10 0.977252 0.438611 0.000000
O O11 0.380809 0.731214 0.500000
O O12 0.498275 0.699565 0.755483
O O13 0.963157 0.097429 0.840715
O O14 0.883516 0.184083 0.000000
O O15 0.109971 0.038989 0.000000
O O16 0.000000 0.000000 0.256622
#
# Coordination Sequence:
#
# PCOD8238170 Si02
#       6
#     8   8   8   8   8   8
#     4  11  23  38  61  91 119 151 197 248 296 353
#     4  10  21  38  60  86 118 154 197 249 296 348
#     4  10  24  44  61  83 122 168 205 244 303 362
#     4  10  21  40  63  87 118 156 194 238 305 365
#     4   8  18  36  55  81 115 147 183 237 293 344
#     4   9  18  34  59  85 113 152 192 234 293 352
#
# _framework density 20.371485
#
# number of rings (size 3 to 8) (size 9 to 14) (size 15 to 20)
#    0.000    2.333    0.000    2.500    4.667    2.000 
#    0.000    7.500    0.000    0.000    0.000    0.000 
#    0.000    0.000    0.000    0.000    0.000    0.000 
#
# Total GULP energy -594804.643798 kJ/mol
# GULP energy per Si atom -12391.763412 kJ/mol
# Density = 2.032512 g / cm^3
# Si number density = 20.371485 Si / 1000 Ang^3
#
#
#
# Elastic Constant Matrix: (Units=GPa)
#
#
# Indices 1 2 3 4 5 6 
#
# 1 137.9645 62.3759 10.1858 0.0000 0.0000 0.0000
# 2 62.3759 105.4147 1.7408 0.0000 0.0000 0.0000
# 3 10.1858 1.7408 17.8178 0.0000 0.0000 0.0000
# 4 0.0000 0.0000 0.0000 28.0283 0.0000 0.0000
# 5 0.0000 0.0000 0.0000 0.0000 20.5002 0.0000
# 6 0.0000 0.0000 0.0000 0.0000 0.0000 21.0754
#
#
#
# Elastic Compliance Matrix: (Units=1/GPa)
#
#
# Indices 1 2 3 4 5 6 
#
# 1 0.010380 -0.006054 -0.005342 0.000000 0.000000 0.000000
# 2 -0.006054 0.013032 0.002187 0.000000 0.000000 0.000000
# 3 -0.005342 0.002187 0.058964 0.000000 0.000000 0.000000
# 4 0.000000 0.000000 0.000000 0.035678 0.000000 0.000000
# 5 0.000000 0.000000 0.000000 0.000000 0.048780 0.000000
# 6 0.000000 0.000000 0.000000 0.000000 0.000000 0.047449
#
#
# Mechanical properties :
#
#
# Convention : Reuss Voigt Hill
#
# Bulk Modulus (GPa) = 15.63506 45.53356 30.58431
# Shear Modulus (GPa) = 19.68357 26.38041 23.03199
#
# Velocity S-wave (km/s) = 3.11180 3.60247 3.36609
# Velocity P-wave (km/s) = 4.53902 6.30110 5.49120
#
# Compressibility (1/GPa) = 0.06395881
#
# Stress axis : x y z
#
# Youngs Moduli (GPa) = 96.34312 76.73279 16.95955
#
# Poissons Ratio (x) = 0.46451 0.09060
# Poissons Ratio (y) = 0.58322 -0.03710
# Poissons Ratio (z) = 0.51468 -0.16784
#
# Static dielectric constant tensor:
#      x y z
#    x 3.963240 0.000000 0.000000 
#    y 0.000000 3.805300 0.000000 
#    z 0.000000 0.000000 3.473570 
# 
# 
# High freq. dielectric constant tensor:
#      x y z
#    x 1.804990 0.000000 0.000000 
#    y 0.000000 1.804490 0.000000 
#    z 0.000000 0.000000 1.769170 
# 
# From -- ./inp_files/4218.got.cif
#   From: 2010.06.25/outbox.cif.g09.slc.cpg/sg58_3_cif.got.tgz:4218.got - 2010.06.26 21:38:00.
