data_PCOD8238279
_publ_section_title
;
Structure prediction by ZEFSAII (Michael W. Deem and Ramdas Pophale) SiO2 
 PCOD8238279
Probable space group: P N N M
;
_chemical_formula_sum "Si O2"
_cell_formula_units_Z 64
_cell_length_a 15.357057
_cell_length_b 23.772115
_cell_length_c 8.855553
_cell_angle_alpha 90.000000
_cell_angle_beta 90.000000
_cell_angle_gamma 90.000000
_cell_volume 3232.894299
_symmetry_space_group_name_H-M "P N N M"
_symmetry_group_IT_number 58
_symmetry_cell_setting 'orthorhombic'
loop_
_space_group_symop_operation_xyz
x,y,z
-x,-y,z
1/2+x,1/2-y,1/2-z
1/2-x,1/2+y,1/2-z
-x,-y,-z
x,y,-z
1/2-x,1/2+y,1/2+z
1/2+x,1/2-y,1/2+z
loop_
_atom_site_type_symbol
_atom_site_label
_atom_site_fract_x
_atom_site_fract_y
_atom_site_fract_z
Si Si1 0.090929 0.862803 0.326980
Si Si2 0.589156 0.868857 0.321299
Si Si3 0.352008 0.251700 0.321688
Si Si4 0.759368 0.067292 0.822461
Si Si5 0.104369 0.368250 0.827766
Si Si6 0.605648 0.360973 0.827796
Si Si7 0.255298 0.053215 0.677832
Si Si8 0.329392 0.747044 0.328292
O O1 0.121504 0.859475 0.500000
O O2 0.094040 0.800848 0.257101
O O3 0.153078 0.906250 0.243471
O O4 0.992054 0.884869 0.312005
O O5 0.595341 0.864296 0.500000
O O6 0.613806 0.807611 0.256189
O O7 0.491873 0.886688 0.271656
O O8 0.658071 0.914902 0.263673
O O9 0.364269 0.257254 0.500000
O O10 0.250938 0.257697 0.282149
O O11 0.675264 0.103068 0.777283
O O12 0.749730 0.004327 0.766351
O O13 0.767953 0.068085 0.000000
O O14 0.107638 0.300773 0.816171
O O15 0.120662 0.387974 0.000000
O O16 0.671404 0.409932 0.778307
O O17 0.616548 0.307278 0.721159
O O18 0.625697 0.342616 0.000000
O O19 0.259111 0.040925 0.500000
O O20 0.296601 0.739148 0.500000
#
# Coordination Sequence:
#
# PCOD8238279 Si02
#       8
#     8   8   8   8   8   8   8   8
#     4  11  23  40  62  91 122 158 200 247 301 361
#     4   9  19  37  64  91 118 157 200 240 291 352
#     4  11  20  36  62  92 125 159 198 244 295 356
#     4  12  26  42  60  85 117 158 201 254 307 355
#     4  10  21  39  62  89 120 158 201 243 289 355
#     4  10  22  40  64  91 122 158 200 246 300 359
#     4  10  21  42  65  85 114 157 203 249 297 357
#     4  11  21  34  59  92 128 163 197 239 294 355
#
# _framework density 19.796502
#
# number of rings (size 3 to 8) (size 9 to 14) (size 15 to 20)
#    0.000    1.500    2.500    3.000    0.000    4.000 
#    0.000    6.875    0.000    0.000    0.000    0.000 
#    0.000    0.000    0.000    0.000    0.000    0.000 
#
# Total GULP energy -793832.685756 kJ/mol
# GULP energy per Si atom -12403.635715 kJ/mol
# Density = 1.975144 g / cm^3
# Si number density = 19.796502 Si / 1000 Ang^3
#
#
#
# Elastic Constant Matrix: (Units=GPa)
#
#
# Indices 1 2 3 4 5 6 
#
# 1 120.6752 39.9107 35.0250 0.0000 0.0000 0.0000
# 2 39.9107 110.6170 47.7275 0.0000 0.0000 0.0000
# 3 35.0250 47.7275 92.9403 0.0000 0.0000 0.0000
# 4 0.0000 0.0000 0.0000 35.0899 0.0000 0.0000
# 5 0.0000 0.0000 0.0000 0.0000 0.9038 0.0000
# 6 0.0000 0.0000 0.0000 0.0000 0.0000 12.3406
#
#
#
# Elastic Compliance Matrix: (Units=1/GPa)
#
#
# Indices 1 2 3 4 5 6 
#
# 1 0.009814 -0.002499 -0.002415 0.000000 0.000000 0.000000
# 2 -0.002499 0.012250 -0.005349 0.000000 0.000000 0.000000
# 3 -0.002415 -0.005349 0.014417 0.000000 0.000000 0.000000
# 4 0.000000 0.000000 0.000000 0.028498 0.000000 0.000000
# 5 0.000000 0.000000 0.000000 0.000000 1.106494 0.000000
# 6 0.000000 0.000000 0.000000 0.000000 0.000000 0.081034
#
#
# Mechanical properties :
#
#
# Convention : Reuss Voigt Hill
#
# Bulk Modulus (GPa) = 62.67844 63.28432 62.98138
# Shear Modulus (GPa) = 3.91129 23.10479 13.50804
#
# Velocity S-wave (km/s) = 1.40714 3.42001 2.61501
# Velocity P-wave (km/s) = 5.86261 6.90160 6.40321
#
# Compressibility (1/GPa) = 0.01595445
#
# Stress axis : x y z
#
# Youngs Moduli (GPa) = 101.89361 81.63510 69.36456
#
# Poissons Ratio (x) = 0.20399 0.16753
# Poissons Ratio (y) = 0.25462 0.37102
# Poissons Ratio (z) = 0.24610 0.43665
#
# Static dielectric constant tensor:
#      x y z
#    x 3.778660 0.000000 0.000000 
#    y 0.000000 3.647840 0.000000 
#    z 0.000000 0.000000 3.522670 
# 
# 
# High freq. dielectric constant tensor:
#      x y z
#    x 1.786050 0.000000 0.000000 
#    y 0.000000 1.769810 0.000000 
#    z 0.000000 0.000000 1.758760 
# 
# From -- ./inp_files/6941.got.cif
#   From: 2010.06.25/outbox.cif.g09.slc.cpg/sg58_4_cif.got.tgz:6941.got - 2010.06.26 21:38:00.
