data_PCOD8238378
_publ_section_title
;
Structure prediction by ZEFSAII (Michael W. Deem and Ramdas Pophale) SiO2 
 PCOD8238378
Probable space group: P N N M
;
_chemical_formula_sum "Si O2"
_cell_formula_units_Z 64
_cell_length_a 15.176063
_cell_length_b 24.759109
_cell_length_c 8.793645
_cell_angle_alpha 90.000000
_cell_angle_beta 90.000000
_cell_angle_gamma 90.000000
_cell_volume 3304.175158
_symmetry_space_group_name_H-M "P N N M"
_symmetry_group_IT_number 58
_symmetry_cell_setting 'orthorhombic'
loop_
_space_group_symop_operation_xyz
x,y,z
-x,-y,z
1/2+x,1/2-y,1/2-z
1/2-x,1/2+y,1/2-z
-x,-y,-z
x,y,-z
1/2-x,1/2+y,1/2+z
1/2+x,1/2-y,1/2+z
loop_
_atom_site_type_symbol
_atom_site_label
_atom_site_fract_x
_atom_site_fract_y
_atom_site_fract_z
Si Si1 0.953957 0.112250 0.178757
Si Si2 0.987473 0.778274 0.320133
Si Si3 0.377034 0.570197 0.179152
Si Si4 0.056663 0.581776 0.673944
Si Si5 0.698242 0.317653 0.820450
Si Si6 0.129653 0.465607 0.673631
Si Si7 0.306262 0.454314 0.176667
Si Si8 0.892752 0.310301 0.821873
O O1 0.961180 0.171306 0.250876
O O2 0.860142 0.088193 0.224227
O O3 0.028297 0.071649 0.240254
O O4 0.961488 0.118148 0.000000
O O5 0.993459 0.782294 0.500000
O O6 0.033652 0.723827 0.265477
O O7 0.883876 0.779702 0.268513
O O8 0.319141 0.621059 0.237479
O O9 0.329170 0.515345 0.226843
O O10 0.394128 0.573687 0.000000
O O11 0.077893 0.598167 0.500000
O O12 0.104619 0.526488 0.718941
O O13 0.089993 0.626989 0.789546
O O14 0.952331 0.574308 0.694296
O O15 0.793293 0.296387 0.760865
O O16 0.704214 0.319405 0.000000
O O17 0.163188 0.464135 0.500000
O O18 0.204308 0.444235 0.786787
O O19 0.325679 0.444499 0.000000
O O20 0.901511 0.298628 0.000000
#
# Coordination Sequence:
#
# PCOD8238378 Si02
#       8
#     8   8   8   8   8   8   8   8
#     4  11  22  36  54  78 110 146 185 234 283 331
#     4  10  21  41  61  79 109 150 188 233 289 342
#     4   9  18  34  55  79 110 148 185 224 274 336
#     4   9  19  37  58  81 112 150 185 226 283 336
#     4   8  17  35  58  81 108 143 182 225 282 336
#     4   9  19  36  56  80 114 151 188 228 274 331
#     4  11  21  33  53  82 114 150 189 226 276 338
#     4  11  21  36  60  89 113 142 190 240 281 335
#
# _framework density 19.369432
#
# number of rings (size 3 to 8) (size 9 to 14) (size 15 to 20)
#    0.000    2.250    0.000    4.875    0.000    4.500 
#    2.250    8.750    0.000    0.000    0.000    0.000 
#    0.000    0.000    0.000    0.000    0.000    0.000 
#
# Total GULP energy -793600.060908 kJ/mol
# GULP energy per Si atom -12400.000952 kJ/mol
# Density = 1.932535 g / cm^3
# Si number density = 19.369432 Si / 1000 Ang^3
#
#
#
# Elastic Constant Matrix: (Units=GPa)
#
#
# Indices 1 2 3 4 5 6 
#
# 1 117.9744 40.0335 29.2516 0.0000 0.0000 0.0000
# 2 40.0335 53.5341 22.5511 0.0000 0.0000 0.0000
# 3 29.2516 22.5511 65.9949 0.0000 0.0000 0.0000
# 4 0.0000 0.0000 0.0000 28.4069 0.0000 0.0000
# 5 0.0000 0.0000 0.0000 0.0000 30.3710 0.0000
# 6 0.0000 0.0000 0.0000 0.0000 0.0000 24.7398
#
#
#
# Elastic Compliance Matrix: (Units=1/GPa)
#
#
# Indices 1 2 3 4 5 6 
#
# 1 0.011721 -0.007682 -0.002570 0.000000 0.000000 0.000000
# 2 -0.007682 0.026856 -0.005772 0.000000 0.000000 0.000000
# 3 -0.002570 -0.005772 0.018264 0.000000 0.000000 0.000000
# 4 0.000000 0.000000 0.000000 0.035203 0.000000 0.000000
# 5 0.000000 0.000000 0.000000 0.000000 0.032926 0.000000
# 6 0.000000 0.000000 0.000000 0.000000 0.000000 0.040421
#
#
# Mechanical properties :
#
#
# Convention : Reuss Voigt Hill
#
# Bulk Modulus (GPa) = 40.33473 46.79733 43.56603
# Shear Modulus (GPa) = 24.30698 26.41468 25.36083
#
# Velocity S-wave (km/s) = 3.54632 3.69688 3.62238
# Velocity P-wave (km/s) = 6.13495 6.51425 6.32744
#
# Compressibility (1/GPa) = 0.02479253
#
# Stress axis : x y z
#
# Youngs Moduli (GPa) = 85.32059 37.23573 54.75225
#
# Poissons Ratio (x) = 0.28605 0.14071
# Poissons Ratio (y) = 0.65545 0.31602
# Poissons Ratio (z) = 0.21927 0.21492
#
# Static dielectric constant tensor:
#      x y z
#    x 3.762940 0.000000 0.000000 
#    y 0.000000 3.391440 0.000000 
#    z 0.000000 0.000000 3.353520 
# 
# 
# High freq. dielectric constant tensor:
#      x y z
#    x 1.763780 0.000000 0.000000 
#    y 0.000000 1.739250 0.000000 
#    z 0.000000 0.000000 1.742500 
# 
# From -- ./inp_files/6753.got.cif
#   From: 2010.06.25/outbox.cif.g09.slc.cpg/sg58_4_cif.got.tgz:6753.got - 2010.06.26 21:38:00.
