data_PCOD8238512
_publ_section_title
;
Structure prediction by ZEFSAII (Michael W. Deem and Ramdas Pophale) SiO2 
 PCOD8238512
Probable space group: P N N M
;
_chemical_formula_sum "Si O2"
_cell_formula_units_Z 48
_cell_length_a 19.816278
_cell_length_b 14.250724
_cell_length_c 8.592662
_cell_angle_alpha 90.000000
_cell_angle_beta 90.000000
_cell_angle_gamma 90.000000
_cell_volume 2426.536029
_symmetry_space_group_name_H-M "P N N M"
_symmetry_group_IT_number 58
_symmetry_cell_setting 'orthorhombic'
loop_
_space_group_symop_operation_xyz
x,y,z
-x,-y,z
1/2+x,1/2-y,1/2-z
1/2-x,1/2+y,1/2-z
-x,-y,-z
x,y,-z
1/2-x,1/2+y,1/2+z
1/2+x,1/2-y,1/2+z
loop_
_atom_site_type_symbol
_atom_site_label
_atom_site_fract_x
_atom_site_fract_y
_atom_site_fract_z
Si Si1 0.072852 0.831475 0.819852
Si Si2 0.378247 0.517277 0.818221
Si Si3 0.697836 0.768962 0.820630
Si Si4 0.266135 0.021730 0.820090
Si Si5 0.064581 0.216233 0.682061
Si Si6 0.670555 0.152397 0.680461
O O1 0.078233 0.940019 0.771881
O O2 0.142557 0.778394 0.788020
O O3 0.014313 0.781240 0.721671
O O4 0.054600 0.824769 0.000000
O O5 0.299349 0.504133 0.784852
O O6 0.403028 0.618463 0.759793
O O7 0.391674 0.503094 0.000000
O O8 0.770113 0.725254 0.778920
O O9 0.700181 0.878810 0.781647
O O10 0.678940 0.749879 0.000000
O O11 0.320653 0.942472 0.779252
O O12 0.244345 0.016416 0.000000
O O13 0.076021 0.230363 0.500000
O O14 0.100015 0.301186 0.772120
O O15 0.669294 0.125927 0.500000
#
# Coordination Sequence:
#
# PCOD8238512 Si02
#       6
#     8   8   8   8   8   8
#     4  12  25  39  61  90 124 162 204 250 303 364
#     4  11  22  37  60  90 124 160 198 247 303 360
#     4  10  22  40  62  88 123 161 200 248 301 356
#     4  11  22  38  62  92 122 157 202 249 297 354
#     4  11  24  41  62  88 124 164 204 249 304 363
#     4  11  22  39  63  91 124 159 200 250 301 357
#
# _framework density 19.781286000000001
#
# number of rings (size 3 to 8) (size 9 to 14) (size 15 to 20)
#    0.000    1.000    3.333    4.000    0.000    6.000 
#    0.000    0.833    0.000    5.000    0.000    0.000 
#    0.000    0.000    0.000    0.000    0.000    0.000 
#
# Total GULP energy -595629.700069 kJ/mol
# GULP energy per Si atom -12408.952085 kJ/mol
# Density = 1.973626 g / cm^3
# Si number density = 19.781286 Si / 1000 Ang^3
#
#
#
# Elastic Constant Matrix: (Units=GPa)
#
#
# Indices 1 2 3 4 5 6 
#
# 1 51.6962 -4.0977 12.4527 0.0000 0.0000 0.0000
# 2 -4.0977 85.5359 30.2657 0.0000 0.0000 0.0000
# 3 12.4527 30.2657 61.6533 0.0000 0.0000 0.0000
# 4 0.0000 0.0000 0.0000 26.3161 0.0000 0.0000
# 5 0.0000 0.0000 0.0000 0.0000 30.6939 0.0000
# 6 0.0000 0.0000 0.0000 0.0000 0.0000 25.8943
#
#
#
# Elastic Compliance Matrix: (Units=1/GPa)
#
#
# Indices 1 2 3 4 5 6 
#
# 1 0.020962 0.003028 -0.005720 0.000000 0.000000 0.000000
# 2 0.003028 0.014586 -0.007772 0.000000 0.000000 0.000000
# 3 -0.005720 -0.007772 0.021190 0.000000 0.000000 0.000000
# 4 0.000000 0.000000 0.000000 0.038000 0.000000 0.000000
# 5 0.000000 0.000000 0.000000 0.000000 0.032580 0.000000
# 6 0.000000 0.000000 0.000000 0.000000 0.000000 0.038619
#
#
# Mechanical properties :
#
#
# Convention : Reuss Voigt Hill
#
# Bulk Modulus (GPa) = 27.92511 30.68073 29.30292
# Shear Modulus (GPa) = 25.15078 27.26518 26.20798
#
# Velocity S-wave (km/s) = 3.56960 3.71662 3.64385
# Velocity P-wave (km/s) = 5.58005 5.82763 5.70518
#
# Compressibility (1/GPa) = 0.03581006
#
# Stress axis : x y z
#
# Youngs Moduli (GPa) = 47.70586 68.55851 47.19114
#
# Poissons Ratio (x) = -0.20762 0.26995
# Poissons Ratio (y) = -0.14447 0.36677
# Poissons Ratio (z) = 0.27290 0.53284
#
# Static dielectric constant tensor:
#      x y z
#    x 3.437400 0.000000 0.000000 
#    y 0.000000 3.668890 0.000000 
#    z 0.000000 0.000000 3.560000 
# 
# 
# High freq. dielectric constant tensor:
#      x y z
#    x 1.763210 0.000000 0.000000 
#    y 0.000000 1.773940 0.000000 
#    z 0.000000 0.000000 1.777580 
# 
# From -- ./inp_files/5741.got.cif
#   From: 2010.06.25/outbox.cif.g09.slc.cpg/sg58_3_cif.got.tgz:5741.got - 2010.06.26 21:38:00.
