data_PCOD8238524
_publ_section_title
;
Structure prediction by ZEFSAII (Michael W. Deem and Ramdas Pophale) SiO2 
 PCOD8238524
Probable space group: P N N M
;
_chemical_formula_sum "Si O2"
_cell_formula_units_Z 40
_cell_length_a 6.626205
_cell_length_b 15.287672
_cell_length_c 18.526723
_cell_angle_alpha 90.000000
_cell_angle_beta 90.000000
_cell_angle_gamma 90.000000
_cell_volume 1876.743120
_symmetry_space_group_name_H-M "P N N M"
_symmetry_group_IT_number 58
_symmetry_cell_setting 'orthorhombic'
loop_
_space_group_symop_operation_xyz
x,y,z
-x,-y,z
1/2+x,1/2-y,1/2-z
1/2-x,1/2+y,1/2-z
-x,-y,-z
x,y,-z
1/2-x,1/2+y,1/2+z
1/2+x,1/2-y,1/2+z
loop_
_atom_site_type_symbol
_atom_site_label
_atom_site_fract_x
_atom_site_fract_y
_atom_site_fract_z
Si Si1 0.029745 0.674771 0.682217
Si Si2 0.687450 0.645266 0.784601
Si Si3 0.314728 0.262109 0.416145
Si Si4 0.079917 0.403386 0.082502
Si Si5 0.070538 0.092754 0.838862
O O1 0.160046 0.750173 0.720974
O O2 0.187728 0.602240 0.653504
O O3 0.887001 0.623883 0.737913
O O4 0.903765 0.722998 0.619290
O O5 0.498292 0.598116 0.745748
O O6 0.725264 0.612647 0.866293
O O7 0.286832 0.278312 0.500000
O O8 0.400331 0.165056 0.399680
O O9 0.473194 0.330894 0.385533
O O10 0.000000 0.500000 0.096719
O O11 0.154206 0.391626 0.000000
O O12 0.000000 0.000000 0.871269
#
# Coordination Sequence:
#
# PCOD8238524 Si02
#       5
#     8   8   8   8   8
#     4  11  21  39  63  92 124 163 212 261 311 379
#     4  11  21  37  64  89 123 162 206 254 315 371
#     4  10  23  42  64  90 125 169 212 260 318 379
#     4  10  22  40  63  93 128 166 210 260 317 380
#     4  11  25  40  63  97 126 162 214 262 318 378
#
# _framework density 21.313518999999999
#
# number of rings (size 3 to 8) (size 9 to 14) (size 15 to 20)
#    0.000    1.400    4.000    1.200    2.800    4.400 
#    0.000    1.000    0.000    4.200    0.000    0.000 
#    0.000    0.000    0.000    0.000    0.000    0.000 
#
# Total GULP energy -496033.466397 kJ/mol
# GULP energy per Si atom -12400.836660 kJ/mol
# Density = 2.126501 g / cm^3
# Si number density = 21.313519 Si / 1000 Ang^3
#
#
#
# Elastic Constant Matrix: (Units=GPa)
#
#
# Indices 1 2 3 4 5 6 
#
# 1 112.3740 31.0307 43.3993 0.0000 0.0000 0.0000
# 2 31.0307 99.0706 42.9522 0.0000 0.0000 0.0000
# 3 43.3993 42.9522 105.0141 0.0000 0.0000 0.0000
# 4 0.0000 0.0000 0.0000 22.0314 0.0000 0.0000
# 5 0.0000 0.0000 0.0000 0.0000 22.7530 0.0000
# 6 0.0000 0.0000 0.0000 0.0000 0.0000 18.5824
#
#
#
# Elastic Compliance Matrix: (Units=1/GPa)
#
#
# Indices 1 2 3 4 5 6 
#
# 1 0.010837 -0.001766 -0.003756 0.000000 0.000000 0.000000
# 2 -0.001766 0.012557 -0.004406 0.000000 0.000000 0.000000
# 3 -0.003756 -0.004406 0.012877 0.000000 0.000000 0.000000
# 4 0.000000 0.000000 0.000000 0.045390 0.000000 0.000000
# 5 0.000000 0.000000 0.000000 0.000000 0.043950 0.000000
# 6 0.000000 0.000000 0.000000 0.000000 0.000000 0.053814
#
#
# Mechanical properties :
#
#
# Convention : Reuss Voigt Hill
#
# Bulk Modulus (GPa) = 60.92176 61.24701 61.08438
# Shear Modulus (GPa) = 24.41944 25.94511 25.18227
#
# Velocity S-wave (km/s) = 3.38853 3.49278 3.44105
# Velocity P-wave (km/s) = 6.62987 6.71302 6.67157
#
# Compressibility (1/GPa) = 0.01641450
#
# Stress axis : x y z
#
# Youngs Moduli (GPa) = 92.27454 79.63513 77.65642
#
# Poissons Ratio (x) = 0.14062 0.29171
# Poissons Ratio (y) = 0.16294 0.34218
# Poissons Ratio (z) = 0.34663 0.35090
#
# Static dielectric constant tensor:
#      x y z
#    x 3.842290 0.000000 0.000000 
#    y 0.000000 3.804690 0.000000 
#    z 0.000000 0.000000 3.902850 
# 
# 
# High freq. dielectric constant tensor:
#      x y z
#    x 1.831580 0.000000 0.000000 
#    y 0.000000 1.834810 0.000000 
#    z 0.000000 0.000000 1.829660 
# 
# From -- ./inp_files/24184.got.cif
#   From: 2010.06.25/outbox.cif.g09.slc.cpg/sg58_13_cif.got.tgz:24184.got - 2010.06.26 21:38:00.
