data_PCOD8238570
_publ_section_title
;
Structure prediction by ZEFSAII (Michael W. Deem and Ramdas Pophale) SiO2 
 PCOD8238570
Probable space group: P N N M
;
_chemical_formula_sum "Si O2"
_cell_formula_units_Z 60
_cell_length_a 12.791583
_cell_length_b 7.306684
_cell_length_c 30.873443
_cell_angle_alpha 90.000000
_cell_angle_beta 90.000000
_cell_angle_gamma 90.000000
_cell_volume 2885.557170
_symmetry_space_group_name_H-M "P N N M"
_symmetry_group_IT_number 58
_symmetry_cell_setting 'orthorhombic'
loop_
_space_group_symop_operation_xyz
x,y,z
-x,-y,z
1/2+x,1/2-y,1/2-z
1/2-x,1/2+y,1/2-z
-x,-y,-z
x,y,-z
1/2-x,1/2+y,1/2+z
1/2+x,1/2-y,1/2+z
loop_
_atom_site_type_symbol
_atom_site_label
_atom_site_fract_x
_atom_site_fract_y
_atom_site_fract_z
Si Si1 0.248308 0.378693 0.047192
Si Si2 0.748419 0.698419 0.361462
Si Si3 0.605733 0.915561 0.820588
Si Si4 0.679517 0.704199 0.547134
Si Si5 0.483412 0.298403 0.329618
Si Si6 0.000000 0.500000 0.762458
Si Si7 0.534834 0.209649 0.421770
Si Si8 0.617337 0.556664 0.872715
O O1 0.205569 0.582699 0.047430
O O2 0.146021 0.252103 0.055306
O O3 0.335630 0.351072 0.083868
O O4 0.296019 0.328304 0.000000
O O5 0.794703 0.532423 0.334388
O O6 0.741055 0.623917 0.411348
O O7 0.636049 0.750754 0.341788
O O8 0.818235 0.880177 0.357333
O O9 0.596146 0.933869 0.768256
O O10 0.619736 0.704764 0.834114
O O11 0.500000 0.000000 0.842459
O O12 0.712510 0.619955 0.500000
O O13 0.555089 0.674856 0.553819
O O14 0.500000 0.500000 0.310882
O O15 0.531404 0.168055 0.292997
O O16 0.552291 0.277570 0.372782
O O17 0.500000 0.000000 0.421269
O O18 0.500000 0.500000 0.883855
#
# Coordination Sequence:
#
# PCOD8238570 Si02
#       8
#     8   8   8   8   8   4   8   8
#     4   9  18  30  55  93 123 165 215 253 305 375
#     4  10  22  41  64  96 124 169 209 249 326 376
#     4  10  23  44  66  88 120 161 213 264 312 376
#     4   8  15  30  57  89 124 162 206 255 300 375
#     4  11  24  40  65  96 132 164 202 263 321 386
#     4  10  24  46  62  96 124 156 216 268 306 394
#     4   9  16  32  57  85 128 170 203 248 316 378
#     4  11  21  39  68  87 120 171 213 265 314 366
#
# _framework density 20.793212
#
# number of rings (size 3 to 8) (size 9 to 14) (size 15 to 20)
#    0.400    1.867    2.000    1.200    1.867    3.467 
#    4.800    0.667    0.000    2.800    0.000    0.000 
#    0.000    0.000    0.000    0.000    0.000    0.000 
#
# Total GULP energy -743695.283884 kJ/mol
# GULP energy per Si atom -12394.921398 kJ/mol
# Density = 2.074589 g / cm^3
# Si number density = 20.793212 Si / 1000 Ang^3
#
#
#
# Elastic Constant Matrix: (Units=GPa)
#
#
# Indices 1 2 3 4 5 6 
#
# 1 76.4157 20.5192 25.3805 0.0000 0.0000 0.0000
# 2 20.5192 63.3370 36.4707 0.0000 0.0000 0.0000
# 3 25.3805 36.4707 144.1728 0.0000 0.0000 0.0000
# 4 0.0000 0.0000 0.0000 10.9592 0.0000 0.0000
# 5 0.0000 0.0000 0.0000 0.0000 20.9661 0.0000
# 6 0.0000 0.0000 0.0000 0.0000 0.0000 26.3758
#
#
#
# Elastic Compliance Matrix: (Units=1/GPa)
#
#
# Indices 1 2 3 4 5 6 
#
# 1 0.014647 -0.003816 -0.001613 0.000000 0.000000 0.000000
# 2 -0.003816 0.019475 -0.004255 0.000000 0.000000 0.000000
# 3 -0.001613 -0.004255 0.008296 0.000000 0.000000 0.000000
# 4 0.000000 0.000000 0.000000 0.091248 0.000000 0.000000
# 5 0.000000 0.000000 0.000000 0.000000 0.047696 0.000000
# 6 0.000000 0.000000 0.000000 0.000000 0.000000 0.037914
#
#
# Mechanical properties :
#
#
# Convention : Reuss Voigt Hill
#
# Bulk Modulus (GPa) = 43.38384 49.85182 46.61783
# Shear Modulus (GPa) = 20.29824 25.09723 22.69774
#
# Velocity S-wave (km/s) = 3.12780 3.47795 3.30751
# Velocity P-wave (km/s) = 5.82700 6.33682 6.08725
#
# Compressibility (1/GPa) = 0.02305006
#
# Stress axis : x y z
#
# Youngs Moduli (GPa) = 68.27424 51.34837 120.53468
#
# Poissons Ratio (x) = 0.19596 0.19443
# Poissons Ratio (y) = 0.26055 0.51283
# Poissons Ratio (z) = 0.11013 0.21847
#
# Static dielectric constant tensor:
#      x y z
#    x 3.656770 0.000000 0.000000 
#    y 0.000000 3.574030 0.000000 
#    z 0.000000 0.000000 3.953440 
# 
# 
# High freq. dielectric constant tensor:
#      x y z
#    x 1.793690 0.000000 0.000000 
#    y 0.000000 1.809280 0.000000 
#    z 0.000000 0.000000 1.812200 
# 
# From -- ./inp_files/33764.got.cif
#   From: 2010.06.25/outbox.cif.g09.slc.cpg/sg58_17_cif.got.tgz:33764.got - 2010.06.26 21:38:00.
