data_PCOD8238311
_publ_section_title
;
Structure prediction by ZEFSAII (Michael W. Deem and Ramdas Pophale) SiO2 
 PCOD8238311
Probable space group: P N N M
;
_chemical_formula_sum "Si O2"
_cell_formula_units_Z 40
_cell_length_a 18.560573
_cell_length_b 13.687096
_cell_length_c 7.593815
_cell_angle_alpha 90.000000
_cell_angle_beta 90.000000
_cell_angle_gamma 90.000000
_cell_volume 1929.135378
_symmetry_space_group_name_H-M "P N N M"
_symmetry_group_IT_number 58
_symmetry_cell_setting 'orthorhombic'
loop_
_space_group_symop_operation_xyz
x,y,z
-x,-y,z
1/2+x,1/2-y,1/2-z
1/2-x,1/2+y,1/2-z
-x,-y,-z
x,y,-z
1/2-x,1/2+y,1/2+z
1/2+x,1/2-y,1/2+z
loop_
_atom_site_type_symbol
_atom_site_label
_atom_site_fract_x
_atom_site_fract_y
_atom_site_fract_z
Si Si1 0.696408 0.347218 0.301963
Si Si2 0.529422 0.798100 0.703335
Si Si3 0.160357 0.563922 0.202826
Si Si4 0.371065 0.852207 0.292972
Si Si5 0.888355 0.946635 0.500000
Si Si6 0.043382 0.850781 0.500000
O O1 0.665614 0.359302 0.500000
O O2 0.781321 0.369866 0.303533
O O3 0.682655 0.235554 0.238143
O O4 0.655410 0.421884 0.175998
O O5 0.526711 0.762841 0.500000
O O6 0.581514 0.890467 0.725978
O O7 0.451143 0.828881 0.776674
O O8 0.558278 0.710065 0.822857
O O9 0.158035 0.454587 0.286012
O O10 0.184214 0.561564 0.000000
O O11 0.376270 0.867274 0.500000
O O12 0.962513 0.889252 0.500000
O O13 0.899210 0.062324 0.500000
#
# Coordination Sequence:
#
# PCOD8238311 Si02
#       6
#     8   8   8   8   4   4
#     4  11  23  42  63  88 127 167 210 256 313 375
#     4  10  21  40  64  95 128 160 206 260 313 373
#     4  10  21  39  64  94 127 164 209 258 312 375
#     4   9  19  39  65  87 122 170 201 252 317 367
#     4  11  24  44  63  90 124 168 212 256 318 376
#     4  11  24  40  68  93 122 165 211 264 312 371
#
# _framework density 20.734677000000001
#
# number of rings (size 3 to 8) (size 9 to 14) (size 15 to 20)
#    0.000    1.800    3.000    0.600    1.400    4.800 
#    3.600    5.000    0.000    0.000    0.000    0.000 
#    0.000    0.000    0.000    0.000    0.000    0.000 
#
# Total GULP energy -496069.528174 kJ/mol
# GULP energy per Si atom -12401.738204 kJ/mol
# Density = 2.068748 g / cm^3
# Si number density = 20.734677 Si / 1000 Ang^3
#
#
#
# Elastic Constant Matrix: (Units=GPa)
#
#
# Indices 1 2 3 4 5 6 
#
# 1 102.3414 72.9510 25.6498 0.0000 0.0000 0.0000
# 2 72.9510 174.8471 49.1571 0.0000 0.0000 0.0000
# 3 25.6498 49.1571 88.3592 0.0000 0.0000 0.0000
# 4 0.0000 0.0000 0.0000 25.8357 0.0000 0.0000
# 5 0.0000 0.0000 0.0000 0.0000 17.7543 0.0000
# 6 0.0000 0.0000 0.0000 0.0000 0.0000 36.0168
#
#
#
# Elastic Compliance Matrix: (Units=1/GPa)
#
#
# Indices 1 2 3 4 5 6 
#
# 1 0.013976 -0.005560 -0.000964 0.000000 0.000000 0.000000
# 2 -0.005560 0.008992 -0.003388 0.000000 0.000000 0.000000
# 3 -0.000964 -0.003388 0.013482 0.000000 0.000000 0.000000
# 4 0.000000 0.000000 0.000000 0.038706 0.000000 0.000000
# 5 0.000000 0.000000 0.000000 0.000000 0.056324 0.000000
# 6 0.000000 0.000000 0.000000 0.000000 0.000000 0.027765
#
#
# Mechanical properties :
#
#
# Convention : Reuss Voigt Hill
#
# Bulk Modulus (GPa) = 60.14869 73.45150 66.80009
# Shear Modulus (GPa) = 27.08378 30.44068 28.76223
#
# Velocity S-wave (km/s) = 3.61807 3.83574 3.72849
# Velocity P-wave (km/s) = 6.82097 7.42419 7.12896
#
# Compressibility (1/GPa) = 0.01662547
#
# Stress axis : x y z
#
# Youngs Moduli (GPa) = 71.54983 111.21232 74.17157
#
# Poissons Ratio (x) = 0.61838 0.07149
# Poissons Ratio (y) = 0.39784 0.25132
# Poissons Ratio (z) = 0.06896 0.37682
#
# Static dielectric constant tensor:
#      x y z
#    x 3.703020 0.000000 0.000000 
#    y 0.000000 3.891330 0.000000 
#    z 0.000000 0.000000 3.684680 
# 
# 
# High freq. dielectric constant tensor:
#      x y z
#    x 1.808820 0.000000 0.000000 
#    y 0.000000 1.813040 0.000000 
#    z 0.000000 0.000000 1.805430 
# 
# From -- ./inp_files/3849.got.cif
#   From: 2010.06.25/outbox.cif.g09.slc.cpg/sg58_2_cif.got.tgz:3849.got - 2010.06.26 21:38:00.
