data_PCOD8238302
_publ_section_title
;
Structure prediction by ZEFSAII (Michael W. Deem and Ramdas Pophale) SiO2 
 PCOD8238302
Probable space group: P N N M
;
_chemical_formula_sum "Si O2"
_cell_formula_units_Z 40
_cell_length_a 7.707944
_cell_length_b 22.270042
_cell_length_c 10.780710
_cell_angle_alpha 90.000000
_cell_angle_beta 90.000000
_cell_angle_gamma 90.000000
_cell_volume 1850.576107
_symmetry_space_group_name_H-M "P N N M"
_symmetry_group_IT_number 58
_symmetry_cell_setting 'orthorhombic'
loop_
_space_group_symop_operation_xyz
x,y,z
-x,-y,z
1/2+x,1/2-y,1/2-z
1/2-x,1/2+y,1/2-z
-x,-y,-z
x,y,-z
1/2-x,1/2+y,1/2+z
1/2+x,1/2-y,1/2+z
loop_
_atom_site_type_symbol
_atom_site_label
_atom_site_fract_x
_atom_site_fract_y
_atom_site_fract_z
Si Si1 0.230540 0.631145 0.644225
Si Si2 0.631645 0.554541 0.135496
Si Si3 0.958721 0.180091 0.719566
Si Si4 0.202363 0.497695 0.637143
Si Si5 0.399604 0.801915 0.859576
O O1 0.196988 0.634627 0.500000
O O2 0.395494 0.671912 0.675056
O O3 0.270269 0.562531 0.684076
O O4 0.048974 0.655576 0.702148
O O5 0.500000 0.500000 0.148738
O O6 0.542572 0.619784 0.136937
O O7 0.755033 0.551256 0.256998
O O8 0.726160 0.548589 0.000000
O O9 0.771588 0.194026 0.776976
O O10 0.021318 0.234945 0.635135
O O11 0.282305 0.481047 0.500000
O O12 0.000000 0.500000 0.620086
O O13 0.352263 0.821153 0.000000
#
# Coordination Sequence:
#
# PCOD8238302 Si02
#       5
#     8   8   8   8   8
#     4  10  21  39  63  94 127 163 213 273 321 376
#     4  11  24  41  63  93 132 170 209 260 322 390
#     4  12  22  42  66  90 125 175 214 261 332 386
#     4  10  21  40  67  95 127 168 216 266 320 385
#     4  11  24  41  65  95 126 163 219 276 320 384
#
# _framework density 21.614889999999999
#
# number of rings (size 3 to 8) (size 9 to 14) (size 15 to 20)
#    0.000    1.200    4.000    2.400    0.000    4.000 
#    0.000    0.000    0.000    0.000    0.000    0.000 
#    0.000    0.000    0.000    0.000    0.000    0.000 
#
# Total GULP energy -495739.144190 kJ/mol
# GULP energy per Si atom -12393.478605 kJ/mol
# Density = 2.156569 g / cm^3
# Si number density = 21.614890 Si / 1000 Ang^3
#
#
#
# Elastic Constant Matrix: (Units=GPa)
#
#
# Indices 1 2 3 4 5 6 
#
# 1 105.7696 10.7817 34.6395 0.0000 0.0000 0.0000
# 2 10.7817 79.6385 33.8520 0.0000 0.0000 0.0000
# 3 34.6395 33.8520 100.1556 0.0000 0.0000 0.0000
# 4 0.0000 0.0000 0.0000 60.9479 0.0000 0.0000
# 5 0.0000 0.0000 0.0000 0.0000 24.1878 0.0000
# 6 0.0000 0.0000 0.0000 0.0000 0.0000 37.2397
#
#
#
# Elastic Compliance Matrix: (Units=1/GPa)
#
#
# Indices 1 2 3 4 5 6 
#
# 1 0.010664 0.000145 -0.003737 0.000000 0.000000 0.000000
# 2 0.000145 0.014665 -0.005007 0.000000 0.000000 0.000000
# 3 -0.003737 -0.005007 0.012969 0.000000 0.000000 0.000000
# 4 0.000000 0.000000 0.000000 0.016407 0.000000 0.000000
# 5 0.000000 0.000000 0.000000 0.000000 0.041343 0.000000
# 6 0.000000 0.000000 0.000000 0.000000 0.000000 0.026853
#
#
# Mechanical properties :
#
#
# Convention : Reuss Voigt Hill
#
# Bulk Modulus (GPa) = 47.39324 49.34557 48.36940
# Shear Modulus (GPa) = 33.98272 38.22777 36.10524
#
# Velocity S-wave (km/s) = 3.96939 4.21002 4.09147
# Velocity P-wave (km/s) = 6.55605 6.81992 6.68929
#
# Compressibility (1/GPa) = 0.02110005
#
# Stress axis : x y z
#
# Youngs Moduli (GPa) = 93.77667 68.18755 77.10541
#
# Poissons Ratio (x) = -0.00988 0.28815
# Poissons Ratio (y) = -0.01358 0.38606
# Poissons Ratio (z) = 0.35045 0.34141
#
# Static dielectric constant tensor:
#      x y z
#    x 3.716340 0.000000 0.000000 
#    y 0.000000 4.767640 0.000000 
#    z 0.000000 0.000000 3.895070 
# 
# 
# High freq. dielectric constant tensor:
#      x y z
#    x 1.841270 0.000000 0.000000 
#    y 0.000000 1.865980 0.000000 
#    z 0.000000 0.000000 1.834720 
# 
# From -- ./inp_files/12911.got.cif
#   From: 2010.06.25/outbox.cif.g09.slc.cpg/sg58_7_cif.got.tgz:12911.got - 2010.06.26 21:38:00.
