data_PCOD8238007
_publ_section_title
;
Structure prediction by ZEFSAII (Michael W. Deem and Ramdas Pophale) SiO2 
 PCOD8238007
Probable space group: P N N M
;
_chemical_formula_sum "Si O2"
_cell_formula_units_Z 48
_cell_length_a 16.325043
_cell_length_b 19.180326
_cell_length_c 8.062885
_cell_angle_alpha 90.000000
_cell_angle_beta 90.000000
_cell_angle_gamma 90.000000
_cell_volume 2524.647703
_symmetry_space_group_name_H-M "P N N M"
_symmetry_group_IT_number 58
_symmetry_cell_setting 'orthorhombic'
loop_
_space_group_symop_operation_xyz
x,y,z
-x,-y,z
1/2+x,1/2-y,1/2-z
1/2-x,1/2+y,1/2-z
-x,-y,-z
x,y,-z
1/2-x,1/2+y,1/2+z
1/2+x,1/2-y,1/2+z
loop_
_atom_site_type_symbol
_atom_site_label
_atom_site_fract_x
_atom_site_fract_y
_atom_site_fract_z
Si Si1 0.018414 0.075500 0.688480
Si Si2 0.935528 0.399472 0.000000
Si Si3 0.306313 0.589958 0.312882
Si Si4 0.730077 0.056647 0.194871
Si Si5 0.385022 0.940868 0.500000
Si Si6 0.626340 0.662147 0.309008
Si Si7 0.821738 0.308341 0.184378
O O1 0.990698 0.070410 0.500000
O O2 0.964450 0.136817 0.766362
O O3 0.113401 0.095917 0.700252
O O4 0.000000 0.000000 0.774116
O O5 0.905667 0.478263 0.000000
O O6 0.899987 0.360547 0.835431
O O7 0.033369 0.394174 0.000000
O O8 0.337842 0.583567 0.500000
O O9 0.253746 0.522496 0.263572
O O10 0.249398 0.657478 0.294195
O O11 0.661193 0.078618 0.328031
O O12 0.808679 0.103164 0.237747
O O13 0.702505 0.065457 0.000000
O O14 0.626882 0.679790 0.500000
O O15 0.649879 0.736527 0.225028
O O16 0.784141 0.294942 0.000000
#
# Coordination Sequence:
#
# PCOD8238007 Si02
#       7
#     8   4   8   8   4   8   8
#     4  11  23  35  57  86 118 153 201 246 293 355
#     4   9  20  38  64  85 107 161 196 242 312 350
#     4  11  21  36  59  86 116 154 197 242 294 359
#     4  10  21  36  60  90 118 151 198 246 298 353
#     4  11  20  38  66  88 115 150 209 256 292 359
#     4  10  21  38  58  83 119 157 188 247 300 350
#     4   9  19  40  60  77 117 154 194 236 303 353
#
# _framework density 19.012554000000002
#
# number of rings (size 3 to 8) (size 9 to 14) (size 15 to 20)
#    0.500    1.333    3.333    1.000    2.333    1.333 
#    3.000    2.500    0.000    0.000    0.000    0.000 
#    0.000    0.000    0.000    0.000    0.000    0.000 
#
# Total GULP energy -594958.592805 kJ/mol
# GULP energy per Si atom -12394.970683 kJ/mol
# Density = 1.896928 g / cm^3
# Si number density = 19.012554 Si / 1000 Ang^3
#
#
#
# Elastic Constant Matrix: (Units=GPa)
#
#
# Indices 1 2 3 4 5 6 
#
# 1 117.7832 42.4371 33.6710 0.0000 0.0000 0.0000
# 2 42.4371 110.0334 9.6264 0.0000 0.0000 0.0000
# 3 33.6710 9.6264 49.6032 0.0000 0.0000 0.0000
# 4 0.0000 0.0000 0.0000 19.6775 0.0000 0.0000
# 5 0.0000 0.0000 0.0000 0.0000 22.6255 0.0000
# 6 0.0000 0.0000 0.0000 0.0000 0.0000 29.2428
#
#
#
# Elastic Compliance Matrix: (Units=1/GPa)
#
#
# Indices 1 2 3 4 5 6 
#
# 1 0.012047 -0.003999 -0.007401 0.000000 0.000000 0.000000
# 2 -0.003999 0.010572 0.000663 0.000000 0.000000 0.000000
# 3 -0.007401 0.000663 0.025056 0.000000 0.000000 0.000000
# 4 0.000000 0.000000 0.000000 0.050819 0.000000 0.000000
# 5 0.000000 0.000000 0.000000 0.000000 0.044198 0.000000
# 6 0.000000 0.000000 0.000000 0.000000 0.000000 0.034196
#
#
# Mechanical properties :
#
#
# Convention : Reuss Voigt Hill
#
# Bulk Modulus (GPa) = 38.16843 49.87653 44.02248
# Shear Modulus (GPa) = 24.14335 27.08820 25.61577
#
# Velocity S-wave (km/s) = 3.56738 3.77869 3.67455
# Velocity P-wave (km/s) = 6.08993 6.73263 6.41933
#
# Compressibility (1/GPa) = 0.02619966
#
# Stress axis : x y z
#
# Youngs Moduli (GPa) = 83.01022 94.58634 39.91134
#
# Poissons Ratio (x) = 0.37821 0.29540
# Poissons Ratio (y) = 0.33192 -0.02644
# Poissons Ratio (z) = 0.61439 -0.06266
#
# Static dielectric constant tensor:
#      x y z
#    x 3.331880 0.000000 0.000000 
#    y 0.000000 3.553870 0.000000 
#    z 0.000000 0.000000 3.271950 
# 
# 
# High freq. dielectric constant tensor:
#      x y z
#    x 1.730080 0.000000 0.000000 
#    y 0.000000 1.739690 0.000000 
#    z 0.000000 0.000000 1.724460 
# 
# From -- ./inp_files/5945.got.cif
#   From: 2010.06.25/outbox.cif.g09.slc.cpg/sg58_3_cif.got.tgz:5945.got - 2010.06.26 21:38:00.
