data_PCOD8238532
_publ_section_title
;
Structure prediction by ZEFSAII (Michael W. Deem and Ramdas Pophale) SiO2 
 PCOD8238532
Probable space group: P N N M
;
_chemical_formula_sum "Si O2"
_cell_formula_units_Z 48
_cell_length_a 10.219409
_cell_length_b 13.664291
_cell_length_c 17.730458
_cell_angle_alpha 90.000000
_cell_angle_beta 90.000000
_cell_angle_gamma 90.000000
_cell_volume 2475.898503
_symmetry_space_group_name_H-M "P N N M"
_symmetry_group_IT_number 58
_symmetry_cell_setting 'orthorhombic'
loop_
_space_group_symop_operation_xyz
x,y,z
-x,-y,z
1/2+x,1/2-y,1/2-z
1/2-x,1/2+y,1/2-z
-x,-y,-z
x,y,-z
1/2-x,1/2+y,1/2+z
1/2+x,1/2-y,1/2+z
loop_
_atom_site_type_symbol
_atom_site_label
_atom_site_fract_x
_atom_site_fract_y
_atom_site_fract_z
Si Si1 0.222531 0.324574 0.358038
Si Si2 0.022370 0.215661 0.880273
Si Si3 0.893172 0.574478 0.915168
Si Si4 0.307149 0.438674 0.785164
Si Si5 0.617710 0.426225 0.500000
Si Si6 0.367038 0.940414 0.000000
Si Si7 0.086382 0.150568 0.720667
O O1 0.370126 0.310980 0.386346
O O2 0.224456 0.393030 0.283747
O O3 0.140018 0.374247 0.424817
O O4 0.154807 0.219742 0.341328
O O5 0.040141 0.320363 0.916913
O O6 0.109045 0.138119 0.925166
O O7 0.078580 0.214674 0.796179
O O8 0.766898 0.571007 0.863490
O O9 0.000000 0.500000 0.882291
O O10 0.851179 0.544926 0.000000
O O11 0.440039 0.379722 0.801799
O O12 0.329728 0.552547 0.766006
O O13 0.500000 0.500000 0.500000
O O14 0.753945 0.480238 0.500000
O O15 0.500000 0.000000 0.000000
#
# Coordination Sequence:
#
# PCOD8238532 Si02
#       7
#     8   8   8   8   4   4   8
#     4  11  22  43  65  92 134 167 213 266 326 381
#     4  11  21  39  69  94 120 172 222 258 314 390
#     4  11  23  40  62  94 125 159 214 267 306 365
#     4  10  22  42  64  93 126 167 220 258 318 389
#     4  12  22  42  71  92 124 170 217 269 315 390
#     4  12  28  44  62 103 135 168 215 274 341 386
#     4  10  22  40  65  91 126 174 209 262 323 386
#
# _framework density 19.386901000000002
#
# number of rings (size 3 to 8) (size 9 to 14) (size 15 to 20)
#    0.000    1.167    4.167    2.000    2.333    2.000 
#    9.000    0.833    0.000    0.000    0.000    0.000 
#    0.000    0.000    0.000    0.000    0.000    0.000 
#
# Total GULP energy -595358.372362 kJ/mol
# GULP energy per Si atom -12403.299424 kJ/mol
# Density = 1.934278 g / cm^3
# Si number density = 19.386901 Si / 1000 Ang^3
#
#
#
# Elastic Constant Matrix: (Units=GPa)
#
#
# Indices 1 2 3 4 5 6 
#
# 1 87.4759 46.6597 49.5892 0.0000 0.0000 0.0000
# 2 46.6597 126.3767 37.4795 0.0000 0.0000 0.0000
# 3 49.5892 37.4795 99.1204 0.0000 0.0000 0.0000
# 4 0.0000 0.0000 0.0000 67.6593 0.0000 0.0000
# 5 0.0000 0.0000 0.0000 0.0000 36.3662 0.0000
# 6 0.0000 0.0000 0.0000 0.0000 0.0000 34.5177
#
#
#
# Elastic Compliance Matrix: (Units=1/GPa)
#
#
# Indices 1 2 3 4 5 6 
#
# 1 0.017945 -0.004464 -0.007290 0.000000 0.000000 0.000000
# 2 -0.004464 0.010023 -0.001557 0.000000 0.000000 0.000000
# 3 -0.007290 -0.001557 0.014325 0.000000 0.000000 0.000000
# 4 0.000000 0.000000 0.000000 0.014780 0.000000 0.000000
# 5 0.000000 0.000000 0.000000 0.000000 0.027498 0.000000
# 6 0.000000 0.000000 0.000000 0.000000 0.000000 0.028971
#
#
# Mechanical properties :
#
#
# Convention : Reuss Voigt Hill
#
# Bulk Modulus (GPa) = 63.80940 64.49220 64.15080
# Shear Modulus (GPa) = 34.39132 39.65827 37.02480
#
# Velocity S-wave (km/s) = 4.21639 4.52776 4.37485
# Velocity P-wave (km/s) = 7.52922 7.78924 7.66033
#
# Compressibility (1/GPa) = 0.01567167
#
# Stress axis : x y z
#
# Youngs Moduli (GPa) = 55.72497 99.77550 69.81034
#
# Poissons Ratio (x) = 0.44536 0.50893
# Poissons Ratio (y) = 0.24873 0.10867
# Poissons Ratio (z) = 0.40624 0.15531
#
# Static dielectric constant tensor:
#      x y z
#    x 3.404270 0.000000 0.000000 
#    y 0.000000 3.683380 0.000000 
#    z 0.000000 0.000000 3.532180 
# 
# 
# High freq. dielectric constant tensor:
#      x y z
#    x 1.748020 0.000000 0.000000 
#    y 0.000000 1.771580 0.000000 
#    z 0.000000 0.000000 1.760420 
# 
# From -- ./inp_files/25322.got.cif
#   From: 2010.06.25/outbox.cif.g09.slc.cpg/sg58_13_cif.got.tgz:25322.got - 2010.06.26 21:38:00.
