data_PCOD8238630
_publ_section_title
;
Structure prediction by ZEFSAII (Michael W. Deem and Ramdas Pophale) SiO2 
 PCOD8238630
Probable space group: P N N M
;
_chemical_formula_sum "Si O2"
_cell_formula_units_Z 28
_cell_length_a 10.895532
_cell_length_b 5.056648
_cell_length_c 22.650189
_cell_angle_alpha 90.000000
_cell_angle_beta 90.000000
_cell_angle_gamma 90.000000
_cell_volume 1247.909221
_symmetry_space_group_name_H-M "P N N M"
_symmetry_group_IT_number 58
_symmetry_cell_setting 'orthorhombic'
loop_
_space_group_symop_operation_xyz
x,y,z
-x,-y,z
1/2+x,1/2-y,1/2-z
1/2-x,1/2+y,1/2-z
-x,-y,-z
x,y,-z
1/2-x,1/2+y,1/2+z
1/2+x,1/2-y,1/2+z
loop_
_atom_site_type_symbol
_atom_site_label
_atom_site_fract_x
_atom_site_fract_y
_atom_site_fract_z
Si Si1 0.632550 0.112695 0.432054
Si Si2 0.927936 0.254023 0.780810
Si Si3 0.000000 0.500000 0.332884
Si Si4 0.251622 0.365573 0.623308
O O1 0.631285 0.200639 0.500000
O O2 0.676925 0.367867 0.395133
O O3 0.500000 0.000000 0.412150
O O4 0.725129 0.868750 0.422966
O O5 0.927992 0.286925 0.709323
O O6 0.793591 0.228768 0.810408
O O7 0.000000 0.500000 0.810072
O O8 0.000000 0.000000 0.801064
O O9 0.104465 0.386047 0.375280
#
# Coordination Sequence:
#
# PCOD8238630 Si02
#       4
#     8   8   4   8
#     4  11  25  46  72  99 126 168 230 288 331 382
#     4  10  23  39  63  92 131 175 214 265 310 388
#     4  10  30  38  67  98 145 172 224 256 328 416
#     4  12  24  43  68  99 136 178 215 273 337 389
#
# _framework density 22.437529999999999
#
# number of rings (size 3 to 8) (size 9 to 14) (size 15 to 20)
#    0.857    0.286    0.000    6.000    8.000    2.286 
#    0.000    4.286    0.000    0.000    0.000    0.000 
#    0.000    0.000    0.000    0.000    0.000    0.000 
#
# Total GULP energy -346972.743281 kJ/mol
# GULP energy per Si atom -12391.883689 kJ/mol
# Density = 2.238646 g / cm^3
# Si number density = 22.437530 Si / 1000 Ang^3
#
#
#
# Elastic Constant Matrix: (Units=GPa)
#
#
# Indices 1 2 3 4 5 6 
#
# 1 126.8892 30.5211 38.8004 0.0000 0.0000 0.0000
# 2 30.5211 144.8876 23.0420 0.0000 0.0000 0.0000
# 3 38.8004 23.0420 81.5115 0.0000 0.0000 0.0000
# 4 0.0000 0.0000 0.0000 44.0152 0.0000 0.0000
# 5 0.0000 0.0000 0.0000 0.0000 14.2290 0.0000
# 6 0.0000 0.0000 0.0000 0.0000 0.0000 28.3726
#
#
#
# Elastic Compliance Matrix: (Units=1/GPa)
#
#
# Indices 1 2 3 4 5 6 
#
# 1 0.009465 -0.001337 -0.004127 0.000000 0.000000 0.000000
# 2 -0.001337 0.007416 -0.001460 0.000000 0.000000 0.000000
# 3 -0.004127 -0.001460 0.014645 0.000000 0.000000 0.000000
# 4 0.000000 0.000000 0.000000 0.022719 0.000000 0.000000
# 5 0.000000 0.000000 0.000000 0.000000 0.070279 0.000000
# 6 0.000000 0.000000 0.000000 0.000000 0.000000 0.035245
#
#
# Mechanical properties :
#
#
# Convention : Reuss Voigt Hill
#
# Bulk Modulus (GPa) = 56.57001 59.77950 58.17476
# Shear Modulus (GPa) = 27.85355 34.71836 31.28596
#
# Velocity S-wave (km/s) = 3.52715 3.93788 3.73816
# Velocity P-wave (km/s) = 6.46952 6.88305 6.67949
#
# Compressibility (1/GPa) = 0.01767721
#
# Stress axis : x y z
#
# Youngs Moduli (GPa) = 105.65691 134.84776 68.28070
#
# Poissons Ratio (x) = 0.18034 0.28181
# Poissons Ratio (y) = 0.14130 0.09967
# Poissons Ratio (z) = 0.43607 0.19684
#
# Static dielectric constant tensor:
#      x y z
#    x 3.726210 0.000000 0.000000 
#    y 0.000000 4.106570 0.000000 
#    z 0.000000 0.000000 3.791750 
# 
# 
# High freq. dielectric constant tensor:
#      x y z
#    x 1.866810 0.000000 0.000000 
#    y 0.000000 1.896250 0.000000 
#    z 0.000000 0.000000 1.873410 
# 
# From -- ./inp_files/34322.got.cif
#   From: 2010.06.25/outbox.cif.g09.slc.cpg/sg58_18_cif.got.tgz:34322.got - 2010.06.26 21:38:00.
