data_PCOD8238972
_publ_section_title
;
Structure prediction by ZEFSAII (Michael W. Deem and Ramdas Pophale) SiO2 
 PCOD8238972
Probable space group: P N N M
;
_chemical_formula_sum "Si O2"
_cell_formula_units_Z 56
_cell_length_a 21.015626
_cell_length_b 18.226465
_cell_length_c 9.794100
_cell_angle_alpha 90.000000
_cell_angle_beta 90.000000
_cell_angle_gamma 90.000000
_cell_volume 3751.537664
_symmetry_space_group_name_H-M "P N N M"
_symmetry_group_IT_number 58
_symmetry_cell_setting 'orthorhombic'
loop_
_space_group_symop_operation_xyz
x,y,z
-x,-y,z
1/2+x,1/2-y,1/2-z
1/2-x,1/2+y,1/2-z
-x,-y,-z
x,y,-z
1/2-x,1/2+y,1/2+z
1/2+x,1/2-y,1/2+z
loop_
_atom_site_type_symbol
_atom_site_label
_atom_site_fract_x
_atom_site_fract_y
_atom_site_fract_z
Si Si1 0.682441 0.779129 0.847961
Si Si2 0.684025 0.196769 0.347832
Si Si3 0.752873 0.919017 0.161885
Si Si4 0.622314 0.341702 0.662435
Si Si5 0.504077 0.582472 0.337453
Si Si6 0.870033 0.164091 0.157551
Si Si7 0.761728 0.582554 0.342013
O O1 0.749200 0.737945 0.852092
O O2 0.696187 0.862589 0.798097
O O3 0.635032 0.739350 0.743151
O O4 0.652126 0.778664 0.000000
O O5 0.667320 0.167686 0.500000
O O6 0.631668 0.256102 0.296358
O O7 0.686691 0.128975 0.243375
O O8 0.820432 0.891600 0.223391
O O9 0.736334 0.999884 0.216797
O O10 0.760009 0.922204 0.000000
O O11 0.623873 0.347667 0.500000
O O12 0.555428 0.370988 0.720825
O O13 0.500000 0.500000 0.278804
O O14 0.502506 0.580235 0.500000
O O15 0.569144 0.619766 0.287020
O O16 0.809230 0.112626 0.179623
O O17 0.877981 0.186504 0.000000
O O18 0.781833 0.586682 0.500000
#
# Coordination Sequence:
#
# PCOD8238972 Si02
#       7
#     8   8   8   8   8   8   8
#     4   8  14  25  39  52  70  99 129 152 178 218
#     4   8  14  24  37  53  73  98 126 151 179 219
#     4   8  13  22  37  56  75  97 126 155 183 217
#     4   8  13  22  36  53  75 102 128 152 177 213
#     4   9  15  22  35  57  81 102 125 152 180 212
#     4   9  16  24  36  57  81 100 120 150 186 219
#     4   9  15  23  37  57  79  98 118 152 192 221
#
# _framework density 14.927212000000001
#
# number of rings (size 3 to 8) (size 9 to 14) (size 15 to 20)
#    0.000    3.571    0.000    2.571    0.000    3.429 
#    0.000    0.714    0.000    2.143    0.000    1.000 
#    0.000    8.000    0.000    0.000    0.000    0.000 
#
# Total GULP energy -693985.478910 kJ/mol
# GULP energy per Si atom -12392.597838 kJ/mol
# Density = 1.489324 g / cm^3
# Si number density = 14.927212 Si / 1000 Ang^3
#
#
#
# Elastic Constant Matrix: (Units=GPa)
#
#
# Indices 1 2 3 4 5 6 
#
# 1 64.4855 53.1437 24.2945 0.0000 0.0000 0.0000
# 2 53.1437 134.0918 44.7472 0.0000 0.0000 0.0000
# 3 24.2945 44.7472 39.3816 0.0000 0.0000 0.0000
# 4 0.0000 0.0000 0.0000 21.7010 0.0000 0.0000
# 5 0.0000 0.0000 0.0000 0.0000 11.1298 0.0000
# 6 0.0000 0.0000 0.0000 0.0000 0.0000 25.6172
#
#
#
# Elastic Compliance Matrix: (Units=1/GPa)
#
#
# Indices 1 2 3 4 5 6 
#
# 1 0.024002 -0.007363 -0.006440 0.000000 0.000000 0.000000
# 2 -0.007363 0.014271 -0.011673 0.000000 0.000000 0.000000
# 3 -0.006440 -0.011673 0.042629 0.000000 0.000000 0.000000
# 4 0.000000 0.000000 0.000000 0.046081 0.000000 0.000000
# 5 0.000000 0.000000 0.000000 0.000000 0.089849 0.000000
# 6 0.000000 0.000000 0.000000 0.000000 0.000000 0.039036
#
#
# Mechanical properties :
#
#
# Convention : Reuss Voigt Hill
#
# Bulk Modulus (GPa) = 33.39029 53.59220 43.49125
# Shear Modulus (GPa) = 15.78259 19.40785 17.59522
#
# Velocity S-wave (km/s) = 3.25515 3.60969 3.43699
# Velocity P-wave (km/s) = 6.04527 7.30435 6.70443
#
# Compressibility (1/GPa) = 0.02994882
#
# Stress axis : x y z
#
# Youngs Moduli (GPa) = 41.66325 70.07080 23.45813
#
# Poissons Ratio (x) = 0.51596 0.15107
# Poissons Ratio (y) = 0.30678 0.27383
# Poissons Ratio (z) = 0.26832 0.81795
#
# Static dielectric constant tensor:
#      x y z
#    x 2.795510 0.000000 0.000000 
#    y 0.000000 3.192140 0.000000 
#    z 0.000000 0.000000 2.642290 
# 
# 
# High freq. dielectric constant tensor:
#      x y z
#    x 1.538610 0.000000 0.000000 
#    y 0.000000 1.575330 0.000000 
#    z 0.000000 0.000000 1.530240 
# 
# From -- ./inp_files/8135.got.cif
#   From: 2010.06.25/outbox.cif.g09.slc.cpg/sg58_5_cif.got.tgz:8135.got - 2010.06.26 21:38:00.
