data_PCOD8238540
_publ_section_title
;
Structure prediction by ZEFSAII (Michael W. Deem and Ramdas Pophale) SiO2 
 PCOD8238540
Probable space group: P N N M
;
_chemical_formula_sum "Si O2"
_cell_formula_units_Z 52
_cell_length_a 26.317277
_cell_length_b 7.200577
_cell_length_c 11.712076
_cell_angle_alpha 90.000000
_cell_angle_beta 90.000000
_cell_angle_gamma 90.000000
_cell_volume 2219.433477
_symmetry_space_group_name_H-M "P N N M"
_symmetry_group_IT_number 58
_symmetry_cell_setting 'orthorhombic'
loop_
_space_group_symop_operation_xyz
x,y,z
-x,-y,z
1/2+x,1/2-y,1/2-z
1/2-x,1/2+y,1/2-z
-x,-y,-z
x,y,-z
1/2-x,1/2+y,1/2+z
1/2+x,1/2-y,1/2+z
loop_
_atom_site_type_symbol
_atom_site_label
_atom_site_fract_x
_atom_site_fract_y
_atom_site_fract_z
Si Si1 0.918982 0.395665 0.500000
Si Si2 0.020650 0.229739 0.500000
Si Si3 0.857425 0.482374 0.288678
Si Si4 0.319126 0.630458 0.254325
Si Si5 0.581831 0.481872 0.370508
Si Si6 0.554195 0.054682 0.628422
Si Si7 0.277026 0.280914 0.133999
Si Si8 0.500000 0.500000 0.205109
O O1 0.959063 0.229774 0.500000
O O2 0.884070 0.379806 0.392079
O O3 0.951023 0.581080 0.500000
O O4 0.033172 0.133256 0.378735
O O5 0.845444 0.699497 0.314779
O O6 0.895967 0.458249 0.183018
O O7 0.806027 0.361851 0.280320
O O8 0.360496 0.511857 0.325191
O O9 0.290334 0.493234 0.167486
O O10 0.282046 0.734240 0.344170
O O11 0.579901 0.559496 0.500000
O O12 0.559783 0.274408 0.365089
O O13 0.543024 0.596450 0.287828
O O14 0.553645 0.978954 0.500000
O O15 0.500000 0.000000 0.688063
O O16 0.288844 0.251228 0.000000
#
# Coordination Sequence:
#
# PCOD8238540 Si02
#       8
#     4   4   8   8   8   8   8   4
#     4  11  24  42  66  92 136 180 226 271 340 401
#     4  10  24  40  62  94 136 186 220 280 328 416
#     4  11  24  43  68 102 138 177 229 282 345 408
#     4  11  25  48  71 100 138 177 229 292 349 413
#     4  10  22  40  66  96 135 175 219 283 345 410
#     4   9  20  39  65  94 132 179 225 273 334 406
#     4  12  26  46  73 101 135 182 232 287 350 422
#     4  11  23  40  62 100 135 175 232 272 346 411
#
# _framework density 23.429402
#
# number of rings (size 3 to 8) (size 9 to 14) (size 15 to 20)
#    0.000    1.385    2.308    2.538    7.538    0.615 
#    1.385    3.077    0.000    0.000    0.000    0.000 
#    0.000    0.000    0.000    0.000    0.000    0.000 
#
# Total GULP energy -644468.680096 kJ/mol
# GULP energy per Si atom -12393.628463 kJ/mol
# Density = 2.337608 g / cm^3
# Si number density = 23.429402 Si / 1000 Ang^3
#
#
#
# Elastic Constant Matrix: (Units=GPa)
#
#
# Indices 1 2 3 4 5 6 
#
# 1 118.3912 5.3601 36.0805 0.0000 0.0000 0.0000
# 2 5.3601 37.1356 4.7167 0.0000 0.0000 0.0000
# 3 36.0805 4.7167 117.6733 0.0000 0.0000 0.0000
# 4 0.0000 0.0000 0.0000 34.2406 0.0000 0.0000
# 5 0.0000 0.0000 0.0000 0.0000 38.4261 0.0000
# 6 0.0000 0.0000 0.0000 0.0000 0.0000 40.3780
#
#
#
# Elastic Compliance Matrix: (Units=1/GPa)
#
#
# Indices 1 2 3 4 5 6 
#
# 1 0.009353 -0.000991 -0.002828 0.000000 0.000000 0.000000
# 2 -0.000991 0.027171 -0.000785 0.000000 0.000000 0.000000
# 3 -0.002828 -0.000785 0.009397 0.000000 0.000000 0.000000
# 4 0.000000 0.000000 0.000000 0.029205 0.000000 0.000000
# 5 0.000000 0.000000 0.000000 0.000000 0.026024 0.000000
# 6 0.000000 0.000000 0.000000 0.000000 0.000000 0.024766
#
#
# Mechanical properties :
#
#
# Convention : Reuss Voigt Hill
#
# Bulk Modulus (GPa) = 27.23861 40.61272 33.92567
# Shear Modulus (GPa) = 33.92999 37.74514 35.83757
#
# Velocity S-wave (km/s) = 3.80962 4.01810 3.91525
# Velocity P-wave (km/s) = 5.56795 6.23687 5.91188
#
# Compressibility (1/GPa) = 0.03671259
#
# Stress axis : x y z
#
# Youngs Moduli (GPa) = 106.91379 36.80384 106.41987
#
# Poissons Ratio (x) = 0.03647 0.30097
# Poissons Ratio (y) = 0.10593 0.08357
# Poissons Ratio (z) = 0.30237 0.02890
#
# Static dielectric constant tensor:
#      x y z
#    x 4.632940 0.000000 0.000000 
#    y 0.000000 3.963310 0.000000 
#    z 0.000000 0.000000 3.964780 
# 
# 
# High freq. dielectric constant tensor:
#      x y z
#    x 1.943030 0.000000 0.000000 
#    y 0.000000 1.917230 0.000000 
#    z 0.000000 0.000000 1.918700 
# 
# From -- ./inp_files/17745.got.cif
#   From: 2010.06.25/outbox.cif.g09.slc.cpg/sg58_9_cif.got.tgz:17745.got - 2010.06.26 21:38:00.
