data_PCOD8238708
_publ_section_title
;
Structure prediction by ZEFSAII (Michael W. Deem and Ramdas Pophale) SiO2 
 PCOD8238708
Probable space group: P N N M
;
_chemical_formula_sum "Si O2"
_cell_formula_units_Z 36
_cell_length_a 11.128365
_cell_length_b 5.788497
_cell_length_c 27.517750
_cell_angle_alpha 90.000000
_cell_angle_beta 90.000000
_cell_angle_gamma 90.000000
_cell_volume 1772.597347
_symmetry_space_group_name_H-M "P N N M"
_symmetry_group_IT_number 58
_symmetry_cell_setting 'orthorhombic'
loop_
_space_group_symop_operation_xyz
x,y,z
-x,-y,z
1/2+x,1/2-y,1/2-z
1/2-x,1/2+y,1/2-z
-x,-y,-z
x,y,-z
1/2-x,1/2+y,1/2+z
1/2+x,1/2-y,1/2+z
loop_
_atom_site_type_symbol
_atom_site_label
_atom_site_fract_x
_atom_site_fract_y
_atom_site_fract_z
Si Si1 0.362029 0.999488 0.204159
Si Si2 0.500000 0.500000 0.349678
Si Si3 0.830741 0.354854 0.188551
Si Si4 0.559472 0.749747 0.057410
Si Si5 0.276788 0.754574 0.625661
O O1 0.298568 0.767220 0.186093
O O2 0.500000 0.000000 0.188815
O O3 0.342597 0.007147 0.261587
O O4 0.299789 0.206832 0.174751
O O5 0.448106 0.308059 0.312961
O O6 0.611836 0.419990 0.383245
O O7 0.836591 0.501306 0.138772
O O8 0.500000 0.500000 0.073765
O O9 0.694218 0.746784 0.078292
O O10 0.500000 0.000000 0.074219
O O11 0.569029 0.751912 0.000000
#
# Coordination Sequence:
#
# PCOD8238708 Si02
#       5
#     8   4   8   8   8
#     4  11  23  35  56  87 121 168 217 264 313 388
#     4  10  24  40  59  86 128 170 211 266 328 392
#     4  11  23  39  55  87 127 169 213 266 324 376
#     4  10  24  46  72 103 135 167 214 282 343 389
#     4  11  23  39  64  89 126 170 215 262 327 396
#
# _framework density 20.309183000000001
#
# number of rings (size 3 to 8) (size 9 to 14) (size 15 to 20)
#    0.000    1.333    2.222    2.667   12.444    0.000 
#    0.000    0.556    0.000    2.667    0.000    0.000 
#    0.000    0.000    0.000    0.000    0.000    0.000 
#
# Total GULP energy -446030.230729 kJ/mol
# GULP energy per Si atom -12389.728631 kJ/mol
# Density = 2.026296 g / cm^3
# Si number density = 20.309183 Si / 1000 Ang^3
#
#
#
# Elastic Constant Matrix: (Units=GPa)
#
#
# Indices 1 2 3 4 5 6 
#
# 1 159.7248 43.0885 27.8194 0.0000 0.0000 0.0000
# 2 43.0885 110.3928 20.0664 0.0000 0.0000 0.0000
# 3 27.8194 20.0664 29.3584 0.0000 0.0000 0.0000
# 4 0.0000 0.0000 0.0000 20.6128 0.0000 0.0000
# 5 0.0000 0.0000 0.0000 0.0000 35.0348 0.0000
# 6 0.0000 0.0000 0.0000 0.0000 0.0000 32.7838
#
#
#
# Elastic Compliance Matrix: (Units=1/GPa)
#
#
# Indices 1 2 3 4 5 6 
#
# 1 0.007851 -0.001955 -0.006103 0.000000 0.000000 0.000000
# 2 -0.001955 0.010831 -0.005550 0.000000 0.000000 0.000000
# 3 -0.006103 -0.005550 0.043639 0.000000 0.000000 0.000000
# 4 0.000000 0.000000 0.000000 0.048514 0.000000 0.000000
# 5 0.000000 0.000000 0.000000 0.000000 0.028543 0.000000
# 6 0.000000 0.000000 0.000000 0.000000 0.000000 0.030503
#
#
# Mechanical properties :
#
#
# Convention : Reuss Voigt Hill
#
# Bulk Modulus (GPa) = 28.48724 53.49162 40.98943
# Shear Modulus (GPa) = 23.94661 31.58640 27.76650
#
# Velocity S-wave (km/s) = 3.43753 3.94798 3.70156
# Velocity P-wave (km/s) = 5.46010 6.86861 6.20446
#
# Compressibility (1/GPa) = 0.03510343
#
# Stress axis : x y z
#
# Youngs Moduli (GPa) = 127.36895 92.33182 22.91548
#
# Poissons Ratio (x) = 0.18051 0.13986
# Poissons Ratio (y) = 0.24901 0.12718
# Poissons Ratio (z) = 0.77738 0.51244
#
# Static dielectric constant tensor:
#      x y z
#    x 3.855990 0.000000 0.000000 
#    y 0.000000 4.248060 0.000000 
#    z 0.000000 0.000000 3.250380 
# 
# 
# High freq. dielectric constant tensor:
#      x y z
#    x 1.806130 0.000000 0.000000 
#    y 0.000000 1.810180 0.000000 
#    z 0.000000 0.000000 1.752780 
# 
# From -- ./inp_files/31806.got.cif
#   From: 2010.06.25/outbox.cif.g09.slc.cpg/sg58_16_cif.got.tgz:31806.got - 2010.06.26 21:38:00.
