data_PCOD8238288
_publ_section_title
;
Structure prediction by ZEFSAII (Michael W. Deem and Ramdas Pophale) SiO2 
 PCOD8238288
Probable space group: P N N M
;
_chemical_formula_sum "Si O2"
_cell_formula_units_Z 48
_cell_length_a 9.306735
_cell_length_b 14.379980
_cell_length_c 17.445721
_cell_angle_alpha 90.000000
_cell_angle_beta 90.000000
_cell_angle_gamma 90.000000
_cell_volume 2334.772411
_symmetry_space_group_name_H-M "P N N M"
_symmetry_group_IT_number 58
_symmetry_cell_setting 'orthorhombic'
loop_
_space_group_symop_operation_xyz
x,y,z
-x,-y,z
1/2+x,1/2-y,1/2-z
1/2-x,1/2+y,1/2-z
-x,-y,-z
x,y,-z
1/2-x,1/2+y,1/2+z
1/2+x,1/2-y,1/2+z
loop_
_atom_site_type_symbol
_atom_site_label
_atom_site_fract_x
_atom_site_fract_y
_atom_site_fract_z
Si Si1 0.025153 0.858226 0.000000
Si Si2 0.486587 0.762143 0.350024
Si Si3 0.796287 0.261981 0.727234
Si Si4 0.354979 0.046509 0.162745
Si Si5 0.255991 0.508293 0.500000
Si Si6 0.355298 0.944355 0.584380
Si Si7 0.845246 0.044212 0.715328
O O1 0.016387 0.804406 0.079531
O O2 0.893030 0.926577 0.000000
O O3 0.182296 0.904143 0.000000
O O4 0.376860 0.724839 0.282724
O O5 0.640897 0.787203 0.312037
O O6 0.395356 0.844349 0.384969
O O7 0.863934 0.341504 0.672143
O O8 0.851256 0.156687 0.712574
O O9 0.342439 0.025494 0.073278
O O10 0.500000 0.000000 0.195233
O O11 0.224499 0.996554 0.207337
O O12 0.284505 0.937404 0.500000
O O13 0.243539 0.992700 0.641912
O O14 0.500000 0.000000 0.579882
O O15 0.000000 0.000000 0.708794
#
# Coordination Sequence:
#
# PCOD8238288 Si02
#       7
#     4   8   8   8   4   8   8
#     4  11  22  40  65  96 128 171 214 271 335 393
#     4  11  21  40  63  93 125 169 214 267 321 390
#     4  11  23  38  64  93 129 168 217 267 323 388
#     4  12  24  43  66  95 134 172 219 271 331 395
#     4  11  25  40  66  94 130 171 215 269 330 398
#     4  10  21  39  63  88 123 168 217 263 325 384
#     4  11  24  40  64  97 129 171 218 273 324 393
#
# _framework density 20.558751000000001
#
# number of rings (size 3 to 8) (size 9 to 14) (size 15 to 20)
#    0.000    1.000    2.500    5.750    2.333    0.333 
#    0.000    0.000    0.000    0.000    0.000    0.000 
#    0.000    0.000    0.000    0.000    0.000    0.000 
#
# Total GULP energy -594789.129840 kJ/mol
# GULP energy per Si atom -12391.440205 kJ/mol
# Density = 2.051196 g / cm^3
# Si number density = 20.558751 Si / 1000 Ang^3
#
#
#
# Elastic Constant Matrix: (Units=GPa)
#
#
# Indices 1 2 3 4 5 6 
#
# 1 90.2485 43.1096 61.6357 0.0000 0.0000 0.0000
# 2 43.1096 109.5887 40.9073 0.0000 0.0000 0.0000
# 3 61.6357 40.9073 145.1941 0.0000 0.0000 0.0000
# 4 0.0000 0.0000 0.0000 31.9146 0.0000 0.0000
# 5 0.0000 0.0000 0.0000 0.0000 30.5884 0.0000
# 6 0.0000 0.0000 0.0000 0.0000 0.0000 27.9936
#
#
#
# Elastic Compliance Matrix: (Units=1/GPa)
#
#
# Indices 1 2 3 4 5 6 
#
# 1 0.017444 -0.004580 -0.006115 0.000000 0.000000 0.000000
# 2 -0.004580 0.011400 -0.001268 0.000000 0.000000 0.000000
# 3 -0.006115 -0.001268 0.009840 0.000000 0.000000 0.000000
# 4 0.000000 0.000000 0.000000 0.031334 0.000000 0.000000
# 5 0.000000 0.000000 0.000000 0.000000 0.032692 0.000000
# 6 0.000000 0.000000 0.000000 0.000000 0.000000 0.035722
#
#
# Mechanical properties :
#
#
# Convention : Reuss Voigt Hill
#
# Bulk Modulus (GPa) = 67.75129 70.70406 69.22768
# Shear Modulus (GPa) = 29.89052 31.39123 30.64087
#
# Velocity S-wave (km/s) = 3.81715 3.91180 3.86477
# Velocity P-wave (km/s) = 7.24252 7.40735 7.32539
#
# Compressibility (1/GPa) = 0.01475987
#
# Stress axis : x y z
#
# Youngs Moduli (GPa) = 57.32521 87.72117 101.62249
#
# Poissons Ratio (x) = 0.40173 0.62142
# Poissons Ratio (y) = 0.26253 0.12883
# Poissons Ratio (z) = 0.35054 0.11121
#
# Static dielectric constant tensor:
#      x y z
#    x 3.941140 0.000000 0.000000 
#    y 0.000000 3.706500 0.000000 
#    z 0.000000 0.000000 3.739890 
# 
# 
# High freq. dielectric constant tensor:
#      x y z
#    x 1.801750 0.000000 0.000000 
#    y 0.000000 1.813610 0.000000 
#    z 0.000000 0.000000 1.808290 
# 
# From -- ./inp_files/25332.got.cif
#   From: 2010.06.25/outbox.cif.g09.slc.cpg/sg58_13_cif.got.tgz:25332.got - 2010.06.26 21:38:00.
