data_PCOD8238272
_publ_section_title
;
Structure prediction by ZEFSAII (Michael W. Deem and Ramdas Pophale) SiO2 
 PCOD8238272
Probable space group: P N N M
;
_chemical_formula_sum "Si O2"
_cell_formula_units_Z 56
_cell_length_a 12.240068
_cell_length_b 16.589912
_cell_length_c 13.189357
_cell_angle_alpha 90.000000
_cell_angle_beta 90.000000
_cell_angle_gamma 90.000000
_cell_volume 2678.252608
_symmetry_space_group_name_H-M "P N N M"
_symmetry_group_IT_number 58
_symmetry_cell_setting 'orthorhombic'
loop_
_space_group_symop_operation_xyz
x,y,z
-x,-y,z
1/2+x,1/2-y,1/2-z
1/2-x,1/2+y,1/2-z
-x,-y,-z
x,y,-z
1/2-x,1/2+y,1/2+z
1/2+x,1/2-y,1/2+z
loop_
_atom_site_type_symbol
_atom_site_label
_atom_site_fract_x
_atom_site_fract_y
_atom_site_fract_z
Si Si1 0.833922 0.300928 0.116522
Si Si2 0.067220 0.071132 0.260424
Si Si3 0.274024 0.028106 0.617611
Si Si4 0.041330 0.214605 0.884904
Si Si5 0.078181 0.822011 0.616231
Si Si6 0.618327 0.207526 0.114862
Si Si7 0.312998 0.855217 0.684797
O O1 0.850850 0.395118 0.145911
O O2 0.707433 0.278217 0.137619
O O3 0.924612 0.241501 0.166553
O O4 0.863013 0.289975 0.000000
O O5 0.174869 0.030778 0.304483
O O6 0.091343 0.142304 0.180942
O O7 0.995638 0.101872 0.355067
O O8 0.000000 0.000000 0.204027
O O9 0.236993 0.035193 0.500000
O O10 0.333230 0.942943 0.635942
O O11 0.119268 0.291674 0.880602
O O12 0.032371 0.183906 0.000000
O O13 0.114412 0.831029 0.500000
O O14 0.188130 0.823111 0.683119
O O15 0.003688 0.741845 0.631496
O O16 0.644003 0.139379 0.198324
O O17 0.632167 0.173812 0.000000
#
# Coordination Sequence:
#
# PCOD8238272 Si02
#       7
#     8   8   8   8   8   8   8
#     4   9  19  37  61  84 117 163 205 247 305 374
#     4  12  23  37  61  91 124 163 205 263 315 371
#     4  11  22  37  60  94 127 157 202 263 322 373
#     4  11  24  42  61  90 128 168 209 257 313 383
#     4  11  21  37  63  93 124 160 206 266 316 364
#     4  10  21  39  62  87 122 169 216 251 304 382
#     4  12  23  37  63  97 127 161 209 263 321 373
#
# _framework density 20.909155999999999
#
# number of rings (size 3 to 8) (size 9 to 14) (size 15 to 20)
#    0.000    1.143    4.286    2.571    0.000    1.429 
#    0.000    2.857    0.000    0.000    0.000    4.000 
#    0.000    0.000    0.000    0.000    0.000    0.000 
#
# Total GULP energy -694062.241370 kJ/mol
# GULP energy per Si atom -12393.968596 kJ/mol
# Density = 2.086157 g / cm^3
# Si number density = 20.909156 Si / 1000 Ang^3
#
#
#
# Elastic Constant Matrix: (Units=GPa)
#
#
# Indices 1 2 3 4 5 6 
#
# 1 36.5338 -1.1389 7.0100 0.0000 0.0000 0.0000
# 2 -1.1389 86.9491 23.7454 0.0000 0.0000 0.0000
# 3 7.0100 23.7454 98.6920 0.0000 0.0000 0.0000
# 4 0.0000 0.0000 0.0000 31.4578 0.0000 0.0000
# 5 0.0000 0.0000 0.0000 0.0000 22.1168 0.0000
# 6 0.0000 0.0000 0.0000 0.0000 0.0000 31.9494
#
#
#
# Elastic Compliance Matrix: (Units=1/GPa)
#
#
# Indices 1 2 3 4 5 6 
#
# 1 0.027826 0.000968 -0.002209 0.000000 0.000000 0.000000
# 2 0.000968 0.012343 -0.003039 0.000000 0.000000 0.000000
# 3 -0.002209 -0.003039 0.011021 0.000000 0.000000 0.000000
# 4 0.000000 0.000000 0.000000 0.031789 0.000000 0.000000
# 5 0.000000 0.000000 0.000000 0.000000 0.045215 0.000000
# 6 0.000000 0.000000 0.000000 0.000000 0.000000 0.031299
#
#
# Mechanical properties :
#
#
# Convention : Reuss Voigt Hill
#
# Bulk Modulus (GPa) = 23.45771 31.26753 27.36262
# Shear Modulus (GPa) = 27.43292 29.94204 28.68748
#
# Velocity S-wave (km/s) = 3.62609 3.78829 3.70808
# Velocity P-wave (km/s) = 5.36420 5.84135 5.60785
#
# Compressibility (1/GPa) = 0.04262992
#
# Stress axis : x y z
#
# Youngs Moduli (GPa) = 35.93757 81.01441 90.73963
#
# Poissons Ratio (x) = -0.07841 0.20047
# Poissons Ratio (y) = -0.03478 0.27572
# Poissons Ratio (z) = 0.07940 0.24617
#
# Static dielectric constant tensor:
#      x y z
#    x 3.829940 0.000000 0.000000 
#    y 0.000000 3.653550 0.000000 
#    z 0.000000 0.000000 3.797570 
# 
# 
# High freq. dielectric constant tensor:
#      x y z
#    x 1.816680 0.000000 0.000000 
#    y 0.000000 1.800960 0.000000 
#    z 0.000000 0.000000 1.818990 
# 
# From -- ./inp_files/21241.got.cif
#   From: 2010.06.25/outbox.cif.g09.slc.cpg/sg58_11_cif.got.tgz:21241.got - 2010.06.26 21:38:00.
