data_PCOD8238018
_publ_section_title
;
Structure prediction by ZEFSAII (Michael W. Deem and Ramdas Pophale) SiO2 
 PCOD8238018
Probable space group: P N N M
;
_chemical_formula_sum "Si O2"
_cell_formula_units_Z 56
_cell_length_a 10.883909
_cell_length_b 12.453194
_cell_length_c 19.300677
_cell_angle_alpha 90.000000
_cell_angle_beta 90.000000
_cell_angle_gamma 90.000000
_cell_volume 2616.002764
_symmetry_space_group_name_H-M "P N N M"
_symmetry_group_IT_number 58
_symmetry_cell_setting 'orthorhombic'
loop_
_space_group_symop_operation_xyz
x,y,z
-x,-y,z
1/2+x,1/2-y,1/2-z
1/2-x,1/2+y,1/2-z
-x,-y,-z
x,y,-z
1/2-x,1/2+y,1/2+z
1/2+x,1/2-y,1/2+z
loop_
_atom_site_type_symbol
_atom_site_label
_atom_site_fract_x
_atom_site_fract_y
_atom_site_fract_z
Si Si1 0.363530 0.523921 0.298649
Si Si2 0.305868 0.330515 0.619819
Si Si3 0.581044 0.319550 0.578804
Si Si4 0.512590 0.664165 0.918207
Si Si5 0.221955 0.096361 0.344078
Si Si6 0.288605 0.898308 0.419683
Si Si7 0.050855 0.392097 0.422973
O O1 0.500000 0.500000 0.272467
O O2 0.305795 0.407200 0.312994
O O3 0.358411 0.595456 0.368749
O O4 0.288989 0.581886 0.238193
O O5 0.434376 0.333425 0.579199
O O6 0.283724 0.210096 0.643575
O O7 0.198129 0.379256 0.572201
O O8 0.627745 0.341833 0.500000
O O9 0.621662 0.199419 0.601678
O O10 0.411426 0.588819 0.881455
O O11 0.648913 0.629291 0.900762
O O12 0.501724 0.784952 0.886791
O O13 0.483230 0.660683 0.000000
O O14 0.314403 0.005993 0.375434
O O15 0.306301 0.926210 0.500000
O O16 0.995366 0.396295 0.500000
O O17 0.000000 0.500000 0.384147
#
# Coordination Sequence:
#
# PCOD8238018 Si02
#       7
#     8   8   8   8   8   8   8
#     4  10  23  41  62  89 120 165 213 254 317 374
#     4  10  23  40  59  89 121 161 208 255 319 373
#     4  10  23  42  64  92 126 170 218 259 312 389
#     4   9  18  34  57  90 121 153 200 249 307 368
#     4  11  22  39  63  89 123 162 203 267 317 382
#     4  10  21  36  62  93 123 162 206 253 309 374
#     4   9  18  32  55  86 119 152 190 245 307 359
#
# _framework density 21.406706
#
# number of rings (size 3 to 8) (size 9 to 14) (size 15 to 20)
#    0.000    2.143    0.000    2.143    4.000    6.571 
#    0.000    1.429    0.000    0.000    0.000    0.000 
#    0.000    0.000    0.000    0.000    0.000    0.000 
#
# Total GULP energy -694154.790020 kJ/mol
# GULP energy per Si atom -12395.621250 kJ/mol
# Density = 2.135798 g / cm^3
# Si number density = 21.406706 Si / 1000 Ang^3
#
#
#
# Elastic Constant Matrix: (Units=GPa)
#
#
# Indices 1 2 3 4 5 6 
#
# 1 49.6456 44.4951 17.6796 0.0000 0.0000 0.0000
# 2 44.4951 142.2062 40.5593 0.0000 0.0000 0.0000
# 3 17.6796 40.5593 85.4871 0.0000 0.0000 0.0000
# 4 0.0000 0.0000 0.0000 20.1237 0.0000 0.0000
# 5 0.0000 0.0000 0.0000 0.0000 6.6919 0.0000
# 6 0.0000 0.0000 0.0000 0.0000 0.0000 37.5791
#
#
#
# Elastic Compliance Matrix: (Units=1/GPa)
#
#
# Indices 1 2 3 4 5 6 
#
# 1 0.028259 -0.008298 -0.001907 0.000000 0.000000 0.000000
# 2 -0.008298 0.010569 -0.003298 0.000000 0.000000 0.000000
# 3 -0.001907 -0.003298 0.013657 0.000000 0.000000 0.000000
# 4 0.000000 0.000000 0.000000 0.049693 0.000000 0.000000
# 5 0.000000 0.000000 0.000000 0.000000 0.149434 0.000000
# 6 0.000000 0.000000 0.000000 0.000000 0.000000 0.026611
#
#
# Mechanical properties :
#
#
# Convention : Reuss Voigt Hill
#
# Bulk Modulus (GPa) = 39.24970 53.64518 46.44744
# Shear Modulus (GPa) = 15.93761 24.51926 20.22844
#
# Velocity S-wave (km/s) = 2.73154 3.38805 3.07735
# Velocity P-wave (km/s) = 5.32198 6.35764 5.86272
#
# Compressibility (1/GPa) = 0.02547790
#
# Stress axis : x y z
#
# Youngs Moduli (GPa) = 35.38676 94.61457 73.22223
#
# Poissons Ratio (x) = 0.78512 0.13965
# Poissons Ratio (y) = 0.29364 0.24152
# Poissons Ratio (z) = 0.06749 0.31208
#
# Static dielectric constant tensor:
#      x y z
#    x 3.769090 0.000000 0.000000 
#    y 0.000000 4.267940 0.000000 
#    z 0.000000 0.000000 3.490990 
# 
# 
# High freq. dielectric constant tensor:
#      x y z
#    x 1.826180 0.000000 0.000000 
#    y 0.000000 1.864020 0.000000 
#    z 0.000000 0.000000 1.809910 
# 
# From -- ./inp_files/29618.got.cif
#   From: 2010.06.25/outbox.cif.g09.slc.cpg/sg58_15_cif.got.tgz:29618.got - 2010.06.26 21:38:00.
