data_PCOD8238179
_publ_section_title
;
Structure prediction by ZEFSAII (Michael W. Deem and Ramdas Pophale) SiO2 
 PCOD8238179
Probable space group: P N N M
;
_chemical_formula_sum "Si O2"
_cell_formula_units_Z 48
_cell_length_a 30.835020
_cell_length_b 9.503868
_cell_length_c 8.072155
_cell_angle_alpha 90.000000
_cell_angle_beta 90.000000
_cell_angle_gamma 90.000000
_cell_volume 2365.560843
_symmetry_space_group_name_H-M "P N N M"
_symmetry_group_IT_number 58
_symmetry_cell_setting 'orthorhombic'
loop_
_space_group_symop_operation_xyz
x,y,z
-x,-y,z
1/2+x,1/2-y,1/2-z
1/2-x,1/2+y,1/2-z
-x,-y,-z
x,y,-z
1/2-x,1/2+y,1/2+z
1/2+x,1/2-y,1/2+z
loop_
_atom_site_type_symbol
_atom_site_label
_atom_site_fract_x
_atom_site_fract_y
_atom_site_fract_z
Si Si1 0.041873 0.095623 0.189926
Si Si2 0.473432 0.787498 0.000000
Si Si3 0.793056 0.823904 0.191028
Si Si4 0.354958 0.166727 0.180394
Si Si5 0.865545 0.026254 0.192261
Si Si6 0.065035 0.594397 0.500000
Si Si7 0.716825 0.012782 0.688975
O O1 0.041254 0.215240 0.329087
O O2 0.084143 0.002515 0.227440
O O3 0.043517 0.156409 0.000000
O O4 0.000000 0.000000 0.213334
O O5 0.525352 0.797187 0.000000
O O6 0.451098 0.936933 0.000000
O O7 0.835239 0.902268 0.268794
O O8 0.750970 0.920114 0.210792
O O9 0.786297 0.668833 0.271255
O O10 0.802673 0.795719 0.000000
O O11 0.350983 0.327999 0.229908
O O12 0.330151 0.062966 0.304893
O O13 0.332394 0.151395 0.000000
O O14 0.405825 0.122451 0.165024
O O15 0.855578 0.038971 0.000000
O O16 0.732473 0.021210 0.500000
#
# Coordination Sequence:
#
# PCOD8238179 Si02
#       7
#     8   4   8   8   8   4   8
#     4  10  22  38  64  97 129 169 219 269 322 386
#     4  11  21  42  66  90 137 168 219 266 335 376
#     4  10  23  40  60  87 122 161 203 258 311 376
#     4  10  22  38  59  85 120 160 205 250 311 371
#     4  10  21  38  60  91 125 160 211 261 312 377
#     4   9  24  40  60  94 124 169 210 267 311 393
#     4  11  23  40  61  87 120 160 204 255 316 374
#
# _framework density 20.291172
#
# number of rings (size 3 to 8) (size 9 to 14) (size 15 to 20)
#    0.500    1.333    0.000    3.250    3.500    4.667 
#    0.000    3.333    0.000    0.000    0.000    0.000 
#    0.000    0.000    0.000    0.000    0.000    0.000 
#
# Total GULP energy -594999.367663 kJ/mol
# GULP energy per Si atom -12395.820160 kJ/mol
# Density = 2.024499 g / cm^3
# Si number density = 20.291172 Si / 1000 Ang^3
#
#
#
# Elastic Constant Matrix: (Units=GPa)
#
#
# Indices 1 2 3 4 5 6 
#
# 1 113.2095 57.9651 8.5688 0.0000 0.0000 0.0000
# 2 57.9651 152.3179 29.9437 0.0000 0.0000 0.0000
# 3 8.5688 29.9437 59.1029 0.0000 0.0000 0.0000
# 4 0.0000 0.0000 0.0000 29.4176 0.0000 0.0000
# 5 0.0000 0.0000 0.0000 0.0000 20.6601 0.0000
# 6 0.0000 0.0000 0.0000 0.0000 0.0000 34.4067
#
#
#
# Elastic Compliance Matrix: (Units=1/GPa)
#
#
# Indices 1 2 3 4 5 6 
#
# 1 0.010989 -0.004297 0.000584 0.000000 0.000000 0.000000
# 2 -0.004297 0.008971 -0.003922 0.000000 0.000000 0.000000
# 3 0.000584 -0.003922 0.018822 0.000000 0.000000 0.000000
# 4 0.000000 0.000000 0.000000 0.033993 0.000000 0.000000
# 5 0.000000 0.000000 0.000000 0.000000 0.048403 0.000000
# 6 0.000000 0.000000 0.000000 0.000000 0.000000 0.029064
#
#
# Mechanical properties :
#
#
# Convention : Reuss Voigt Hill
#
# Bulk Modulus (GPa) = 42.53153 57.50951 50.02052
# Shear Modulus (GPa) = 28.84333 32.10706 30.47520
#
# Velocity S-wave (km/s) = 3.77433 3.98215 3.87963
# Velocity P-wave (km/s) = 6.32457 7.03896 6.69131
#
# Compressibility (1/GPa) = 0.02351197
#
# Stress axis : x y z
#
# Youngs Moduli (GPa) = 91.00063 111.46558 53.12871
#
# Poissons Ratio (x) = 0.47892 -0.03101
# Poissons Ratio (y) = 0.39099 0.20839
# Poissons Ratio (z) = -0.05311 0.43720
#
# Static dielectric constant tensor:
#      x y z
#    x 3.816260 0.000000 0.000000 
#    y 0.000000 3.720720 0.000000 
#    z 0.000000 0.000000 3.570980 
# 
# 
# High freq. dielectric constant tensor:
#      x y z
#    x 1.803480 0.000000 0.000000 
#    y 0.000000 1.797740 0.000000 
#    z 0.000000 0.000000 1.779320 
# 
# From -- ./inp_files/10786.got.cif
#   From: 2010.06.25/outbox.cif.g09.slc.cpg/sg58_6_cif.got.tgz:10786.got - 2010.06.26 21:38:00.
