data_PCOD8238898
_publ_section_title
;
Structure prediction by ZEFSAII (Michael W. Deem and Ramdas Pophale) SiO2 
 PCOD8238898
Probable space group: P N N M
;
_chemical_formula_sum "Si O2"
_cell_formula_units_Z 40
_cell_length_a 18.563790
_cell_length_b 12.140945
_cell_length_c 8.365833
_cell_angle_alpha 90.000000
_cell_angle_beta 90.000000
_cell_angle_gamma 90.000000
_cell_volume 1885.507783
_symmetry_space_group_name_H-M "P N N M"
_symmetry_group_IT_number 58
_symmetry_cell_setting 'orthorhombic'
loop_
_space_group_symop_operation_xyz
x,y,z
-x,-y,z
1/2+x,1/2-y,1/2-z
1/2-x,1/2+y,1/2-z
-x,-y,-z
x,y,-z
1/2-x,1/2+y,1/2+z
1/2+x,1/2-y,1/2+z
loop_
_atom_site_type_symbol
_atom_site_label
_atom_site_fract_x
_atom_site_fract_y
_atom_site_fract_z
Si Si1 0.162744 0.471575 0.315369
Si Si2 0.609375 0.810255 0.685664
Si Si3 0.689040 0.597495 0.815221
Si Si4 0.426615 0.556937 0.314805
Si Si5 0.546284 0.207864 0.813820
O O1 0.155710 0.504375 0.500000
O O2 0.158428 0.582120 0.210129
O O3 0.238267 0.411888 0.285903
O O4 0.098941 0.390322 0.263325
O O5 0.595953 0.787218 0.500000
O O6 0.647943 0.706045 0.761361
O O7 0.534042 0.830649 0.773942
O O8 0.639292 0.491161 0.786438
O O9 0.709368 0.605540 0.000000
O O10 0.500000 0.500000 0.254619
O O11 0.412979 0.530384 0.500000
O O12 0.431318 0.686732 0.288909
O O13 0.553230 0.236895 0.000000
#
# Coordination Sequence:
#
# PCOD8238898 Si02
#       5
#     8   8   8   8   8
#     4  11  26  46  68  97 135 175 221 274 332 397
#     4  12  25  44  69  98 134 174 222 272 330 396
#     4  12  26  44  68  97 133 175 221 274 335 394
#     4  11  23  41  67  98 132 172 220 273 329 391
#     4  11  24  43  70 100 132 173 223 274 331 394
#
# _framework density 21.214445000000001
#
# number of rings (size 3 to 8) (size 9 to 14) (size 15 to 20)
#    0.000    0.600    2.000    6.000    2.800    6.400 
#    0.000    0.000    0.000    0.000    0.000    0.000 
#    0.000    0.000    0.000    0.000    0.000    0.000 
#
# Total GULP energy -496420.219876 kJ/mol
# GULP energy per Si atom -12410.505497 kJ/mol
# Density = 2.116616 g / cm^3
# Si number density = 21.214445 Si / 1000 Ang^3
#
#
#
# Elastic Constant Matrix: (Units=GPa)
#
#
# Indices 1 2 3 4 5 6 
#
# 1 123.6667 28.4504 13.7562 0.0000 0.0000 0.0000
# 2 28.4504 73.7750 36.9791 0.0000 0.0000 0.0000
# 3 13.7562 36.9791 54.0425 0.0000 0.0000 0.0000
# 4 0.0000 0.0000 0.0000 32.1299 0.0000 0.0000
# 5 0.0000 0.0000 0.0000 0.0000 32.5025 0.0000
# 6 0.0000 0.0000 0.0000 0.0000 0.0000 21.6107
#
#
#
# Elastic Compliance Matrix: (Units=1/GPa)
#
#
# Indices 1 2 3 4 5 6 
#
# 1 0.008874 -0.003485 0.000126 0.000000 0.000000 0.000000
# 2 -0.003485 0.021999 -0.014166 0.000000 0.000000 0.000000
# 3 0.000126 -0.014166 0.028165 0.000000 0.000000 0.000000
# 4 0.000000 0.000000 0.000000 0.031124 0.000000 0.000000
# 5 0.000000 0.000000 0.000000 0.000000 0.030767 0.000000
# 6 0.000000 0.000000 0.000000 0.000000 0.000000 0.046273
#
#
# Mechanical properties :
#
#
# Convention : Reuss Voigt Hill
#
# Bulk Modulus (GPa) = 41.68789 45.53953 43.61371
# Shear Modulus (GPa) = 23.78126 28.73518 26.25822
#
# Velocity S-wave (km/s) = 3.35176 3.68436 3.52199
# Velocity P-wave (km/s) = 5.88833 6.29382 6.09445
#
# Compressibility (1/GPa) = 0.02398778
#
# Stress axis : x y z
#
# Youngs Moduli (GPa) = 112.68798 45.45558 35.50478
#
# Poissons Ratio (x) = 0.15843 -0.00448
# Poissons Ratio (y) = 0.39276 0.50297
# Poissons Ratio (z) = -0.01421 0.64393
#
# Static dielectric constant tensor:
#      x y z
#    x 4.021350 0.000000 0.000000 
#    y 0.000000 3.861730 0.000000 
#    z 0.000000 0.000000 3.818600 
# 
# 
# High freq. dielectric constant tensor:
#      x y z
#    x 1.840780 0.000000 0.000000 
#    y 0.000000 1.842980 0.000000 
#    z 0.000000 0.000000 1.841070 
# 
# From -- ./inp_files/3804.got.cif
#   From: 2010.06.25/outbox.cif.g09.slc.cpg/sg58_2_cif.got.tgz:3804.got - 2010.06.26 21:38:00.
