data_PCOD8238028
_publ_section_title
;
Structure prediction by ZEFSAII (Michael W. Deem and Ramdas Pophale) SiO2 
 PCOD8238028
Probable space group: P N N M
;
_chemical_formula_sum "Si O2"
_cell_formula_units_Z 64
_cell_length_a 12.612935
_cell_length_b 28.816645
_cell_length_c 8.855846
_cell_angle_alpha 90.000000
_cell_angle_beta 90.000000
_cell_angle_gamma 90.000000
_cell_volume 3218.767664
_symmetry_space_group_name_H-M "P N N M"
_symmetry_group_IT_number 58
_symmetry_cell_setting 'orthorhombic'
loop_
_space_group_symop_operation_xyz
x,y,z
-x,-y,z
1/2+x,1/2-y,1/2-z
1/2-x,1/2+y,1/2-z
-x,-y,-z
x,y,-z
1/2-x,1/2+y,1/2+z
1/2+x,1/2-y,1/2+z
loop_
_atom_site_type_symbol
_atom_site_label
_atom_site_fract_x
_atom_site_fract_y
_atom_site_fract_z
Si Si1 0.386151 0.057135 0.174118
Si Si2 0.503300 0.356981 0.678835
Si Si3 0.273246 0.212915 0.834687
Si Si4 0.373873 0.948625 0.825955
Si Si5 0.364707 0.798672 0.669622
Si Si6 0.487945 0.259142 0.170997
Si Si7 0.716266 0.619607 0.821626
Si Si8 0.219042 0.122989 0.324171
O O1 0.508045 0.069039 0.219332
O O2 0.304540 0.084645 0.277667
O O3 0.365208 0.003136 0.201378
O O4 0.367224 0.070245 0.000000
O O5 0.498482 0.359921 0.500000
O O6 0.514758 0.303819 0.728955
O O7 0.398623 0.381592 0.744744
O O8 0.608154 0.384168 0.735770
O O9 0.171086 0.245107 0.824353
O O10 0.363570 0.251328 0.815891
O O11 0.269947 0.173437 0.708503
O O12 0.279712 0.188598 0.000000
O O13 0.284649 0.925245 0.722196
O O14 0.351490 0.936237 0.000000
O O15 0.395614 0.814031 0.500000
O O16 0.467199 0.791579 0.775012
O O17 0.281416 0.835334 0.736946
O O18 0.524573 0.269646 0.000000
O O19 0.698195 0.621755 0.000000
O O20 0.195485 0.118294 0.500000
#
# Coordination Sequence:
#
# PCOD8238028 Si02
#       8
#     8   8   8   8   8   8   8   8
#     4   9  20  42  68  92 123 157 194 241 295 357
#     4  12  24  40  61  83 117 162 204 247 299 358
#     4  10  21  38  56  79 116 160 200 242 292 348
#     4   9  20  41  68  95 121 156 196 238 296 360
#     4  10  21  37  55  80 118 159 198 239 292 351
#     4  11  22  37  56  80 114 156 202 252 296 343
#     4  11  23  40  61  89 124 158 199 251 299 350
#     4  12  25  39  60  90 121 156 203 250 299 354
#
# _framework density 19.883386000000002
#
# number of rings (size 3 to 8) (size 9 to 14) (size 15 to 20)
#    0.000    1.500    2.500    3.750    1.750    3.000 
#    0.000    1.875    0.000    3.750    0.000    0.000 
#    0.000    0.000    0.000    0.000    0.000    0.000 
#
# Total GULP energy -793389.660921 kJ/mol
# GULP energy per Si atom -12396.713452 kJ/mol
# Density = 1.983813 g / cm^3
# Si number density = 19.883386 Si / 1000 Ang^3
#
#
#
# Elastic Constant Matrix: (Units=GPa)
#
#
# Indices 1 2 3 4 5 6 
#
# 1 60.9645 24.6060 20.8961 0.0000 0.0000 0.0000
# 2 24.6060 57.7328 24.1084 0.0000 0.0000 0.0000
# 3 20.8961 24.1084 98.8302 0.0000 0.0000 0.0000
# 4 0.0000 0.0000 0.0000 27.5263 0.0000 0.0000
# 5 0.0000 0.0000 0.0000 0.0000 32.3711 0.0000
# 6 0.0000 0.0000 0.0000 0.0000 0.0000 33.9469
#
#
#
# Elastic Compliance Matrix: (Units=1/GPa)
#
#
# Indices 1 2 3 4 5 6 
#
# 1 0.020323 -0.007646 -0.002432 0.000000 0.000000 0.000000
# 2 -0.007646 0.022162 -0.003790 0.000000 0.000000 0.000000
# 3 -0.002432 -0.003790 0.011557 0.000000 0.000000 0.000000
# 4 0.000000 0.000000 0.000000 0.036329 0.000000 0.000000
# 5 0.000000 0.000000 0.000000 0.000000 0.030892 0.000000
# 6 0.000000 0.000000 0.000000 0.000000 0.000000 0.029458
#
#
# Mechanical properties :
#
#
# Convention : Reuss Voigt Hill
#
# Bulk Modulus (GPa) = 38.01259 39.63874 38.82567
# Shear Modulus (GPa) = 26.70594 28.62999 27.66797
#
# Velocity S-wave (km/s) = 3.66885 3.79871 3.73434
# Velocity P-wave (km/s) = 6.09151 6.26252 6.17761
#
# Compressibility (1/GPa) = 0.02630707
#
# Stress axis : x y z
#
# Youngs Moduli (GPa) = 49.20648 45.12134 86.52813
#
# Poissons Ratio (x) = 0.34500 0.21041
# Poissons Ratio (y) = 0.37624 0.32791
# Poissons Ratio (z) = 0.11966 0.17099
#
# Static dielectric constant tensor:
#      x y z
#    x 3.923020 0.000000 0.000000 
#    y 0.000000 3.367060 0.000000 
#    z 0.000000 0.000000 3.596320 
# 
# 
# High freq. dielectric constant tensor:
#      x y z
#    x 1.790630 0.000000 0.000000 
#    y 0.000000 1.756940 0.000000 
#    z 0.000000 0.000000 1.773220 
# 
# From -- ./inp_files/4683.got.cif
#   From: 2010.06.25/outbox.cif.g09.slc.cpg/sg58_3_cif.got.tgz:4683.got - 2010.06.26 21:38:00.
