data_PCOD8238065
_publ_section_title
;
Structure prediction by ZEFSAII (Michael W. Deem and Ramdas Pophale) SiO2 
 PCOD8238065
Probable space group: P N N M
;
_chemical_formula_sum "Si O2"
_cell_formula_units_Z 48
_cell_length_a 17.590858
_cell_length_b 15.270269
_cell_length_c 9.107824
_cell_angle_alpha 90.000000
_cell_angle_beta 90.000000
_cell_angle_gamma 90.000000
_cell_volume 2446.517576
_symmetry_space_group_name_H-M "P N N M"
_symmetry_group_IT_number 58
_symmetry_cell_setting 'orthorhombic'
loop_
_space_group_symop_operation_xyz
x,y,z
-x,-y,z
1/2+x,1/2-y,1/2-z
1/2-x,1/2+y,1/2-z
-x,-y,-z
x,y,-z
1/2-x,1/2+y,1/2+z
1/2+x,1/2-y,1/2+z
loop_
_atom_site_type_symbol
_atom_site_label
_atom_site_fract_x
_atom_site_fract_y
_atom_site_fract_z
Si Si1 0.959942 0.589485 0.327238
Si Si2 0.551920 0.421003 0.327194
Si Si3 0.964422 0.253921 0.831137
Si Si4 0.199340 0.420657 0.171592
Si Si5 0.287579 0.273388 0.330629
Si Si6 0.210524 0.092673 0.329257
O O1 0.948159 0.596143 0.500000
O O2 0.878975 0.597496 0.252026
O O3 0.000000 0.500000 0.279603
O O4 0.013504 0.667229 0.274092
O O5 0.500000 0.500000 0.266380
O O6 0.562047 0.430294 0.500000
O O7 0.512868 0.330127 0.283175
O O8 0.634499 0.427491 0.257904
O O9 0.876709 0.234516 0.805970
O O10 0.980592 0.279447 0.000000
O O11 0.261124 0.352330 0.229058
O O12 0.227519 0.518397 0.206803
O O13 0.186923 0.405702 0.000000
O O14 0.268594 0.294035 0.500000
O O15 0.246078 0.184682 0.279111
O O16 0.190077 0.093150 0.500000
#
# Coordination Sequence:
#
# PCOD8238065 Si02
#       6
#     8   8   8   8   8   8
#     4  11  24  40  59  85 116 151 192 239 290 341
#     4  10  21  37  58  84 113 148 189 230 276 333
#     4  10  21  38  61  87 116 153 192 232 283 341
#     4  11  23  39  60  86 115 150 193 237 285 342
#     4  10  21  39  61  85 116 152 189 232 284 339
#     4  10  22  38  57  83 114 149 187 230 282 336
#
# _framework density 19.619724999999999
#
# number of rings (size 3 to 8) (size 9 to 14) (size 15 to 20)
#    0.000    1.667    0.000    4.000    0.000   10.333 
#    0.000    0.000    0.000    0.000    0.000    0.000 
#    0.000    0.000    0.000    0.000    0.000    0.000 
#
# Total GULP energy -595497.054613 kJ/mol
# GULP energy per Si atom -12406.188638 kJ/mol
# Density = 1.957507 g / cm^3
# Si number density = 19.619725 Si / 1000 Ang^3
#
#
#
# Elastic Constant Matrix: (Units=GPa)
#
#
# Indices 1 2 3 4 5 6 
#
# 1 71.7560 11.6346 26.1609 0.0000 0.0000 0.0000
# 2 11.6346 94.5307 42.0779 0.0000 0.0000 0.0000
# 3 26.1609 42.0779 52.5692 0.0000 0.0000 0.0000
# 4 0.0000 0.0000 0.0000 36.1103 0.0000 0.0000
# 5 0.0000 0.0000 0.0000 0.0000 -3.2020 0.0000
# 6 0.0000 0.0000 0.0000 0.0000 0.0000 32.9821
#
#
#
# Elastic Compliance Matrix: (Units=1/GPa)
#
#
# Indices 1 2 3 4 5 6 
#
# 1 0.017448 0.002668 -0.010818 0.000000 0.000000 0.000000
# 2 0.002668 0.016842 -0.014808 0.000000 0.000000 0.000000
# 3 -0.010818 -0.014808 0.036259 0.000000 0.000000 0.000000
# 4 0.000000 0.000000 0.000000 0.027693 0.000000 0.000000
# 5 0.000000 0.000000 0.000000 0.000000 -0.312309 0.000000
# 6 0.000000 0.000000 0.000000 0.000000 0.000000 0.030319
#
#
# Mechanical properties :
#
#
# Convention : Reuss Voigt Hill
#
# Bulk Modulus (GPa) = 40.59858 42.06695 41.33276
# Shear Modulus (GPa) = -38.57430 22.44360 -8.06535
#
# Velocity S-wave (km/s) = -4.43888 3.38587 -2.02972
# Velocity P-wave (km/s) = 2.35242 6.06409 3.95217
#
# Compressibility (1/GPa) = 0.02463141
#
# Stress axis : x y z
#
# Youngs Moduli (GPa) = 57.31412 59.37621 27.57906
#
# Poissons Ratio (x) = -0.15842 0.29836
# Poissons Ratio (y) = -0.15292 0.40840
# Poissons Ratio (z) = 0.62005 0.87927
#
# Static dielectric constant tensor:
#      x y z
#    x 3.584350 0.000000 0.000000 
#    y 0.000000 3.925630 0.000000 
#    z 0.000000 0.000000 3.534160 
# 
# 
# High freq. dielectric constant tensor:
#      x y z
#    x 1.780130 0.000000 0.000000 
#    y 0.000000 1.782090 0.000000 
#    z 0.000000 0.000000 1.759750 
# 
# From -- ./inp_files/5755.got.cif
#   From: 2010.06.25/outbox.cif.g09.slc.cpg/sg58_3_cif.got.tgz:5755.got - 2010.06.26 21:38:00.
