data_PCOD8238442
_publ_section_title
;
Structure prediction by ZEFSAII (Michael W. Deem and Ramdas Pophale) SiO2 
 PCOD8238442
Probable space group: P N N M
;
_chemical_formula_sum "Si O2"
_cell_formula_units_Z 40
_cell_length_a 9.819399
_cell_length_b 7.359026
_cell_length_c 25.887756
_cell_angle_alpha 90.000000
_cell_angle_beta 90.000000
_cell_angle_gamma 90.000000
_cell_volume 1870.680639
_symmetry_space_group_name_H-M "P N N M"
_symmetry_group_IT_number 58
_symmetry_cell_setting 'orthorhombic'
loop_
_space_group_symop_operation_xyz
x,y,z
-x,-y,z
1/2+x,1/2-y,1/2-z
1/2-x,1/2+y,1/2-z
-x,-y,-z
x,y,-z
1/2-x,1/2+y,1/2+z
1/2+x,1/2-y,1/2+z
loop_
_atom_site_type_symbol
_atom_site_label
_atom_site_fract_x
_atom_site_fract_y
_atom_site_fract_z
Si Si1 0.624721 0.884063 0.712829
Si Si2 0.146878 0.785831 0.106495
Si Si3 0.849681 0.037827 0.584643
Si Si4 0.860729 0.830198 0.941776
Si Si5 0.122582 0.882157 0.701182
O O1 0.651290 0.730723 0.668971
O O2 0.602723 0.808798 0.770334
O O3 0.500000 0.000000 0.691976
O O4 0.742003 0.027525 0.721075
O O5 0.261517 0.647415 0.085068
O O6 0.995452 0.740973 0.084428
O O7 0.185169 0.991425 0.090453
O O8 0.762366 0.186775 0.554091
O O9 0.877233 0.132824 0.639655
O O10 0.000000 0.000000 0.559634
O O11 0.897080 0.889757 0.000000
O O12 0.000000 0.000000 0.722119
#
# Coordination Sequence:
#
# PCOD8238442 Si02
#       5
#     8   8   8   8   8
#     4  11  22  37  62  92 125 168 209 254 315 371
#     4  10  22  40  65  93 129 161 213 274 318 379
#     4  10  23  43  60  91 133 168 209 262 322 388
#     4  11  24  42  69  95 121 167 221 271 328 374
#     4  10  22  37  56  88 126 165 207 248 311 379
#
# _framework density 21.382593
#
# number of rings (size 3 to 8) (size 9 to 14) (size 15 to 20)
#    0.000    1.600    0.000    5.400    5.600    3.600 
#    0.000    1.000    0.000    0.000    0.000    0.000 
#    0.000    0.000    0.000    0.000    0.000    0.000 
#
# Total GULP energy -495745.362637 kJ/mol
# GULP energy per Si atom -12393.634066 kJ/mol
# Density = 2.133393 g / cm^3
# Si number density = 21.382593 Si / 1000 Ang^3
#
#
#
# Elastic Constant Matrix: (Units=GPa)
#
#
# Indices 1 2 3 4 5 6 
#
# 1 151.4863 54.5481 8.4997 0.0000 0.0000 0.0000
# 2 54.5481 96.5122 28.1594 0.0000 0.0000 0.0000
# 3 8.4997 28.1594 73.8334 0.0000 0.0000 0.0000
# 4 0.0000 0.0000 0.0000 19.4649 0.0000 0.0000
# 5 0.0000 0.0000 0.0000 0.0000 13.6633 0.0000
# 6 0.0000 0.0000 0.0000 0.0000 0.0000 19.1993
#
#
#
# Elastic Compliance Matrix: (Units=1/GPa)
#
#
# Indices 1 2 3 4 5 6 
#
# 1 0.008346 -0.004992 0.000943 0.000000 0.000000 0.000000
# 2 -0.004992 0.014645 -0.005011 0.000000 0.000000 0.000000
# 3 0.000943 -0.005011 0.015346 0.000000 0.000000 0.000000
# 4 0.000000 0.000000 0.000000 0.051374 0.000000 0.000000
# 5 0.000000 0.000000 0.000000 0.000000 0.073189 0.000000
# 6 0.000000 0.000000 0.000000 0.000000 0.000000 0.052085
#
#
# Mechanical properties :
#
#
# Convention : Reuss Voigt Hill
#
# Bulk Modulus (GPa) = 49.46134 56.02735 52.74434
# Shear Modulus (GPa) = 20.84679 25.84048 23.34364
#
# Velocity S-wave (km/s) = 3.12579 3.48009 3.30769
# Velocity P-wave (km/s) = 6.01741 6.51209 6.26963
#
# Compressibility (1/GPa) = 0.02021781
#
# Stress axis : x y z
#
# Youngs Moduli (GPa) = 119.81793 68.28268 65.16149
#
# Poissons Ratio (x) = 0.34089 -0.06146
# Poissons Ratio (y) = 0.59817 0.32651
# Poissons Ratio (z) = -0.11302 0.34215
#
# Static dielectric constant tensor:
#      x y z
#    x 4.152790 0.000000 0.000000 
#    y 0.000000 3.681080 0.000000 
#    z 0.000000 0.000000 3.672180 
# 
# 
# High freq. dielectric constant tensor:
#      x y z
#    x 1.851200 0.000000 0.000000 
#    y 0.000000 1.830870 0.000000 
#    z 0.000000 0.000000 1.835530 
# 
# From -- ./inp_files/33147.got.cif
#   From: 2010.06.25/outbox.cif.g09.slc.cpg/sg58_17_cif.got.tgz:33147.got - 2010.06.26 21:38:00.
