data_PCOD8238796
_publ_section_title
;
Structure prediction by ZEFSAII (Michael W. Deem and Ramdas Pophale) SiO2 
 PCOD8238796
Probable space group: P N N M
;
_chemical_formula_sum "Si O2"
_cell_formula_units_Z 48
_cell_length_a 16.673012
_cell_length_b 17.822392
_cell_length_c 8.831807
_cell_angle_alpha 90.000000
_cell_angle_beta 90.000000
_cell_angle_gamma 90.000000
_cell_volume 2624.397554
_symmetry_space_group_name_H-M "P N N M"
_symmetry_group_IT_number 58
_symmetry_cell_setting 'orthorhombic'
loop_
_space_group_symop_operation_xyz
x,y,z
-x,-y,z
1/2+x,1/2-y,1/2-z
1/2-x,1/2+y,1/2-z
-x,-y,-z
x,y,-z
1/2-x,1/2+y,1/2+z
1/2+x,1/2-y,1/2+z
loop_
_atom_site_type_symbol
_atom_site_label
_atom_site_fract_x
_atom_site_fract_y
_atom_site_fract_z
Si Si1 0.165549 0.173907 0.326293
Si Si2 0.410253 0.517078 0.177885
Si Si3 0.179898 0.585946 0.174437
Si Si4 0.149275 0.329433 0.178567
Si Si5 0.259618 0.446689 0.321500
Si Si6 0.496498 0.083356 0.677781
O O1 0.151190 0.197250 0.500000
O O2 0.110307 0.103114 0.281453
O O3 0.258362 0.153056 0.297188
O O4 0.144528 0.242005 0.217520
O O5 0.500000 0.500000 0.234558
O O6 0.349253 0.460670 0.260039
O O7 0.400667 0.503163 0.000000
O O8 0.200260 0.513644 0.274412
O O9 0.091471 0.617008 0.215908
O O10 0.183905 0.558567 0.000000
O O11 0.225889 0.368545 0.255900
O O12 0.067164 0.365509 0.245715
O O13 0.157066 0.339243 0.000000
O O14 0.263680 0.440329 0.500000
O O15 0.510979 0.078898 0.500000
O O16 0.500000 0.000000 0.748149
#
# Coordination Sequence:
#
# PCOD8238796 Si02
#       6
#     8   8   8   8   8   8
#     4   9  19  35  55  79 111 142 174 224 278 326
#     4   9  19  39  64  83 106 145 188 225 274 336
#     4   9  17  35  58  77 103 142 182 216 270 335
#     4  11  21  35  55  78 110 148 186 224 273 333
#     4  11  21  33  54  82 111 140 180 227 272 320
#     4   9  16  30  56  82 102 134 183 225 260 320
#
# _framework density 18.289911
#
# number of rings (size 3 to 8) (size 9 to 14) (size 15 to 20)
#    0.000    2.333    1.667    3.000    0.000    3.000 
#    3.000    2.500    0.000    0.000    0.000    0.000 
#    0.000    0.000    0.000    0.000    0.000    0.000 
#
# Total GULP energy -595164.824629 kJ/mol
# GULP energy per Si atom -12399.267180 kJ/mol
# Density = 1.824828 g / cm^3
# Si number density = 18.289911 Si / 1000 Ang^3
#
#
#
# Elastic Constant Matrix: (Units=GPa)
#
#
# Indices 1 2 3 4 5 6 
#
# 1 164.7814 72.1560 46.5166 0.0000 0.0000 0.0000
# 2 72.1560 102.1395 36.4472 0.0000 0.0000 0.0000
# 3 46.5166 36.4472 70.6147 0.0000 0.0000 0.0000
# 4 0.0000 0.0000 0.0000 31.2744 0.0000 0.0000
# 5 0.0000 0.0000 0.0000 0.0000 13.3710 0.0000
# 6 0.0000 0.0000 0.0000 0.0000 0.0000 24.1389
#
#
#
# Elastic Compliance Matrix: (Units=1/GPa)
#
#
# Indices 1 2 3 4 5 6 
#
# 1 0.009406 -0.005435 -0.003391 0.000000 0.000000 0.000000
# 2 -0.005435 0.015141 -0.004235 0.000000 0.000000 0.000000
# 3 -0.003391 -0.004235 0.018581 0.000000 0.000000 0.000000
# 4 0.000000 0.000000 0.000000 0.031975 0.000000 0.000000
# 5 0.000000 0.000000 0.000000 0.000000 0.074789 0.000000
# 6 0.000000 0.000000 0.000000 0.000000 0.000000 0.041427
#
#
# Mechanical properties :
#
#
# Convention : Reuss Voigt Hill
#
# Bulk Modulus (GPa) = 58.80013 71.97505 65.38759
# Shear Modulus (GPa) = 22.41068 25.91789 24.16428
#
# Velocity S-wave (km/s) = 3.50423 3.76847 3.63875
# Velocity P-wave (km/s) = 6.97077 7.64022 7.31315
#
# Compressibility (1/GPa) = 0.01700677
#
# Stress axis : x y z
#
# Youngs Moduli (GPa) = 106.31977 66.04608 53.81886
#
# Poissons Ratio (x) = 0.35893 0.18249
# Poissons Ratio (y) = 0.57780 0.22792
# Poissons Ratio (z) = 0.36051 0.27970
#
# Static dielectric constant tensor:
#      x y z
#    x 3.696480 0.000000 0.000000 
#    y 0.000000 3.192800 0.000000 
#    z 0.000000 0.000000 3.111470 
# 
# 
# High freq. dielectric constant tensor:
#      x y z
#    x 1.720160 0.000000 0.000000 
#    y 0.000000 1.692640 0.000000 
#    z 0.000000 0.000000 1.688320 
# 
# From -- ./inp_files/7869.got.cif
#   From: 2010.06.25/outbox.cif.g09.slc.cpg/sg58_4_cif.got.tgz:7869.got - 2010.06.26 21:38:00.
