data_PCOD8238564
_publ_section_title
;
Structure prediction by ZEFSAII (Michael W. Deem and Ramdas Pophale) SiO2 
 PCOD8238564
Probable space group: P N N M
;
_chemical_formula_sum "Si O2"
_cell_formula_units_Z 40
_cell_length_a 13.407683
_cell_length_b 18.795340
_cell_length_c 7.672334
_cell_angle_alpha 90.000000
_cell_angle_beta 90.000000
_cell_angle_gamma 90.000000
_cell_volume 1933.443210
_symmetry_space_group_name_H-M "P N N M"
_symmetry_group_IT_number 58
_symmetry_cell_setting 'orthorhombic'
loop_
_space_group_symop_operation_xyz
x,y,z
-x,-y,z
1/2+x,1/2-y,1/2-z
1/2-x,1/2+y,1/2-z
-x,-y,-z
x,y,-z
1/2-x,1/2+y,1/2+z
1/2+x,1/2-y,1/2+z
loop_
_atom_site_type_symbol
_atom_site_label
_atom_site_fract_x
_atom_site_fract_y
_atom_site_fract_z
Si Si1 0.858472 0.129316 0.297574
Si Si2 0.075567 0.148437 0.803990
Si Si3 0.203042 0.026229 0.696049
Si Si4 0.652341 0.199272 0.704171
Si Si5 0.150888 0.543591 0.500000
Si Si6 0.945201 0.610073 0.500000
O O1 0.882657 0.127248 0.500000
O O2 0.767673 0.182270 0.253751
O O3 0.956507 0.158561 0.202910
O O4 0.833266 0.049906 0.230925
O O5 0.110785 0.081493 0.688863
O O6 0.130658 0.219859 0.740527
O O7 0.108460 0.131959 0.000000
O O8 0.246395 0.017461 0.500000
O O9 0.286796 0.057008 0.824071
O O10 0.627829 0.184963 0.500000
O O11 0.582935 0.150055 0.822413
O O12 0.108871 0.464805 0.500000
O O13 0.064096 0.601996 0.500000
#
# Coordination Sequence:
#
# PCOD8238564 Si02
#       6
#     8   8   8   8   4   4
#     4  10  22  41  64  89 127 174 209 260 325 380
#     4  11  24  39  64  99 130 166 220 267 316 390
#     4  11  23  42  65  95 134 168 211 269 324 381
#     4  10  24  44  62  92 133 170 215 263 323 389
#     4  11  24  42  66 103 122 167 223 270 318 385
#     4  11  24  42  71  90 128 174 216 262 332 386
#
# _framework density 20.688479000000001
#
# number of rings (size 3 to 8) (size 9 to 14) (size 15 to 20)
#    0.000    1.400    3.000    1.200    5.600    4.800 
#    0.000    4.000    0.000    0.000    0.000    0.000 
#    0.000    0.000    0.000    0.000    0.000    0.000 
#
# Total GULP energy -496151.967307 kJ/mol
# GULP energy per Si atom -12403.799183 kJ/mol
# Density = 2.064139 g / cm^3
# Si number density = 20.688479 Si / 1000 Ang^3
#
#
#
# Elastic Constant Matrix: (Units=GPa)
#
#
# Indices 1 2 3 4 5 6 
#
# 1 142.0169 69.0436 37.4595 0.0000 0.0000 0.0000
# 2 69.0436 113.4119 24.5991 0.0000 0.0000 0.0000
# 3 37.4595 24.5991 79.0830 0.0000 0.0000 0.0000
# 4 0.0000 0.0000 0.0000 26.0024 0.0000 0.0000
# 5 0.0000 0.0000 0.0000 0.0000 25.0768 0.0000
# 6 0.0000 0.0000 0.0000 0.0000 0.0000 33.9601
#
#
#
# Elastic Compliance Matrix: (Units=1/GPa)
#
#
# Indices 1 2 3 4 5 6 
#
# 1 0.010738 -0.005827 -0.003274 0.000000 0.000000 0.000000
# 2 -0.005827 0.012617 -0.001165 0.000000 0.000000 0.000000
# 3 -0.003274 -0.001165 0.014558 0.000000 0.000000 0.000000
# 4 0.000000 0.000000 0.000000 0.038458 0.000000 0.000000
# 5 0.000000 0.000000 0.000000 0.000000 0.039877 0.000000
# 6 0.000000 0.000000 0.000000 0.000000 0.000000 0.029446
#
#
# Mechanical properties :
#
#
# Convention : Reuss Voigt Hill
#
# Bulk Modulus (GPa) = 57.52915 66.30181 61.91548
# Shear Modulus (GPa) = 29.06647 30.56850 29.81749
#
# Velocity S-wave (km/s) = 3.75235 3.84808 3.80051
# Velocity P-wave (km/s) = 6.82943 7.20145 7.01791
#
# Compressibility (1/GPa) = 0.01738249
#
# Stress axis : x y z
#
# Youngs Moduli (GPa) = 93.12928 79.25573 68.69142
#
# Poissons Ratio (x) = 0.46182 0.22487
# Poissons Ratio (y) = 0.54266 0.08000
# Poissons Ratio (z) = 0.30488 0.09230
#
# Static dielectric constant tensor:
#      x y z
#    x 3.750470 0.000000 0.000000 
#    y 0.000000 3.795570 0.000000 
#    z 0.000000 0.000000 3.718470 
# 
# 
# High freq. dielectric constant tensor:
#      x y z
#    x 1.806070 0.000000 0.000000 
#    y 0.000000 1.810640 0.000000 
#    z 0.000000 0.000000 1.816990 
# 
# From -- ./inp_files/3850.got.cif
#   From: 2010.06.25/outbox.cif.g09.slc.cpg/sg58_2_cif.got.tgz:3850.got - 2010.06.26 21:38:00.
