data_PCOD8238830
_publ_section_title
;
Structure prediction by ZEFSAII (Michael W. Deem and Ramdas Pophale) SiO2 
 PCOD8238830
Probable space group: P N N M
;
_chemical_formula_sum "Si O2"
_cell_formula_units_Z 48
_cell_length_a 8.549105
_cell_length_b 15.189759
_cell_length_c 17.871766
_cell_angle_alpha 90.000000
_cell_angle_beta 90.000000
_cell_angle_gamma 90.000000
_cell_volume 2320.806884
_symmetry_space_group_name_H-M "P N N M"
_symmetry_group_IT_number 58
_symmetry_cell_setting 'orthorhombic'
loop_
_space_group_symop_operation_xyz
x,y,z
-x,-y,z
1/2+x,1/2-y,1/2-z
1/2-x,1/2+y,1/2-z
-x,-y,-z
x,y,-z
1/2-x,1/2+y,1/2+z
1/2+x,1/2-y,1/2+z
loop_
_atom_site_type_symbol
_atom_site_label
_atom_site_fract_x
_atom_site_fract_y
_atom_site_fract_z
Si Si1 0.322477 0.508894 0.775839
Si Si2 0.637303 0.930760 0.581620
Si Si3 0.390757 0.584843 0.625087
Si Si4 0.059101 0.741657 0.153861
Si Si5 0.950712 0.402701 0.582527
Si Si6 0.849317 0.666648 0.284037
O O1 0.500000 0.500000 0.801078
O O2 0.246046 0.548524 0.848906
O O3 0.321266 0.579205 0.708942
O O4 0.239155 0.421480 0.743787
O O5 0.721565 0.937400 0.500000
O O6 0.573446 0.831766 0.589776
O O7 0.500000 0.000000 0.584096
O O8 0.500000 0.500000 0.604774
O O9 0.498553 0.669789 0.614664
O O10 0.237843 0.598621 0.574875
O O11 0.225355 0.760675 0.191326
O O12 0.940538 0.705946 0.214998
O O13 0.014313 0.374478 0.500000
O O14 0.000000 0.500000 0.603751
O O15 0.029238 0.344076 0.647035
#
# Coordination Sequence:
#
# PCOD8238830 Si02
#       6
#     8   8   8   8   8   8
#     4  11  21  42  69  96 129 170 220 281 332 392
#     4  11  25  44  66  95 133 178 219 265 334 400
#     4  11  22  43  67 100 132 171 222 275 333 397
#     4  12  24  40  70  98 127 171 226 282 327 391
#     4  11  23  39  63  93 133 177 212 261 335 400
#     4  12  23  40  68  98 128 173 227 279 330 394
#
# _framework density 20.682462999999998
#
# number of rings (size 3 to 8) (size 9 to 14) (size 15 to 20)
#    0.000    0.667    6.667    3.000    0.000    2.000 
#    0.000    0.000    0.000    0.500    0.000    0.000 
#    0.000    0.000    0.000    0.000    0.000    0.000 
#
# Total GULP energy -594918.387628 kJ/mol
# GULP energy per Si atom -12394.133076 kJ/mol
# Density = 2.063539 g / cm^3
# Si number density = 20.682463 Si / 1000 Ang^3
#
#
#
# Elastic Constant Matrix: (Units=GPa)
#
#
# Indices 1 2 3 4 5 6 
#
# 1 104.3416 30.4892 23.2528 0.0000 0.0000 0.0000
# 2 30.4892 111.5439 35.5773 0.0000 0.0000 0.0000
# 3 23.2528 35.5773 73.4675 0.0000 0.0000 0.0000
# 4 0.0000 0.0000 0.0000 -54.1298 0.0000 0.0000
# 5 0.0000 0.0000 0.0000 0.0000 23.2556 0.0000
# 6 0.0000 0.0000 0.0000 0.0000 0.0000 34.1517
#
#
#
# Elastic Compliance Matrix: (Units=1/GPa)
#
#
# Indices 1 2 3 4 5 6 
#
# 1 0.010746 -0.002191 -0.002340 0.000000 0.000000 0.000000
# 2 -0.002191 0.011049 -0.004657 0.000000 0.000000 0.000000
# 3 -0.002340 -0.004657 0.016607 0.000000 0.000000 0.000000
# 4 0.000000 0.000000 0.000000 -0.018474 0.000000 0.000000
# 5 0.000000 0.000000 0.000000 0.000000 0.043000 0.000000
# 6 0.000000 0.000000 0.000000 0.000000 0.000000 0.029281
#
#
# Mechanical properties :
#
#
# Convention : Reuss Voigt Hill
#
# Bulk Modulus (GPa) = 49.93533 51.99907 50.96720
# Shear Modulus (GPa) = 42.63964 13.99107 28.31536
#
# Velocity S-wave (km/s) = 4.54545 2.60373 3.70408
# Velocity P-wave (km/s) = 7.19335 5.85110 6.55667
#
# Compressibility (1/GPa) = 0.02002590
#
# Stress axis : x y z
#
# Youngs Moduli (GPa) = 93.06161 90.50270 60.21378
#
# Poissons Ratio (x) = 0.19827 0.14091
# Poissons Ratio (y) = 0.20388 0.28044
# Poissons Ratio (z) = 0.21778 0.42151
#
# Static dielectric constant tensor:
#      x y z
#    x 4.288100 0.000000 0.000000 
#    y 0.000000 3.996620 0.000000 
#    z 0.000000 0.000000 3.853580 
# 
# 
# High freq. dielectric constant tensor:
#      x y z
#    x 1.816870 0.000000 0.000000 
#    y 0.000000 1.809530 0.000000 
#    z 0.000000 0.000000 1.811200 
# 
# From -- ./inp_files/25278.got.cif
#   From: 2010.06.25/outbox.cif.g09.slc.cpg/sg58_13_cif.got.tgz:25278.got - 2010.06.26 21:38:00.
