data_PCOD8238515
_publ_section_title
;
Structure prediction by ZEFSAII (Michael W. Deem and Ramdas Pophale) SiO2 
 PCOD8238515
Probable space group: P N N M
;
_chemical_formula_sum "Si O2"
_cell_formula_units_Z 56
_cell_length_a 14.510776
_cell_length_b 21.290731
_cell_length_c 8.861245
_cell_angle_alpha 90.000000
_cell_angle_beta 90.000000
_cell_angle_gamma 90.000000
_cell_volume 2737.637588
_symmetry_space_group_name_H-M "P N N M"
_symmetry_group_IT_number 58
_symmetry_cell_setting 'orthorhombic'
loop_
_space_group_symop_operation_xyz
x,y,z
-x,-y,z
1/2+x,1/2-y,1/2-z
1/2-x,1/2+y,1/2-z
-x,-y,-z
x,y,-z
1/2-x,1/2+y,1/2+z
1/2+x,1/2-y,1/2+z
loop_
_atom_site_type_symbol
_atom_site_label
_atom_site_fract_x
_atom_site_fract_y
_atom_site_fract_z
Si Si1 0.406892 0.612948 0.677794
Si Si2 0.090237 0.538486 0.323930
Si Si3 0.065082 0.669308 0.826748
Si Si4 0.596513 0.599854 0.177465
Si Si5 0.277481 0.516008 0.177492
Si Si6 0.880001 0.743602 0.175507
Si Si7 0.807320 0.215743 0.825253
O O1 0.412319 0.605078 0.500000
O O2 0.498601 0.583349 0.749169
O O3 0.318379 0.576947 0.740687
O O4 0.398333 0.685283 0.726134
O O5 0.112522 0.532864 0.500000
O O6 0.076464 0.611003 0.283309
O O7 0.172830 0.507342 0.230205
O O8 0.000000 0.500000 0.278242
O O9 0.150386 0.715667 0.796349
O O10 0.970303 0.703898 0.787181
O O11 0.065464 0.646366 0.000000
O O12 0.667736 0.546053 0.226382
O O13 0.632754 0.666379 0.233293
O O14 0.582865 0.602112 0.000000
O O15 0.281434 0.527418 0.000000
O O16 0.797693 0.714082 0.271633
O O17 0.853449 0.740114 0.000000
O O18 0.813360 0.197032 0.000000
#
# Coordination Sequence:
#
# PCOD8238515 Si02
#       7
#     8   8   8   8   8   8   8
#     4  11  22  41  67  97 130 166 208 259 316 374
#     4  11  26  45  65  94 127 163 214 269 319 373
#     4  10  22  43  66  90 126 167 208 254 313 381
#     4  11  24  41  63  93 129 168 212 259 312 378
#     4  11  25  43  64  92 126 170 215 257 313 379
#     4  10  22  40  62  92 127 163 204 252 310 377
#     4  11  23  40  63  94 127 164 211 262 314 372
#
# _framework density 20.455593
#
# number of rings (size 3 to 8) (size 9 to 14) (size 15 to 20)
#    0.000    1.286    1.429    3.429    2.000   10.286 
#    0.000    0.000    0.000    0.000    0.000    0.000 
#    0.000    0.000    0.000    0.000    0.000    0.000 
#
# Total GULP energy -694862.361711 kJ/mol
# GULP energy per Si atom -12408.256459 kJ/mol
# Density = 2.040904 g / cm^3
# Si number density = 20.455593 Si / 1000 Ang^3
#
#
#
# Elastic Constant Matrix: (Units=GPa)
#
#
# Indices 1 2 3 4 5 6 
#
# 1 109.2248 16.2740 26.5151 0.0000 0.0000 0.0000
# 2 16.2740 63.8503 22.6231 0.0000 0.0000 0.0000
# 3 26.5151 22.6231 55.7217 0.0000 0.0000 0.0000
# 4 0.0000 0.0000 0.0000 -10.4367 0.0000 0.0000
# 5 0.0000 0.0000 0.0000 0.0000 39.0607 0.0000
# 6 0.0000 0.0000 0.0000 0.0000 0.0000 32.3328
#
#
#
# Elastic Compliance Matrix: (Units=1/GPa)
#
#
# Indices 1 2 3 4 5 6 
#
# 1 0.010411 -0.001049 -0.004528 0.000000 0.000000 0.000000
# 2 -0.001049 0.018399 -0.006971 0.000000 0.000000 0.000000
# 3 -0.004528 -0.006971 0.022931 0.000000 0.000000 0.000000
# 4 0.000000 0.000000 0.000000 -0.095815 0.000000 0.000000
# 5 0.000000 0.000000 0.000000 0.000000 0.025601 0.000000
# 6 0.000000 0.000000 0.000000 0.000000 0.000000 0.030928
#
#
# Mechanical properties :
#
#
# Convention : Reuss Voigt Hill
#
# Bulk Modulus (GPa) = 37.53045 39.95791 38.74418
# Shear Modulus (GPa) = 107.68239 23.08364 65.38302
#
# Velocity S-wave (km/s) = 7.26335 3.36292 5.65975
# Velocity P-wave (km/s) = 9.41960 5.88688 7.85443
#
# Compressibility (1/GPa) = 0.02664503
#
# Stress axis : x y z
#
# Youngs Moduli (GPa) = 96.05247 54.35117 43.60876
#
# Poissons Ratio (x) = 0.05702 0.19746
# Poissons Ratio (y) = 0.10077 0.30399
# Poissons Ratio (z) = 0.43493 0.37887
#
# Static dielectric constant tensor:
#      x y z
#    x 3.972040 0.000000 0.000000 
#    y 0.000000 3.715680 0.000000 
#    z 0.000000 0.000000 3.678430 
# 
# 
# High freq. dielectric constant tensor:
#      x y z
#    x 1.816580 0.000000 0.000000 
#    y 0.000000 1.804870 0.000000 
#    z 0.000000 0.000000 1.804070 
# 
# From -- ./inp_files/6440.got.cif
#   From: 2010.06.25/outbox.cif.g09.slc.cpg/sg58_4_cif.got.tgz:6440.got - 2010.06.26 21:38:00.
