data_PCOD8238741
_publ_section_title
;
Structure prediction by ZEFSAII (Michael W. Deem and Ramdas Pophale) SiO2 
 PCOD8238741
Probable space group: P N N M
;
_chemical_formula_sum "Si O2"
_cell_formula_units_Z 40
_cell_length_a 18.373775
_cell_length_b 12.310127
_cell_length_c 8.523283
_cell_angle_alpha 90.000000
_cell_angle_beta 90.000000
_cell_angle_gamma 90.000000
_cell_volume 1927.826012
_symmetry_space_group_name_H-M "P N N M"
_symmetry_group_IT_number 58
_symmetry_cell_setting 'orthorhombic'
loop_
_space_group_symop_operation_xyz
x,y,z
-x,-y,z
1/2+x,1/2-y,1/2-z
1/2-x,1/2+y,1/2-z
-x,-y,-z
x,y,-z
1/2-x,1/2+y,1/2+z
1/2+x,1/2-y,1/2+z
loop_
_atom_site_type_symbol
_atom_site_label
_atom_site_fract_x
_atom_site_fract_y
_atom_site_fract_z
Si Si1 0.148170 0.448124 0.182947
Si Si2 0.606182 0.809867 0.681587
Si Si3 0.690272 0.617019 0.817504
Si Si4 0.421514 0.545495 0.317949
Si Si5 0.548461 0.230214 0.819215
O O1 0.138317 0.573714 0.227142
O O2 0.228466 0.413159 0.234314
O O3 0.089114 0.381071 0.279804
O O4 0.134101 0.427999 0.000000
O O5 0.583283 0.804038 0.500000
O O6 0.667876 0.721294 0.716330
O O7 0.536502 0.783286 0.785688
O O8 0.639069 0.514541 0.783765
O O9 0.686077 0.646230 0.000000
O O10 0.500000 0.500000 0.267339
O O11 0.406225 0.523007 0.500000
O O12 0.417167 0.673392 0.283868
O O13 0.558790 0.260115 0.000000
#
# Coordination Sequence:
#
# PCOD8238741 Si02
#       5
#     8   8   8   8   8
#     4  10  25  45  65  93 132 172 211 260 322 386
#     4  11  23  43  67  92 128 173 215 261 320 383
#     4  11  24  42  65  97 130 166 213 267 320 377
#     4  11  23  41  66  94 126 170 214 259 319 382
#     4  12  25  41  67  98 128 165 216 270 319 376
#
# _framework density 20.748759
#
# number of rings (size 3 to 8) (size 9 to 14) (size 15 to 20)
#    0.000    1.000    2.000    4.200    2.800    6.400 
#    0.000    0.000    0.000    0.000    0.000    0.000 
#    0.000    0.000    0.000    0.000    0.000    0.000 
#
# Total GULP energy -496367.239292 kJ/mol
# GULP energy per Si atom -12409.180982 kJ/mol
# Density = 2.070153 g / cm^3
# Si number density = 20.748759 Si / 1000 Ang^3
#
#
#
# Elastic Constant Matrix: (Units=GPa)
#
#
# Indices 1 2 3 4 5 6 
#
# 1 57.4619 43.9701 12.8998 0.0000 0.0000 0.0000
# 2 43.9701 143.5079 20.2654 0.0000 0.0000 0.0000
# 3 12.8998 20.2654 46.9095 0.0000 0.0000 0.0000
# 4 0.0000 0.0000 0.0000 35.2707 0.0000 0.0000
# 5 0.0000 0.0000 0.0000 0.0000 32.0379 0.0000
# 6 0.0000 0.0000 0.0000 0.0000 0.0000 35.7961
#
#
#
# Elastic Compliance Matrix: (Units=1/GPa)
#
#
# Indices 1 2 3 4 5 6 
#
# 1 0.023270 -0.006631 -0.003535 0.000000 0.000000 0.000000
# 2 -0.006631 0.009310 -0.002199 0.000000 0.000000 0.000000
# 3 -0.003535 -0.002199 0.023240 0.000000 0.000000 0.000000
# 4 0.000000 0.000000 0.000000 0.028352 0.000000 0.000000
# 5 0.000000 0.000000 0.000000 0.000000 0.031213 0.000000
# 6 0.000000 0.000000 0.000000 0.000000 0.000000 0.027936
#
#
# Mechanical properties :
#
#
# Convention : Reuss Voigt Hill
#
# Bulk Modulus (GPa) = 32.16272 44.68332 38.42302
# Shear Modulus (GPa) = 28.02477 32.00385 30.01431
#
# Velocity S-wave (km/s) = 3.67914 3.93166 3.80749
# Velocity P-wave (km/s) = 5.79506 6.49560 6.15530
#
# Compressibility (1/GPa) = 0.03109190
#
# Stress axis : x y z
#
# Youngs Moduli (GPa) = 42.97340 107.40692 43.03010
#
# Poissons Ratio (x) = 0.71219 0.15209
# Poissons Ratio (y) = 0.28495 0.09461
# Poissons Ratio (z) = 0.15189 0.23616
#
# Static dielectric constant tensor:
#      x y z
#    x 3.775780 0.000000 0.000000 
#    y 0.000000 3.892140 0.000000 
#    z 0.000000 0.000000 3.695650 
# 
# 
# High freq. dielectric constant tensor:
#      x y z
#    x 1.815560 0.000000 0.000000 
#    y 0.000000 1.827890 0.000000 
#    z 0.000000 0.000000 1.813970 
# 
# From -- ./inp_files/3776.got.cif
#   From: 2010.06.25/outbox.cif.g09.slc.cpg/sg58_2_cif.got.tgz:3776.got - 2010.06.26 21:38:00.
