data_PCOD8238803
_publ_section_title
;
Structure prediction by ZEFSAII (Michael W. Deem and Ramdas Pophale) SiO2 
 PCOD8238803
Probable space group: P N N M
;
_chemical_formula_sum "Si O2"
_cell_formula_units_Z 64
_cell_length_a 9.709330
_cell_length_b 15.914521
_cell_length_c 21.732474
_cell_angle_alpha 90.000000
_cell_angle_beta 90.000000
_cell_angle_gamma 90.000000
_cell_volume 3358.087456
_symmetry_space_group_name_H-M "P N N M"
_symmetry_group_IT_number 58
_symmetry_cell_setting 'orthorhombic'
loop_
_space_group_symop_operation_xyz
x,y,z
-x,-y,z
1/2+x,1/2-y,1/2-z
1/2-x,1/2+y,1/2-z
-x,-y,-z
x,y,-z
1/2-x,1/2+y,1/2+z
1/2+x,1/2-y,1/2+z
loop_
_atom_site_type_symbol
_atom_site_label
_atom_site_fract_x
_atom_site_fract_y
_atom_site_fract_z
Si Si1 0.225342 0.593824 0.134297
Si Si2 0.531795 0.696836 0.281499
Si Si3 0.790799 0.077555 0.429520
Si Si4 0.280315 0.588269 0.275887
Si Si5 0.303618 0.901663 0.224296
Si Si6 0.960437 0.314809 0.332207
Si Si7 0.433433 0.852504 0.351803
Si Si8 0.045734 0.192219 0.429796
O O1 0.283601 0.504720 0.112595
O O2 0.233878 0.608352 0.206985
O O3 0.309165 0.668239 0.101095
O O4 0.062843 0.597221 0.119528
O O5 0.439122 0.613185 0.284742
O O6 0.690916 0.671125 0.285853
O O7 0.506926 0.741508 0.216558
O O8 0.486125 0.758863 0.336412
O O9 0.755005 0.055189 0.500000
O O10 0.684103 0.147820 0.404199
O O11 0.944658 0.112565 0.423947
O O12 0.264588 0.490602 0.290487
O O13 0.189637 0.645264 0.322094
O O14 0.425730 0.887723 0.175532
O O15 0.368942 0.899372 0.292443
O O16 0.974793 0.273711 0.399193
O O17 0.073212 0.216403 0.500000
#
# Coordination Sequence:
#
# PCOD8238803 Si02
#       8
#     8   8   8   8   8   8   8   8
#     4  12  22  35  56  85 119 159 196 237 285 344
#     4  11  21  35  55  83 115 150 190 240 290 345
#     4  11  24  39  57  83 120 162 200 233 276 350
#     4  12  22  34  58  87 118 152 188 244 297 351
#     4  11  22  36  55  84 115 150 189 240 300 350
#     4  11  21  37  57  84 115 152 194 241 296 345
#     4  11  23  36  57  81 117 155 194 241 288 340
#     4  11  24  42  61  84 119 163 206 242 283 347
#
# _framework density 19.058467
#
# number of rings (size 3 to 8) (size 9 to 14) (size 15 to 20)
#    0.000    0.750    5.000    5.625    0.000    3.500 
#    0.000    0.000    0.000    1.500    0.000    0.000 
#    0.000    6.000    0.000    0.000    0.000    0.000 
#
# Total GULP energy -793805.226038 kJ/mol
# GULP energy per Si atom -12403.206657 kJ/mol
# Density = 1.901509 g / cm^3
# Si number density = 19.058467 Si / 1000 Ang^3
#
#
#
# Elastic Constant Matrix: (Units=GPa)
#
#
# Indices 1 2 3 4 5 6 
#
# 1 87.0828 10.6086 13.4550 0.0000 0.0000 0.0000
# 2 10.6086 70.2860 23.0979 0.0000 0.0000 0.0000
# 3 13.4550 23.0979 64.1756 0.0000 0.0000 0.0000
# 4 0.0000 0.0000 0.0000 21.0404 0.0000 0.0000
# 5 0.0000 0.0000 0.0000 0.0000 23.0318 0.0000
# 6 0.0000 0.0000 0.0000 0.0000 0.0000 37.4671
#
#
#
# Elastic Compliance Matrix: (Units=1/GPa)
#
#
# Indices 1 2 3 4 5 6 
#
# 1 0.011944 -0.001111 -0.002104 0.000000 0.000000 0.000000
# 2 -0.001111 0.016240 -0.005612 0.000000 0.000000 0.000000
# 3 -0.002104 -0.005612 0.018043 0.000000 0.000000 0.000000
# 4 0.000000 0.000000 0.000000 0.047528 0.000000 0.000000
# 5 0.000000 0.000000 0.000000 0.000000 0.043418 0.000000
# 6 0.000000 0.000000 0.000000 0.000000 0.000000 0.026690
#
#
# Mechanical properties :
#
#
# Convention : Reuss Voigt Hill
#
# Bulk Modulus (GPa) = 34.99939 35.09637 35.04788
# Shear Modulus (GPa) = 26.17237 27.93338 27.05287
#
# Velocity S-wave (km/s) = 3.70978 3.83256 3.77167
# Velocity P-wave (km/s) = 6.06251 6.16764 6.11530
#
# Compressibility (1/GPa) = 0.02857193
#
# Stress axis : x y z
#
# Youngs Moduli (GPa) = 83.72531 61.57812 55.42243
#
# Poissons Ratio (x) = 0.06843 0.11662
# Poissons Ratio (y) = 0.09304 0.31103
# Poissons Ratio (z) = 0.17617 0.34557
#
# Static dielectric constant tensor:
#      x y z
#    x 3.740150 0.000000 0.000000 
#    y 0.000000 3.436760 0.000000 
#    z 0.000000 0.000000 3.302420 
# 
# 
# High freq. dielectric constant tensor:
#      x y z
#    x 1.762880 0.000000 0.000000 
#    y 0.000000 1.735490 0.000000 
#    z 0.000000 0.000000 1.701420 
# 
# From -- ./inp_files/31670.got.cif
#   From: 2010.06.25/outbox.cif.g09.slc.cpg/sg58_16_cif.got.tgz:31670.got - 2010.06.26 21:38:00.
