data_PCOD8238046
_publ_section_title
;
Structure prediction by ZEFSAII (Michael W. Deem and Ramdas Pophale) SiO2 
 PCOD8238046
Probable space group: P N N M
;
_chemical_formula_sum "Si O2"
_cell_formula_units_Z 64
_cell_length_a 30.967119
_cell_length_b 12.049254
_cell_length_c 8.575917
_cell_angle_alpha 90.000000
_cell_angle_beta 90.000000
_cell_angle_gamma 90.000000
_cell_volume 3199.937763
_symmetry_space_group_name_H-M "P N N M"
_symmetry_group_IT_number 58
_symmetry_cell_setting 'orthorhombic'
loop_
_space_group_symop_operation_xyz
x,y,z
-x,-y,z
1/2+x,1/2-y,1/2-z
1/2-x,1/2+y,1/2-z
-x,-y,-z
x,y,-z
1/2-x,1/2+y,1/2+z
1/2+x,1/2-y,1/2+z
loop_
_atom_site_type_symbol
_atom_site_label
_atom_site_fract_x
_atom_site_fract_y
_atom_site_fract_z
Si Si1 0.547901 0.502337 0.317755
Si Si2 0.077509 0.774213 0.320783
Si Si3 0.626157 0.097140 0.815376
Si Si4 0.544913 0.958596 0.183607
Si Si5 0.197701 0.996168 0.184416
Si Si6 0.122834 0.156242 0.185611
Si Si7 0.293071 0.051064 0.815234
Si Si8 0.666343 0.741844 0.683039
O O1 0.500000 0.500000 0.239808
O O2 0.543516 0.482656 0.500000
O O3 0.568294 0.622359 0.289501
O O4 0.579661 0.406795 0.250232
O O5 0.073063 0.810570 0.500000
O O6 0.046057 0.672341 0.279453
O O7 0.124736 0.727033 0.284765
O O8 0.624066 0.219515 0.746071
O O9 0.670751 0.038303 0.763518
O O10 0.585785 0.026251 0.746983
O O11 0.623877 0.106224 0.000000
O O12 0.500000 0.000000 0.258737
O O13 0.545443 0.979271 0.000000
O O14 0.246422 0.011069 0.243866
O O15 0.182622 0.876637 0.244002
O O16 0.165065 0.090464 0.249272
O O17 0.196807 0.999503 0.000000
O O18 0.122602 0.155812 0.000000
O O19 0.298526 0.165950 0.723640
O O20 0.294805 0.071483 0.000000
O O21 0.655713 0.740441 0.500000
#
# Coordination Sequence:
#
# PCOD8238046 Si02
#       8
#     8   8   8   8   8   8   8   8
#     4  10  22  40  60  83 117 155 190 237 293 344
#     4  11  21  37  62  87 113 148 194 243 285 338
#     4  10  21  37  57  81 114 149 184 231 284 335
#     4   9  19  36  56  80 112 147 181 227 287 335
#     4   9  20  38  59  80 112 152 184 230 287 336
#     4  10  21  39  57  79 114 152 187 225 282 344
#     4  10  21  39  59  83 114 148 189 237 287 333
#     4  11  21  38  62  85 114 152 193 235 289 347
#
# _framework density 20.000388999999998
#
# number of rings (size 3 to 8) (size 9 to 14) (size 15 to 20)
#    0.000    2.000    2.500    0.750    3.500    1.250 
#    0.000    1.250    0.000    1.875    0.000    0.000 
#    0.000    0.000    0.000    0.000    0.000    0.000 
#
# Total GULP energy -793540.819720 kJ/mol
# GULP energy per Si atom -12399.075308 kJ/mol
# Density = 1.995487 g / cm^3
# Si number density = 20.000389 Si / 1000 Ang^3
#
#
#
# Elastic Constant Matrix: (Units=GPa)
#
#
# Indices 1 2 3 4 5 6 
#
# 1 142.6378 47.3572 15.4433 0.0000 0.0000 0.0000
# 2 47.3572 126.9214 18.4869 0.0000 0.0000 0.0000
# 3 15.4433 18.4869 11.3116 0.0000 0.0000 0.0000
# 4 0.0000 0.0000 0.0000 33.0003 0.0000 0.0000
# 5 0.0000 0.0000 0.0000 0.0000 12.9563 0.0000
# 6 0.0000 0.0000 0.0000 0.0000 0.0000 33.4854
#
#
#
# Elastic Compliance Matrix: (Units=1/GPa)
#
#
# Indices 1 2 3 4 5 6 
#
# 1 0.008584 -0.001963 -0.008511 0.000000 0.000000 0.000000
# 2 -0.001963 0.010789 -0.014953 0.000000 0.000000 0.000000
# 3 -0.008511 -0.014953 0.124464 0.000000 0.000000 0.000000
# 4 0.000000 0.000000 0.000000 0.030303 0.000000 0.000000
# 5 0.000000 0.000000 0.000000 0.000000 0.077183 0.000000
# 6 0.000000 0.000000 0.000000 0.000000 0.000000 0.029864
#
#
# Mechanical properties :
#
#
# Convention : Reuss Voigt Hill
#
# Bulk Modulus (GPa) = 10.75475 49.27172 30.01324
# Shear Modulus (GPa) = 13.77278 29.19395 21.48337
#
# Velocity S-wave (km/s) = 2.62701 3.82471 3.28097
# Velocity P-wave (km/s) = 3.81976 6.64781 5.42144
#
# Compressibility (1/GPa) = 0.09298218
#
# Stress axis : x y z
#
# Youngs Moduli (GPa) = 116.49515 92.68306 8.03448
#
# Poissons Ratio (x) = 0.18196 0.06838
# Poissons Ratio (y) = 0.22871 0.12014
# Poissons Ratio (z) = 0.99148 1.38591
#
# Static dielectric constant tensor:
#      x y z
#    x 4.129330 0.000000 0.000000 
#    y 0.000000 3.681450 0.000000 
#    z 0.000000 0.000000 3.193940 
# 
# 
# High freq. dielectric constant tensor:
#      x y z
#    x 1.794430 0.000000 0.000000 
#    y 0.000000 1.791730 0.000000 
#    z 0.000000 0.000000 1.742910 
# 
# From -- ./inp_files/10992.got.cif
#   From: 2010.06.25/outbox.cif.g09.slc.cpg/sg58_6_cif.got.tgz:10992.got - 2010.06.26 21:38:00.
