data_PCOD8238151
_publ_section_title
;
Structure prediction by ZEFSAII (Michael W. Deem and Ramdas Pophale) SiO2 
 PCOD8238151
Probable space group: P N N M
;
_chemical_formula_sum "Si O2"
_cell_formula_units_Z 64
_cell_length_a 9.634398
_cell_length_b 14.217279
_cell_length_c 23.439026
_cell_angle_alpha 90.000000
_cell_angle_beta 90.000000
_cell_angle_gamma 90.000000
_cell_volume 3210.558813
_symmetry_space_group_name_H-M "P N N M"
_symmetry_group_IT_number 58
_symmetry_cell_setting 'orthorhombic'
loop_
_space_group_symop_operation_xyz
x,y,z
-x,-y,z
1/2+x,1/2-y,1/2-z
1/2-x,1/2+y,1/2-z
-x,-y,-z
x,y,-z
1/2-x,1/2+y,1/2+z
1/2+x,1/2-y,1/2+z
loop_
_atom_site_type_symbol
_atom_site_label
_atom_site_fract_x
_atom_site_fract_y
_atom_site_fract_z
Si Si1 0.221904 0.248427 0.066298
Si Si2 0.564106 0.326113 0.256092
Si Si3 0.365320 0.951393 0.149890
Si Si4 0.457939 0.797058 0.933688
Si Si5 0.612340 0.425053 0.369619
Si Si6 0.388546 0.621781 0.869684
Si Si7 0.793656 0.071862 0.372093
Si Si8 0.248226 0.844211 0.743565
O O1 0.379784 0.218603 0.078419
O O2 0.116628 0.173115 0.095203
O O3 0.201057 0.354746 0.091160
O O4 0.185803 0.251283 0.000000
O O5 0.575035 0.407005 0.303526
O O6 0.633708 0.360990 0.197567
O O7 0.646232 0.235172 0.277600
O O8 0.403896 0.297789 0.247748
O O9 0.413295 0.893837 0.094824
O O10 0.291403 0.886218 0.196066
O O11 0.500000 0.000000 0.178313
O O12 0.263485 0.030267 0.126076
O O13 0.361174 0.715303 0.906393
O O14 0.424065 0.802289 0.000000
O O15 0.500000 0.500000 0.394490
O O16 0.546041 0.594273 0.881564
O O17 0.281180 0.538802 0.889439
O O18 0.752468 0.077079 0.305469
#
# Coordination Sequence:
#
# PCOD8238151 Si02
#       8
#     8   8   8   8   8   8   8   8
#     4  10  21  38  59  84 118 160 208 258 304 360
#     4  11  22  37  62  89 128 157 196 249 311 371
#     4  12  24  38  60  89 122 162 206 246 306 368
#     4  10  21  38  58  86 119 159 209 257 301 359
#     4  12  24  40  60  88 124 160 202 253 308 369
#     4   9  18  33  57  85 118 154 192 245 308 364
#     4   9  18  34  56  86 117 153 194 246 306 364
#     4  11  22  38  61  92 124 161 197 251 309 371
#
# _framework density 19.934225000000001
#
# number of rings (size 3 to 8) (size 9 to 14) (size 15 to 20)
#    0.000    1.500    5.000    0.750    3.500    1.500 
#    0.000    2.500    0.000    0.000    0.000    0.000 
#    0.000    4.500    0.000    0.000    0.000    0.000 
#
# Total GULP energy -793450.490535 kJ/mol
# GULP energy per Si atom -12397.663915 kJ/mol
# Density = 1.988885 g / cm^3
# Si number density = 19.934225 Si / 1000 Ang^3
#
#
#
# Elastic Constant Matrix: (Units=GPa)
#
#
# Indices 1 2 3 4 5 6 
#
# 1 64.8142 32.6614 21.2099 0.0000 0.0000 0.0000
# 2 32.6614 103.2815 37.2777 0.0000 0.0000 0.0000
# 3 21.2099 37.2777 108.5509 0.0000 0.0000 0.0000
# 4 0.0000 0.0000 0.0000 19.6608 0.0000 0.0000
# 5 0.0000 0.0000 0.0000 0.0000 21.7407 0.0000
# 6 0.0000 0.0000 0.0000 0.0000 0.0000 36.6271
#
#
#
# Elastic Compliance Matrix: (Units=1/GPa)
#
#
# Indices 1 2 3 4 5 6 
#
# 1 0.018673 -0.005237 -0.001850 0.000000 0.000000 0.000000
# 2 -0.005237 0.012521 -0.003277 0.000000 0.000000 0.000000
# 3 -0.001850 -0.003277 0.010699 0.000000 0.000000 0.000000
# 4 0.000000 0.000000 0.000000 0.050863 0.000000 0.000000
# 5 0.000000 0.000000 0.000000 0.000000 0.045997 0.000000
# 6 0.000000 0.000000 0.000000 0.000000 0.000000 0.027302
#
#
# Mechanical properties :
#
#
# Convention : Reuss Voigt Hill
#
# Bulk Modulus (GPa) = 47.24688 50.99385 49.12037
# Shear Modulus (GPa) = 25.79472 27.97225 26.88348
#
# Velocity S-wave (km/s) = 3.60111 3.75003 3.67633
# Velocity P-wave (km/s) = 6.40652 6.66235 6.53569
#
# Compressibility (1/GPa) = 0.02116542
#
# Stress axis : x y z
#
# Youngs Moduli (GPa) = 53.55214 79.86476 93.46712
#
# Poissons Ratio (x) = 0.41829 0.17292
# Poissons Ratio (y) = 0.28048 0.30625
# Poissons Ratio (z) = 0.09907 0.26168
#
# Static dielectric constant tensor:
#      x y z
#    x 3.424890 0.000000 0.000000 
#    y 0.000000 3.939510 0.000000 
#    z 0.000000 0.000000 3.472620 
# 
# 
# High freq. dielectric constant tensor:
#      x y z
#    x 1.744100 0.000000 0.000000 
#    y 0.000000 1.789990 0.000000 
#    z 0.000000 0.000000 1.768560 
# 
# From -- ./inp_files/31622.got.cif
#   From: 2010.06.25/outbox.cif.g09.slc.cpg/sg58_16_cif.got.tgz:31622.got - 2010.06.26 21:38:00.
