data_PCOD8238553
_publ_section_title
;
Structure prediction by ZEFSAII (Michael W. Deem and Ramdas Pophale) SiO2 
 PCOD8238553
Probable space group: P N N M
;
_chemical_formula_sum "Si O2"
_cell_formula_units_Z 56
_cell_length_a 21.551133
_cell_length_b 14.449249
_cell_length_c 8.872138
_cell_angle_alpha 90.000000
_cell_angle_beta 90.000000
_cell_angle_gamma 90.000000
_cell_volume 2762.763251
_symmetry_space_group_name_H-M "P N N M"
_symmetry_group_IT_number 58
_symmetry_cell_setting 'orthorhombic'
loop_
_space_group_symop_operation_xyz
x,y,z
-x,-y,z
1/2+x,1/2-y,1/2-z
1/2-x,1/2+y,1/2-z
-x,-y,-z
x,y,-z
1/2-x,1/2+y,1/2+z
1/2+x,1/2-y,1/2+z
loop_
_atom_site_type_symbol
_atom_site_label
_atom_site_fract_x
_atom_site_fract_y
_atom_site_fract_z
Si Si1 0.993029 0.774126 0.822780
Si Si2 0.328184 0.945548 0.327049
Si Si3 0.098807 0.885162 0.324322
Si Si4 0.391232 0.577156 0.677285
Si Si5 0.544406 0.085332 0.825376
Si Si6 0.727626 0.705897 0.171522
Si Si7 0.239490 0.112260 0.675707
O O1 0.937043 0.840877 0.773196
O O2 0.977338 0.670667 0.774880
O O3 0.056101 0.804848 0.742570
O O4 0.003897 0.777138 0.000000
O O5 0.350030 0.956729 0.500000
O O6 0.386394 0.944478 0.217236
O O7 0.290803 0.850564 0.306163
O O8 0.285486 0.030692 0.276863
O O9 0.085743 0.894221 0.500000
O O10 0.170128 0.860506 0.289885
O O11 0.083212 0.982967 0.249013
O O12 0.390206 0.563593 0.500000
O O13 0.323291 0.603794 0.731666
O O14 0.500000 0.000000 0.789193
O O15 0.542013 0.113588 0.000000
O O16 0.727026 0.791704 0.285068
O O17 0.722232 0.742316 0.000000
O O18 0.223107 0.106650 0.500000
#
# Coordination Sequence:
#
# PCOD8238553 Si02
#       7
#     8   8   8   8   8   8   8
#     4  11  25  43  64  92 127 169 213 261 316 378
#     4  10  22  43  65  90 126 165 205 254 313 373
#     4  11  23  41  65  94 129 167 209 263 319 376
#     4  11  23  41  64  94 130 168 210 258 316 377
#     4  11  26  45  65  93 126 164 214 266 316 375
#     4  10  22  41  62  90 128 164 203 257 315 371
#     4  11  23  39  63  95 126 162 209 256 309 375
#
# _framework density 20.269560999999999
#
# number of rings (size 3 to 8) (size 9 to 14) (size 15 to 20)
#    0.000    1.286    1.429    3.429    2.000   11.429 
#    0.000    0.000    0.000    0.000    0.000    0.000 
#    0.000    0.000    0.000    0.000    0.000    0.000 
#
# Total GULP energy -694842.453880 kJ/mol
# GULP energy per Si atom -12407.900962 kJ/mol
# Density = 2.022343 g / cm^3
# Si number density = 20.269561 Si / 1000 Ang^3
#
#
#
# Elastic Constant Matrix: (Units=GPa)
#
#
# Indices 1 2 3 4 5 6 
#
# 1 108.1112 29.6773 41.9645 0.0000 0.0000 0.0000
# 2 29.6773 96.8010 30.8490 0.0000 0.0000 0.0000
# 3 41.9645 30.8490 62.2783 0.0000 0.0000 0.0000
# 4 0.0000 0.0000 0.0000 34.5292 0.0000 0.0000
# 5 0.0000 0.0000 0.0000 0.0000 36.9581 0.0000
# 6 0.0000 0.0000 0.0000 0.0000 0.0000 25.8672
#
#
#
# Elastic Compliance Matrix: (Units=1/GPa)
#
#
# Indices 1 2 3 4 5 6 
#
# 1 0.012680 -0.001383 -0.007859 0.000000 0.000000 0.000000
# 2 -0.001383 0.012418 -0.005219 0.000000 0.000000 0.000000
# 3 -0.007859 -0.005219 0.023938 0.000000 0.000000 0.000000
# 4 0.000000 0.000000 0.000000 0.028961 0.000000 0.000000
# 5 0.000000 0.000000 0.000000 0.000000 0.027058 0.000000
# 6 0.000000 0.000000 0.000000 0.000000 0.000000 0.038659
#
#
# Mechanical properties :
#
#
# Convention : Reuss Voigt Hill
#
# Bulk Modulus (GPa) = 49.71840 52.46357 51.09098
# Shear Modulus (GPa) = 27.88005 30.45086 29.16546
#
# Velocity S-wave (km/s) = 3.71275 3.88015 3.79737
# Velocity P-wave (km/s) = 6.55448 6.78330 6.66987
#
# Compressibility (1/GPa) = 0.02011328
#
# Stress axis : x y z
#
# Youngs Moduli (GPa) = 78.86500 80.53018 41.77495
#
# Poissons Ratio (x) = 0.11136 0.32831
# Poissons Ratio (y) = 0.10906 0.21803
# Poissons Ratio (z) = 0.61980 0.42030
#
# Static dielectric constant tensor:
#      x y z
#    x 3.759560 0.000000 0.000000 
#    y 0.000000 3.817030 0.000000 
#    z 0.000000 0.000000 3.688520 
# 
# 
# High freq. dielectric constant tensor:
#      x y z
#    x 1.801780 0.000000 0.000000 
#    y 0.000000 1.804380 0.000000 
#    z 0.000000 0.000000 1.796710 
# 
# From -- ./inp_files/9056.got.cif
#   From: 2010.06.25/outbox.cif.g09.slc.cpg/sg58_5_cif.got.tgz:9056.got - 2010.06.26 21:38:00.
