data_PCOD8238683
_publ_section_title
;
Structure prediction by ZEFSAII (Michael W. Deem and Ramdas Pophale) SiO2 
 PCOD8238683
Probable space group: P N N M
;
_chemical_formula_sum "Si O2"
_cell_formula_units_Z 48
_cell_length_a 9.847988
_cell_length_b 27.218135
_cell_length_c 8.608408
_cell_angle_alpha 90.000000
_cell_angle_beta 90.000000
_cell_angle_gamma 90.000000
_cell_volume 2307.430968
_symmetry_space_group_name_H-M "P N N M"
_symmetry_group_IT_number 58
_symmetry_cell_setting 'orthorhombic'
loop_
_space_group_symop_operation_xyz
x,y,z
-x,-y,z
1/2+x,1/2-y,1/2-z
1/2-x,1/2+y,1/2-z
-x,-y,-z
x,y,-z
1/2-x,1/2+y,1/2+z
1/2+x,1/2-y,1/2+z
loop_
_atom_site_type_symbol
_atom_site_label
_atom_site_fract_x
_atom_site_fract_y
_atom_site_fract_z
Si Si1 0.126899 0.717380 0.816686
Si Si2 0.070669 0.204050 0.317396
Si Si3 0.284920 0.045735 0.177830
Si Si4 0.749888 0.066157 0.821757
Si Si5 0.470140 0.591530 0.819764
Si Si6 0.498683 0.116001 0.318254
O O1 0.281535 0.720650 0.754346
O O2 0.055419 0.668053 0.753668
O O3 0.046058 0.765089 0.765089
O O4 0.132509 0.713882 0.000000
O O5 0.056616 0.212179 0.500000
O O6 0.047992 0.147858 0.270273
O O7 0.129667 0.058176 0.218034
O O8 0.384506 0.075057 0.290609
O O9 0.309776 0.988109 0.204674
O O10 0.315959 0.060065 0.000000
O O11 0.634658 0.104923 0.776383
O O12 0.877874 0.074208 0.711665
O O13 0.793070 0.074394 0.000000
O O14 0.435059 0.584071 0.000000
O O15 0.532896 0.117766 0.500000
#
# Coordination Sequence:
#
# PCOD8238683 Si02
#       6
#     8   8   8   8   8   8
#     4  10  23  43  64  91 124 158 201 253 305 363
#     4  10  23  43  64  91 124 158 201 253 305 363
#     4  11  23  41  64  91 126 165 206 255 310 365
#     4  11  25  41  60  93 130 163 206 257 306 365
#     4  11  23  42  65  91 125 164 208 256 305 365
#     4  11  23  42  65  91 125 164 208 256 305 365
#
# _framework density 20.802356
#
# number of rings (size 3 to 8) (size 9 to 14) (size 15 to 20)
#    0.000    1.333    1.667    3.000    2.333   10.000 
#    0.000    0.000    0.000    0.000    0.000    0.000 
#    0.000    0.000    0.000    0.000    0.000    0.000 
#
# Total GULP energy -595540.495978 kJ/mol
# GULP energy per Si atom -12407.093666 kJ/mol
# Density = 2.075501 g / cm^3
# Si number density = 20.802356 Si / 1000 Ang^3
#
#
#
# Elastic Constant Matrix: (Units=GPa)
#
#
# Indices 1 2 3 4 5 6 
#
# 1 61.2920 -4.1454 1.8657 0.0000 0.0000 0.0000
# 2 -4.1454 49.5605 25.2249 0.0000 0.0000 0.0000
# 3 1.8657 25.2249 35.6584 0.0000 0.0000 0.0000
# 4 0.0000 0.0000 0.0000 33.3316 0.0000 0.0000
# 5 0.0000 0.0000 0.0000 0.0000 4.9204 0.0000
# 6 0.0000 0.0000 0.0000 0.0000 0.0000 39.7170
#
#
#
# Elastic Compliance Matrix: (Units=1/GPa)
#
#
# Indices 1 2 3 4 5 6 
#
# 1 0.016597 0.002860 -0.002891 0.000000 0.000000 0.000000
# 2 0.002860 0.032022 -0.022802 0.000000 0.000000 0.000000
# 3 -0.002891 -0.022802 0.044326 0.000000 0.000000 0.000000
# 4 0.000000 0.000000 0.000000 0.030002 0.000000 0.000000
# 5 0.000000 0.000000 0.000000 0.000000 0.203234 0.000000
# 6 0.000000 0.000000 0.000000 0.000000 0.000000 0.025178
#
#
# Mechanical properties :
#
#
# Convention : Reuss Voigt Hill
#
# Bulk Modulus (GPa) = 21.15197 21.37790 21.26494
# Shear Modulus (GPa) = 12.11285 23.83153 17.97219
#
# Velocity S-wave (km/s) = 2.41567 3.38837 2.94249
# Velocity P-wave (km/s) = 4.23919 5.06034 4.66786
#
# Compressibility (1/GPa) = 0.04727692
#
# Stress axis : x y z
#
# Youngs Moduli (GPa) = 60.25259 31.22826 22.56030
#
# Poissons Ratio (x) = -0.08931 0.06523
# Poissons Ratio (y) = -0.17232 0.51443
# Poissons Ratio (z) = 0.17422 0.71208
#
# Static dielectric constant tensor:
#      x y z
#    x 3.841770 0.000000 0.000000 
#    y 0.000000 3.857550 0.000000 
#    z 0.000000 0.000000 3.668920 
# 
# 
# High freq. dielectric constant tensor:
#      x y z
#    x 1.827510 0.000000 0.000000 
#    y 0.000000 1.821190 0.000000 
#    z 0.000000 0.000000 1.809970 
# 
# From -- ./inp_files/3019.got.cif
#   From: 2010.06.25/outbox.cif.g09.slc.cpg/sg58_2_cif.got.tgz:3019.got - 2010.06.26 21:38:00.
