data_PCOD8238615
_publ_section_title
;
Structure prediction by ZEFSAII (Michael W. Deem and Ramdas Pophale) SiO2 
 PCOD8238615
Probable space group: P N N M
;
_chemical_formula_sum "Si O2"
_cell_formula_units_Z 36
_cell_length_a 8.910313
_cell_length_b 9.280497
_cell_length_c 20.111905
_cell_angle_alpha 90.000000
_cell_angle_beta 90.000000
_cell_angle_gamma 90.000000
_cell_volume 1663.096324
_symmetry_space_group_name_H-M "P N N M"
_symmetry_group_IT_number 58
_symmetry_cell_setting 'orthorhombic'
loop_
_space_group_symop_operation_xyz
x,y,z
-x,-y,z
1/2+x,1/2-y,1/2-z
1/2-x,1/2+y,1/2-z
-x,-y,-z
x,y,-z
1/2-x,1/2+y,1/2+z
1/2+x,1/2-y,1/2+z
loop_
_atom_site_type_symbol
_atom_site_label
_atom_site_fract_x
_atom_site_fract_y
_atom_site_fract_z
Si Si1 0.250876 0.796407 0.424229
Si Si2 0.957922 0.153732 0.693347
Si Si3 0.670466 0.522914 0.427976
Si Si4 0.208930 0.735457 0.181715
Si Si5 0.500000 0.000000 0.376740
O O1 0.195755 0.808912 0.500000
O O2 0.124956 0.865806 0.377264
O O3 0.263090 0.629204 0.402136
O O4 0.410343 0.880306 0.419169
O O5 0.847707 0.227789 0.745145
O O6 0.112198 0.237409 0.684226
O O7 0.000000 0.000000 0.723557
O O8 0.500000 0.500000 0.444315
O O9 0.745364 0.566412 0.500000
O O10 0.679552 0.645103 0.373273
O O11 0.127846 0.583789 0.165365
#
# Coordination Sequence:
#
# PCOD8238615 Si02
#       5
#     8   8   8   8   4
#     4  11  25  45  70 105 141 179 234 284 342 415
#     4  12  28  47  69 103 138 184 227 290 348 404
#     4  10  22  43  72 102 135 180 225 277 338 407
#     4  12  27  45  72  99 141 177 238 279 346 413
#     4  12  23  44  72 106 133 188 226 288 347 406
#
# _framework density 21.646372
#
# number of rings (size 3 to 8) (size 9 to 14) (size 15 to 20)
#    0.000    0.667    4.444    2.333    3.111    3.111 
#    0.000    2.222    0.000    0.000    0.000    0.000 
#    0.000    0.000    0.000    0.000    0.000    0.000 
#
# Total GULP energy -446228.087911 kJ/mol
# GULP energy per Si atom -12395.224664 kJ/mol
# Density = 2.159710 g / cm^3
# Si number density = 21.646372 Si / 1000 Ang^3
#
#
#
# Elastic Constant Matrix: (Units=GPa)
#
#
# Indices 1 2 3 4 5 6 
#
# 1 121.3055 20.5174 50.8050 0.0000 0.0000 0.0000
# 2 20.5174 95.6897 46.4960 0.0000 0.0000 0.0000
# 3 50.8050 46.4960 131.5721 0.0000 0.0000 0.0000
# 4 0.0000 0.0000 0.0000 39.8757 0.0000 0.0000
# 5 0.0000 0.0000 0.0000 0.0000 21.8122 0.0000
# 6 0.0000 0.0000 0.0000 0.0000 0.0000 29.8601
#
#
#
# Elastic Compliance Matrix: (Units=1/GPa)
#
#
# Indices 1 2 3 4 5 6 
#
# 1 0.009842 -0.000318 -0.003688 0.000000 0.000000 0.000000
# 2 -0.000318 0.012627 -0.004339 0.000000 0.000000 0.000000
# 3 -0.003688 -0.004339 0.010558 0.000000 0.000000 0.000000
# 4 0.000000 0.000000 0.000000 0.025078 0.000000 0.000000
# 5 0.000000 0.000000 0.000000 0.000000 0.045846 0.000000
# 6 0.000000 0.000000 0.000000 0.000000 0.000000 0.033489
#
#
# Mechanical properties :
#
#
# Convention : Reuss Voigt Hill
#
# Bulk Modulus (GPa) = 61.21463 64.91156 63.06310
# Shear Modulus (GPa) = 31.33281 33.69286 32.51284
#
# Velocity S-wave (km/s) = 3.80871 3.94955 3.87977
# Velocity P-wave (km/s) = 6.90525 7.13098 7.01903
#
# Compressibility (1/GPa) = 0.01633596
#
# Stress axis : x y z
#
# Youngs Moduli (GPa) = 101.60487 79.19392 94.71560
#
# Poissons Ratio (x) = 0.02521 0.34930
# Poissons Ratio (y) = 0.03234 0.41101
# Poissons Ratio (z) = 0.37471 0.34365
#
# Static dielectric constant tensor:
#      x y z
#    x 3.513120 0.000000 0.000000 
#    y 0.000000 3.883740 0.000000 
#    z 0.000000 0.000000 3.852350 
# 
# 
# High freq. dielectric constant tensor:
#      x y z
#    x 1.849390 0.000000 0.000000 
#    y 0.000000 1.860580 0.000000 
#    z 0.000000 0.000000 1.857120 
# 
# From -- ./inp_files/28547.got.cif
#   From: 2010.06.25/outbox.cif.g09.slc.cpg/sg58_15_cif.got.tgz:28547.got - 2010.06.26 21:38:00.
