data_PCOD8238338
_publ_section_title
;
Structure prediction by ZEFSAII (Michael W. Deem and Ramdas Pophale) SiO2 
 PCOD8238338
Probable space group: P N N M
;
_chemical_formula_sum "Si O2"
_cell_formula_units_Z 20
_cell_length_a 11.362277
_cell_length_b 8.328991
_cell_length_c 9.703050
_cell_angle_alpha 90.000000
_cell_angle_beta 90.000000
_cell_angle_gamma 90.000000
_cell_volume 918.260779
_symmetry_space_group_name_H-M "P N N M"
_symmetry_group_IT_number 58
_symmetry_cell_setting 'orthorhombic'
loop_
_space_group_symop_operation_xyz
x,y,z
-x,-y,z
1/2+x,1/2-y,1/2-z
1/2-x,1/2+y,1/2-z
-x,-y,-z
x,y,-z
1/2-x,1/2+y,1/2+z
1/2+x,1/2-y,1/2+z
loop_
_atom_site_type_symbol
_atom_site_label
_atom_site_fract_x
_atom_site_fract_y
_atom_site_fract_z
Si Si1 0.795427 0.795761 0.000000
Si Si2 0.532305 0.685175 0.000000
Si Si3 0.389219 0.383253 0.500000
Si Si4 0.514593 0.187375 0.708305
O O1 0.865039 0.742809 0.136539
O O2 0.671623 0.708537 0.000000
O O3 0.778272 0.993070 0.000000
O O4 0.500000 0.500000 0.000000
O O5 0.475037 0.768109 0.867615
O O6 0.500000 0.500000 0.500000
O O7 0.400293 0.273000 0.637177
O O8 0.500000 0.000000 0.687959
#
# Coordination Sequence:
#
# PCOD8238338 Si02
#       4
#     4   4   4   8
#     4  10  22  42  66  91 129 179 211 271 337 370
#     4  12  25  41  64  99 133 171 225 272 322 402
#     4   8  16  37  63  86 120 168 215 259 318 388
#     4  10  21  40  63  95 131 172 224 270 321 395
#
# _framework density 21.780303
#
# number of rings (size 3 to 8) (size 9 to 14) (size 15 to 20)
#    0.000    2.400    0.000    6.600    0.000    6.400 
#    0.000    8.000    0.000    0.000    0.000    0.000 
#    0.000    0.000    0.000    0.000    0.000    0.000 
#
# Total GULP energy -247899.459229 kJ/mol
# GULP energy per Si atom -12394.972961 kJ/mol
# Density = 2.173073 g / cm^3
# Si number density = 21.780303 Si / 1000 Ang^3
#
#
#
# Elastic Constant Matrix: (Units=GPa)
#
#
# Indices 1 2 3 4 5 6 
#
# 1 107.4605 44.6335 46.5565 0.0000 0.0000 0.0000
# 2 44.6335 208.9673 60.8144 0.0000 0.0000 0.0000
# 3 46.5565 60.8144 195.1029 0.0000 0.0000 0.0000
# 4 0.0000 0.0000 0.0000 8.3130 0.0000 0.0000
# 5 0.0000 0.0000 0.0000 0.0000 9.2981 0.0000
# 6 0.0000 0.0000 0.0000 0.0000 0.0000 35.9253
#
#
#
# Elastic Compliance Matrix: (Units=1/GPa)
#
#
# Indices 1 2 3 4 5 6 
#
# 1 0.010920 -0.001731 -0.002066 0.000000 0.000000 0.000000
# 2 -0.001731 0.005537 -0.001313 0.000000 0.000000 0.000000
# 3 -0.002066 -0.001313 0.006028 0.000000 0.000000 0.000000
# 4 0.000000 0.000000 0.000000 0.120293 0.000000 0.000000
# 5 0.000000 0.000000 0.000000 0.000000 0.107549 0.000000
# 6 0.000000 0.000000 0.000000 0.000000 0.000000 0.027836
#
#
# Mechanical properties :
#
#
# Convention : Reuss Voigt Hill
#
# Bulk Modulus (GPa) = 81.53544 90.61552 86.07548
# Shear Modulus (GPa) = 17.09569 34.67569 25.88569
#
# Velocity S-wave (km/s) = 2.80467 3.99440 3.45119
# Velocity P-wave (km/s) = 6.92856 7.93526 7.44893
#
# Compressibility (1/GPa) = 0.01226461
#
# Stress axis : x y z
#
# Youngs Moduli (GPa) = 91.57586 180.59442 165.89842
#
# Poissons Ratio (x) = 0.31262 0.34278
# Poissons Ratio (y) = 0.15853 0.21781
# Poissons Ratio (z) = 0.18921 0.23710
#
# Static dielectric constant tensor:
#      x y z
#    x 3.695380 0.000000 0.000000 
#    y 0.000000 4.847860 0.000000 
#    z 0.000000 0.000000 4.004720 
# 
# 
# High freq. dielectric constant tensor:
#      x y z
#    x 1.814140 0.000000 0.000000 
#    y 0.000000 1.882820 0.000000 
#    z 0.000000 0.000000 1.868930 
# 
# From -- ./inp_files/1566.got.cif
#   From: 2010.06.25/outbox.cif.g09.slc.cpg/sg58_1_cif.got.tgz:1566.got - 2010.06.26 21:38:00.
