data_PCOD8238679
_publ_section_title
;
Structure prediction by ZEFSAII (Michael W. Deem and Ramdas Pophale) SiO2 
 PCOD8238679
Probable space group: P N N M
;
_chemical_formula_sum "Si O2"
_cell_formula_units_Z 64
_cell_length_a 15.132313
_cell_length_b 23.924916
_cell_length_c 8.492566
_cell_angle_alpha 90.000000
_cell_angle_beta 90.000000
_cell_angle_gamma 90.000000
_cell_volume 3074.642798
_symmetry_space_group_name_H-M "P N N M"
_symmetry_group_IT_number 58
_symmetry_cell_setting 'orthorhombic'
loop_
_space_group_symop_operation_xyz
x,y,z
-x,-y,z
1/2+x,1/2-y,1/2-z
1/2-x,1/2+y,1/2-z
-x,-y,-z
x,y,-z
1/2-x,1/2+y,1/2+z
1/2+x,1/2-y,1/2+z
loop_
_atom_site_type_symbol
_atom_site_label
_atom_site_fract_x
_atom_site_fract_y
_atom_site_fract_z
Si Si1 0.905286 0.753912 0.818127
Si Si2 0.254990 0.443464 0.815782
Si Si3 0.747867 0.179247 0.816911
Si Si4 0.596032 0.976882 0.680922
Si Si5 0.667133 0.872332 0.818756
Si Si6 0.348713 0.632486 0.818956
Si Si7 0.598176 0.752528 0.183326
Si Si8 0.401914 0.521895 0.322377
O O1 0.836542 0.705491 0.771487
O O2 0.859785 0.813292 0.789052
O O3 0.995182 0.754024 0.719751
O O4 0.928965 0.746416 0.000000
O O5 0.256029 0.385867 0.720983
O O6 0.167690 0.477284 0.765637
O O7 0.340793 0.479661 0.774164
O O8 0.255780 0.429563 0.000000
O O9 0.840619 0.208356 0.773506
O O10 0.730718 0.187974 0.000000
O O11 0.611630 0.960034 0.500000
O O12 0.500000 0.000000 0.710640
O O13 0.598665 0.922172 0.790341
O O14 0.748606 0.887525 0.705586
O O15 0.624409 0.814509 0.763700
O O16 0.696627 0.869704 0.000000
O O17 0.409924 0.581915 0.762016
O O18 0.368779 0.646835 0.000000
O O19 0.614019 0.742303 0.000000
O O20 0.500000 0.500000 0.325193
O O21 0.364566 0.528302 0.500000
#
# Coordination Sequence:
#
# PCOD8238679 Si02
#       8
#     8   8   8   8   8   8   8   8
#     4  12  26  45  69  98 133 174 221 274 332 392
#     4  11  24  43  66  95 133 175 219 270 328 388
#     4  12  26  45  68  96 134 177 221 271 331 394
#     4  10  23  42  65  96 131 170 216 264 323 386
#     4  11  23  41  68  97 130 168 216 270 325 385
#     4  12  24  42  69  97 130 170 218 272 330 391
#     4  11  25  45  68  99 133 172 221 272 330 393
#     4  11  25  44  67  96 132 172 219 270 328 391
#
# _framework density 20.815425999999999
#
# number of rings (size 3 to 8) (size 9 to 14) (size 15 to 20)
#    0.000    0.750    2.500    4.875    3.500    3.250 
#    0.000    0.000    0.000    0.000    0.000    0.000 
#    0.000    0.000    0.000    0.000    0.000    0.000 
#
# Total GULP energy -793989.351139 kJ/mol
# GULP energy per Si atom -12406.083612 kJ/mol
# Density = 2.076805 g / cm^3
# Si number density = 20.815426 Si / 1000 Ang^3
#
#
#
# Elastic Constant Matrix: (Units=GPa)
#
#
# Indices 1 2 3 4 5 6 
#
# 1 97.7517 26.0159 11.2997 0.0000 0.0000 0.0000
# 2 26.0159 123.1010 27.3865 0.0000 0.0000 0.0000
# 3 11.2997 27.3865 81.1017 0.0000 0.0000 0.0000
# 4 0.0000 0.0000 0.0000 30.0877 0.0000 0.0000
# 5 0.0000 0.0000 0.0000 0.0000 9.7619 0.0000
# 6 0.0000 0.0000 0.0000 0.0000 0.0000 24.9231
#
#
#
# Elastic Compliance Matrix: (Units=1/GPa)
#
#
# Indices 1 2 3 4 5 6 
#
# 1 0.010887 -0.002123 -0.000800 0.000000 0.000000 0.000000
# 2 -0.002123 0.009197 -0.002810 0.000000 0.000000 0.000000
# 3 -0.000800 -0.002810 0.013391 0.000000 0.000000 0.000000
# 4 0.000000 0.000000 0.000000 0.033236 0.000000 0.000000
# 5 0.000000 0.000000 0.000000 0.000000 0.102439 0.000000
# 6 0.000000 0.000000 0.000000 0.000000 0.000000 0.040123
#
#
# Mechanical properties :
#
#
# Convention : Reuss Voigt Hill
#
# Bulk Modulus (GPa) = 45.43521 47.92872 46.68196
# Shear Modulus (GPa) = 21.92254 28.77135 25.34694
#
# Velocity S-wave (km/s) = 3.24880 3.72185 3.49334
# Velocity P-wave (km/s) = 5.99567 6.44555 6.22467
#
# Compressibility (1/GPa) = 0.02200936
#
# Stress axis : x y z
#
# Youngs Moduli (GPa) = 91.84850 108.72873 74.67964
#
# Poissons Ratio (x) = 0.23083 0.05975
# Poissons Ratio (y) = 0.19499 0.20984
# Poissons Ratio (z) = 0.07348 0.30552
#
# Static dielectric constant tensor:
#      x y z
#    x 3.736570 0.000000 0.000000 
#    y 0.000000 3.856840 0.000000 
#    z 0.000000 0.000000 3.842360 
# 
# 
# High freq. dielectric constant tensor:
#      x y z
#    x 1.821050 0.000000 0.000000 
#    y 0.000000 1.828910 0.000000 
#    z 0.000000 0.000000 1.823650 
# 
# From -- ./inp_files/6787.got.cif
#   From: 2010.06.25/outbox.cif.g09.slc.cpg/sg58_4_cif.got.tgz:6787.got - 2010.06.26 21:38:00.
