data_PCOD8238552
_publ_section_title
;
Structure prediction by ZEFSAII (Michael W. Deem and Ramdas Pophale) SiO2 
 PCOD8238552
Probable space group: P N N M
;
_chemical_formula_sum "Si O2"
_cell_formula_units_Z 48
_cell_length_a 8.188306
_cell_length_b 15.327087
_cell_length_c 19.682246
_cell_angle_alpha 90.000000
_cell_angle_beta 90.000000
_cell_angle_gamma 90.000000
_cell_volume 2470.178527
_symmetry_space_group_name_H-M "P N N M"
_symmetry_group_IT_number 58
_symmetry_cell_setting 'orthorhombic'
loop_
_space_group_symop_operation_xyz
x,y,z
-x,-y,z
1/2+x,1/2-y,1/2-z
1/2-x,1/2+y,1/2-z
-x,-y,-z
x,y,-z
1/2-x,1/2+y,1/2+z
1/2+x,1/2-y,1/2+z
loop_
_atom_site_type_symbol
_atom_site_label
_atom_site_fract_x
_atom_site_fract_y
_atom_site_fract_z
Si Si1 0.870387 0.428121 0.806967
Si Si2 0.396830 0.261150 0.711572
Si Si3 0.895128 0.415199 0.421159
Si Si4 0.881275 0.919123 0.184221
Si Si5 0.133429 0.074270 0.577815
Si Si6 0.454532 0.751316 0.149850
O O1 0.957954 0.334265 0.813511
O O2 0.729505 0.416602 0.751137
O O3 0.791286 0.454719 0.878829
O O4 0.000000 0.500000 0.783275
O O5 0.513671 0.331643 0.677400
O O6 0.406039 0.266321 0.793707
O O7 0.211397 0.277547 0.688627
O O8 0.855000 0.406588 0.500000
O O9 0.723750 0.425776 0.383573
O O10 0.000000 0.500000 0.404163
O O11 0.994550 0.330724 0.397751
O O12 0.000000 0.000000 0.190858
O O13 0.188305 0.084076 0.500000
O O14 0.063574 0.166040 0.603786
O O15 0.000000 0.000000 0.586894
#
# Coordination Sequence:
#
# PCOD8238552 Si02
#       6
#     8   8   8   8   8   8
#     4  11  24  38  62  91 122 159 204 256 306 361
#     4  11  22  38  63  92 127 154 201 263 297 359
#     4  11  24  43  63  88 125 165 207 255 311 368
#     4  12  24  39  62  93 122 161 209 256 308 364
#     4  10  22  41  62  88 123 162 201 245 301 367
#     4  11  21  39  62  93 123 163 205 251 307 364
#
# _framework density 19.431792999999999
#
# number of rings (size 3 to 8) (size 9 to 14) (size 15 to 20)
#    0.000    1.000    5.000    2.500    2.333    2.000 
#    0.000    4.167    0.000    0.000    0.000    0.000 
#    0.000    0.000    0.000    0.000    0.000    0.000 
#
# Total GULP energy -595376.218759 kJ/mol
# GULP energy per Si atom -12403.671224 kJ/mol
# Density = 1.938757 g / cm^3
# Si number density = 19.431793 Si / 1000 Ang^3
#
#
#
# Elastic Constant Matrix: (Units=GPa)
#
#
# Indices 1 2 3 4 5 6 
#
# 1 91.5078 60.0281 52.9046 0.0000 0.0000 0.0000
# 2 60.0281 124.0572 44.6759 0.0000 0.0000 0.0000
# 3 52.9046 44.6759 117.7141 0.0000 0.0000 0.0000
# 4 0.0000 0.0000 0.0000 37.6737 0.0000 0.0000
# 5 0.0000 0.0000 0.0000 0.0000 36.8019 0.0000
# 6 0.0000 0.0000 0.0000 0.0000 0.0000 34.0766
#
#
#
# Elastic Compliance Matrix: (Units=1/GPa)
#
#
# Indices 1 2 3 4 5 6 
#
# 1 0.018929 -0.007061 -0.005828 0.000000 0.000000 0.000000
# 2 -0.007061 0.011971 -0.001370 0.000000 0.000000 0.000000
# 3 -0.005828 -0.001370 0.011634 0.000000 0.000000 0.000000
# 4 0.000000 0.000000 0.000000 0.026544 0.000000 0.000000
# 5 0.000000 0.000000 0.000000 0.000000 0.027172 0.000000
# 6 0.000000 0.000000 0.000000 0.000000 0.000000 0.029346
#
#
# Mechanical properties :
#
#
# Convention : Reuss Voigt Hill
#
# Bulk Modulus (GPa) = 71.33933 72.05512 71.69723
# Shear Modulus (GPa) = 31.48934 33.42182 32.45558
#
# Velocity S-wave (km/s) = 4.02992 4.15173 4.09128
# Velocity P-wave (km/s) = 7.64500 7.75526 7.70033
#
# Compressibility (1/GPa) = 0.01401751
#
# Stress axis : x y z
#
# Youngs Moduli (GPa) = 52.82957 83.53843 85.95358
#
# Poissons Ratio (x) = 0.58982 0.50090
# Poissons Ratio (y) = 0.37300 0.11775
# Poissons Ratio (z) = 0.30787 0.11444
#
# Static dielectric constant tensor:
#      x y z
#    x 3.542630 0.000000 0.000000 
#    y 0.000000 3.816320 0.000000 
#    z 0.000000 0.000000 3.620640 
# 
# 
# High freq. dielectric constant tensor:
#      x y z
#    x 1.753670 0.000000 0.000000 
#    y 0.000000 1.779470 0.000000 
#    z 0.000000 0.000000 1.756090 
# 
# From -- ./inp_files/25311.got.cif
#   From: 2010.06.25/outbox.cif.g09.slc.cpg/sg58_13_cif.got.tgz:25311.got - 2010.06.26 21:38:00.
