data_PCOD8238131
_publ_section_title
;
Structure prediction by ZEFSAII (Michael W. Deem and Ramdas Pophale) SiO2 
 PCOD8238131
Probable space group: P N N M
;
_chemical_formula_sum "Si O2"
_cell_formula_units_Z 64
_cell_length_a 27.603489
_cell_length_b 12.639899
_cell_length_c 9.387771
_cell_angle_alpha 90.000000
_cell_angle_beta 90.000000
_cell_angle_gamma 90.000000
_cell_volume 3275.443179
_symmetry_space_group_name_H-M "P N N M"
_symmetry_group_IT_number 58
_symmetry_cell_setting 'orthorhombic'
loop_
_space_group_symop_operation_xyz
x,y,z
-x,-y,z
1/2+x,1/2-y,1/2-z
1/2-x,1/2+y,1/2-z
-x,-y,-z
x,y,-z
1/2-x,1/2+y,1/2+z
1/2+x,1/2-y,1/2+z
loop_
_atom_site_type_symbol
_atom_site_label
_atom_site_fract_x
_atom_site_fract_y
_atom_site_fract_z
Si Si1 0.040421 0.744195 0.161823
Si Si2 0.300009 0.305685 0.168122
Si Si3 0.156272 0.027713 0.665933
Si Si4 0.448243 0.448705 0.164373
Si Si5 0.622456 0.086613 0.660742
Si Si6 0.196189 0.226251 0.835633
Si Si7 0.140417 0.645111 0.157247
Si Si8 0.028693 0.392849 0.664372
O O1 0.082348 0.656437 0.167851
O O2 0.994261 0.703210 0.247892
O O3 0.060502 0.849792 0.234042
O O4 0.024582 0.768445 0.000000
O O5 0.318292 0.420006 0.223078
O O6 0.246177 0.277173 0.221423
O O7 0.334884 0.214371 0.223306
O O8 0.303761 0.304382 0.000000
O O9 0.167371 0.043928 0.500000
O O10 0.097857 0.025823 0.692376
O O11 0.180999 0.123446 0.748469
O O12 0.500000 0.500000 0.203864
O O13 0.448030 0.411636 0.000000
O O14 0.600482 0.089415 0.500000
O O15 0.656684 0.184711 0.687721
O O16 0.582468 0.090959 0.781527
O O17 0.652812 0.978262 0.681273
O O18 0.201065 0.192902 0.000000
O O19 0.158084 0.681694 0.000000
O O20 0.029532 0.359466 0.500000
O O21 0.000000 0.500000 0.690152
#
# Coordination Sequence:
#
# PCOD8238131 Si02
#       8
#     8   8   8   8   8   8   8   8
#     4  11  22  37  59  88 120 158 203 247 298 359
#     4  10  22  41  64  88 117 156 201 249 305 359
#     4  10  22  41  64  89 123 162 201 250 305 363
#     4  10  22  40  61  87 121 161 202 249 302 360
#     4  10  22  41  61  85 122 162 200 247 304 362
#     4  10  24  42  62  89 121 158 200 250 302 358
#     4  10  21  37  62  91 119 154 199 249 299 360
#     4  11  23  37  57  86 121 159 198 244 295 354
#
# _framework density 19.539339999999999
#
# number of rings (size 3 to 8) (size 9 to 14) (size 15 to 20)
#    0.000    1.750    2.500    0.750    3.500    3.750 
#    0.000    0.000    0.000    0.000    0.000    0.000 
#    0.000    0.000    0.000    0.000    0.000    0.000 
#
# Total GULP energy -793679.680214 kJ/mol
# GULP energy per Si atom -12401.245003 kJ/mol
# Density = 1.949487 g / cm^3
# Si number density = 19.539340 Si / 1000 Ang^3
#
#
#
# Elastic Constant Matrix: (Units=GPa)
#
#
# Indices 1 2 3 4 5 6 
#
# 1 110.9910 47.9186 43.8543 0.0000 0.0000 0.0000
# 2 47.9186 119.8622 51.4129 0.0000 0.0000 0.0000
# 3 43.8543 51.4129 68.0999 0.0000 0.0000 0.0000
# 4 0.0000 0.0000 0.0000 28.7780 0.0000 0.0000
# 5 0.0000 0.0000 0.0000 0.0000 93.0050 0.0000
# 6 0.0000 0.0000 0.0000 0.0000 0.0000 29.9656
#
#
#
# Elastic Compliance Matrix: (Units=1/GPa)
#
#
# Indices 1 2 3 4 5 6 
#
# 1 0.012493 -0.002283 -0.006322 0.000000 0.000000 0.000000
# 2 -0.002283 0.012756 -0.008160 0.000000 0.000000 0.000000
# 3 -0.006322 -0.008160 0.024916 0.000000 0.000000 0.000000
# 4 0.000000 0.000000 0.000000 0.034749 0.000000 0.000000
# 5 0.000000 0.000000 0.000000 0.000000 0.010752 0.000000
# 6 0.000000 0.000000 0.000000 0.000000 0.000000 0.033372
#
#
# Mechanical properties :
#
#
# Convention : Reuss Voigt Hill
#
# Bulk Modulus (GPa) = 60.11252 65.03607 62.57429
# Shear Modulus (GPa) = 29.74222 40.73420 35.23821
#
# Velocity S-wave (km/s) = 3.90573 4.57084 4.25131
# Velocity P-wave (km/s) = 7.15341 7.82392 7.49616
#
# Compressibility (1/GPa) = 0.01663547
#
# Stress axis : x y z
#
# Youngs Moduli (GPa) = 80.04378 78.39668 40.13530
#
# Poissons Ratio (x) = 0.17897 0.25372
# Poissons Ratio (y) = 0.18274 0.32750
# Poissons Ratio (z) = 0.50601 0.63971
#
# Static dielectric constant tensor:
#      x y z
#    x 3.679730 0.000000 0.000000 
#    y 0.000000 3.524710 0.000000 
#    z 0.000000 0.000000 3.544150 
# 
# 
# High freq. dielectric constant tensor:
#      x y z
#    x 1.761980 0.000000 0.000000 
#    y 0.000000 1.764620 0.000000 
#    z 0.000000 0.000000 1.759200 
# 
# From -- ./inp_files/10982.got.cif
#   From: 2010.06.25/outbox.cif.g09.slc.cpg/sg58_6_cif.got.tgz:10982.got - 2010.06.26 21:38:00.
