data_PCOD8238143
_publ_section_title
;
Structure prediction by ZEFSAII (Michael W. Deem and Ramdas Pophale) SiO2 
 PCOD8238143
Probable space group: P N N M
;
_chemical_formula_sum "Si O2"
_cell_formula_units_Z 56
_cell_length_a 17.607500
_cell_length_b 12.759710
_cell_length_c 12.805801
_cell_angle_alpha 90.000000
_cell_angle_beta 90.000000
_cell_angle_gamma 90.000000
_cell_volume 2877.035692
_symmetry_space_group_name_H-M "P N N M"
_symmetry_group_IT_number 58
_symmetry_cell_setting 'orthorhombic'
loop_
_space_group_symop_operation_xyz
x,y,z
-x,-y,z
1/2+x,1/2-y,1/2-z
1/2-x,1/2+y,1/2-z
-x,-y,-z
x,y,-z
1/2-x,1/2+y,1/2+z
1/2+x,1/2-y,1/2+z
loop_
_atom_site_type_symbol
_atom_site_label
_atom_site_fract_x
_atom_site_fract_y
_atom_site_fract_z
Si Si1 0.547941 0.248996 0.211395
Si Si2 0.582974 0.019184 0.265241
Si Si3 0.698686 0.276484 0.116752
Si Si4 0.031577 0.884168 0.877306
Si Si5 0.266888 0.001961 0.383905
Si Si6 0.684982 0.656946 0.744468
Si Si7 0.397503 0.179174 0.121397
O O1 0.584727 0.134822 0.219532
O O2 0.617071 0.314354 0.161871
O O3 0.523550 0.299925 0.321699
O O4 0.475919 0.243836 0.134257
O O5 0.645557 0.012580 0.354253
O O6 0.500000 0.000000 0.316436
O O7 0.597384 0.935740 0.172502
O O8 0.754026 0.374874 0.120215
O O9 0.739639 0.183956 0.179785
O O10 0.686226 0.234876 0.000000
O O11 0.116183 0.872227 0.832468
O O12 0.032474 0.858627 0.000000
O O13 0.000000 0.000000 0.854731
O O14 0.255314 0.956976 0.500000
O O15 0.206068 0.945133 0.310626
O O16 0.667433 0.754099 0.821116
O O17 0.377247 0.166407 0.000000
#
# Coordination Sequence:
#
# PCOD8238143 Si02
#       7
#     8   8   8   8   8   8   8
#     4  10  21  38  60  87 119 152 200 246 292 356
#     4  10  21  38  57  86 120 159 197 246 289 353
#     4  11  22  37  59  86 117 156 198 243 299 356
#     4  10  22  41  64  89 119 158 204 254 305 358
#     4  11  23  39  59  87 122 158 196 247 301 353
#     4  11  21  40  62  85 122 157 199 250 303 362
#     4  10  21  38  61  87 117 156 199 247 300 350
#
# _framework density 19.464478
#
# number of rings (size 3 to 8) (size 9 to 14) (size 15 to 20)
#    0.000    1.571    2.857    2.143    0.000    4.000 
#    0.000    0.000    0.000    6.857    0.000    0.000 
#    0.000    0.000    0.000    0.000    0.000    0.000 
#
# Total GULP energy -694418.903700 kJ/mol
# GULP energy per Si atom -12400.337566 kJ/mol
# Density = 1.942018 g / cm^3
# Si number density = 19.464478 Si / 1000 Ang^3
#
#
#
# Elastic Constant Matrix: (Units=GPa)
#
#
# Indices 1 2 3 4 5 6 
#
# 1 100.6088 11.4659 46.4998 0.0000 0.0000 0.0000
# 2 11.4659 66.9749 35.8255 0.0000 0.0000 0.0000
# 3 46.4998 35.8255 131.9207 0.0000 0.0000 0.0000
# 4 0.0000 0.0000 0.0000 27.5250 0.0000 0.0000
# 5 0.0000 0.0000 0.0000 0.0000 26.9789 0.0000
# 6 0.0000 0.0000 0.0000 0.0000 0.0000 26.3766
#
#
#
# Elastic Compliance Matrix: (Units=1/GPa)
#
#
# Indices 1 2 3 4 5 6 
#
# 1 0.011877 0.000241 -0.004252 0.000000 0.000000 0.000000
# 2 0.000241 0.017473 -0.004830 0.000000 0.000000 0.000000
# 3 -0.004252 -0.004830 0.010391 0.000000 0.000000 0.000000
# 4 0.000000 0.000000 0.000000 0.036331 0.000000 0.000000
# 5 0.000000 0.000000 0.000000 0.000000 0.037066 0.000000
# 6 0.000000 0.000000 0.000000 0.000000 0.000000 0.037912
#
#
# Mechanical properties :
#
#
# Convention : Reuss Voigt Hill
#
# Bulk Modulus (GPa) = 45.33255 54.12075 49.72665
# Shear Modulus (GPa) = 28.39525 29.89031 29.14278
#
# Velocity S-wave (km/s) = 3.82360 3.92297 3.87360
# Velocity P-wave (km/s) = 6.54474 6.95592 6.75346
#
# Compressibility (1/GPa) = 0.02205921
#
# Stress axis : x y z
#
# Youngs Moduli (GPa) = 84.19483 57.22982 96.23911
#
# Poissons Ratio (x) = -0.01380 0.40921
# Poissons Ratio (y) = -0.02030 0.46485
# Poissons Ratio (z) = 0.35799 0.27643
#
# Static dielectric constant tensor:
#      x y z
#    x 3.635420 0.000000 0.000000 
#    y 0.000000 3.517280 0.000000 
#    z 0.000000 0.000000 3.477610 
# 
# 
# High freq. dielectric constant tensor:
#      x y z
#    x 1.771600 0.000000 0.000000 
#    y 0.000000 1.759160 0.000000 
#    z 0.000000 0.000000 1.752400 
# 
# From -- ./inp_files/15697.got.cif
#   From: 2010.06.25/outbox.cif.g09.slc.cpg/sg58_8_cif.got.tgz:15697.got - 2010.06.26 21:38:00.
