data_PCOD8238241
_publ_section_title
;
Structure prediction by ZEFSAII (Michael W. Deem and Ramdas Pophale) SiO2 
 PCOD8238241
Probable space group: P N N M
;
_chemical_formula_sum "Si O2"
_cell_formula_units_Z 48
_cell_length_a 10.725370
_cell_length_b 9.387575
_cell_length_c 23.102138
_cell_angle_alpha 90.000000
_cell_angle_beta 90.000000
_cell_angle_gamma 90.000000
_cell_volume 2326.043738
_symmetry_space_group_name_H-M "P N N M"
_symmetry_group_IT_number 58
_symmetry_cell_setting 'orthorhombic'
loop_
_space_group_symop_operation_xyz
x,y,z
-x,-y,z
1/2+x,1/2-y,1/2-z
1/2-x,1/2+y,1/2-z
-x,-y,-z
x,y,-z
1/2-x,1/2+y,1/2+z
1/2+x,1/2-y,1/2+z
loop_
_atom_site_type_symbol
_atom_site_label
_atom_site_fract_x
_atom_site_fract_y
_atom_site_fract_z
Si Si1 0.471329 0.345165 0.636438
Si Si2 0.418783 0.863442 0.270453
Si Si3 0.685643 0.589762 0.152266
Si Si4 0.721824 0.111537 0.931425
Si Si5 0.922391 0.784496 0.653690
Si Si6 0.206224 0.201852 0.934736
O O1 0.500000 0.500000 0.664577
O O2 0.495992 0.231120 0.686793
O O3 0.335780 0.327513 0.607575
O O4 0.565135 0.327236 0.583302
O O5 0.286730 0.906217 0.297240
O O6 0.373286 0.785284 0.212565
O O7 0.500000 0.000000 0.253657
O O8 0.650820 0.428361 0.139036
O O9 0.566448 0.685424 0.167620
O O10 0.741624 0.658419 0.095153
O O11 0.598762 0.181588 0.902206
O O12 0.712664 0.941067 0.923805
O O13 0.732973 0.151007 0.000000
O O14 0.205952 0.247272 0.000000
#
# Coordination Sequence:
#
# PCOD8238241 Si02
#       6
#     8   8   8   8   8   8
#     4   9  19  37  63  96 127 165 210 263 318 365
#     4  11  25  40  66  91 122 161 213 263 313 374
#     4  10  25  43  59  89 124 163 205 253 318 381
#     4  10  21  38  64  95 129 168 213 261 311 374
#     4  11  26  41  61  88 126 165 205 253 320 380
#     4   9  19  38  64  92 125 166 214 263 307 364
#
# _framework density 20.635898000000001
#
# number of rings (size 3 to 8) (size 9 to 14) (size 15 to 20)
#    0.000    2.000    0.000    1.500    9.333    4.667 
#    0.000    3.333    0.000    5.500    0.000    0.000 
#    0.000    0.000    0.000    0.000    0.000    0.000 
#
# Total GULP energy -595090.582788 kJ/mol
# GULP energy per Si atom -12397.720475 kJ/mol
# Density = 2.058893 g / cm^3
# Si number density = 20.635898 Si / 1000 Ang^3
#
#
#
# Elastic Constant Matrix: (Units=GPa)
#
#
# Indices 1 2 3 4 5 6 
#
# 1 72.2670 37.6247 22.5989 0.0000 0.0000 0.0000
# 2 37.6247 78.0016 26.1528 0.0000 0.0000 0.0000
# 3 22.5989 26.1528 87.7545 0.0000 0.0000 0.0000
# 4 0.0000 0.0000 0.0000 16.0532 0.0000 0.0000
# 5 0.0000 0.0000 0.0000 0.0000 3.8589 0.0000
# 6 0.0000 0.0000 0.0000 0.0000 0.0000 26.5580
#
#
#
# Elastic Compliance Matrix: (Units=1/GPa)
#
#
# Indices 1 2 3 4 5 6 
#
# 1 0.018919 -0.008324 -0.002391 0.000000 0.000000 0.000000
# 2 -0.008324 0.017906 -0.003193 0.000000 0.000000 0.000000
# 3 -0.002391 -0.003193 0.012963 0.000000 0.000000 0.000000
# 4 0.000000 0.000000 0.000000 0.062293 0.000000 0.000000
# 5 0.000000 0.000000 0.000000 0.000000 0.259142 0.000000
# 6 0.000000 0.000000 0.000000 0.000000 0.000000 0.037653
#
#
# Mechanical properties :
#
#
# Convention : Reuss Voigt Hill
#
# Bulk Modulus (GPa) = 45.51339 45.64177 45.57758
# Shear Modulus (GPa) = 11.26084 19.40379 15.33231
#
# Velocity S-wave (km/s) = 2.33854 3.06975 2.72875
# Velocity P-wave (km/s) = 5.42172 5.89323 5.66238
#
# Compressibility (1/GPa) = 0.02197155
#
# Stress axis : x y z
#
# Youngs Moduli (GPa) = 52.85649 55.84764 77.14396
#
# Poissons Ratio (x) = 0.46488 0.18448
# Poissons Ratio (y) = 0.43998 0.24630
# Poissons Ratio (z) = 0.12640 0.17831
#
# Static dielectric constant tensor:
#      x y z
#    x 3.819310 0.000000 0.000000 
#    y 0.000000 3.944170 0.000000 
#    z 0.000000 0.000000 3.623110 
# 
# 
# High freq. dielectric constant tensor:
#      x y z
#    x 1.810190 0.000000 0.000000 
#    y 0.000000 1.813210 0.000000 
#    z 0.000000 0.000000 1.806410 
# 
# From -- ./inp_files/31483.got.cif
#   From: 2010.06.25/outbox.cif.g09.slc.cpg/sg58_16_cif.got.tgz:31483.got - 2010.06.26 21:38:00.
