data_PCOD8238040
_publ_section_title
;
Structure prediction by ZEFSAII (Michael W. Deem and Ramdas Pophale) SiO2 
 PCOD8238040
Probable space group: P N N M
;
_chemical_formula_sum "Si O2"
_cell_formula_units_Z 56
_cell_length_a 14.647913
_cell_length_b 21.465530
_cell_length_c 9.013238
_cell_angle_alpha 90.000000
_cell_angle_beta 90.000000
_cell_angle_gamma 90.000000
_cell_volume 2833.989304
_symmetry_space_group_name_H-M "P N N M"
_symmetry_group_IT_number 58
_symmetry_cell_setting 'orthorhombic'
loop_
_space_group_symop_operation_xyz
x,y,z
-x,-y,z
1/2+x,1/2-y,1/2-z
1/2-x,1/2+y,1/2-z
-x,-y,-z
x,y,-z
1/2-x,1/2+y,1/2+z
1/2+x,1/2-y,1/2+z
loop_
_atom_site_type_symbol
_atom_site_label
_atom_site_fract_x
_atom_site_fract_y
_atom_site_fract_z
Si Si1 0.670295 0.214930 0.672305
Si Si2 0.653445 0.904814 0.326297
Si Si3 0.011925 0.930144 0.824435
Si Si4 0.670252 0.360727 0.671665
Si Si5 0.202530 0.877675 0.827290
Si Si6 0.137261 0.471596 0.333806
Si Si7 0.512295 0.144250 0.830312
O O1 0.663640 0.198157 0.500000
O O2 0.677319 0.287841 0.701259
O O3 0.760205 0.182314 0.739415
O O4 0.578100 0.192804 0.750570
O O5 0.647161 0.894238 0.500000
O O6 0.755664 0.895342 0.270420
O O7 0.586188 0.855171 0.248035
O O8 0.623882 0.974804 0.286376
O O9 0.103897 0.897475 0.763098
O O10 0.927699 0.886781 0.776791
O O11 0.021638 0.935036 0.000000
O O12 0.000000 0.000000 0.758490
O O13 0.687618 0.377255 0.500000
O O14 0.268903 0.935875 0.801275
O O15 0.199172 0.859057 0.000000
O O16 0.139389 0.500434 0.500000
O O17 0.052441 0.425150 0.318797
O O18 0.501193 0.165413 0.000000
#
# Coordination Sequence:
#
# PCOD8238040 Si02
#       7
#     8   8   8   8   8   8   8
#     4  10  21  37  56  82 114 146 184 230 278 330
#     4  12  24  35  53  82 113 145 183 230 279 327
#     4   9  17  33  59  85 106 137 187 238 278 326
#     4  10  22  39  57  79 111 149 188 232 282 336
#     4   9  18  34  59  85 109 145 187 227 277 339
#     4   9  18  34  56  82 112 145 180 219 272 339
#     4  10  21  38  60  82 109 147 185 224 274 336
#
# _framework density 19.76013
#
# number of rings (size 3 to 8) (size 9 to 14) (size 15 to 20)
#    0.000    2.143    0.000    4.286    0.000    9.143 
#    0.000    2.143    0.000    1.714    0.000    0.000 
#    0.000    0.000    0.000    0.000    0.000    0.000 
#
# Total GULP energy -694571.819648 kJ/mol
# GULP energy per Si atom -12403.068208 kJ/mol
# Density = 1.971516 g / cm^3
# Si number density = 19.760130 Si / 1000 Ang^3
#
#
#
# Elastic Constant Matrix: (Units=GPa)
#
#
# Indices 1 2 3 4 5 6 
#
# 1 133.1603 28.2592 37.2617 0.0000 0.0000 0.0000
# 2 28.2592 72.8034 35.9843 0.0000 0.0000 0.0000
# 3 37.2617 35.9843 91.2846 0.0000 0.0000 0.0000
# 4 0.0000 0.0000 0.0000 27.1224 0.0000 0.0000
# 5 0.0000 0.0000 0.0000 0.0000 26.4656 0.0000
# 6 0.0000 0.0000 0.0000 0.0000 0.0000 17.5152
#
#
#
# Elastic Compliance Matrix: (Units=1/GPa)
#
#
# Indices 1 2 3 4 5 6 
#
# 1 0.008710 -0.002016 -0.002761 0.000000 0.000000 0.000000
# 2 -0.002016 0.017526 -0.006086 0.000000 0.000000 0.000000
# 3 -0.002761 -0.006086 0.014481 0.000000 0.000000 0.000000
# 4 0.000000 0.000000 0.000000 0.036870 0.000000 0.000000
# 5 0.000000 0.000000 0.000000 0.000000 0.037785 0.000000
# 6 0.000000 0.000000 0.000000 0.000000 0.000000 0.057093
#
#
# Mechanical properties :
#
#
# Convention : Reuss Voigt Hill
#
# Bulk Modulus (GPa) = 52.65502 55.58430 54.11966
# Shear Modulus (GPa) = 24.93502 27.27017 26.10260
#
# Velocity S-wave (km/s) = 3.55616 3.71895 3.63846
# Velocity P-wave (km/s) = 6.60050 6.82871 6.71558
#
# Compressibility (1/GPa) = 0.01899154
#
# Stress axis : x y z
#
# Youngs Moduli (GPa) = 114.80860 57.05704 69.05800
#
# Poissons Ratio (x) = 0.11505 0.19064
# Poissons Ratio (y) = 0.23151 0.42027
# Poissons Ratio (z) = 0.31693 0.34723
#
# Static dielectric constant tensor:
#      x y z
#    x 3.792350 0.000000 0.000000 
#    y 0.000000 3.475020 0.000000 
#    z 0.000000 0.000000 3.426340 
# 
# 
# High freq. dielectric constant tensor:
#      x y z
#    x 1.784290 0.000000 0.000000 
#    y 0.000000 1.764310 0.000000 
#    z 0.000000 0.000000 1.749480 
# 
# From -- ./inp_files/6239.got.cif
#   From: 2010.06.25/outbox.cif.g09.slc.cpg/sg58_4_cif.got.tgz:6239.got - 2010.06.26 21:38:00.
