data_PCOD8238560
_publ_section_title
;
Structure prediction by ZEFSAII (Michael W. Deem and Ramdas Pophale) SiO2 
 PCOD8238560
Probable space group: P N N M
;
_chemical_formula_sum "Si O2"
_cell_formula_units_Z 64
_cell_length_a 11.860791
_cell_length_b 30.323160
_cell_length_c 8.890626
_cell_angle_alpha 90.000000
_cell_angle_beta 90.000000
_cell_angle_gamma 90.000000
_cell_volume 3197.572881
_symmetry_space_group_name_H-M "P N N M"
_symmetry_group_IT_number 58
_symmetry_cell_setting 'orthorhombic'
loop_
_space_group_symop_operation_xyz
x,y,z
-x,-y,z
1/2+x,1/2-y,1/2-z
1/2-x,1/2+y,1/2-z
-x,-y,-z
x,y,-z
1/2-x,1/2+y,1/2+z
1/2+x,1/2-y,1/2+z
loop_
_atom_site_type_symbol
_atom_site_label
_atom_site_fract_x
_atom_site_fract_y
_atom_site_fract_z
Si Si1 0.216629 0.705863 0.671467
Si Si2 0.661254 0.373159 0.176714
Si Si3 0.233040 0.305168 0.825202
Si Si4 0.512556 0.071577 0.323110
Si Si5 0.012653 0.338739 0.671982
Si Si6 0.204193 0.547773 0.672859
Si Si7 0.747124 0.049887 0.172738
Si Si8 0.903243 0.117713 0.674828
O O1 0.255025 0.698151 0.500000
O O2 0.290639 0.673987 0.774650
O O3 0.233382 0.756039 0.721789
O O4 0.083846 0.697636 0.690482
O O5 0.726839 0.413121 0.252741
O O6 0.531298 0.375272 0.226257
O O7 0.675931 0.378267 0.000000
O O8 0.336610 0.337461 0.788250
O O9 0.129542 0.318085 0.721667
O O10 0.198713 0.308747 0.000000
O O11 0.509875 0.064928 0.500000
O O12 0.477338 0.120997 0.278669
O O13 0.418071 0.039930 0.250076
O O14 0.637378 0.062922 0.265653
O O15 0.022702 0.355129 0.500000
O O16 0.183726 0.560237 0.500000
O O17 0.272677 0.502145 0.690619
O O18 0.854051 0.076501 0.233335
O O19 0.725304 0.062350 0.000000
O O20 0.894514 0.105720 0.500000
#
# Coordination Sequence:
#
# PCOD8238560 Si02
#       8
#     8   8   8   8   8   8   8   8
#     4  10  23  41  63  90 126 166 204 254 309 363
#     4  11  24  41  64  91 122 164 210 256 308 364
#     4  10  22  41  63  90 124 165 207 251 306 363
#     4  12  23  38  63  94 127 161 200 253 308 366
#     4  11  22  38  64  94 125 163 203 253 309 363
#     4  11  24  42  63  90 125 162 203 254 309 368
#     4  11  24  41  64  92 122 161 205 251 309 372
#     4  10  23  42  63  88 123 163 204 255 307 361
#
# _framework density 20.015180000000001
#
# number of rings (size 3 to 8) (size 9 to 14) (size 15 to 20)
#    0.000    1.250    2.500    3.000    1.750    6.000 
#    0.000    2.500    0.000    0.000    0.000    0.000 
#    0.000    0.000    0.000    0.000    0.000    0.000 
#
# Total GULP energy -793923.511403 kJ/mol
# GULP energy per Si atom -12405.054866 kJ/mol
# Density = 1.996962 g / cm^3
# Si number density = 20.015180 Si / 1000 Ang^3
#
#
#
# Elastic Constant Matrix: (Units=GPa)
#
#
# Indices 1 2 3 4 5 6 
#
# 1 115.1897 26.1163 49.9553 0.0000 0.0000 0.0000
# 2 26.1163 88.9388 33.3219 0.0000 0.0000 0.0000
# 3 49.9553 33.3219 103.2939 0.0000 0.0000 0.0000
# 4 0.0000 0.0000 0.0000 29.7884 0.0000 0.0000
# 5 0.0000 0.0000 0.0000 0.0000 17.6583 0.0000
# 6 0.0000 0.0000 0.0000 0.0000 0.0000 22.1414
#
#
#
# Elastic Compliance Matrix: (Units=1/GPa)
#
#
# Indices 1 2 3 4 5 6 
#
# 1 0.011142 -0.001425 -0.004929 0.000000 0.000000 0.000000
# 2 -0.001425 0.012972 -0.003495 0.000000 0.000000 0.000000
# 3 -0.004929 -0.003495 0.013192 0.000000 0.000000 0.000000
# 4 0.000000 0.000000 0.000000 0.033570 0.000000 0.000000
# 5 0.000000 0.000000 0.000000 0.000000 0.056631 0.000000
# 6 0.000000 0.000000 0.000000 0.000000 0.000000 0.045164
#
#
# Mechanical properties :
#
#
# Convention : Reuss Voigt Hill
#
# Bulk Modulus (GPa) = 56.79396 58.46772 57.63084
# Shear Modulus (GPa) = 25.22212 27.11955 26.17084
#
# Velocity S-wave (km/s) = 3.55371 3.68496 3.61993
# Velocity P-wave (km/s) = 6.72871 6.88334 6.80646
#
# Compressibility (1/GPa) = 0.01760751
#
# Stress axis : x y z
#
# Youngs Moduli (GPa) = 89.75090 77.09062 75.80142
#
# Poissons Ratio (x) = 0.10987 0.37361
# Poissons Ratio (y) = 0.12791 0.26495
# Poissons Ratio (z) = 0.44236 0.26946
#
# Static dielectric constant tensor:
#      x y z
#    x 3.688610 0.000000 0.000000 
#    y 0.000000 3.835040 0.000000 
#    z 0.000000 0.000000 3.684080 
# 
# 
# High freq. dielectric constant tensor:
#      x y z
#    x 1.784400 0.000000 0.000000 
#    y 0.000000 1.791590 0.000000 
#    z 0.000000 0.000000 1.786440 
# 
# From -- ./inp_files/4791.got.cif
#   From: 2010.06.25/outbox.cif.g09.slc.cpg/sg58_3_cif.got.tgz:4791.got - 2010.06.26 21:38:00.
