data_PCOD8238959
_publ_section_title
;
Structure prediction by ZEFSAII (Michael W. Deem and Ramdas Pophale) SiO2 
 PCOD8238959
Probable space group: P N N M
;
_chemical_formula_sum "Si O2"
_cell_formula_units_Z 40
_cell_length_a 26.999510
_cell_length_b 10.212405
_cell_length_c 7.675660
_cell_angle_alpha 90.000000
_cell_angle_beta 90.000000
_cell_angle_gamma 90.000000
_cell_volume 2116.409202
_symmetry_space_group_name_H-M "P N N M"
_symmetry_group_IT_number 58
_symmetry_cell_setting 'orthorhombic'
loop_
_space_group_symop_operation_xyz
x,y,z
-x,-y,z
1/2+x,1/2-y,1/2-z
1/2-x,1/2+y,1/2-z
-x,-y,-z
x,y,-z
1/2-x,1/2+y,1/2+z
1/2+x,1/2-y,1/2+z
loop_
_atom_site_type_symbol
_atom_site_label
_atom_site_fract_x
_atom_site_fract_y
_atom_site_fract_z
Si Si1 0.603838 0.477972 0.196290
Si Si2 0.528299 0.865490 0.500000
Si Si3 0.292622 0.224547 0.803033
Si Si4 0.401319 0.216224 0.798561
Si Si5 0.961024 0.884122 0.000000
Si Si6 0.218314 0.008188 0.700806
O O1 0.590290 0.629205 0.225494
O O2 0.572730 0.389956 0.327954
O O3 0.661642 0.452069 0.231734
O O4 0.590025 0.435373 0.000000
O O5 0.560958 0.859760 0.675035
O O6 0.487625 0.753392 0.500000
O O7 0.500000 0.000000 0.500000
O O8 0.345904 0.180279 0.728006
O O9 0.252856 0.109858 0.801394
O O10 0.272680 0.361482 0.720115
O O11 0.305313 0.266903 0.000000
O O12 0.409863 0.173605 0.000000
O O13 0.000000 0.000000 0.000000
O O14 0.233902 0.018965 0.500000
#
# Coordination Sequence:
#
# PCOD8238959 Si02
#       6
#     8   4   8   8   4   8
#     4   9  19  37  61  87 116 144 191 251 288 332
#     4  12  26  42  58  88 118 154 198 240 296 350
#     4   9  19  35  56  84 113 150 190 230 280 344
#     4   9  19  39  62  82 115 155 193 233 290 351
#     4  12  22  38  64  92 106 148 208 236 286 346
#     4   9  19  35  54  83 116 150 186 229 287 341
#
# _framework density 18.899934999999999
#
# number of rings (size 3 to 8) (size 9 to 14) (size 15 to 20)
#    0.000    2.400    2.000    2.400    2.800    2.400 
#    3.600    0.000    0.000    0.000    0.000    0.000 
#    0.000    0.000    0.000    0.000    0.000    0.000 
#
# Total GULP energy -495873.799652 kJ/mol
# GULP energy per Si atom -12396.844991 kJ/mol
# Density = 1.885692 g / cm^3
# Si number density = 18.899935 Si / 1000 Ang^3
#
#
#
# Elastic Constant Matrix: (Units=GPa)
#
#
# Indices 1 2 3 4 5 6 
#
# 1 117.9406 77.2877 55.6111 0.0000 0.0000 0.0000
# 2 77.2877 114.3738 39.0886 0.0000 0.0000 0.0000
# 3 55.6111 39.0886 93.1125 0.0000 0.0000 0.0000
# 4 0.0000 0.0000 0.0000 18.5220 0.0000 0.0000
# 5 0.0000 0.0000 0.0000 0.0000 34.9537 0.0000
# 6 0.0000 0.0000 0.0000 0.0000 0.0000 40.4594
#
#
#
# Elastic Compliance Matrix: (Units=1/GPa)
#
#
# Indices 1 2 3 4 5 6 
#
# 1 0.018174 -0.010007 -0.006653 0.000000 0.000000 0.000000
# 2 -0.010007 0.015718 -0.000622 0.000000 0.000000 0.000000
# 3 -0.006653 -0.000622 0.014974 0.000000 0.000000 0.000000
# 4 0.000000 0.000000 0.000000 0.053990 0.000000 0.000000
# 5 0.000000 0.000000 0.000000 0.000000 0.028609 0.000000
# 6 0.000000 0.000000 0.000000 0.000000 0.000000 0.024716
#
#
# Mechanical properties :
#
#
# Convention : Reuss Voigt Hill
#
# Bulk Modulus (GPa) = 69.92026 74.37797 72.14912
# Shear Modulus (GPa) = 25.57385 29.01633 27.29509
#
# Velocity S-wave (km/s) = 3.68247 3.92249 3.80437
# Velocity P-wave (km/s) = 7.42671 7.74297 7.58649
#
# Compressibility (1/GPa) = 0.01430201
#
# Stress axis : x y z
#
# Youngs Moduli (GPa) = 55.02485 63.62171 66.78094
#
# Poissons Ratio (x) = 0.63666 0.44431
# Poissons Ratio (y) = 0.55063 0.04152
# Poissons Ratio (z) = 0.36609 0.03956
#
# Static dielectric constant tensor:
#      x y z
#    x 3.438950 0.000000 0.000000 
#    y 0.000000 3.097970 0.000000 
#    z 0.000000 0.000000 3.339800 
# 
# 
# High freq. dielectric constant tensor:
#      x y z
#    x 1.738440 0.000000 0.000000 
#    y 0.000000 1.706620 0.000000 
#    z 0.000000 0.000000 1.739100 
# 
# From -- ./inp_files/2671.got.cif
#   From: 2010.06.25/outbox.cif.g09.slc.cpg/sg58_2_cif.got.tgz:2671.got - 2010.06.26 21:38:00.
