data_PCOD8238638
_publ_section_title
;
Structure prediction by ZEFSAII (Michael W. Deem and Ramdas Pophale) SiO2 
 PCOD8238638
Probable space group: P N N M
;
_chemical_formula_sum "Si O2"
_cell_formula_units_Z 40
_cell_length_a 9.395929
_cell_length_b 12.517787
_cell_length_c 17.484959
_cell_angle_alpha 90.000000
_cell_angle_beta 90.000000
_cell_angle_gamma 90.000000
_cell_volume 2056.515097
_symmetry_space_group_name_H-M "P N N M"
_symmetry_group_IT_number 58
_symmetry_cell_setting 'orthorhombic'
loop_
_space_group_symop_operation_xyz
x,y,z
-x,-y,z
1/2+x,1/2-y,1/2-z
1/2-x,1/2+y,1/2-z
-x,-y,-z
x,y,-z
1/2-x,1/2+y,1/2+z
1/2+x,1/2-y,1/2+z
loop_
_atom_site_type_symbol
_atom_site_label
_atom_site_fract_x
_atom_site_fract_y
_atom_site_fract_z
Si Si1 0.279527 0.900408 0.500000
Si Si2 0.440933 0.334637 0.120722
Si Si3 0.402898 0.591156 0.392335
Si Si4 0.318271 0.633919 0.000000
Si Si5 0.078746 0.604191 0.585928
Si Si6 0.000000 0.000000 0.745168
Si Si7 0.971612 0.257432 0.000000
O O1 0.202159 0.849158 0.426958
O O2 0.445525 0.870270 0.500000
O O3 0.271669 0.026649 0.500000
O O4 0.451478 0.207482 0.139791
O O5 0.421807 0.410318 0.194264
O O6 0.583691 0.367046 0.075256
O O7 0.500000 0.500000 0.430828
O O8 0.244453 0.580427 0.422596
O O9 0.397823 0.572188 0.299903
O O10 0.477385 0.699570 0.421705
O O11 0.199847 0.727820 0.000000
O O12 0.019336 0.629280 0.500000
O O13 0.000000 0.500000 0.620471
#
# Coordination Sequence:
#
# PCOD8238638 Si02
#       7
#     4   8   8   4   8   4   4
#     4  11  19  40  66  90 124 159 197 274 297 347
#     4  11  19  42  64  90 123 163 208 244 305 370
#     4  10  23  41  58  88 122 166 195 257 307 355
#     4  11  23  34  70  97 114 162 210 258 302 371
#     4  11  22  38  67  96 118 153 211 264 301 354
#     4  10  24  40  66  84 126 176 200 240 310 386
#     4  12  22  40  61  96 126 153 209 260 314 348
#
# _framework density 19.450379999999999
#
# number of rings (size 3 to 8) (size 9 to 14) (size 15 to 20)
#    0.600    0.600    7.000    1.200    2.800    0.000 
#    7.200    0.000    0.000    0.000    0.000    0.000 
#    0.000    0.000    0.000    0.000    0.000    0.000 
#
# Total GULP energy -495574.070557 kJ/mol
# GULP energy per Si atom -12389.351764 kJ/mol
# Density = 1.940611 g / cm^3
# Si number density = 19.450380 Si / 1000 Ang^3
#
#
#
# Elastic Constant Matrix: (Units=GPa)
#
#
# Indices 1 2 3 4 5 6 
#
# 1 82.2243 14.4619 14.3578 0.0000 0.0000 0.0000
# 2 14.4619 114.9723 32.9624 0.0000 0.0000 0.0000
# 3 14.3578 32.9624 101.5487 0.0000 0.0000 0.0000
# 4 0.0000 0.0000 0.0000 198.9770 0.0000 0.0000
# 5 0.0000 0.0000 0.0000 0.0000 -14.8219 0.0000
# 6 0.0000 0.0000 0.0000 0.0000 0.0000 39.1672
#
#
#
# Elastic Compliance Matrix: (Units=1/GPa)
#
#
# Indices 1 2 3 4 5 6 
#
# 1 0.012615 -0.001186 -0.001399 0.000000 0.000000 0.000000
# 2 -0.001186 0.009702 -0.002981 0.000000 0.000000 0.000000
# 3 -0.001399 -0.002981 0.011013 0.000000 0.000000 0.000000
# 4 0.000000 0.000000 0.000000 0.005026 0.000000 0.000000
# 5 0.000000 0.000000 0.000000 0.000000 -0.067468 0.000000
# 6 0.000000 0.000000 0.000000 0.000000 0.000000 0.025532
#
#
# Mechanical properties :
#
#
# Convention : Reuss Voigt Hill
#
# Bulk Modulus (GPa) = 45.05001 46.92326 45.98663
# Shear Modulus (GPa) = 334.45397 60.46202 197.45799
#
# Velocity S-wave (km/s) = 13.12729 5.58146 10.08659
# Velocity P-wave (km/s) = 15.90533 8.10641 12.62326
#
# Compressibility (1/GPa) = 0.02219755
#
# Stress axis : x y z
#
# Youngs Moduli (GPa) = 79.27293 103.07486 90.80157
#
# Poissons Ratio (x) = 0.12222 0.12700
# Poissons Ratio (y) = 0.09400 0.27072
# Poissons Ratio (z) = 0.11088 0.30732
#
# Static dielectric constant tensor:
#      x y z
#    x 3.346000 0.000000 0.000000 
#    y 0.000000 3.732350 0.000000 
#    z 0.000000 0.000000 3.321630 
# 
# 
# High freq. dielectric constant tensor:
#      x y z
#    x 1.747040 0.000000 0.000000 
#    y 0.000000 1.774360 0.000000 
#    z 0.000000 0.000000 1.723700 
# 
# From -- ./inp_files/28769.got.cif
#   From: 2010.06.25/outbox.cif.g09.slc.cpg/sg58_15_cif.got.tgz:28769.got - 2010.06.26 21:38:00.
