data_PCOD8238621
_publ_section_title
;
Structure prediction by ZEFSAII (Michael W. Deem and Ramdas Pophale) SiO2 
 PCOD8238621
Probable space group: P N N M
;
_chemical_formula_sum "Si O2"
_cell_formula_units_Z 40
_cell_length_a 8.868850
_cell_length_b 12.438842
_cell_length_c 15.984149
_cell_angle_alpha 90.000000
_cell_angle_beta 90.000000
_cell_angle_gamma 90.000000
_cell_volume 1763.342928
_symmetry_space_group_name_H-M "P N N M"
_symmetry_group_IT_number 58
_symmetry_cell_setting 'orthorhombic'
loop_
_space_group_symop_operation_xyz
x,y,z
-x,-y,z
1/2+x,1/2-y,1/2-z
1/2-x,1/2+y,1/2-z
-x,-y,-z
x,y,-z
1/2-x,1/2+y,1/2+z
1/2+x,1/2-y,1/2+z
loop_
_atom_site_type_symbol
_atom_site_label
_atom_site_fract_x
_atom_site_fract_y
_atom_site_fract_z
Si Si1 0.802433 0.084038 0.346315
Si Si2 0.119955 0.135249 0.404720
Si Si3 0.822092 0.494176 0.674342
Si Si4 0.327520 0.319167 0.405065
Si Si5 0.662722 0.298763 0.401211
O O1 0.760695 0.044789 0.254139
O O2 0.688783 0.173712 0.380485
O O3 0.971545 0.132193 0.346989
O O4 0.795906 0.979841 0.406228
O O5 0.073960 0.165837 0.500000
O O6 0.229635 0.223922 0.362383
O O7 0.763077 0.568998 0.598904
O O8 0.776921 0.372189 0.652670
O O9 0.000000 0.500000 0.686052
O O10 0.348528 0.283338 0.500000
O O11 0.495501 0.328112 0.367850
O O12 0.685054 0.320490 0.500000
#
# Coordination Sequence:
#
# PCOD8238621 Si02
#       5
#     8   8   8   8   8
#     4  11  25  40  70  99 138 175 225 277 338 401
#     4  10  22  44  72 101 132 177 225 274 340 413
#     4  12  28  43  66 100 139 183 230 283 347 403
#     4  10  24  44  72 101 133 178 231 283 341 412
#     4  11  25  46  71  99 137 184 232 285 344 412
#
# _framework density 22.684187000000001
#
# number of rings (size 3 to 8) (size 9 to 14) (size 15 to 20)
#    0.000    1.200    0.000    4.800   11.200    4.800 
#    0.000    3.000    0.000    0.000    0.000    0.000 
#    0.000    0.000    0.000    0.000    0.000    0.000 
#
# Total GULP energy -496029.806534 kJ/mol
# GULP energy per Si atom -12400.745163 kJ/mol
# Density = 2.263256 g / cm^3
# Si number density = 22.684187 Si / 1000 Ang^3
#
#
#
# Elastic Constant Matrix: (Units=GPa)
#
#
# Indices 1 2 3 4 5 6 
#
# 1 136.8931 41.8572 47.1524 0.0000 0.0000 0.0000
# 2 41.8572 101.9910 17.7234 0.0000 0.0000 0.0000
# 3 47.1524 17.7234 80.3657 0.0000 0.0000 0.0000
# 4 0.0000 0.0000 0.0000 29.9706 0.0000 0.0000
# 5 0.0000 0.0000 0.0000 0.0000 31.3824 0.0000
# 6 0.0000 0.0000 0.0000 0.0000 0.0000 47.5561
#
#
#
# Elastic Compliance Matrix: (Units=1/GPa)
#
#
# Indices 1 2 3 4 5 6 
#
# 1 0.010087 -0.003235 -0.005205 0.000000 0.000000 0.000000
# 2 -0.003235 0.011233 -0.000579 0.000000 0.000000 0.000000
# 3 -0.005205 -0.000579 0.015625 0.000000 0.000000 0.000000
# 4 0.000000 0.000000 0.000000 0.033366 0.000000 0.000000
# 5 0.000000 0.000000 0.000000 0.000000 0.031865 0.000000
# 6 0.000000 0.000000 0.000000 0.000000 0.000000 0.021028
#
#
# Mechanical properties :
#
#
# Convention : Reuss Voigt Hill
#
# Bulk Modulus (GPa) = 52.89193 59.19063 56.04128
# Shear Modulus (GPa) = 33.88822 35.94961 34.91891
#
# Velocity S-wave (km/s) = 3.86931 3.98526 3.92771
# Velocity P-wave (km/s) = 6.58250 6.87942 6.73260
#
# Compressibility (1/GPa) = 0.01890647
#
# Stress axis : x y z
#
# Youngs Moduli (GPa) = 99.13789 89.02207 64.00172
#
# Poissons Ratio (x) = 0.28801 0.33311
# Poissons Ratio (y) = 0.32074 0.03706
# Poissons Ratio (z) = 0.51599 0.05155
#
# Static dielectric constant tensor:
#      x y z
#    x 4.186480 0.000000 0.000000 
#    y 0.000000 4.232740 0.000000 
#    z 0.000000 0.000000 3.885170 
# 
# 
# High freq. dielectric constant tensor:
#      x y z
#    x 1.898950 0.000000 0.000000 
#    y 0.000000 1.907830 0.000000 
#    z 0.000000 0.000000 1.884230 
# 
# From -- ./inp_files/24961.got.cif
#   From: 2010.06.25/outbox.cif.g09.slc.cpg/sg58_13_cif.got.tgz:24961.got - 2010.06.26 21:38:00.
