data_PCOD8238128
_publ_section_title
;
Structure prediction by ZEFSAII (Michael W. Deem and Ramdas Pophale) SiO2 
 PCOD8238128
Probable space group: P N N M
;
_chemical_formula_sum "Si O2"
_cell_formula_units_Z 32
_cell_length_a 18.454348
_cell_length_b 9.881338
_cell_length_c 8.882811
_cell_angle_alpha 90.000000
_cell_angle_beta 90.000000
_cell_angle_gamma 90.000000
_cell_volume 1619.813010
_symmetry_space_group_name_H-M "P N N M"
_symmetry_group_IT_number 58
_symmetry_cell_setting 'orthorhombic'
loop_
_space_group_symop_operation_xyz
x,y,z
-x,-y,z
1/2+x,1/2-y,1/2-z
1/2-x,1/2+y,1/2-z
-x,-y,-z
x,y,-z
1/2-x,1/2+y,1/2+z
1/2+x,1/2-y,1/2+z
loop_
_atom_site_type_symbol
_atom_site_label
_atom_site_fract_x
_atom_site_fract_y
_atom_site_fract_z
Si Si1 0.323463 0.793193 0.822532
Si Si2 0.789122 0.981789 0.821992
Si Si3 0.975261 0.645667 0.176814
Si Si4 0.439003 0.402249 0.322958
O O1 0.279950 0.928199 0.776335
O O2 0.281790 0.663858 0.755295
O O3 0.403913 0.802836 0.759002
O O4 0.326267 0.775541 0.000000
O O5 0.860435 0.059054 0.758111
O O6 0.793883 0.960577 0.000000
O O7 0.000000 0.500000 0.237773
O O8 0.041027 0.747380 0.215541
O O9 0.958065 0.642089 0.000000
O O10 0.500000 0.500000 0.251019
O O11 0.437355 0.425582 0.500000
#
# Coordination Sequence:
#
# PCOD8238128 Si02
#       4
#     8   8   8   8
#     4  11  24  39  59  88 122 155 191 245 299 346
#     4  10  22  40  60  83 117 156 196 239 290 356
#     4  10  21  37  62  87 113 155 202 243 286 347
#     4   9  16  33  60  83 104 143 197 242 275 329
#
# _framework density 19.755365000000001
#
# number of rings (size 3 to 8) (size 9 to 14) (size 15 to 20)
#    0.000    2.000    2.500    0.750    3.500    2.500 
#    0.000    2.500    0.000    0.000    0.000    0.000 
#    0.000    0.000    0.000    0.000    0.000    0.000 
#
# Total GULP energy -396829.344688 kJ/mol
# GULP energy per Si atom -12400.917021 kJ/mol
# Density = 1.971040 g / cm^3
# Si number density = 19.755365 Si / 1000 Ang^3
#
#
#
# Elastic Constant Matrix: (Units=GPa)
#
#
# Indices 1 2 3 4 5 6 
#
# 1 55.0224 12.6275 20.6927 0.0000 0.0000 0.0000
# 2 12.6275 132.8412 33.6165 0.0000 0.0000 0.0000
# 3 20.6927 33.6165 43.1769 0.0000 0.0000 0.0000
# 4 0.0000 0.0000 0.0000 26.0667 0.0000 0.0000
# 5 0.0000 0.0000 0.0000 0.0000 17.2896 0.0000
# 6 0.0000 0.0000 0.0000 0.0000 0.0000 36.0503
#
#
#
# Elastic Compliance Matrix: (Units=1/GPa)
#
#
# Indices 1 2 3 4 5 6 
#
# 1 0.022226 0.000726 -0.011217 0.000000 0.000000 0.000000
# 2 0.000726 0.009399 -0.007665 0.000000 0.000000 0.000000
# 3 -0.011217 -0.007665 0.034504 0.000000 0.000000 0.000000
# 4 0.000000 0.000000 0.000000 0.038363 0.000000 0.000000
# 5 0.000000 0.000000 0.000000 0.000000 0.057838 0.000000
# 6 0.000000 0.000000 0.000000 0.000000 0.000000 0.027739
#
#
# Mechanical properties :
#
#
# Convention : Reuss Voigt Hill
#
# Bulk Modulus (GPa) = 33.53905 40.54597 37.04251
# Shear Modulus (GPa) = 21.15759 26.82159 23.98959
#
# Velocity S-wave (km/s) = 3.27613 3.68868 3.48851
# Velocity P-wave (km/s) = 5.59685 6.22177 5.91756
#
# Compressibility (1/GPa) = 0.02981599
#
# Stress axis : x y z
#
# Youngs Moduli (GPa) = 44.99161 106.39925 28.98179
#
# Poissons Ratio (x) = -0.07723 0.32509
# Poissons Ratio (y) = -0.03266 0.22216
# Poissons Ratio (z) = 0.50468 0.81559
#
# Static dielectric constant tensor:
#      x y z
#    x 3.692350 0.000000 0.000000 
#    y 0.000000 3.817880 0.000000 
#    z 0.000000 0.000000 3.226820 
# 
# 
# High freq. dielectric constant tensor:
#      x y z
#    x 1.774870 0.000000 0.000000 
#    y 0.000000 1.786910 0.000000 
#    z 0.000000 0.000000 1.733880 
# 
# From -- ./inp_files/2144.got.cif
#   From: 2010.06.25/outbox.cif.g09.slc.cpg/sg58_2_cif.got.tgz:2144.got - 2010.06.26 21:38:00.
