data_PCOD8238032
_publ_section_title
;
Structure prediction by ZEFSAII (Michael W. Deem and Ramdas Pophale) SiO2 
 PCOD8238032
Probable space group: P N N M
;
_chemical_formula_sum "Si O2"
_cell_formula_units_Z 48
_cell_length_a 10.219314
_cell_length_b 29.286754
_cell_length_c 8.972592
_cell_angle_alpha 90.000000
_cell_angle_beta 90.000000
_cell_angle_gamma 90.000000
_cell_volume 2685.411862
_symmetry_space_group_name_H-M "P N N M"
_symmetry_group_IT_number 58
_symmetry_cell_setting 'orthorhombic'
loop_
_space_group_symop_operation_xyz
x,y,z
-x,-y,z
1/2+x,1/2-y,1/2-z
1/2-x,1/2+y,1/2-z
-x,-y,-z
x,y,-z
1/2-x,1/2+y,1/2+z
1/2+x,1/2-y,1/2+z
loop_
_atom_site_type_symbol
_atom_site_label
_atom_site_fract_x
_atom_site_fract_y
_atom_site_fract_z
Si Si1 0.500298 0.718829 0.175433
Si Si2 0.214568 0.619480 0.330539
Si Si3 0.481402 0.373848 0.669255
Si Si4 0.383294 0.469337 0.677619
Si Si5 0.132598 0.521343 0.322307
Si Si6 0.200808 0.712474 0.175523
O O1 0.548226 0.668946 0.225581
O O2 0.348665 0.726625 0.224396
O O3 0.593172 0.755645 0.250563
O O4 0.515661 0.722892 0.000000
O O5 0.171625 0.630520 0.500000
O O6 0.368733 0.610550 0.322915
O O7 0.145234 0.573744 0.269093
O O8 0.170658 0.661046 0.226584
O O9 0.443642 0.360341 0.500000
O O10 0.396268 0.416582 0.728379
O O11 0.500000 0.500000 0.744347
O O12 0.388830 0.471089 0.500000
O O13 0.248840 0.489857 0.741080
O O14 0.136142 0.520531 0.500000
O O15 0.000000 0.500000 0.257830
O O16 0.185030 0.715648 0.000000
#
# Coordination Sequence:
#
# PCOD8238032 Si02
#       6
#     8   8   8   8   8   8
#     4  10  21  37  56  78 105 135 172 216 262 315
#     4   9  16  29  50  73 100 135 170 206 255 305
#     4   9  16  28  50  75  99 131 171 212 252 299
#     4   9  14  24  44  69  95 128 169 205 241 291
#     4   9  16  26  42  69 102 131 163 208 253 292
#     4  10  21  37  57  79 103 135 174 215 263 315
#
# _framework density 17.874352999999999
#
# number of rings (size 3 to 8) (size 9 to 14) (size 15 to 20)
#    0.000    2.667    1.667    1.000    0.000    2.000 
#    3.000    0.000    0.000    2.000    0.000    0.000 
#    0.000    0.000    0.000    0.000    0.000    0.000 
#
# Total GULP energy -595106.880354 kJ/mol
# GULP energy per Si atom -12398.060007 kJ/mol
# Density = 1.783367 g / cm^3
# Si number density = 17.874353 Si / 1000 Ang^3
#
#
#
# Elastic Constant Matrix: (Units=GPa)
#
#
# Indices 1 2 3 4 5 6 
#
# 1 117.5257 89.8540 32.3717 0.0000 0.0000 0.0000
# 2 89.8540 156.7809 43.2766 0.0000 0.0000 0.0000
# 3 32.3717 43.2766 46.5345 0.0000 0.0000 0.0000
# 4 0.0000 0.0000 0.0000 25.2906 0.0000 0.0000
# 5 0.0000 0.0000 0.0000 0.0000 17.8430 0.0000
# 6 0.0000 0.0000 0.0000 0.0000 0.0000 36.4545
#
#
#
# Elastic Compliance Matrix: (Units=1/GPa)
#
#
# Indices 1 2 3 4 5 6 
#
# 1 0.015535 -0.007965 -0.003399 0.000000 0.000000 0.000000
# 2 -0.007965 0.012665 -0.006237 0.000000 0.000000 0.000000
# 3 -0.003399 -0.006237 0.029655 0.000000 0.000000 0.000000
# 4 0.000000 0.000000 0.000000 0.039540 0.000000 0.000000
# 5 0.000000 0.000000 0.000000 0.000000 0.056045 0.000000
# 6 0.000000 0.000000 0.000000 0.000000 0.000000 0.027431
#
#
# Mechanical properties :
#
#
# Convention : Reuss Voigt Hill
#
# Bulk Modulus (GPa) = 44.14805 72.42730 58.28767
# Shear Modulus (GPa) = 22.35890 26.27355 24.31622
#
# Velocity S-wave (km/s) = 3.54063 3.83809 3.69236
# Velocity P-wave (km/s) = 6.43953 7.76205 7.13151
#
# Compressibility (1/GPa) = 0.02265106
#
# Stress axis : x y z
#
# Youngs Moduli (GPa) = 64.37248 78.95870 33.72107
#
# Poissons Ratio (x) = 0.62889 0.11463
# Poissons Ratio (y) = 0.51271 0.21033
# Poissons Ratio (z) = 0.21883 0.49250
#
# Static dielectric constant tensor:
#      x y z
#    x 3.370380 0.000000 0.000000 
#    y 0.000000 3.444010 0.000000 
#    z 0.000000 0.000000 2.966880 
# 
# 
# High freq. dielectric constant tensor:
#      x y z
#    x 1.680550 0.000000 0.000000 
#    y 0.000000 1.704120 0.000000 
#    z 0.000000 0.000000 1.653740 
# 
# From -- ./inp_files/2998.got.cif
#   From: 2010.06.25/outbox.cif.g09.slc.cpg/sg58_2_cif.got.tgz:2998.got - 2010.06.26 21:38:00.
