data_PCOD8238641
_publ_section_title
;
Structure prediction by ZEFSAII (Michael W. Deem and Ramdas Pophale) SiO2 
 PCOD8238641
Probable space group: P N N M
;
_chemical_formula_sum "Si O2"
_cell_formula_units_Z 64
_cell_length_a 12.275380
_cell_length_b 8.533087
_cell_length_c 30.693991
_cell_angle_alpha 90.000000
_cell_angle_beta 90.000000
_cell_angle_gamma 90.000000
_cell_volume 3215.099961
_symmetry_space_group_name_H-M "P N N M"
_symmetry_group_IT_number 58
_symmetry_cell_setting 'orthorhombic'
loop_
_space_group_symop_operation_xyz
x,y,z
-x,-y,z
1/2+x,1/2-y,1/2-z
1/2-x,1/2+y,1/2-z
-x,-y,-z
x,y,-z
1/2-x,1/2+y,1/2+z
1/2+x,1/2-y,1/2+z
loop_
_atom_site_type_symbol
_atom_site_label
_atom_site_fract_x
_atom_site_fract_y
_atom_site_fract_z
Si Si1 0.079385 0.872273 0.607088
Si Si2 0.885547 0.422933 0.551359
Si Si3 0.562302 0.161610 0.831031
Si Si4 0.100818 0.095285 0.735228
Si Si5 0.230084 0.895079 0.889920
Si Si6 0.879191 0.846016 0.166424
Si Si7 0.743381 0.043519 0.670417
Si Si8 0.066564 0.642332 0.125386
O O1 0.125100 0.750919 0.571293
O O2 0.175577 0.974289 0.629138
O O3 0.016650 0.780307 0.644581
O O4 0.000000 0.000000 0.584118
O O5 0.878440 0.407986 0.500000
O O6 0.786531 0.533403 0.567039
O O7 0.000000 0.500000 0.566643
O O8 0.589644 0.226925 0.782738
O O9 0.676829 0.150658 0.855793
O O10 0.500000 0.000000 0.825897
O O11 0.098332 0.078823 0.786914
O O12 0.209234 0.015802 0.716046
O O13 0.000000 0.000000 0.715664
O O14 0.153616 0.744847 0.903131
O O15 0.152144 0.022881 0.868232
O O16 0.779617 0.727946 0.173563
O O17 0.985999 0.762482 0.148304
O O18 0.633738 0.945408 0.663037
O O19 0.000000 0.500000 0.099988
#
# Coordination Sequence:
#
# PCOD8238641 Si02
#       8
#     8   8   8   8   8   8   8   8
#     4  12  19  39  64  92 128 162 200 244 316 387
#     4  11  24  41  67 104 135 156 194 252 320 405
#     4  12  21  35  59  94 122 168 204 248 310 385
#     4  12  24  37  55  87 128 161 213 266 317 369
#     4  12  20  41  66  86 122 170 206 247 326 382
#     4  11  26  39  58  86 122 167 222 273 300 352
#     4  11  21  39  59  85 117 170 209 259 312 368
#     4  10  23  41  60  88 116 162 221 267 304 352
#
# _framework density 19.906068000000001
#
# number of rings (size 3 to 8) (size 9 to 14) (size 15 to 20)
#    0.000    0.625    7.500    1.125    1.750    2.750 
#    0.000    0.000    0.000    1.875    0.000    0.000 
#    0.000    0.000    0.000    0.000    0.000    0.000 
#
# Total GULP energy -793385.212492 kJ/mol
# GULP energy per Si atom -12396.643945 kJ/mol
# Density = 1.986076 g / cm^3
# Si number density = 19.906068 Si / 1000 Ang^3
#
#
#
# Elastic Constant Matrix: (Units=GPa)
#
#
# Indices 1 2 3 4 5 6 
#
# 1 108.2615 50.1626 24.1992 0.0000 0.0000 0.0000
# 2 50.1626 101.2050 24.5447 0.0000 0.0000 0.0000
# 3 24.1992 24.5447 65.6053 0.0000 0.0000 0.0000
# 4 0.0000 0.0000 0.0000 17.3133 0.0000 0.0000
# 5 0.0000 0.0000 0.0000 0.0000 17.7610 0.0000
# 6 0.0000 0.0000 0.0000 0.0000 0.0000 63.7064
#
#
#
# Elastic Compliance Matrix: (Units=1/GPa)
#
#
# Indices 1 2 3 4 5 6 
#
# 1 0.012350 -0.005517 -0.002491 0.000000 0.000000 0.000000
# 2 -0.005517 0.013332 -0.002953 0.000000 0.000000 0.000000
# 3 -0.002491 -0.002953 0.017266 0.000000 0.000000 0.000000
# 4 0.000000 0.000000 0.000000 0.057759 0.000000 0.000000
# 5 0.000000 0.000000 0.000000 0.000000 0.056303 0.000000
# 6 0.000000 0.000000 0.000000 0.000000 0.000000 0.015697
#
#
# Mechanical properties :
#
#
# Convention : Reuss Voigt Hill
#
# Bulk Modulus (GPa) = 47.56079 52.54271 50.05175
# Shear Modulus (GPa) = 24.79689 31.50050 28.14870
#
# Velocity S-wave (km/s) = 3.53327 3.98233 3.76450
# Velocity P-wave (km/s) = 6.37101 6.89912 6.64032
#
# Compressibility (1/GPa) = 0.02102572
#
# Stress axis : x y z
#
# Youngs Moduli (GPa) = 80.97074 75.00957 57.91626
#
# Poissons Ratio (x) = 0.41384 0.14429
# Poissons Ratio (y) = 0.44673 0.17101
# Poissons Ratio (z) = 0.20173 0.22148
#
# Static dielectric constant tensor:
#      x y z
#    x 4.020340 0.000000 0.000000 
#    y 0.000000 4.087010 0.000000 
#    z 0.000000 0.000000 3.107390 
# 
# 
# High freq. dielectric constant tensor:
#      x y z
#    x 1.795150 0.000000 0.000000 
#    y 0.000000 1.800720 0.000000 
#    z 0.000000 0.000000 1.719560 
# 
# From -- ./inp_files/34738.got.cif
#   From: 2010.06.25/outbox.cif.g09.slc.cpg/sg58_18_cif.got.tgz:34738.got - 2010.06.26 21:38:00.
