data_PCOD8238260
_publ_section_title
;
Structure prediction by ZEFSAII (Michael W. Deem and Ramdas Pophale) SiO2 
 PCOD8238260
Probable space group: P N N M
;
_chemical_formula_sum "Si O2"
_cell_formula_units_Z 56
_cell_length_a 19.865731
_cell_length_b 16.253133
_cell_length_c 8.544480
_cell_angle_alpha 90.000000
_cell_angle_beta 90.000000
_cell_angle_gamma 90.000000
_cell_volume 2758.844847
_symmetry_space_group_name_H-M "P N N M"
_symmetry_group_IT_number 58
_symmetry_cell_setting 'orthorhombic'
loop_
_space_group_symop_operation_xyz
x,y,z
-x,-y,z
1/2+x,1/2-y,1/2-z
1/2-x,1/2+y,1/2-z
-x,-y,-z
x,y,-z
1/2-x,1/2+y,1/2+z
1/2+x,1/2-y,1/2+z
loop_
_atom_site_type_symbol
_atom_site_label
_atom_site_fract_x
_atom_site_fract_y
_atom_site_fract_z
Si Si1 0.617287 0.855255 0.320051
Si Si2 0.661675 0.020587 0.816051
Si Si3 0.059663 0.941093 0.183552
Si Si4 0.799699 0.064494 0.318606
Si Si5 0.621882 0.199460 0.816751
Si Si6 0.016366 0.769318 0.316589
Si Si7 0.767766 0.233604 0.180128
O O1 0.595070 0.847096 0.500000
O O2 0.620429 0.949943 0.271608
O O3 0.563985 0.808765 0.211917
O O4 0.691441 0.817017 0.292461
O O5 0.740908 0.018269 0.775766
O O6 0.630122 0.106271 0.753480
O O7 0.652797 0.008843 0.000000
O O8 0.127842 0.970791 0.268052
O O9 0.043138 0.846930 0.221889
O O10 0.070676 0.949992 0.000000
O O11 0.000000 0.000000 0.244122
O O12 0.788117 0.046933 0.500000
O O13 0.799533 0.162166 0.285948
O O14 0.557280 0.246034 0.746564
O O15 0.689761 0.250011 0.774495
O O16 0.610151 0.193507 0.000000
O O17 0.014843 0.790777 0.500000
O O18 0.771890 0.203046 0.000000
#
# Coordination Sequence:
#
# PCOD8238260 Si02
#       7
#     8   8   8   8   8   8   8
#     4  11  22  36  58  88 122 158 202 250 302 360
#     4  10  21  39  61  85 118 158 202 249 301 353
#     4  11  24  41  60  85 120 160 198 243 306 367
#     4  11  21  36  60  87 115 148 195 245 297 358
#     4   8  18  37  59  83 113 156 200 244 297 354
#     4  11  22  38  61  88 119 156 202 249 302 364
#     4   9  18  36  60  81 112 156 197 241 297 355
#
# _framework density 20.298351
#
# number of rings (size 3 to 8) (size 9 to 14) (size 15 to 20)
#    0.000    1.857    1.429    3.857    0.000    3.429 
#    0.000   11.429    0.000    0.000    0.000    0.000 
#    0.000    0.000    0.000    0.000    0.000    0.000 
#
# Total GULP energy -694515.620846 kJ/mol
# GULP energy per Si atom -12402.064658 kJ/mol
# Density = 2.025215 g / cm^3
# Si number density = 20.298351 Si / 1000 Ang^3
#
#
#
# Elastic Constant Matrix: (Units=GPa)
#
#
# Indices 1 2 3 4 5 6 
#
# 1 102.5614 11.7563 6.0197 0.0000 0.0000 0.0000
# 2 11.7563 34.5778 3.4324 0.0000 0.0000 0.0000
# 3 6.0197 3.4324 50.7671 0.0000 0.0000 0.0000
# 4 0.0000 0.0000 0.0000 28.0677 0.0000 0.0000
# 5 0.0000 0.0000 0.0000 0.0000 24.6183 0.0000
# 6 0.0000 0.0000 0.0000 0.0000 0.0000 32.1223
#
#
#
# Elastic Compliance Matrix: (Units=1/GPa)
#
#
# Indices 1 2 3 4 5 6 
#
# 1 0.010194 -0.003369 -0.000981 0.000000 0.000000 0.000000
# 2 -0.003369 0.030229 -0.001644 0.000000 0.000000 0.000000
# 3 -0.000981 -0.001644 0.019925 0.000000 0.000000 0.000000
# 4 0.000000 0.000000 0.000000 0.035628 0.000000 0.000000
# 5 0.000000 0.000000 0.000000 0.000000 0.040620 0.000000
# 6 0.000000 0.000000 0.000000 0.000000 0.000000 0.031131
#
#
# Mechanical properties :
#
#
# Convention : Reuss Voigt Hill
#
# Bulk Modulus (GPa) = 20.67813 25.59145 23.13479
# Shear Modulus (GPa) = 25.53165 28.07484 26.80324
#
# Velocity S-wave (km/s) = 3.55042 3.72305 3.63776
# Velocity P-wave (km/s) = 5.19774 5.57822 5.39134
#
# Compressibility (1/GPa) = 0.04836028
#
# Stress axis : x y z
#
# Youngs Moduli (GPa) = 98.09736 33.08103 50.18742
#
# Poissons Ratio (x) = 0.11143 0.04923
# Poissons Ratio (y) = 0.33044 0.08253
# Poissons Ratio (z) = 0.09623 0.05440
#
# Static dielectric constant tensor:
#      x y z
#    x 4.008810 0.000000 0.000000 
#    y 0.000000 3.551550 0.000000 
#    z 0.000000 0.000000 3.499320 
# 
# 
# High freq. dielectric constant tensor:
#      x y z
#    x 1.804320 0.000000 0.000000 
#    y 0.000000 1.779600 0.000000 
#    z 0.000000 0.000000 1.782350 
# 
# From -- ./inp_files/6302.got.cif
#   From: 2010.06.25/outbox.cif.g09.slc.cpg/sg58_4_cif.got.tgz:6302.got - 2010.06.26 21:38:00.
