data_PCOD8238787
_publ_section_title
;
Structure prediction by ZEFSAII (Michael W. Deem and Ramdas Pophale) SiO2 
 PCOD8238787
Probable space group: P N N M
;
_chemical_formula_sum "Si O2"
_cell_formula_units_Z 40
_cell_length_a 9.698975
_cell_length_b 17.441399
_cell_length_c 11.034012
_cell_angle_alpha 90.000000
_cell_angle_beta 90.000000
_cell_angle_gamma 90.000000
_cell_volume 1866.554217
_symmetry_space_group_name_H-M "P N N M"
_symmetry_group_IT_number 58
_symmetry_cell_setting 'orthorhombic'
loop_
_space_group_symop_operation_xyz
x,y,z
-x,-y,z
1/2+x,1/2-y,1/2-z
1/2-x,1/2+y,1/2-z
-x,-y,-z
x,y,-z
1/2-x,1/2+y,1/2+z
1/2+x,1/2-y,1/2+z
loop_
_atom_site_type_symbol
_atom_site_label
_atom_site_fract_x
_atom_site_fract_y
_atom_site_fract_z
Si Si1 0.344948 0.516984 0.756675
Si Si2 0.233461 0.497428 0.500000
Si Si3 0.302061 0.683031 0.854770
Si Si4 0.519331 0.793210 0.243240
Si Si5 0.897060 0.563881 0.859800
Si Si6 0.495541 0.883847 0.000000
O O1 0.500000 0.500000 0.796158
O O2 0.330815 0.518627 0.612238
O O3 0.290337 0.593603 0.822541
O O4 0.253112 0.446390 0.802502
O O5 0.166926 0.410789 0.500000
O O6 0.096035 0.545527 0.500000
O O7 0.433180 0.715765 0.780888
O O8 0.166724 0.726858 0.803494
O O9 0.314923 0.695409 0.000000
O O10 0.443318 0.849569 0.336891
O O11 0.533348 0.834344 0.115685
O O12 0.000000 0.500000 0.800414
O O13 0.886929 0.547670 0.000000
#
# Coordination Sequence:
#
# PCOD8238787 Si02
#       6
#     8   4   8   8   8   4
#     4  12  26  44  69 105 140 179 229 287 346 405
#     4  11  21  42  74 102 136 172 230 292 341 408
#     4  12  28  49  69  99 145 185 229 285 345 414
#     4  12  25  47  70 102 137 182 232 281 350 414
#     4  11  22  44  75  99 131 178 231 282 336 410
#     4  11  20  42  76  98 129 181 228 284 341 410
#
# _framework density 21.429860999999999
#
# number of rings (size 3 to 8) (size 9 to 14) (size 15 to 20)
#    0.000    0.400    7.000    1.500    2.800    1.600 
#    7.200    0.000    0.000    0.000    0.000    0.000 
#    0.000    0.000    0.000    0.000    0.000    0.000 
#
# Total GULP energy -496038.813108 kJ/mol
# GULP energy per Si atom -12400.970328 kJ/mol
# Density = 2.138109 g / cm^3
# Si number density = 21.429861 Si / 1000 Ang^3
#
#
#
# Elastic Constant Matrix: (Units=GPa)
#
#
# Indices 1 2 3 4 5 6 
#
# 1 121.8743 8.3985 34.6091 0.0000 0.0000 0.0000
# 2 8.3985 41.2907 13.4377 0.0000 0.0000 0.0000
# 3 34.6091 13.4377 103.7840 0.0000 0.0000 0.0000
# 4 0.0000 0.0000 0.0000 29.3225 0.0000 0.0000
# 5 0.0000 0.0000 0.0000 0.0000 31.8511 0.0000
# 6 0.0000 0.0000 0.0000 0.0000 0.0000 34.3749
#
#
#
# Elastic Compliance Matrix: (Units=1/GPa)
#
#
# Indices 1 2 3 4 5 6 
#
# 1 0.009095 -0.000901 -0.002916 0.000000 0.000000 0.000000
# 2 -0.000901 0.025373 -0.002985 0.000000 0.000000 0.000000
# 3 -0.002916 -0.002985 0.010994 0.000000 0.000000 0.000000
# 4 0.000000 0.000000 0.000000 0.034104 0.000000 0.000000
# 5 0.000000 0.000000 0.000000 0.000000 0.031396 0.000000
# 6 0.000000 0.000000 0.000000 0.000000 0.000000 0.029091
#
#
# Mechanical properties :
#
#
# Convention : Reuss Voigt Hill
#
# Bulk Modulus (GPa) = 31.38860 42.20441 36.79650
# Shear Modulus (GPa) = 30.43631 33.14327 31.78979
#
# Velocity S-wave (km/s) = 3.77274 3.93694 3.85572
# Velocity P-wave (km/s) = 5.80147 6.35633 6.08523
#
# Compressibility (1/GPa) = 0.03185870
#
# Stress axis : x y z
#
# Youngs Moduli (GPa) = 109.94514 39.41178 90.95525
#
# Poissons Ratio (x) = 0.03551 0.26527
# Poissons Ratio (y) = 0.09905 0.27149
# Poissons Ratio (z) = 0.32065 0.11764
#
# Static dielectric constant tensor:
#      x y z
#    x 3.928360 0.000000 0.000000 
#    y 0.000000 3.769590 0.000000 
#    z 0.000000 0.000000 3.912240 
# 
# 
# High freq. dielectric constant tensor:
#      x y z
#    x 1.843980 0.000000 0.000000 
#    y 0.000000 1.826570 0.000000 
#    z 0.000000 0.000000 1.854770 
# 
# From -- ./inp_files/12734.got.cif
#   From: 2010.06.25/outbox.cif.g09.slc.cpg/sg58_7_cif.got.tgz:12734.got - 2010.06.26 21:38:00.
