data_PCOD8238214
_publ_section_title
;
Structure prediction by ZEFSAII (Michael W. Deem and Ramdas Pophale) SiO2 
 PCOD8238214
Probable space group: P N N M
;
_chemical_formula_sum "Si O2"
_cell_formula_units_Z 64
_cell_length_a 24.978674
_cell_length_b 14.357351
_cell_length_c 8.685343
_cell_angle_alpha 90.000000
_cell_angle_beta 90.000000
_cell_angle_gamma 90.000000
_cell_volume 3114.803630
_symmetry_space_group_name_H-M "P N N M"
_symmetry_group_IT_number 58
_symmetry_cell_setting 'orthorhombic'
loop_
_space_group_symop_operation_xyz
x,y,z
-x,-y,z
1/2+x,1/2-y,1/2-z
1/2-x,1/2+y,1/2-z
-x,-y,-z
x,y,-z
1/2-x,1/2+y,1/2+z
1/2+x,1/2-y,1/2+z
loop_
_atom_site_type_symbol
_atom_site_label
_atom_site_fract_x
_atom_site_fract_y
_atom_site_fract_z
Si Si1 0.243452 0.459361 0.824877
Si Si2 0.385103 0.691100 0.821875
Si Si3 0.987260 0.897364 0.182149
Si Si4 0.138003 0.397840 0.321223
Si Si5 0.273126 0.646101 0.679209
Si Si6 0.572022 0.749932 0.680954
Si Si7 0.942171 0.459109 0.819901
Si Si8 0.183522 0.789976 0.324629
O O1 0.191794 0.399161 0.778953
O O2 0.248553 0.544736 0.708446
O O3 0.295768 0.395227 0.810099
O O4 0.236817 0.494865 0.000000
O O5 0.427518 0.632475 0.725038
O O6 0.391805 0.800687 0.784238
O O7 0.326071 0.657250 0.779379
O O8 0.395077 0.670148 0.000000
O O9 0.029701 0.823358 0.253244
O O10 0.992379 0.899597 0.000000
O O11 0.000000 0.000000 0.249814
O O12 0.153242 0.404542 0.500000
O O13 0.100708 0.483421 0.276207
O O14 0.286729 0.659705 0.500000
O O15 0.229273 0.720315 0.735775
O O16 0.564754 0.750211 0.500000
O O17 0.631701 0.719081 0.720050
O O18 0.559791 0.853511 0.743020
O O19 0.000000 0.500000 0.784521
O O20 0.927706 0.465637 0.000000
O O21 0.168440 0.765039 0.500000
#
# Coordination Sequence:
#
# PCOD8238214 Si02
#       8
#     8   8   8   8   8   8   8   8
#     4  11  23  40  61  89 122 161 207 254 310 370
#     4  11  24  41  63  92 125 163 207 258 313 370
#     4  10  23  43  65  91 122 163 213 261 311 370
#     4  11  23  39  61  92 126 162 205 254 310 371
#     4  11  23  41  64  92 125 165 208 255 312 373
#     4  10  22  39  61  90 123 161 205 256 312 368
#     4  10  21  38  62  90 121 161 205 252 310 372
#     4  10  23  41  61  88 124 163 201 246 308 368
#
# _framework density 20.547039999999999
#
# number of rings (size 3 to 8) (size 9 to 14) (size 15 to 20)
#    0.000    1.500    1.250    3.000    1.750    8.000 
#    0.000    0.000    0.000    0.000    0.000    0.000 
#    0.000    0.000    0.000    0.000    0.000    0.000 
#
# Total GULP energy -793972.848666 kJ/mol
# GULP energy per Si atom -12405.825760 kJ/mol
# Density = 2.050027 g / cm^3
# Si number density = 20.547040 Si / 1000 Ang^3
#
#
#
# Elastic Constant Matrix: (Units=GPa)
#
#
# Indices 1 2 3 4 5 6 
#
# 1 97.5919 34.4436 10.2993 0.0000 0.0000 0.0000
# 2 34.4436 117.9153 25.7294 0.0000 0.0000 0.0000
# 3 10.2993 25.7294 26.9669 0.0000 0.0000 0.0000
# 4 0.0000 0.0000 0.0000 27.0658 0.0000 0.0000
# 5 0.0000 0.0000 0.0000 0.0000 36.0822 0.0000
# 6 0.0000 0.0000 0.0000 0.0000 0.0000 37.6156
#
#
#
# Elastic Compliance Matrix: (Units=1/GPa)
#
#
# Indices 1 2 3 4 5 6 
#
# 1 0.011472 -0.003025 -0.001496 0.000000 0.000000 0.000000
# 2 -0.003025 0.011508 -0.009825 0.000000 0.000000 0.000000
# 3 -0.001496 -0.009825 0.047028 0.000000 0.000000 0.000000
# 4 0.000000 0.000000 0.000000 0.036947 0.000000 0.000000
# 5 0.000000 0.000000 0.000000 0.000000 0.027715 0.000000
# 6 0.000000 0.000000 0.000000 0.000000 0.000000 0.026585
#
#
# Mechanical properties :
#
#
# Convention : Reuss Voigt Hill
#
# Bulk Modulus (GPa) = 24.20270 42.60210 33.40240
# Shear Modulus (GPa) = 24.54392 31.61948 28.08170
#
# Velocity S-wave (km/s) = 3.45994 3.92712 3.70091
# Velocity P-wave (km/s) = 5.26937 6.42977 5.87827
#
# Compressibility (1/GPa) = 0.04131771
#
# Stress axis : x y z
#
# Youngs Moduli (GPa) = 87.16789 86.89623 21.26413
#
# Poissons Ratio (x) = 0.26284 0.03180
# Poissons Ratio (y) = 0.26366 0.20891
# Poissons Ratio (z) = 0.13036 0.85373
#
# Static dielectric constant tensor:
#      x y z
#    x 3.650840 0.000000 0.000000 
#    y 0.000000 3.995070 0.000000 
#    z 0.000000 0.000000 3.535070 
# 
# 
# High freq. dielectric constant tensor:
#      x y z
#    x 1.808470 0.000000 0.000000 
#    y 0.000000 1.819110 0.000000 
#    z 0.000000 0.000000 1.793220 
# 
# From -- ./inp_files/10052.got.cif
#   From: 2010.06.25/outbox.cif.g09.slc.cpg/sg58_6_cif.got.tgz:10052.got - 2010.06.26 21:38:00.
