data_PCOD8238565
_publ_section_title
;
Structure prediction by ZEFSAII (Michael W. Deem and Ramdas Pophale) SiO2 
 PCOD8238565
Probable space group: P N N M
;
_chemical_formula_sum "Si O2"
_cell_formula_units_Z 40
_cell_length_a 25.367029
_cell_length_b 8.764877
_cell_length_c 8.493401
_cell_angle_alpha 90.000000
_cell_angle_beta 90.000000
_cell_angle_gamma 90.000000
_cell_volume 1888.413343
_symmetry_space_group_name_H-M "P N N M"
_symmetry_group_IT_number 58
_symmetry_cell_setting 'orthorhombic'
loop_
_space_group_symop_operation_xyz
x,y,z
-x,-y,z
1/2+x,1/2-y,1/2-z
1/2-x,1/2+y,1/2-z
-x,-y,-z
x,y,-z
1/2-x,1/2+y,1/2+z
1/2+x,1/2-y,1/2+z
loop_
_atom_site_type_symbol
_atom_site_label
_atom_site_fract_x
_atom_site_fract_y
_atom_site_fract_z
Si Si1 0.311884 0.672262 0.182208
Si Si2 0.011751 0.827314 0.816600
Si Si3 0.706653 0.652487 0.317889
Si Si4 0.906024 0.651222 0.818385
Si Si5 0.612221 0.827133 0.180581
O O1 0.301128 0.495192 0.211331
O O2 0.261251 0.769952 0.232587
O O3 0.360995 0.724465 0.286965
O O4 0.325543 0.696725 0.000000
O O5 0.060547 0.771004 0.714906
O O6 0.961827 0.724189 0.773986
O O7 0.026424 0.815149 0.000000
O O8 0.000000 0.000000 0.767703
O O9 0.707041 0.604725 0.500000
O O10 0.660112 0.772550 0.289015
O O11 0.898025 0.504385 0.711141
O O12 0.904895 0.601882 0.000000
O O13 0.628385 0.804951 0.000000
#
# Coordination Sequence:
#
# PCOD8238565 Si02
#       5
#     8   8   8   8   8
#     4  11  24  41  64  94 125 159 204 255 303 356
#     4  10  22  41  64  90 121 160 205 250 304 370
#     4  11  24  42  64  90 124 164 203 247 304 368
#     4  11  23  40  64  91 124 165 205 249 304 367
#     4  12  25  40  62  91 124 161 205 258 307 356
#
# _framework density 21.181802000000001
#
# number of rings (size 3 to 8) (size 9 to 14) (size 15 to 20)
#    0.000    1.000    0.000    6.600    0.000   12.400 
#    0.000    0.000    0.000    0.000    0.000    0.000 
#    0.000    0.000    0.000    0.000    0.000    0.000 
#
# Total GULP energy -496382.555156 kJ/mol
# GULP energy per Si atom -12409.563879 kJ/mol
# Density = 2.113359 g / cm^3
# Si number density = 21.181802 Si / 1000 Ang^3
#
#
#
# Elastic Constant Matrix: (Units=GPa)
#
#
# Indices 1 2 3 4 5 6 
#
# 1 57.1301 -24.4662 33.9441 0.0000 0.0000 0.0000
# 2 -24.4662 75.0503 16.4486 0.0000 0.0000 0.0000
# 3 33.9441 16.4486 51.5939 0.0000 0.0000 0.0000
# 4 0.0000 0.0000 0.0000 36.8091 0.0000 0.0000
# 5 0.0000 0.0000 0.0000 0.0000 25.3278 0.0000
# 6 0.0000 0.0000 0.0000 0.0000 0.0000 40.8435
#
#
#
# Elastic Compliance Matrix: (Units=1/GPa)
#
#
# Indices 1 2 3 4 5 6 
#
# 1 0.058964 0.029807 -0.048296 0.000000 0.000000 0.000000
# 2 0.029807 0.029393 -0.028981 0.000000 0.000000 0.000000
# 3 -0.048296 -0.028981 0.060396 0.000000 0.000000 0.000000
# 4 0.000000 0.000000 0.000000 0.027167 0.000000 0.000000
# 5 0.000000 0.000000 0.000000 0.000000 0.039482 0.000000
# 6 0.000000 0.000000 0.000000 0.000000 0.000000 0.024484
#
#
# Mechanical properties :
#
#
# Convention : Reuss Voigt Hill
#
# Bulk Modulus (GPa) = 18.58280 26.18080 22.38180
# Shear Modulus (GPa) = 14.17381 31.11926 22.64654
#
# Velocity S-wave (km/s) = 2.58960 3.83711 3.27333
# Velocity P-wave (km/s) = 4.21111 5.65845 4.98756
#
# Compressibility (1/GPa) = 0.05381321
#
# Stress axis : x y z
#
# Youngs Moduli (GPa) = 16.95952 34.02161 16.55745
#
# Poissons Ratio (x) = -1.01408 0.79965
# Poissons Ratio (y) = -0.50551 0.47985
# Poissons Ratio (z) = 0.81907 0.98598
#
# Static dielectric constant tensor:
#      x y z
#    x 3.960580 0.000000 0.000000 
#    y 0.000000 3.867450 0.000000 
#    z 0.000000 0.000000 3.678780 
# 
# 
# High freq. dielectric constant tensor:
#      x y z
#    x 1.846110 0.000000 0.000000 
#    y 0.000000 1.845250 0.000000 
#    z 0.000000 0.000000 1.830590 
# 
# From -- ./inp_files/2434.got.cif
#   From: 2010.06.25/outbox.cif.g09.slc.cpg/sg58_2_cif.got.tgz:2434.got - 2010.06.26 21:38:00.
