data_PCOD8238907
_publ_section_title
;
Structure prediction by ZEFSAII (Michael W. Deem and Ramdas Pophale) SiO2 
 PCOD8238907
Probable space group: P N N M
;
_chemical_formula_sum "Si O2"
_cell_formula_units_Z 48
_cell_length_a 8.407666
_cell_length_b 9.649544
_cell_length_c 26.046576
_cell_angle_alpha 90.000000
_cell_angle_beta 90.000000
_cell_angle_gamma 90.000000
_cell_volume 2113.162436
_symmetry_space_group_name_H-M "P N N M"
_symmetry_group_IT_number 58
_symmetry_cell_setting 'orthorhombic'
loop_
_space_group_symop_operation_xyz
x,y,z
-x,-y,z
1/2+x,1/2-y,1/2-z
1/2-x,1/2+y,1/2-z
-x,-y,-z
x,y,-z
1/2-x,1/2+y,1/2+z
1/2+x,1/2-y,1/2+z
loop_
_atom_site_type_symbol
_atom_site_label
_atom_site_fract_x
_atom_site_fract_y
_atom_site_fract_z
Si Si1 0.923715 0.851860 0.301543
Si Si2 0.572743 0.353486 0.628603
Si Si3 0.073106 0.640174 0.942558
Si Si4 0.865475 0.393691 0.556921
Si Si5 0.936767 0.854192 0.420699
Si Si6 0.452189 0.159662 0.282818
O O1 0.954700 0.823602 0.360695
O O2 0.735219 0.838691 0.293188
O O3 0.014377 0.729022 0.271988
O O4 0.000000 0.000000 0.284603
O O5 0.500000 0.500000 0.645991
O O6 0.478068 0.282975 0.582782
O O7 0.745719 0.383832 0.605031
O O8 0.560167 0.247197 0.676523
O O9 0.259736 0.646114 0.940927
O O10 0.000000 0.500000 0.915674
O O11 0.005768 0.643358 0.000000
O O12 0.792465 0.433033 0.500000
O O13 0.000000 0.500000 0.574741
O O14 0.953535 0.249575 0.548271
O O15 0.000000 0.000000 0.436802
O O16 0.500000 0.000000 0.283309
#
# Coordination Sequence:
#
# PCOD8238907 Si02
#       6
#     8   8   8   8   8   8
#     4  11  26  47  74 108 140 187 234 292 355 425
#     4  12  26  44  70 103 140 185 238 294 354 424
#     4  11  23  42  70 104 141 185 234 287 352 421
#     4  11  26  45  68 101 142 190 239 292 354 420
#     4  11  24  42  70 101 142 179 231 284 351 419
#     4  12  27  48  76 105 142 184 233 295 354 426
#
# _framework density 22.714769
#
# number of rings (size 3 to 8) (size 9 to 14) (size 15 to 20)
#    0.000    0.667    1.667    5.000    7.000    6.000 
#    0.000    0.000    0.000    0.000    0.000    0.000 
#    0.000    0.000    0.000    0.000    0.000    0.000 
#
# Total GULP energy -594975.291789 kJ/mol
# GULP energy per Si atom -12395.318579 kJ/mol
# Density = 2.266307 g / cm^3
# Si number density = 22.714769 Si / 1000 Ang^3
#
#
#
# Elastic Constant Matrix: (Units=GPa)
#
#
# Indices 1 2 3 4 5 6 
#
# 1 95.4360 20.0648 11.4213 0.0000 0.0000 0.0000
# 2 20.0648 140.6032 43.4356 0.0000 0.0000 0.0000
# 3 11.4213 43.4356 79.3249 0.0000 0.0000 0.0000
# 4 0.0000 0.0000 0.0000 35.4233 0.0000 0.0000
# 5 0.0000 0.0000 0.0000 0.0000 30.8082 0.0000
# 6 0.0000 0.0000 0.0000 0.0000 0.0000 45.9066
#
#
#
# Elastic Compliance Matrix: (Units=1/GPa)
#
#
# Indices 1 2 3 4 5 6 
#
# 1 0.010851 -0.001283 -0.000860 0.000000 0.000000 0.000000
# 2 -0.001283 0.008712 -0.004586 0.000000 0.000000 0.000000
# 3 -0.000860 -0.004586 0.015241 0.000000 0.000000 0.000000
# 4 0.000000 0.000000 0.000000 0.028230 0.000000 0.000000
# 5 0.000000 0.000000 0.000000 0.000000 0.032459 0.000000
# 6 0.000000 0.000000 0.000000 0.000000 0.000000 0.021783
#
#
# Mechanical properties :
#
#
# Convention : Reuss Voigt Hill
#
# Bulk Modulus (GPa) = 46.84463 51.68973 49.26718
# Shear Modulus (GPa) = 36.27169 38.45712 37.36440
#
# Velocity S-wave (km/s) = 4.00037 4.11913 4.06018
# Velocity P-wave (km/s) = 6.48113 6.74005 6.61186
#
# Compressibility (1/GPa) = 0.02134716
#
# Stress axis : x y z
#
# Youngs Moduli (GPa) = 92.15881 114.78564 65.61191
#
# Poissons Ratio (x) = 0.14725 0.05642
# Poissons Ratio (y) = 0.11822 0.30087
# Poissons Ratio (z) = 0.07925 0.52637
#
# Static dielectric constant tensor:
#      x y z
#    x 3.538780 0.000000 0.000000 
#    y 0.000000 4.393360 0.000000 
#    z 0.000000 0.000000 4.202380 
# 
# 
# High freq. dielectric constant tensor:
#      x y z
#    x 1.900710 0.000000 0.000000 
#    y 0.000000 1.912390 0.000000 
#    z 0.000000 0.000000 1.906750 
# 
# From -- ./inp_files/34578.got.cif
#   From: 2010.06.25/outbox.cif.g09.slc.cpg/sg58_18_cif.got.tgz:34578.got - 2010.06.26 21:38:00.
