data_PCOD8238471
_publ_section_title
;
Structure prediction by ZEFSAII (Michael W. Deem and Ramdas Pophale) SiO2 
 PCOD8238471
Probable space group: P N N M
;
_chemical_formula_sum "Si O2"
_cell_formula_units_Z 40
_cell_length_a 7.711412
_cell_length_b 9.027685
_cell_length_c 27.632904
_cell_angle_alpha 90.000000
_cell_angle_beta 90.000000
_cell_angle_gamma 90.000000
_cell_volume 1923.697728
_symmetry_space_group_name_H-M "P N N M"
_symmetry_group_IT_number 58
_symmetry_cell_setting 'orthorhombic'
loop_
_space_group_symop_operation_xyz
x,y,z
-x,-y,z
1/2+x,1/2-y,1/2-z
1/2-x,1/2+y,1/2-z
-x,-y,-z
x,y,-z
1/2-x,1/2+y,1/2+z
1/2+x,1/2-y,1/2+z
loop_
_atom_site_type_symbol
_atom_site_label
_atom_site_fract_x
_atom_site_fract_y
_atom_site_fract_z
Si Si1 0.103663 0.727938 0.208298
Si Si2 0.261320 0.423898 0.789167
Si Si3 0.188323 0.853623 0.397039
Si Si4 0.034534 0.829190 0.897484
Si Si5 0.336173 0.667260 0.943699
O O1 0.253273 0.602767 0.214146
O O2 0.120343 0.861943 0.246099
O O3 0.925296 0.646406 0.217511
O O4 0.112176 0.796731 0.155170
O O5 0.343559 0.374731 0.839982
O O6 0.355694 0.755097 0.407843
O O7 0.015608 0.777849 0.418861
O O8 0.223540 0.011575 0.421370
O O9 0.181658 0.783284 0.935773
O O10 0.000000 0.000000 0.904695
O O11 0.372860 0.647781 0.000000
#
# Coordination Sequence:
#
# PCOD8238471 Si02
#       5
#     8   8   8   8   8
#     4  10  23  39  59  94 129 175 220 257 329 389
#     4  10  22  38  61  93 132 173 213 269 322 390
#     4  10  22  43  67  98 136 170 223 284 326 394
#     4  11  25  44  64  97 143 174 217 276 336 403
#     4  11  24  44  74  99 123 174 233 281 338 393
#
# _framework density 20.793285000000001
#
# number of rings (size 3 to 8) (size 9 to 14) (size 15 to 20)
#    0.000    1.600    2.000    1.800    8.400    3.600 
#    0.000    1.000    0.000    0.000    0.000    0.000 
#    0.000    0.000    0.000    0.000    0.000    0.000 
#
# Total GULP energy -496090.964445 kJ/mol
# GULP energy per Si atom -12402.274111 kJ/mol
# Density = 2.074596 g / cm^3
# Si number density = 20.793285 Si / 1000 Ang^3
#
#
#
# Elastic Constant Matrix: (Units=GPa)
#
#
# Indices 1 2 3 4 5 6 
#
# 1 115.5744 62.0445 55.0402 0.0000 0.0000 0.0000
# 2 62.0445 112.7168 43.4616 0.0000 0.0000 0.0000
# 3 55.0402 43.4616 122.5051 0.0000 0.0000 0.0000
# 4 0.0000 0.0000 0.0000 21.0997 0.0000 0.0000
# 5 0.0000 0.0000 0.0000 0.0000 32.6036 0.0000
# 6 0.0000 0.0000 0.0000 0.0000 0.0000 30.7854
#
#
#
# Elastic Compliance Matrix: (Units=1/GPa)
#
#
# Indices 1 2 3 4 5 6 
#
# 1 0.013838 -0.006047 -0.004072 0.000000 0.000000 0.000000
# 2 -0.006047 0.012920 -0.001867 0.000000 0.000000 0.000000
# 3 -0.004072 -0.001867 0.010655 0.000000 0.000000 0.000000
# 4 0.000000 0.000000 0.000000 0.047394 0.000000 0.000000
# 5 0.000000 0.000000 0.000000 0.000000 0.030671 0.000000
# 6 0.000000 0.000000 0.000000 0.000000 0.000000 0.032483
#
#
# Mechanical properties :
#
#
# Convention : Reuss Voigt Hill
#
# Bulk Modulus (GPa) = 74.39799 74.65432 74.52616
# Shear Modulus (GPa) = 28.34259 29.58107 28.96183
#
# Velocity S-wave (km/s) = 3.69598 3.77586 3.73613
# Velocity P-wave (km/s) = 7.35331 7.41556 7.38450
#
# Compressibility (1/GPa) = 0.01344122
#
# Stress axis : x y z
#
# Youngs Moduli (GPa) = 72.26583 77.39849 93.85524
#
# Poissons Ratio (x) = 0.46802 0.38217
# Poissons Ratio (y) = 0.43699 0.17522
# Poissons Ratio (z) = 0.29426 0.14450
#
# Static dielectric constant tensor:
#      x y z
#    x 3.939590 0.000000 0.000000 
#    y 0.000000 4.448910 0.000000 
#    z 0.000000 0.000000 3.819070 
# 
# 
# High freq. dielectric constant tensor:
#      x y z
#    x 1.827880 0.000000 0.000000 
#    y 0.000000 1.804580 0.000000 
#    z 0.000000 0.000000 1.815680 
# 
# From -- ./inp_files/31272.got.cif
#   From: 2010.06.25/outbox.cif.g09.slc.cpg/sg58_16_cif.got.tgz:31272.got - 2010.06.26 21:38:00.
