data_PCOD8238467
_publ_section_title
;
Structure prediction by ZEFSAII (Michael W. Deem and Ramdas Pophale) SiO2 
 PCOD8238467
Probable space group: P N N M
;
_chemical_formula_sum "Si O2"
_cell_formula_units_Z 36
_cell_length_a 13.059612
_cell_length_b 10.798453
_cell_length_c 12.518866
_cell_angle_alpha 90.000000
_cell_angle_beta 90.000000
_cell_angle_gamma 90.000000
_cell_volume 1765.455631
_symmetry_space_group_name_H-M "P N N M"
_symmetry_group_IT_number 58
_symmetry_cell_setting 'orthorhombic'
loop_
_space_group_symop_operation_xyz
x,y,z
-x,-y,z
1/2+x,1/2-y,1/2-z
1/2-x,1/2+y,1/2-z
-x,-y,-z
x,y,-z
1/2-x,1/2+y,1/2+z
1/2+x,1/2-y,1/2+z
loop_
_atom_site_type_symbol
_atom_site_label
_atom_site_fract_x
_atom_site_fract_y
_atom_site_fract_z
Si Si1 0.820681 0.860833 0.379710
Si Si2 0.000000 0.500000 0.230507
Si Si3 0.109408 0.963929 0.804322
Si Si4 0.327072 0.927328 0.120098
Si Si5 0.098460 0.704196 0.121595
O O1 0.860596 0.884155 0.500000
O O2 0.836217 0.717076 0.346832
O O3 0.698821 0.883424 0.372756
O O4 0.881152 0.958386 0.305551
O O5 0.100737 0.505430 0.303011
O O6 0.001929 0.620205 0.154304
O O7 0.212003 0.984968 0.874081
O O8 0.104342 0.815064 0.791762
O O9 0.000000 0.000000 0.859101
O O10 0.365571 0.945024 0.000000
O O11 0.086104 0.756077 0.000000
#
# Coordination Sequence:
#
# PCOD8238467 Si02
#       5
#     8   4   8   8   8
#     4   9  19  39  60  85 121 157 195 241 296 356
#     4  12  20  40  64  86 120 152 202 242 286 364
#     4  11  21  38  62  87 120 157 199 245 297 354
#     4  10  22  38  60  87 119 158 195 243 302 350
#     4  10  22  38  62  90 120 159 197 244 303 350
#
# _framework density 20.391335999999999
#
# number of rings (size 3 to 8) (size 9 to 14) (size 15 to 20)
#    0.000    1.778    2.222    4.000    0.000    2.222 
#    0.000    2.222    0.000    0.000    0.000    0.000 
#    0.000    0.000    0.000    0.000    0.000    0.000 
#
# Total GULP energy -445979.612778 kJ/mol
# GULP energy per Si atom -12388.322577 kJ/mol
# Density = 2.034492 g / cm^3
# Si number density = 20.391336 Si / 1000 Ang^3
#
#
#
# Elastic Constant Matrix: (Units=GPa)
#
#
# Indices 1 2 3 4 5 6 
#
# 1 104.5411 33.0702 30.3146 0.0000 0.0000 0.0000
# 2 33.0702 83.5470 51.4996 0.0000 0.0000 0.0000
# 3 30.3146 51.4996 87.2640 0.0000 0.0000 0.0000
# 4 0.0000 0.0000 0.0000 34.6353 0.0000 0.0000
# 5 0.0000 0.0000 0.0000 0.0000 19.0639 0.0000
# 6 0.0000 0.0000 0.0000 0.0000 0.0000 36.0545
#
#
#
# Elastic Compliance Matrix: (Units=1/GPa)
#
#
# Indices 1 2 3 4 5 6 
#
# 1 0.011151 -0.003185 -0.001994 0.000000 0.000000 0.000000
# 2 -0.003185 0.019723 -0.010533 0.000000 0.000000 0.000000
# 3 -0.001994 -0.010533 0.018369 0.000000 0.000000 0.000000
# 4 0.000000 0.000000 0.000000 0.028872 0.000000 0.000000
# 5 0.000000 0.000000 0.000000 0.000000 0.052455 0.000000
# 6 0.000000 0.000000 0.000000 0.000000 0.000000 0.027736
#
#
# Mechanical properties :
#
#
# Convention : Reuss Voigt Hill
#
# Bulk Modulus (GPa) = 56.12266 56.12454 56.12360
# Shear Modulus (GPa) = 25.55326 28.64859 27.10093
#
# Velocity S-wave (km/s) = 3.54382 3.75232 3.64956
# Velocity P-wave (km/s) = 6.65788 6.80857 6.73365
#
# Compressibility (1/GPa) = 0.01781812
#
# Stress axis : x y z
#
# Youngs Moduli (GPa) = 89.67507 50.70305 54.44075
#
# Poissons Ratio (x) = 0.16147 0.10858
# Poissons Ratio (y) = 0.28558 0.57344
# Poissons Ratio (z) = 0.17885 0.53407
#
# Static dielectric constant tensor:
#      x y z
#    x 3.778090 0.000000 0.000000 
#    y 0.000000 3.514480 0.000000 
#    z 0.000000 0.000000 3.510090 
# 
# 
# High freq. dielectric constant tensor:
#      x y z
#    x 1.798900 0.000000 0.000000 
#    y 0.000000 1.785940 0.000000 
#    z 0.000000 0.000000 1.781380 
# 
# From -- ./inp_files/15334.got.cif
#   From: 2010.06.25/outbox.cif.g09.slc.cpg/sg58_8_cif.got.tgz:15334.got - 2010.06.26 21:38:00.
