data_PCOD8238588
_publ_section_title
;
Structure prediction by ZEFSAII (Michael W. Deem and Ramdas Pophale) SiO2 
 PCOD8238588
Probable space group: P N N M
;
_chemical_formula_sum "Si O2"
_cell_formula_units_Z 40
_cell_length_a 15.144962
_cell_length_b 13.525852
_cell_length_c 9.702826
_cell_angle_alpha 90.000000
_cell_angle_beta 90.000000
_cell_angle_gamma 90.000000
_cell_volume 1987.609493
_symmetry_space_group_name_H-M "P N N M"
_symmetry_group_IT_number 58
_symmetry_cell_setting 'orthorhombic'
loop_
_space_group_symop_operation_xyz
x,y,z
-x,-y,z
1/2+x,1/2-y,1/2-z
1/2-x,1/2+y,1/2-z
-x,-y,-z
x,y,-z
1/2-x,1/2+y,1/2+z
1/2+x,1/2-y,1/2+z
loop_
_atom_site_type_symbol
_atom_site_label
_atom_site_fract_x
_atom_site_fract_y
_atom_site_fract_z
Si Si1 0.753820 0.588850 0.000000
Si Si2 0.095071 0.769220 0.500000
Si Si3 0.993309 0.119504 0.000000
Si Si4 0.550592 0.294761 0.785967
Si Si5 0.818251 0.877279 0.500000
Si Si6 0.663829 0.107929 0.212675
Si Si7 0.293411 0.304135 0.500000
Si Si8 0.098101 0.537270 0.500000
O O1 0.691637 0.684241 0.000000
O O2 0.817459 0.587497 0.870337
O O3 0.694464 0.492841 0.000000
O O4 0.109943 0.653145 0.500000
O O5 0.042946 0.803918 0.636558
O O6 0.043674 0.161832 0.867135
O O7 0.000000 0.000000 0.000000
O O8 0.894933 0.164191 0.000000
O O9 0.578941 0.179934 0.793018
O O10 0.625923 0.355983 0.863040
O O11 0.726094 0.814581 0.500000
O O12 0.748733 0.154590 0.138265
O O13 0.643251 0.004977 0.137942
O O14 0.000000 0.500000 0.500000
#
# Coordination Sequence:
#
# PCOD8238588 Si02
#       8
#     4   4   4   8   4   8   4   4
#     4  12  25  37  61 102 127 167 215 278 327 390
#     4  11  23  41  71  94 126 177 228 261 331 417
#     4  12  26  37  65 102 138 166 220 283 341 388
#     4  10  22  42  63  91 129 173 211 279 319 395
#     4   9  23  43  65  81 132 178 214 254 335 395
#     4  10  22  42  65  89 132 164 222 272 320 393
#     4   9  21  45  60  85 126 179 206 260 333 395
#     4  11  20  44  72  94 120 181 226 264 332 392
#
# _framework density 20.124677999999999
#
# number of rings (size 3 to 8) (size 9 to 14) (size 15 to 20)
#    0.000    1.600    2.000    3.000    5.600    5.600 
#    3.600    0.500    0.000    0.000    0.000    0.000 
#    0.000    0.000    0.000    0.000    0.000    0.000 
#
# Total GULP energy -496022.789384 kJ/mol
# GULP energy per Si atom -12400.569735 kJ/mol
# Density = 2.007887 g / cm^3
# Si number density = 20.124678 Si / 1000 Ang^3
#
#
#
# Elastic Constant Matrix: (Units=GPa)
#
#
# Indices 1 2 3 4 5 6 
#
# 1 86.0830 24.9193 36.1277 0.0000 0.0000 0.0000
# 2 24.9193 116.9665 33.5216 0.0000 0.0000 0.0000
# 3 36.1277 33.5216 170.3565 0.0000 0.0000 0.0000
# 4 0.0000 0.0000 0.0000 18.8215 0.0000 0.0000
# 5 0.0000 0.0000 0.0000 0.0000 77.6440 0.0000
# 6 0.0000 0.0000 0.0000 0.0000 0.0000 26.3190
#
#
#
# Elastic Compliance Matrix: (Units=1/GPa)
#
#
# Indices 1 2 3 4 5 6 
#
# 1 0.013237 -0.002136 -0.002387 0.000000 0.000000 0.000000
# 2 -0.002136 0.009405 -0.001398 0.000000 0.000000 0.000000
# 3 -0.002387 -0.001398 0.006651 0.000000 0.000000 0.000000
# 4 0.000000 0.000000 0.000000 0.053131 0.000000 0.000000
# 5 0.000000 0.000000 0.000000 0.000000 0.012879 0.000000
# 6 0.000000 0.000000 0.000000 0.000000 0.000000 0.037995
#
#
# Mechanical properties :
#
#
# Convention : Reuss Voigt Hill
#
# Bulk Modulus (GPa) = 57.29982 62.50479 59.90230
# Shear Modulus (GPa) = 33.12206 43.14606 38.13406
#
# Velocity S-wave (km/s) = 4.06130 4.63529 4.35776
# Velocity P-wave (km/s) = 7.10820 7.73137 7.42632
#
# Compressibility (1/GPa) = 0.01745206
#
# Stress axis : x y z
#
# Youngs Moduli (GPa) = 75.54728 106.32539 150.34779
#
# Poissons Ratio (x) = 0.22711 0.35885
# Poissons Ratio (y) = 0.16137 0.21014
# Poissons Ratio (z) = 0.18032 0.14861
#
# Static dielectric constant tensor:
#      x y z
#    x 3.520340 0.000000 0.000000 
#    y 0.000000 7.278150 0.000000 
#    z 0.000000 0.000000 3.727290 
# 
# 
# High freq. dielectric constant tensor:
#      x y z
#    x 1.779050 0.000000 0.000000 
#    y 0.000000 1.788260 0.000000 
#    z 0.000000 0.000000 1.798620 
# 
# From -- ./inp_files/5458.got.cif
#   From: 2010.06.25/outbox.cif.g09.slc.cpg/sg58_3_cif.got.tgz:5458.got - 2010.06.26 21:38:00.
