data_PCOD8238575
_publ_section_title
;
Structure prediction by ZEFSAII (Michael W. Deem and Ramdas Pophale) SiO2 
 PCOD8238575
Probable space group: P N N M
;
_chemical_formula_sum "Si O2"
_cell_formula_units_Z 64
_cell_length_a 17.581744
_cell_length_b 13.195005
_cell_length_c 13.369167
_cell_angle_alpha 90.000000
_cell_angle_beta 90.000000
_cell_angle_gamma 90.000000
_cell_volume 3101.529095
_symmetry_space_group_name_H-M "P N N M"
_symmetry_group_IT_number 58
_symmetry_cell_setting 'orthorhombic'
loop_
_space_group_symop_operation_xyz
x,y,z
-x,-y,z
1/2+x,1/2-y,1/2-z
1/2-x,1/2+y,1/2-z
-x,-y,-z
x,y,-z
1/2-x,1/2+y,1/2+z
1/2+x,1/2-y,1/2+z
loop_
_atom_site_type_symbol
_atom_site_label
_atom_site_fract_x
_atom_site_fract_y
_atom_site_fract_z
Si Si1 0.425472 0.063463 0.385197
Si Si2 0.946079 0.085744 0.744268
Si Si3 0.158083 0.762618 0.619374
Si Si4 0.168343 0.028786 0.114052
Si Si5 0.671109 0.237367 0.610496
Si Si6 0.051847 0.402761 0.609617
Si Si7 0.020273 0.279411 0.206583
Si Si8 0.168560 0.540909 0.301936
O O1 0.401609 0.047158 0.500000
O O2 0.452920 0.177891 0.364131
O O3 0.353314 0.036245 0.316028
O O4 0.500000 0.000000 0.352369
O O5 0.894923 0.150138 0.666568
O O6 0.007441 0.159635 0.795763
O O7 0.895996 0.037255 0.832319
O O8 0.000000 0.000000 0.691659
O O9 0.151657 0.767476 0.500000
O O10 0.245180 0.782151 0.656231
O O11 0.137596 0.648101 0.653263
O O12 0.146430 0.145812 0.107518
O O13 0.242442 0.024476 0.184145
O O14 0.182104 0.988502 0.000000
O O15 0.669675 0.190348 0.500000
O O16 0.603939 0.183135 0.671415
O O17 0.057410 0.352821 0.500000
O O18 0.014226 0.318116 0.679645
O O19 0.133943 0.443579 0.642406
O O20 0.000000 0.500000 0.611037
#
# Coordination Sequence:
#
# PCOD8238575 Si02
#       8
#     8   8   8   8   8   8   8   8
#     4  11  22  37  60  96 132 162 198 252 329 392
#     4  12  25  41  61  94 132 170 213 263 316 377
#     4  10  22  41  66  92 124 174 220 261 318 382
#     4  10  23  41  64  89 120 164 213 266 314 366
#     4   9  20  39  64  89 116 161 216 261 307 373
#     4  11  21  35  61  93 123 158 205 263 320 371
#     4  12  21  39  59  92 128 166 208 259 322 382
#     4  11  19  42  65  94 124 157 214 274 319 376
#
# _framework density 20.634983999999999
#
# number of rings (size 3 to 8) (size 9 to 14) (size 15 to 20)
#    0.000    1.250    5.000    2.250    1.750    3.000 
#    0.000    0.625    0.000    3.000    0.000    0.000 
#    0.000    0.000    0.000    0.000    0.000    0.000 
#
# Total GULP energy -793175.255053 kJ/mol
# GULP energy per Si atom -12393.363360 kJ/mol
# Density = 2.058802 g / cm^3
# Si number density = 20.634984 Si / 1000 Ang^3
#
#
#
# Elastic Constant Matrix: (Units=GPa)
#
#
# Indices 1 2 3 4 5 6 
#
# 1 107.6186 29.5673 53.5700 0.0000 0.0000 0.0000
# 2 29.5673 75.8498 25.6197 0.0000 0.0000 0.0000
# 3 53.5700 25.6197 126.7161 0.0000 0.0000 0.0000
# 4 0.0000 0.0000 0.0000 -12.7462 0.0000 0.0000
# 5 0.0000 0.0000 0.0000 0.0000 26.4728 0.0000
# 6 0.0000 0.0000 0.0000 0.0000 0.0000 33.5771
#
#
#
# Elastic Compliance Matrix: (Units=1/GPa)
#
#
# Indices 1 2 3 4 5 6 
#
# 1 0.012499 -0.003314 -0.004614 0.000000 0.000000 0.000000
# 2 -0.003314 0.015029 -0.001638 0.000000 0.000000 0.000000
# 3 -0.004614 -0.001638 0.010173 0.000000 0.000000 0.000000
# 4 0.000000 0.000000 0.000000 -0.078455 0.000000 0.000000
# 5 0.000000 0.000000 0.000000 0.000000 0.037775 0.000000
# 6 0.000000 0.000000 0.000000 0.000000 0.000000 0.029782
#
#
# Mechanical properties :
#
#
# Convention : Reuss Voigt Hill
#
# Bulk Modulus (GPa) = 53.84934 58.63316 56.24125
# Shear Modulus (GPa) = 95.92289 22.88925 59.40607
#
# Velocity S-wave (km/s) = 6.82543 3.33415 5.37136
# Velocity P-wave (km/s) = 9.39511 6.58013 8.11068
#
# Compressibility (1/GPa) = 0.01857033
#
# Stress axis : x y z
#
# Youngs Moduli (GPa) = 80.00404 66.53847 98.29539
#
# Poissons Ratio (x) = 0.22050 0.45355
# Poissons Ratio (y) = 0.26513 0.16097
# Poissons Ratio (z) = 0.36915 0.10896
#
# Static dielectric constant tensor:
#      x y z
#    x 3.852100 0.000000 0.000000 
#    y 0.000000 3.783030 0.000000 
#    z 0.000000 0.000000 3.766390 
# 
# 
# High freq. dielectric constant tensor:
#      x y z
#    x 1.812770 0.000000 0.000000 
#    y 0.000000 1.799520 0.000000 
#    z 0.000000 0.000000 1.797560 
# 
# From -- ./inp_files/22960.got.cif
#   From: 2010.06.25/outbox.cif.g09.slc.cpg/sg58_12_cif.got.tgz:22960.got - 2010.06.26 21:38:00.
