data_PCOD8238705
_publ_section_title
;
Structure prediction by ZEFSAII (Michael W. Deem and Ramdas Pophale) SiO2 
 PCOD8238705
Probable space group: P N N M
;
_chemical_formula_sum "Si O2"
_cell_formula_units_Z 48
_cell_length_a 10.563333
_cell_length_b 15.387659
_cell_length_c 15.569404
_cell_angle_alpha 90.000000
_cell_angle_beta 90.000000
_cell_angle_gamma 90.000000
_cell_volume 2530.728245
_symmetry_space_group_name_H-M "P N N M"
_symmetry_group_IT_number 58
_symmetry_cell_setting 'orthorhombic'
loop_
_space_group_symop_operation_xyz
x,y,z
-x,-y,z
1/2+x,1/2-y,1/2-z
1/2-x,1/2+y,1/2-z
-x,-y,-z
x,y,-z
1/2-x,1/2+y,1/2+z
1/2+x,1/2-y,1/2+z
loop_
_atom_site_type_symbol
_atom_site_label
_atom_site_fract_x
_atom_site_fract_y
_atom_site_fract_z
Si Si1 0.693010 0.527360 0.320120
Si Si2 0.569150 0.085709 0.712426
Si Si3 0.455245 0.636523 0.704274
Si Si4 0.810986 0.729369 0.898577
Si Si5 0.460138 0.225761 0.829023
Si Si6 0.008119 0.357181 0.500000
Si Si7 0.205190 0.511218 0.500000
O O1 0.824362 0.556263 0.279728
O O2 0.633088 0.444943 0.270565
O O3 0.596888 0.607786 0.320015
O O4 0.707537 0.494854 0.417235
O O5 0.629202 0.138094 0.632975
O O6 0.466119 0.143403 0.764321
O O7 0.500000 0.000000 0.675767
O O8 0.404810 0.691421 0.622867
O O9 0.459328 0.695742 0.789157
O O10 0.683355 0.745717 0.845086
O O11 0.785129 0.723564 0.000000
O O12 0.529999 0.202332 0.917328
O O13 0.105444 0.434507 0.500000
O O14 0.864986 0.395361 0.500000
#
# Coordination Sequence:
#
# PCOD8238705 Si02
#       7
#     8   8   8   8   8   4   4
#     4  11  22  39  59  86 124 156 194 247 302 368
#     4  11  22  39  63  87 118 162 204 243 294 359
#     4  10  24  38  59  86 121 158 194 242 308 359
#     4  11  23  39  62  88 121 156 202 249 300 353
#     4  11  21  39  62  91 116 156 203 249 296 358
#     4  11  20  34  62  89 121 147 203 250 299 353
#     4  11  22  33  56  96 120 152 192 249 309 363
#
# _framework density 18.966874000000001
#
# number of rings (size 3 to 8) (size 9 to 14) (size 15 to 20)
#    0.000    1.167    4.167    3.000    2.333    1.000 
#    0.000    0.000    1.833    2.000    0.000    0.000 
#    0.000    0.000    0.000    0.000    0.000    0.000 
#
# Total GULP energy -595338.454673 kJ/mol
# GULP energy per Si atom -12402.884472 kJ/mol
# Density = 1.892370 g / cm^3
# Si number density = 18.966874 Si / 1000 Ang^3
#
#
#
# Elastic Constant Matrix: (Units=GPa)
#
#
# Indices 1 2 3 4 5 6 
#
# 1 79.0790 40.9089 29.4669 0.0000 0.0000 0.0000
# 2 40.9089 113.7558 47.2851 0.0000 0.0000 0.0000
# 3 29.4669 47.2851 99.7692 0.0000 0.0000 0.0000
# 4 0.0000 0.0000 0.0000 26.8410 0.0000 0.0000
# 5 0.0000 0.0000 0.0000 0.0000 21.6830 0.0000
# 6 0.0000 0.0000 0.0000 0.0000 0.0000 31.0633
#
#
#
# Elastic Compliance Matrix: (Units=1/GPa)
#
#
# Indices 1 2 3 4 5 6 
#
# 1 0.016018 -0.004725 -0.002492 0.000000 0.000000 0.000000
# 2 -0.004725 0.012341 -0.004454 0.000000 0.000000 0.000000
# 3 -0.002492 -0.004454 0.012870 0.000000 0.000000 0.000000
# 4 0.000000 0.000000 0.000000 0.037256 0.000000 0.000000
# 5 0.000000 0.000000 0.000000 0.000000 0.046119 0.000000
# 6 0.000000 0.000000 0.000000 0.000000 0.000000 0.032192
#
#
# Mechanical properties :
#
#
# Convention : Reuss Voigt Hill
#
# Bulk Modulus (GPa) = 55.89995 58.65842 57.27918
# Shear Modulus (GPa) = 26.86728 27.58034 27.22381
#
# Velocity S-wave (km/s) = 3.76777 3.81745 3.79269
# Velocity P-wave (km/s) = 6.96165 7.10102 7.03168
#
# Compressibility (1/GPa) = 0.01788911
#
# Stress axis : x y z
#
# Youngs Moduli (GPa) = 62.42868 81.03011 77.70134
#
# Poissons Ratio (x) = 0.38285 0.19361
# Poissons Ratio (y) = 0.29496 0.34604
# Poissons Ratio (z) = 0.15556 0.36087
#
# Static dielectric constant tensor:
#      x y z
#    x 3.513900 0.000000 0.000000 
#    y 0.000000 3.687840 0.000000 
#    z 0.000000 0.000000 3.324140 
# 
# 
# High freq. dielectric constant tensor:
#      x y z
#    x 1.741090 0.000000 0.000000 
#    y 0.000000 1.751110 0.000000 
#    z 0.000000 0.000000 1.720380 
# 
# From -- ./inp_files/21212.got.cif
#   From: 2010.06.25/outbox.cif.g09.slc.cpg/sg58_11_cif.got.tgz:21212.got - 2010.06.26 21:38:00.
