data_PCOD8238071
_publ_section_title
;
Structure prediction by ZEFSAII (Michael W. Deem and Ramdas Pophale) SiO2 
 PCOD8238071
Probable space group: P N N M
;
_chemical_formula_sum "Si O2"
_cell_formula_units_Z 56
_cell_length_a 14.684956
_cell_length_b 21.885393
_cell_length_c 8.844533
_cell_angle_alpha 90.000000
_cell_angle_beta 90.000000
_cell_angle_gamma 90.000000
_cell_volume 2842.509377
_symmetry_space_group_name_H-M "P N N M"
_symmetry_group_IT_number 58
_symmetry_cell_setting 'orthorhombic'
loop_
_space_group_symop_operation_xyz
x,y,z
-x,-y,z
1/2+x,1/2-y,1/2-z
1/2-x,1/2+y,1/2-z
-x,-y,-z
x,y,-z
1/2-x,1/2+y,1/2+z
1/2+x,1/2-y,1/2+z
loop_
_atom_site_type_symbol
_atom_site_label
_atom_site_fract_x
_atom_site_fract_y
_atom_site_fract_z
Si Si1 0.944086 0.678180 0.678695
Si Si2 0.623945 0.751887 0.823684
Si Si3 0.920480 0.542813 0.320983
Si Si4 0.811083 0.781374 0.678556
Si Si5 0.604893 0.401149 0.322061
Si Si6 0.084044 0.887617 0.676950
Si Si7 0.216162 0.979380 0.177025
O O1 0.934150 0.675419 0.500000
O O2 0.930984 0.610790 0.748800
O O3 0.866020 0.722938 0.742819
O O4 0.042198 0.703904 0.724336
O O5 0.707141 0.774434 0.723995
O O6 0.596473 0.683177 0.781877
O O7 0.648599 0.757974 0.000000
O O8 0.932225 0.546274 0.500000
O O9 0.822207 0.515421 0.277392
O O10 0.000000 0.500000 0.252022
O O11 0.821250 0.786599 0.500000
O O12 0.853576 0.841702 0.747564
O O13 0.601830 0.392028 0.500000
O O14 0.503604 0.414245 0.262686
O O15 0.668061 0.457922 0.275864
O O16 0.069276 0.897122 0.500000
O O17 0.173057 0.923360 0.731600
O O18 0.204773 0.965363 0.000000
#
# Coordination Sequence:
#
# PCOD8238071 Si02
#       7
#     8   8   8   8   8   8   8
#     4   9  18  35  57  81 116 150 184 236 290 345
#     4  10  21  37  58  85 117 153 192 240 296 351
#     4   9  18  33  58  87 113 148 194 241 290 347
#     4  11  22  38  59  87 119 156 200 244 294 357
#     4  11  23  38  59  87 121 155 194 251 303 355
#     4  11  22  39  61  87 120 158 198 244 300 364
#     4  10  22  38  58  88 119 153 201 249 299 358
#
# _framework density 19.700901999999999
#
# number of rings (size 3 to 8) (size 9 to 14) (size 15 to 20)
#    0.000    1.857    1.429    2.571    2.000    5.143 
#    0.000    0.000    0.000    1.286    0.000    0.000 
#    0.000    0.000    0.000    0.000    0.000    0.000 
#
# Total GULP energy -694602.728040 kJ/mol
# GULP energy per Si atom -12403.620144 kJ/mol
# Density = 1.965606 g / cm^3
# Si number density = 19.700902 Si / 1000 Ang^3
#
#
#
# Elastic Constant Matrix: (Units=GPa)
#
#
# Indices 1 2 3 4 5 6 
#
# 1 128.7078 50.2696 18.9079 0.0000 0.0000 0.0000
# 2 50.2696 126.2538 27.0845 0.0000 0.0000 0.0000
# 3 18.9079 27.0845 40.6825 0.0000 0.0000 0.0000
# 4 0.0000 0.0000 0.0000 25.6708 0.0000 0.0000
# 5 0.0000 0.0000 0.0000 0.0000 26.6609 0.0000
# 6 0.0000 0.0000 0.0000 0.0000 0.0000 36.0664
#
#
#
# Elastic Compliance Matrix: (Units=1/GPa)
#
#
# Indices 1 2 3 4 5 6 
#
# 1 0.009363 -0.003260 -0.002181 0.000000 0.000000 0.000000
# 2 -0.003260 0.010375 -0.005392 0.000000 0.000000 0.000000
# 3 -0.002181 -0.005392 0.029184 0.000000 0.000000 0.000000
# 4 0.000000 0.000000 0.000000 0.038955 0.000000 0.000000
# 5 0.000000 0.000000 0.000000 0.000000 0.037508 0.000000
# 6 0.000000 0.000000 0.000000 0.000000 0.000000 0.027727
#
#
# Mechanical properties :
#
#
# Convention : Reuss Voigt Hill
#
# Bulk Modulus (GPa) = 36.68969 54.24091 45.46530
# Shear Modulus (GPa) = 27.19384 30.97175 29.08279
#
# Velocity S-wave (km/s) = 3.71932 3.96927 3.84632
# Velocity P-wave (km/s) = 6.09165 6.97128 6.54626
#
# Compressibility (1/GPa) = 0.02725561
#
# Stress axis : x y z
#
# Youngs Moduli (GPa) = 106.79979 96.38176 34.26499
#
# Poissons Ratio (x) = 0.31422 0.07474
# Poissons Ratio (y) = 0.34819 0.18476
# Poissons Ratio (z) = 0.23296 0.51971
#
# Static dielectric constant tensor:
#      x y z
#    x 3.551850 0.000000 0.000000 
#    y 0.000000 3.857300 0.000000 
#    z 0.000000 0.000000 3.302920 
# 
# 
# High freq. dielectric constant tensor:
#      x y z
#    x 1.784000 0.000000 0.000000 
#    y 0.000000 1.781830 0.000000 
#    z 0.000000 0.000000 1.736720 
# 
# From -- ./inp_files/6372.got.cif
#   From: 2010.06.25/outbox.cif.g09.slc.cpg/sg58_4_cif.got.tgz:6372.got - 2010.06.26 21:38:00.
