data_PCOD8238226
_publ_section_title
;
Structure prediction by ZEFSAII (Michael W. Deem and Ramdas Pophale) SiO2 
 PCOD8238226
Probable space group: P N N M
;
_chemical_formula_sum "Si O2"
_cell_formula_units_Z 44
_cell_length_a 8.827304
_cell_length_b 16.821192
_cell_length_c 14.629748
_cell_angle_alpha 90.000000
_cell_angle_beta 90.000000
_cell_angle_gamma 90.000000
_cell_volume 2172.309476
_symmetry_space_group_name_H-M "P N N M"
_symmetry_group_IT_number 58
_symmetry_cell_setting 'orthorhombic'
loop_
_space_group_symop_operation_xyz
x,y,z
-x,-y,z
1/2+x,1/2-y,1/2-z
1/2-x,1/2+y,1/2-z
-x,-y,-z
x,y,-z
1/2-x,1/2+y,1/2+z
1/2+x,1/2-y,1/2+z
loop_
_atom_site_type_symbol
_atom_site_label
_atom_site_fract_x
_atom_site_fract_y
_atom_site_fract_z
Si Si1 0.000000 0.500000 0.335017
Si Si2 0.788066 0.080135 0.100047
Si Si3 0.265103 0.235712 0.400630
Si Si4 0.907595 0.220612 0.604468
Si Si5 0.803615 0.358719 0.730776
Si Si6 0.526502 0.582446 0.771351
O O1 0.114464 0.449490 0.397425
O O2 0.095437 0.562053 0.273995
O O3 0.805671 0.173559 0.113203
O O4 0.881607 0.046151 0.184527
O O5 0.852268 0.055069 0.000000
O O6 0.319293 0.204976 0.500000
O O7 0.352872 0.184847 0.324541
O O8 0.086253 0.228865 0.392768
O O9 0.849381 0.209416 0.500000
O O10 0.829346 0.299433 0.645377
O O11 0.872444 0.142411 0.666601
O O12 0.625944 0.376910 0.734625
O O13 0.500000 0.500000 0.828490
#
# Coordination Sequence:
#
# PCOD8238226 Si02
#       6
#     4   8   8   8   8   8
#     4  12  23  38  61  90 120 162 199 248 297 356
#     4  11  22  38  60  87 121 157 196 244 301 358
#     4   9  19  38  62  85 114 159 201 241 291 353
#     4  10  21  38  63  89 117 158 207 241 285 360
#     4  11  22  38  64  88 122 157 202 247 297 356
#     4  11  23  41  60  91 126 156 193 251 308 347
#
# _framework density 20.254942
#
# number of rings (size 3 to 8) (size 9 to 14) (size 15 to 20)
#    0.000    1.455    5.455    0.273    0.000    2.182 
#    0.000    0.455    0.000    0.000    0.000    0.000 
#    0.000    0.000    0.000    0.000    0.000    0.000 
#
# Total GULP energy -545287.153414 kJ/mol
# GULP energy per Si atom -12392.889850 kJ/mol
# Density = 2.020884 g / cm^3
# Si number density = 20.254942 Si / 1000 Ang^3
#
#
#
# Elastic Constant Matrix: (Units=GPa)
#
#
# Indices 1 2 3 4 5 6 
#
# 1 46.2592 33.7752 37.3957 0.0000 0.0000 0.0000
# 2 33.7752 96.0574 52.8192 0.0000 0.0000 0.0000
# 3 37.3957 52.8192 142.5982 0.0000 0.0000 0.0000
# 4 0.0000 0.0000 0.0000 7.6821 0.0000 0.0000
# 5 0.0000 0.0000 0.0000 0.0000 24.0287 0.0000
# 6 0.0000 0.0000 0.0000 0.0000 0.0000 30.5474
#
#
#
# Elastic Compliance Matrix: (Units=1/GPa)
#
#
# Indices 1 2 3 4 5 6 
#
# 1 0.031987 -0.008331 -0.005302 0.000000 0.000000 0.000000
# 2 -0.008331 0.015243 -0.003461 0.000000 0.000000 0.000000
# 3 -0.005302 -0.003461 0.009685 0.000000 0.000000 0.000000
# 4 0.000000 0.000000 0.000000 0.130173 0.000000 0.000000
# 5 0.000000 0.000000 0.000000 0.000000 0.041617 0.000000
# 6 0.000000 0.000000 0.000000 0.000000 0.000000 0.032736
#
#
# Mechanical properties :
#
#
# Convention : Reuss Voigt Hill
#
# Bulk Modulus (GPa) = 44.00423 59.21056 51.60739
# Shear Modulus (GPa) = 16.49041 23.17995 19.83518
#
# Velocity S-wave (km/s) = 2.85641 3.38658 3.13273
# Velocity P-wave (km/s) = 5.71412 6.67743 6.21447
#
# Compressibility (1/GPa) = 0.02272509
#
# Stress axis : x y z
#
# Youngs Moduli (GPa) = 31.26303 65.60337 103.24918
#
# Poissons Ratio (x) = 0.54656 0.54746
# Poissons Ratio (y) = 0.26046 0.35737
# Poissons Ratio (z) = 0.16577 0.22707
#
# Static dielectric constant tensor:
#      x y z
#    x 3.872240 0.000000 0.000000 
#    y 0.000000 4.241460 0.000000 
#    z 0.000000 0.000000 3.974400 
# 
# 
# High freq. dielectric constant tensor:
#      x y z
#    x 1.769380 0.000000 0.000000 
#    y 0.000000 1.806020 0.000000 
#    z 0.000000 0.000000 1.787820 
# 
# From -- ./inp_files/19713.got.cif
#   From: 2010.06.25/outbox.cif.g09.slc.cpg/sg58_10_cif.got.tgz:19713.got - 2010.06.26 21:38:00.
