data_PCOD8238111
_publ_section_title
;
Structure prediction by ZEFSAII (Michael W. Deem and Ramdas Pophale) SiO2 
 PCOD8238111
Probable space group: P N N M
;
_chemical_formula_sum "Si O2"
_cell_formula_units_Z 64
_cell_length_a 30.391446
_cell_length_b 11.987373
_cell_length_c 8.907007
_cell_angle_alpha 90.000000
_cell_angle_beta 90.000000
_cell_angle_gamma 90.000000
_cell_volume 3244.943778
_symmetry_space_group_name_H-M "P N N M"
_symmetry_group_IT_number 58
_symmetry_cell_setting 'orthorhombic'
loop_
_space_group_symop_operation_xyz
x,y,z
-x,-y,z
1/2+x,1/2-y,1/2-z
1/2-x,1/2+y,1/2-z
-x,-y,-z
x,y,-z
1/2-x,1/2+y,1/2+z
1/2+x,1/2-y,1/2+z
loop_
_atom_site_type_symbol
_atom_site_label
_atom_site_fract_x
_atom_site_fract_y
_atom_site_fract_z
Si Si1 0.924062 0.757849 0.331154
Si Si2 0.449354 0.499876 0.176801
Si Si3 0.696315 0.485123 0.322646
Si Si4 0.676079 0.256715 0.170578
Si Si5 0.372080 0.093179 0.321614
Si Si6 0.787652 0.546267 0.821905
Si Si7 0.954326 0.547312 0.822392
Si Si8 0.879516 0.154551 0.823215
O O1 0.943094 0.753714 0.500000
O O2 0.928422 0.883299 0.268527
O O3 0.874037 0.716519 0.327596
O O4 0.951960 0.675256 0.228375
O O5 0.500000 0.500000 0.228152
O O6 0.423251 0.398980 0.253321
O O7 0.444532 0.483648 0.000000
O O8 0.698381 0.467093 0.500000
O O9 0.676911 0.377237 0.243803
O O10 0.744511 0.504048 0.259582
O O11 0.664472 0.587395 0.278693
O O12 0.704557 0.172698 0.269909
O O13 0.694484 0.260499 0.000000
O O14 0.373433 0.092213 0.500000
O O15 0.373556 0.219815 0.260636
O O16 0.327390 0.033287 0.267296
O O17 0.414088 0.026080 0.256588
O O18 0.781381 0.543263 0.000000
O O19 0.000000 0.500000 0.758749
O O20 0.953303 0.544007 0.000000
O O21 0.886545 0.155394 0.000000
#
# Coordination Sequence:
#
# PCOD8238111 Si02
#       8
#     8   8   8   8   8   8   8   8
#     4  10  21  38  60  85 117 155 197 248 300 352
#     4  10  22  40  60  86 120 156 196 245 300 354
#     4  11  24  40  61  91 122 156 203 250 299 362
#     4  11  22  40  64  87 119 159 203 253 303 356
#     4   9  20  39  58  83 120 156 191 238 298 353
#     4  11  23  40  64  90 121 160 199 248 308 363
#     4  10  21  37  60  88 118 155 199 246 295 355
#     4  10  22  40  61  85 118 157 196 243 294 353
#
# _framework density 19.722992000000001
#
# number of rings (size 3 to 8) (size 9 to 14) (size 15 to 20)
#    0.000    1.750    2.500    1.125    3.500    2.000 
#    0.000    1.875    0.000    0.000    0.000    0.000 
#    0.000    0.000    0.000    0.000    0.000    0.000 
#
# Total GULP energy -793775.435366 kJ/mol
# GULP energy per Si atom -12402.741178 kJ/mol
# Density = 1.967810 g / cm^3
# Si number density = 19.722992 Si / 1000 Ang^3
#
#
#
# Elastic Constant Matrix: (Units=GPa)
#
#
# Indices 1 2 3 4 5 6 
#
# 1 122.7703 40.8662 40.1260 0.0000 0.0000 0.0000
# 2 40.8662 124.6381 36.0218 0.0000 0.0000 0.0000
# 3 40.1260 36.0218 68.6225 0.0000 0.0000 0.0000
# 4 0.0000 0.0000 0.0000 27.9850 0.0000 0.0000
# 5 0.0000 0.0000 0.0000 0.0000 27.8324 0.0000
# 6 0.0000 0.0000 0.0000 0.0000 0.0000 31.5957
#
#
#
# Elastic Compliance Matrix: (Units=1/GPa)
#
#
# Indices 1 2 3 4 5 6 
#
# 1 0.010460 -0.001959 -0.005088 0.000000 0.000000 0.000000
# 2 -0.001959 0.009825 -0.004012 0.000000 0.000000 0.000000
# 3 -0.005088 -0.004012 0.019654 0.000000 0.000000 0.000000
# 4 0.000000 0.000000 0.000000 0.035733 0.000000 0.000000
# 5 0.000000 0.000000 0.000000 0.000000 0.035929 0.000000
# 6 0.000000 0.000000 0.000000 0.000000 0.000000 0.031650
#
#
# Mechanical properties :
#
#
# Convention : Reuss Voigt Hill
#
# Bulk Modulus (GPa) = 56.11435 61.11766 58.61601
# Shear Modulus (GPa) = 29.18678 30.75042 29.96860
#
# Velocity S-wave (km/s) = 3.85104 3.95285 3.90227
# Velocity P-wave (km/s) = 6.94888 7.20338 7.07727
#
# Compressibility (1/GPa) = 0.01782075
#
# Stress axis : x y z
#
# Youngs Moduli (GPa) = 95.59814 101.78037 50.88124
#
# Poissons Ratio (x) = 0.19941 0.25889
# Poissons Ratio (y) = 0.18730 0.20413
# Poissons Ratio (z) = 0.48642 0.40832
#
# Static dielectric constant tensor:
#      x y z
#    x 3.762200 0.000000 0.000000 
#    y 0.000000 3.656410 0.000000 
#    z 0.000000 0.000000 3.422650 
# 
# 
# High freq. dielectric constant tensor:
#      x y z
#    x 1.776860 0.000000 0.000000 
#    y 0.000000 1.780270 0.000000 
#    z 0.000000 0.000000 1.751810 
# 
# From -- ./inp_files/4650.got.cif
#   From: 2010.06.25/outbox.cif.g09.slc.cpg/sg58_3_cif.got.tgz:4650.got - 2010.06.26 21:38:00.
