data_PCOD8238445
_publ_section_title
;
Structure prediction by ZEFSAII (Michael W. Deem and Ramdas Pophale) SiO2 
 PCOD8238445
Probable space group: P N N M
;
_chemical_formula_sum "Si O2"
_cell_formula_units_Z 52
_cell_length_a 9.999356
_cell_length_b 16.311593
_cell_length_c 16.033463
_cell_angle_alpha 90.000000
_cell_angle_beta 90.000000
_cell_angle_gamma 90.000000
_cell_volume 2615.144802
_symmetry_space_group_name_H-M "P N N M"
_symmetry_group_IT_number 58
_symmetry_cell_setting 'orthorhombic'
loop_
_space_group_symop_operation_xyz
x,y,z
-x,-y,z
1/2+x,1/2-y,1/2-z
1/2-x,1/2+y,1/2-z
-x,-y,-z
x,y,-z
1/2-x,1/2+y,1/2+z
1/2+x,1/2-y,1/2+z
loop_
_atom_site_type_symbol
_atom_site_label
_atom_site_fract_x
_atom_site_fract_y
_atom_site_fract_z
Si Si1 0.951269 0.416074 0.404627
Si Si2 0.149653 0.859698 0.313572
Si Si3 0.178149 0.717981 0.187588
Si Si4 0.000000 0.000000 0.762495
Si Si5 0.314710 0.630338 0.339148
Si Si6 0.592413 0.198022 0.598011
Si Si7 0.560961 0.252098 0.903277
O O1 0.999023 0.418250 0.500000
O O2 0.791445 0.413159 0.399204
O O3 0.000000 0.500000 0.359752
O O4 0.015526 0.334841 0.361345
O O5 0.152147 0.806166 0.229245
O O6 0.290348 0.858059 0.362639
O O7 0.112525 0.954023 0.293236
O O8 0.030158 0.824710 0.369293
O O9 0.240752 0.655489 0.253880
O O10 0.284475 0.731101 0.113885
O O11 0.045349 0.679195 0.146687
O O12 0.067314 0.067520 0.821110
O O13 0.372653 0.707194 0.388936
O O14 0.577647 0.178425 0.500000
O O15 0.532528 0.247208 0.000000
#
# Coordination Sequence:
#
# PCOD8238445 Si02
#       7
#     8   8   8   4   8   8   8
#     4  10  22  37  58  90 125 164 206 251 311 379
#     4  11  22  40  66  87 123 169 215 255 304 377
#     4  11  21  39  63  93 119 161 209 255 309 369
#     4  12  24  42  60  98 124 162 222 258 318 366
#     4  11  23  38  63  88 126 164 204 264 308 376
#     4  11  22  40  65  94 124 163 209 263 323 374
#     4  11  21  39  62  87 121 166 210 254 304 374
#
# _framework density 19.884177999999999
#
# number of rings (size 3 to 8) (size 9 to 14) (size 15 to 20)
#    0.000    1.077    6.154    2.308    2.154    0.000 
#    0.000    3.077    0.000    0.923    0.000    0.000 
#    0.000    0.000    0.000    0.000    0.000    0.000 
#
# Total GULP energy -644826.809187 kJ/mol
# GULP energy per Si atom -12400.515561 kJ/mol
# Density = 1.983892 g / cm^3
# Si number density = 19.884178 Si / 1000 Ang^3
#
#
#
# Elastic Constant Matrix: (Units=GPa)
#
#
# Indices 1 2 3 4 5 6 
#
# 1 117.2985 9.1100 16.4791 0.0000 0.0000 0.0000
# 2 9.1100 55.2398 -7.2724 0.0000 0.0000 0.0000
# 3 16.4791 -7.2724 52.6583 0.0000 0.0000 0.0000
# 4 0.0000 0.0000 0.0000 16.2362 0.0000 0.0000
# 5 0.0000 0.0000 0.0000 0.0000 39.0033 0.0000
# 6 0.0000 0.0000 0.0000 0.0000 0.0000 35.5255
#
#
#
# Elastic Compliance Matrix: (Units=1/GPa)
#
#
# Indices 1 2 3 4 5 6 
#
# 1 0.009112 -0.001913 -0.003116 0.000000 0.000000 0.000000
# 2 -0.001913 0.018840 0.003200 0.000000 0.000000 0.000000
# 3 -0.003116 0.003200 0.020407 0.000000 0.000000 0.000000
# 4 0.000000 0.000000 0.000000 0.061591 0.000000 0.000000
# 5 0.000000 0.000000 0.000000 0.000000 0.025639 0.000000
# 6 0.000000 0.000000 0.000000 0.000000 0.000000 0.028149
#
#
# Mechanical properties :
#
#
# Convention : Reuss Voigt Hill
#
# Bulk Modulus (GPa) = 22.36999 29.09222 25.73111
# Shear Modulus (GPa) = 27.42826 31.94500 29.68663
#
# Velocity S-wave (km/s) = 3.71806 4.01253 3.86810
# Velocity P-wave (km/s) = 5.45037 6.01081 5.73744
#
# Compressibility (1/GPa) = 0.04470276
#
# Stress axis : x y z
#
# Youngs Moduli (GPa) = 109.75122 53.07946 49.00191
#
# Poissons Ratio (x) = 0.10153 0.15267
# Poissons Ratio (y) = 0.20993 -0.15683
# Poissons Ratio (z) = 0.34194 -0.16988
#
# Static dielectric constant tensor:
#      x y z
#    x 3.781780 0.000000 0.000000 
#    y 0.000000 3.643510 0.000000 
#    z 0.000000 0.000000 3.484720 
# 
# 
# High freq. dielectric constant tensor:
#      x y z
#    x 1.790040 0.000000 0.000000 
#    y 0.000000 1.758260 0.000000 
#    z 0.000000 0.000000 1.763900 
# 
# From -- ./inp_files/25485.got.cif
#   From: 2010.06.25/outbox.cif.g09.slc.cpg/sg58_13_cif.got.tgz:25485.got - 2010.06.26 21:38:00.
