data_PCOD8238197
_publ_section_title
;
Structure prediction by ZEFSAII (Michael W. Deem and Ramdas Pophale) SiO2 
 PCOD8238197
Probable space group: P N N M
;
_chemical_formula_sum "Si O2"
_cell_formula_units_Z 48
_cell_length_a 9.427394
_cell_length_b 30.948427
_cell_length_c 7.872673
_cell_angle_alpha 90.000000
_cell_angle_beta 90.000000
_cell_angle_gamma 90.000000
_cell_volume 2296.954811
_symmetry_space_group_name_H-M "P N N M"
_symmetry_group_IT_number 58
_symmetry_cell_setting 'orthorhombic'
loop_
_space_group_symop_operation_xyz
x,y,z
-x,-y,z
1/2+x,1/2-y,1/2-z
1/2-x,1/2+y,1/2-z
-x,-y,-z
x,y,-z
1/2-x,1/2+y,1/2+z
1/2+x,1/2-y,1/2+z
loop_
_atom_site_type_symbol
_atom_site_label
_atom_site_fract_x
_atom_site_fract_y
_atom_site_fract_z
Si Si1 0.033534 0.865872 0.695817
Si Si2 0.357012 0.873738 0.300924
Si Si3 0.358020 0.720770 0.195686
Si Si4 0.486544 0.575636 0.500000
Si Si5 0.954169 0.298139 0.194443
Si Si6 0.866344 0.528852 0.183968
Si Si7 0.298546 0.492045 0.500000
O O1 0.021411 0.882629 0.500000
O O2 0.956908 0.820610 0.717197
O O3 0.196789 0.862150 0.756997
O O4 0.955606 0.898252 0.826660
O O5 0.364521 0.866337 0.500000
O O6 0.470779 0.840188 0.218265
O O7 0.400798 0.922562 0.250650
O O8 0.200617 0.712459 0.276640
O O9 0.435467 0.758864 0.295653
O O10 0.345561 0.734732 0.000000
O O11 0.403493 0.531408 0.500000
O O12 0.646212 0.557403 0.500000
O O13 0.920677 0.308855 0.000000
O O14 0.785317 0.502142 0.325859
O O15 0.000000 0.500000 0.147566
O O16 0.784632 0.532644 0.000000
#
# Coordination Sequence:
#
# PCOD8238197 Si02
#       7
#     8   8   8   4   8   8   4
#     4  10  21  40  63  86 123 165 208 255 305 368
#     4   9  18  36  60  86 116 159 205 250 306 363
#     4  10  22  39  59  90 122 156 200 248 302 365
#     4  11  24  38  62  92 122 168 202 250 317 372
#     4  10  21  38  61  87 122 159 197 249 305 367
#     4  10  21  39  64  89 120 165 209 256 316 370
#     4  11  23  40  58  92 131 153 210 262 304 373
#
# _framework density 20.897234000000001
#
# number of rings (size 3 to 8) (size 9 to 14) (size 15 to 20)
#    0.000    2.000    1.667    1.250    1.167    4.000 
#    3.000    5.000    0.000    0.000    0.000    0.000 
#    0.000    0.000    0.000    0.000    0.000    0.000 
#
# Total GULP energy -594756.967197 kJ/mol
# GULP energy per Si atom -12390.770150 kJ/mol
# Density = 2.084967 g / cm^3
# Si number density = 20.897234 Si / 1000 Ang^3
#
#
#
# Elastic Constant Matrix: (Units=GPa)
#
#
# Indices 1 2 3 4 5 6 
#
# 1 110.0623 60.0066 16.9995 0.0000 0.0000 0.0000
# 2 60.0066 118.9026 26.3447 0.0000 0.0000 0.0000
# 3 16.9995 26.3447 83.5129 0.0000 0.0000 0.0000
# 4 0.0000 0.0000 0.0000 18.9651 0.0000 0.0000
# 5 0.0000 0.0000 0.0000 0.0000 23.5548 0.0000
# 6 0.0000 0.0000 0.0000 0.0000 0.0000 33.2173
#
#
#
# Elastic Compliance Matrix: (Units=1/GPa)
#
#
# Indices 1 2 3 4 5 6 
#
# 1 0.012562 -0.006207 -0.000599 0.000000 0.000000 0.000000
# 2 -0.006207 0.012109 -0.002556 0.000000 0.000000 0.000000
# 3 -0.000599 -0.002556 0.012903 0.000000 0.000000 0.000000
# 4 0.000000 0.000000 0.000000 0.052728 0.000000 0.000000
# 5 0.000000 0.000000 0.000000 0.000000 0.042454 0.000000
# 6 0.000000 0.000000 0.000000 0.000000 0.000000 0.030105
#
#
# Mechanical properties :
#
#
# Convention : Reuss Voigt Hill
#
# Bulk Modulus (GPa) = 53.05335 57.68660 55.36997
# Shear Modulus (GPa) = 26.61415 29.08925 27.85170
#
# Velocity S-wave (km/s) = 3.57259 3.73502 3.65471
# Velocity P-wave (km/s) = 6.51619 6.80186 6.66056
#
# Compressibility (1/GPa) = 0.01884895
#
# Stress axis : x y z
#
# Youngs Moduli (GPa) = 79.60210 82.58156 77.50386
#
# Poissons Ratio (x) = 0.51260 0.04643
# Poissons Ratio (y) = 0.49410 0.19813
# Poissons Ratio (z) = 0.04769 0.21111
#
# Static dielectric constant tensor:
#      x y z
#    x 4.001380 0.000000 0.000000 
#    y 0.000000 3.838640 0.000000 
#    z 0.000000 0.000000 3.266130 
# 
# 
# High freq. dielectric constant tensor:
#      x y z
#    x 1.809450 0.000000 0.000000 
#    y 0.000000 1.825160 0.000000 
#    z 0.000000 0.000000 1.808730 
# 
# From -- ./inp_files/3078.got.cif
#   From: 2010.06.25/outbox.cif.g09.slc.cpg/sg58_2_cif.got.tgz:3078.got - 2010.06.26 21:38:00.
