data_PCOD8238009
_publ_section_title
;
Structure prediction by ZEFSAII (Michael W. Deem and Ramdas Pophale) SiO2 
 PCOD8238009
Probable space group: P N N M
;
_chemical_formula_sum "Si O2"
_cell_formula_units_Z 40
_cell_length_a 5.114378
_cell_length_b 17.798430
_cell_length_c 19.604561
_cell_angle_alpha 90.000000
_cell_angle_beta 90.000000
_cell_angle_gamma 90.000000
_cell_volume 1784.561995
_symmetry_space_group_name_H-M "P N N M"
_symmetry_group_IT_number 58
_symmetry_cell_setting 'orthorhombic'
loop_
_space_group_symop_operation_xyz
x,y,z
-x,-y,z
1/2+x,1/2-y,1/2-z
1/2-x,1/2+y,1/2-z
-x,-y,-z
x,y,-z
1/2-x,1/2+y,1/2+z
1/2+x,1/2-y,1/2+z
loop_
_atom_site_type_symbol
_atom_site_label
_atom_site_fract_x
_atom_site_fract_y
_atom_site_fract_z
Si Si1 0.550190 0.228700 0.711094
Si Si2 0.035502 0.138714 0.576118
Si Si3 0.248777 0.457771 0.419487
Si Si4 0.826771 0.213859 0.921425
Si Si5 0.478045 0.916009 0.647402
O O1 0.342702 0.269165 0.759856
O O2 0.548777 0.261724 0.633304
O O3 0.458945 0.141420 0.708912
O O4 0.942193 0.122229 0.500000
O O5 0.083893 0.228363 0.586974
O O6 0.308828 0.094879 0.587718
O O7 0.813950 0.105669 0.624485
O O8 0.500000 0.500000 0.387792
O O9 0.250569 0.468580 0.500000
O O10 0.234676 0.369632 0.401495
O O11 0.000000 0.500000 0.387314
O O12 0.936129 0.217025 0.000000
O O13 0.500000 0.000000 0.675807
#
# Coordination Sequence:
#
# PCOD8238009 Si02
#       5
#     8   8   8   8   8
#     4  11  24  44  65  88 123 164 203 249 308 369
#     4  10  21  36  60  94 128 165 206 253 313 376
#     4   9  18  32  53  84 120 154 194 252 309 351
#     4   9  20  40  65  91 121 161 210 255 302 371
#     4  11  23  40  62  89 125 165 207 257 310 374
#
# _framework density 22.414463000000001
#
# number of rings (size 3 to 8) (size 9 to 14) (size 15 to 20)
#    0.000    2.000    0.000    3.600    0.000    8.000 
#    0.000   16.000    0.000    0.000    0.000    0.000 
#    0.000    0.000    0.000    0.000    0.000    0.000 
#
# Total GULP energy -495781.849762 kJ/mol
# GULP energy per Si atom -12394.546244 kJ/mol
# Density = 2.236345 g / cm^3
# Si number density = 22.414463 Si / 1000 Ang^3
#
#
#
# Elastic Constant Matrix: (Units=GPa)
#
#
# Indices 1 2 3 4 5 6 
#
# 1 113.0878 30.8228 10.3934 0.0000 0.0000 0.0000
# 2 30.8228 184.1803 18.2716 0.0000 0.0000 0.0000
# 3 10.3934 18.2716 71.1981 0.0000 0.0000 0.0000
# 4 0.0000 0.0000 0.0000 18.7147 0.0000 0.0000
# 5 0.0000 0.0000 0.0000 0.0000 20.7121 0.0000
# 6 0.0000 0.0000 0.0000 0.0000 0.0000 25.8400
#
#
#
# Elastic Compliance Matrix: (Units=1/GPa)
#
#
# Indices 1 2 3 4 5 6 
#
# 1 0.009332 -0.001464 -0.000987 0.000000 0.000000 0.000000
# 2 -0.001464 0.005801 -0.001275 0.000000 0.000000 0.000000
# 3 -0.000987 -0.001275 0.014517 0.000000 0.000000 0.000000
# 4 0.000000 0.000000 0.000000 0.053434 0.000000 0.000000
# 5 0.000000 0.000000 0.000000 0.000000 0.048281 0.000000
# 6 0.000000 0.000000 0.000000 0.000000 0.000000 0.038700
#
#
# Mechanical properties :
#
#
# Convention : Reuss Voigt Hill
#
# Bulk Modulus (GPa) = 45.04757 54.16020 49.60388
# Shear Modulus (GPa) = 27.03941 33.65190 30.34566
#
# Velocity S-wave (km/s) = 3.47701 3.87893 3.68345
# Velocity P-wave (km/s) = 6.02168 6.65409 6.34577
#
# Compressibility (1/GPa) = 0.02219876
#
# Stress axis : x y z
#
# Youngs Moduli (GPa) = 107.15401 172.38605 68.88685
#
# Poissons Ratio (x) = 0.25236 0.06797
# Poissons Ratio (y) = 0.15686 0.08783
# Poissons Ratio (z) = 0.10572 0.21979
#
# Static dielectric constant tensor:
#      x y z
#    x 3.966480 0.000000 0.000000 
#    y 0.000000 4.317600 0.000000 
#    z 0.000000 0.000000 3.795800 
# 
# 
# High freq. dielectric constant tensor:
#      x y z
#    x 1.880590 0.000000 0.000000 
#    y 0.000000 1.891430 0.000000 
#    z 0.000000 0.000000 1.851880 
# 
# From -- ./inp_files/24194.got.cif
#   From: 2010.06.25/outbox.cif.g09.slc.cpg/sg58_13_cif.got.tgz:24194.got - 2010.06.26 21:38:00.
