data_PCOD8238827
_publ_section_title
;
Structure prediction by ZEFSAII (Michael W. Deem and Ramdas Pophale) SiO2 
 PCOD8238827
Probable space group: P N N M
;
_chemical_formula_sum "Si O2"
_cell_formula_units_Z 40
_cell_length_a 15.157839
_cell_length_b 9.924368
_cell_length_c 13.062830
_cell_angle_alpha 90.000000
_cell_angle_beta 90.000000
_cell_angle_gamma 90.000000
_cell_volume 1965.067281
_symmetry_space_group_name_H-M "P N N M"
_symmetry_group_IT_number 58
_symmetry_cell_setting 'orthorhombic'
loop_
_space_group_symop_operation_xyz
x,y,z
-x,-y,z
1/2+x,1/2-y,1/2-z
1/2-x,1/2+y,1/2-z
-x,-y,-z
x,y,-z
1/2-x,1/2+y,1/2+z
1/2+x,1/2-y,1/2+z
loop_
_atom_site_type_symbol
_atom_site_label
_atom_site_fract_x
_atom_site_fract_y
_atom_site_fract_z
Si Si1 0.653355 0.221665 0.766375
Si Si2 0.646920 0.731547 0.770485
Si Si3 0.900232 0.477773 0.615798
Si Si4 0.601836 0.474013 0.887001
Si Si5 0.999609 0.660535 0.119686
O O1 0.752170 0.270959 0.748562
O O2 0.659778 0.072066 0.813378
O O3 0.611543 0.321767 0.849046
O O4 0.591773 0.220775 0.664992
O O5 0.642500 0.575717 0.803316
O O6 0.584432 0.769532 0.674027
O O7 0.619362 0.820895 0.867845
O O8 0.883002 0.518858 0.500000
O O9 0.000000 0.500000 0.650407
O O10 0.500000 0.500000 0.897969
O O11 0.646353 0.489667 0.000000
O O12 0.000000 0.500000 0.136312
O O13 0.004087 0.697938 0.000000
#
# Coordination Sequence:
#
# PCOD8238827 Si02
#       5
#     8   8   8   8   8
#     4  12  23  42  64  96 130 169 212 263 317 385
#     4  12  23  42  64  96 130 169 212 263 317 385
#     4  11  21  40  68  91 120 160 214 266 314 370
#     4  11  23  40  66  95 130 162 202 266 334 378
#     4  11  24  45  68  93 129 177 221 263 316 383
#
# _framework density 20.355536000000001
#
# number of rings (size 3 to 8) (size 9 to 14) (size 15 to 20)
#    0.000    0.600    6.000    2.400    0.000    6.400 
#    0.000    2.000    0.000    0.000    0.000    0.000 
#    0.000    0.000    0.000    0.000    0.000    0.000 
#
# Total GULP energy -496017.203848 kJ/mol
# GULP energy per Si atom -12400.430096 kJ/mol
# Density = 2.030921 g / cm^3
# Si number density = 20.355536 Si / 1000 Ang^3
#
#
#
# Elastic Constant Matrix: (Units=GPa)
#
#
# Indices 1 2 3 4 5 6 
#
# 1 120.9494 9.1088 55.2879 0.0000 0.0000 0.0000
# 2 9.1088 73.3208 45.2992 0.0000 0.0000 0.0000
# 3 55.2879 45.2992 127.9376 0.0000 0.0000 0.0000
# 4 0.0000 0.0000 0.0000 29.5655 0.0000 0.0000
# 5 0.0000 0.0000 0.0000 0.0000 3.0166 0.0000
# 6 0.0000 0.0000 0.0000 0.0000 0.0000 30.0618
#
#
#
# Elastic Compliance Matrix: (Units=1/GPa)
#
#
# Indices 1 2 3 4 5 6 
#
# 1 0.010510 0.001921 -0.005222 0.000000 0.000000 0.000000
# 2 0.001921 0.017809 -0.007135 0.000000 0.000000 0.000000
# 3 -0.005222 -0.007135 0.012599 0.000000 0.000000 0.000000
# 4 0.000000 0.000000 0.000000 0.033823 0.000000 0.000000
# 5 0.000000 0.000000 0.000000 0.000000 0.331501 0.000000
# 6 0.000000 0.000000 0.000000 0.000000 0.000000 0.033265
#
#
# Mechanical properties :
#
#
# Convention : Reuss Voigt Hill
#
# Bulk Modulus (GPa) = 49.88908 60.17773 55.03340
# Shear Modulus (GPa) = 10.70520 26.69622 18.70071
#
# Velocity S-wave (km/s) = 2.29576 3.62539 3.03430
# Velocity P-wave (km/s) = 5.62045 6.86674 6.27461
#
# Compressibility (1/GPa) = 0.02004447
#
# Stress axis : x y z
#
# Youngs Moduli (GPa) = 95.14416 56.15282 79.36834
#
# Poissons Ratio (x) = -0.10785 0.41447
# Poissons Ratio (y) = -0.18273 0.56633
# Poissons Ratio (z) = 0.49685 0.40068
#
# Static dielectric constant tensor:
#      x y z
#    x 3.730440 0.000000 0.000000 
#    y 0.000000 3.864500 0.000000 
#    z 0.000000 0.000000 3.794950 
# 
# 
# High freq. dielectric constant tensor:
#      x y z
#    x 1.791430 0.000000 0.000000 
#    y 0.000000 1.803700 0.000000 
#    z 0.000000 0.000000 1.798010 
# 
# From -- ./inp_files/19493.got.cif
#   From: 2010.06.25/outbox.cif.g09.slc.cpg/sg58_10_cif.got.tgz:19493.got - 2010.06.26 21:38:00.
