data_PCOD8238894
_publ_section_title
;
Structure prediction by ZEFSAII (Michael W. Deem and Ramdas Pophale) SiO2 
 PCOD8238894
Probable space group: P N N M
;
_chemical_formula_sum "Si O2"
_cell_formula_units_Z 24
_cell_length_a 6.595640
_cell_length_b 7.437580
_cell_length_c 18.055151
_cell_angle_alpha 90.000000
_cell_angle_beta 90.000000
_cell_angle_gamma 90.000000
_cell_volume 885.706268
_symmetry_space_group_name_H-M "P N N M"
_symmetry_group_IT_number 58
_symmetry_cell_setting 'orthorhombic'
loop_
_space_group_symop_operation_xyz
x,y,z
-x,-y,z
1/2+x,1/2-y,1/2-z
1/2-x,1/2+y,1/2-z
-x,-y,-z
x,y,-z
1/2-x,1/2+y,1/2+z
1/2+x,1/2-y,1/2+z
loop_
_atom_site_type_symbol
_atom_site_label
_atom_site_fract_x
_atom_site_fract_y
_atom_site_fract_z
Si Si1 0.206716 0.621295 0.500000
Si Si2 0.659909 0.760303 0.500000
Si Si3 0.196699 0.726039 0.661388
Si Si4 0.000000 0.000000 0.240001
Si Si5 0.500000 0.000000 0.382274
O O1 0.443105 0.663351 0.500000
O O2 0.171439 0.401296 0.500000
O O3 0.116164 0.702195 0.576682
O O4 0.670743 0.891910 0.429643
O O5 0.295398 0.537411 0.690827
O O6 0.383658 0.862918 0.669074
O O7 0.022366 0.817860 0.710743
#
# Coordination Sequence:
#
# PCOD8238894 Si02
#       5
#     4   4   8   4   4
#     4   9  18  35  61  91 124 168 222 268 314 382
#     4   8  14  28  57  92 122 161 214 264 312 380
#     4  11  23  41  65  94 131 173 218 268 325 389
#     4  12  26  42  66  96 136 174 212 268 334 386
#     4   9  16  32  60  90 124 167 216 264 314 379
#
# _framework density 27.097017000000001
#
# number of rings (size 3 to 8) (size 9 to 14) (size 15 to 20)
#    0.000    2.000    0.000    7.000    0.000    0.667 
#    0.000    0.000    0.000    8.000    0.000    0.000 
#    0.000    0.000    0.000    0.000    0.000    0.000 
#
# Total GULP energy -297367.476551 kJ/mol
# GULP energy per Si atom -12390.311523 kJ/mol
# Density = 2.703534 g / cm^3
# Si number density = 27.097017 Si / 1000 Ang^3
#
#
#
# Elastic Constant Matrix: (Units=GPa)
#
#
# Indices 1 2 3 4 5 6 
#
# 1 16.9304 11.2287 23.4831 0.0000 0.0000 0.0000
# 2 11.2287 125.0045 45.2736 0.0000 0.0000 0.0000
# 3 23.4831 45.2736 170.8323 0.0000 0.0000 0.0000
# 4 0.0000 0.0000 0.0000 26.3411 0.0000 0.0000
# 5 0.0000 0.0000 0.0000 0.0000 14.8934 0.0000
# 6 0.0000 0.0000 0.0000 0.0000 0.0000 66.4462
#
#
#
# Elastic Compliance Matrix: (Units=1/GPa)
#
#
# Indices 1 2 3 4 5 6 
#
# 1 0.074180 -0.003286 -0.009326 0.000000 0.000000 0.000000
# 2 -0.003286 0.008995 -0.001932 0.000000 0.000000 0.000000
# 3 -0.009326 -0.001932 0.007648 0.000000 0.000000 0.000000
# 4 0.000000 0.000000 0.000000 0.037963 0.000000 0.000000
# 5 0.000000 0.000000 0.000000 0.000000 0.067144 0.000000
# 6 0.000000 0.000000 0.000000 0.000000 0.000000 0.015050
#
#
# Mechanical properties :
#
#
# Convention : Reuss Voigt Hill
#
# Bulk Modulus (GPa) = 16.19831 52.52643 34.36237
# Shear Modulus (GPa) = 19.18310 37.05494 28.11902
#
# Velocity S-wave (km/s) = 2.66360 3.70197 3.22486
# Velocity P-wave (km/s) = 3.93072 6.13999 5.15510
#
# Compressibility (1/GPa) = 0.06173485
#
# Stress axis : x y z
#
# Youngs Moduli (GPa) = 13.48064 111.17785 130.75743
#
# Poissons Ratio (x) = 0.36528 1.21948
# Poissons Ratio (y) = 0.04429 0.25263
# Poissons Ratio (z) = 0.12572 0.21480
#
# Static dielectric constant tensor:
#      x y z
#    x 4.324420 0.000000 0.000000 
#    y 0.000000 5.241860 0.000000 
#    z 0.000000 0.000000 4.880060 
# 
# 
# High freq. dielectric constant tensor:
#      x y z
#    x 2.061220 0.000000 0.000000 
#    y 0.000000 2.100260 0.000000 
#    z 0.000000 0.000000 2.094520 
# 
# From -- ./inp_files/18954.got.cif
#   From: 2010.06.25/outbox.cif.g09.slc.cpg/sg58_10_cif.got.tgz:18954.got - 2010.06.26 21:38:00.
