data_PCOD8238743
_publ_section_title
;
Structure prediction by ZEFSAII (Michael W. Deem and Ramdas Pophale) SiO2 
 PCOD8238743
Probable space group: P N N M
;
_chemical_formula_sum "Si O2"
_cell_formula_units_Z 24
_cell_length_a 13.168865
_cell_length_b 6.917658
_cell_length_c 13.274142
_cell_angle_alpha 90.000000
_cell_angle_beta 90.000000
_cell_angle_gamma 90.000000
_cell_volume 1209.243863
_symmetry_space_group_name_H-M "P N N M"
_symmetry_group_IT_number 58
_symmetry_cell_setting 'orthorhombic'
loop_
_space_group_symop_operation_xyz
x,y,z
-x,-y,z
1/2+x,1/2-y,1/2-z
1/2-x,1/2+y,1/2-z
-x,-y,-z
x,y,-z
1/2-x,1/2+y,1/2+z
1/2+x,1/2-y,1/2+z
loop_
_atom_site_type_symbol
_atom_site_label
_atom_site_fract_x
_atom_site_fract_y
_atom_site_fract_z
Si Si1 0.730487 0.207800 0.000000
Si Si2 0.891248 0.442138 0.638045
Si Si3 0.610324 0.594280 0.000000
Si Si4 0.969663 0.217501 0.000000
Si Si5 0.000000 0.500000 0.169582
O O1 0.691155 0.424924 0.000000
O O2 0.694396 0.090416 0.900878
O O3 0.849720 0.235107 0.000000
O O4 0.869772 0.224077 0.600088
O O5 0.900604 0.459362 0.759875
O O6 0.000000 0.500000 0.589482
O O7 0.500000 0.500000 0.000000
O O8 0.018626 0.314691 0.099178
O O9 0.000000 0.000000 0.000000
#
# Coordination Sequence:
#
# PCOD8238743 Si02
#       5
#     4   8   4   4   4
#     4  11  21  38  64 102 121 165 210 257 322 373
#     4   9  19  36  61  94 129 153 207 268 310 372
#     4  11  15  31  66  91 127 154 189 270 328 350
#     4  11  26  46  62  82 137 182 206 253 315 379
#     4   9  22  45  58  88 128 171 214 257 306 380
#
# _framework density 19.847114000000001
#
# number of rings (size 3 to 8) (size 9 to 14) (size 15 to 20)
#    1.000    1.000    3.333    1.000    0.000    9.333 
#   12.000    0.000    0.000    0.000    0.000    0.000 
#    0.000    0.000    0.000    0.000    0.000    0.000 
#
# Total GULP energy -297395.259237 kJ/mol
# GULP energy per Si atom -12391.469135 kJ/mol
# Density = 1.980194 g / cm^3
# Si number density = 19.847114 Si / 1000 Ang^3
#
#
#
# Elastic Constant Matrix: (Units=GPa)
#
#
# Indices 1 2 3 4 5 6 
#
# 1 73.1830 45.9393 23.2224 0.0000 0.0000 0.0000
# 2 45.9393 197.6381 78.0785 0.0000 0.0000 0.0000
# 3 23.2224 78.0785 176.7998 0.0000 0.0000 0.0000
# 4 0.0000 0.0000 0.0000 7.0631 0.0000 0.0000
# 5 0.0000 0.0000 0.0000 0.0000 3.5929 0.0000
# 6 0.0000 0.0000 0.0000 0.0000 0.0000 26.7996
#
#
#
# Elastic Compliance Matrix: (Units=1/GPa)
#
#
# Indices 1 2 3 4 5 6 
#
# 1 0.016044 -0.003509 -0.000558 0.000000 0.000000 0.000000
# 2 -0.003509 0.006897 -0.002585 0.000000 0.000000 0.000000
# 3 -0.000558 -0.002585 0.006871 0.000000 0.000000 0.000000
# 4 0.000000 0.000000 0.000000 0.141582 0.000000 0.000000
# 5 0.000000 0.000000 0.000000 0.000000 0.278325 0.000000
# 6 0.000000 0.000000 0.000000 0.000000 0.000000 0.037314
#
#
# Mechanical properties :
#
#
# Convention : Reuss Voigt Hill
#
# Bulk Modulus (GPa) = 60.57480 82.45572 71.51526
# Shear Modulus (GPa) = 9.88459 27.51650 18.70055
#
# Velocity S-wave (km/s) = 2.23409 3.72751 3.07291
# Velocity P-wave (km/s) = 6.10261 7.75638 6.97866
#
# Compressibility (1/GPa) = 0.01650852
#
# Stress axis : x y z
#
# Youngs Moduli (GPa) = 62.32843 145.00093 145.54239
#
# Poissons Ratio (x) = 0.50880 0.08117
# Poissons Ratio (y) = 0.21871 0.37619
# Poissons Ratio (z) = 0.03476 0.37479
#
# Static dielectric constant tensor:
#      x y z
#    x 3.286350 0.000000 0.000000 
#    y 0.000000 3.596070 0.000000 
#    z 0.000000 0.000000 3.570760 
# 
# 
# High freq. dielectric constant tensor:
#      x y z
#    x 1.746370 0.000000 0.000000 
#    y 0.000000 1.784980 0.000000 
#    z 0.000000 0.000000 1.771500 
# 
# From -- ./inp_files/18191.got.cif
#   From: 2010.06.25/outbox.cif.g09.slc.cpg/sg58_10_cif.got.tgz:18191.got - 2010.06.26 21:38:00.
