data_PCOD8238986
_publ_section_title
;
Structure prediction by ZEFSAII (Michael W. Deem and Ramdas Pophale) SiO2 
 PCOD8238986
Probable space group: P N N M
;
_chemical_formula_sum "Si O2"
_cell_formula_units_Z 40
_cell_length_a 13.400566
_cell_length_b 12.714461
_cell_length_c 13.416262
_cell_angle_alpha 90.000000
_cell_angle_beta 90.000000
_cell_angle_gamma 90.000000
_cell_volume 2285.875784
_symmetry_space_group_name_H-M "P N N M"
_symmetry_group_IT_number 58
_symmetry_cell_setting 'orthorhombic'
loop_
_space_group_symop_operation_xyz
x,y,z
-x,-y,z
1/2+x,1/2-y,1/2-z
1/2-x,1/2+y,1/2-z
-x,-y,-z
x,y,-z
1/2-x,1/2+y,1/2+z
1/2+x,1/2-y,1/2+z
loop_
_atom_site_type_symbol
_atom_site_label
_atom_site_fract_x
_atom_site_fract_y
_atom_site_fract_z
Si Si1 0.885148 0.250691 0.280994
Si Si2 0.281481 0.869290 0.615032
Si Si3 0.250086 0.559267 0.749978
Si Si4 0.781597 0.130772 0.115035
Si Si5 0.885144 0.750570 0.719030
O O1 0.823656 0.189784 0.366680
O O2 0.846796 0.370131 0.273110
O O3 0.868256 0.191559 0.175569
O O4 0.000005 0.250139 0.311263
O O5 0.310561 0.869205 0.500000
O O6 0.368187 0.808577 0.675564
O O7 0.273171 0.988721 0.653285
O O8 0.273383 0.488668 0.653285
O O9 0.346930 0.629942 0.773028
O O10 0.676422 0.189768 0.133330
O O11 0.810673 0.130888 0.000000
#
# Coordination Sequence:
#
# PCOD8238986 Si02
#       5
#     8   8   8   8   8
#     4   9  19  35  52  72 100 131 163 201 244 290
#     4   9  19  33  50  74 100 129 165 201 242 290
#     4   8  18  34  50  68 100 130 160 204 246 286
#     4   9  19  33  50  74 100 129 165 201 242 290
#     4   9  19  35  52  72 100 131 163 201 244 290
#
# _framework density 17.498764000000001
#
# number of rings (size 3 to 8) (size 9 to 14) (size 15 to 20)
#    0.000    4.000    0.000    0.000    0.000   14.400 
#    0.000    4.000    0.000    0.000    0.000    0.000 
#    0.000    0.000    0.000    0.000    0.000    0.000 
#
# Total GULP energy -495852.975985 kJ/mol
# GULP energy per Si atom -12396.324400 kJ/mol
# Density = 1.745894 g / cm^3
# Si number density = 17.498764 Si / 1000 Ang^3
#
#
#
# Elastic Constant Matrix: (Units=GPa)
#
#
# Indices 1 2 3 4 5 6 
#
# 1 71.4224 7.0626 -46.0302 0.0000 0.0000 0.0000
# 2 7.0626 119.5770 7.2424 0.0000 0.0000 0.0000
# 3 -46.0302 7.2424 74.0975 0.0000 0.0000 0.0000
# 4 0.0000 0.0000 0.0000 11.0645 0.0000 0.0000
# 5 0.0000 0.0000 0.0000 0.0000 13.2317 0.0000
# 6 0.0000 0.0000 0.0000 0.0000 0.0000 11.8066
#
#
#
# Elastic Compliance Matrix: (Units=1/GPa)
#
#
# Indices 1 2 3 4 5 6 
#
# 1 0.023979 -0.002332 0.015124 0.000000 0.000000 0.000000
# 2 -0.002332 0.008639 -0.002293 0.000000 0.000000 0.000000
# 3 0.015124 -0.002293 0.023115 0.000000 0.000000 0.000000
# 4 0.000000 0.000000 0.000000 0.090379 0.000000 0.000000
# 5 0.000000 0.000000 0.000000 0.000000 0.075576 0.000000
# 6 0.000000 0.000000 0.000000 0.000000 0.000000 0.084699
#
#
# Mechanical properties :
#
#
# Convention : Reuss Voigt Hill
#
# Bulk Modulus (GPa) = 13.03268 22.40516 17.71892
# Shear Modulus (GPa) = 16.07886 27.00869 21.54378
#
# Velocity S-wave (km/s) = 3.03455 3.93295 3.51260
# Velocity P-wave (km/s) = 4.44319 5.78410 5.15741
#
# Compressibility (1/GPa) = 0.07673019
#
# Stress axis : x y z
#
# Youngs Moduli (GPa) = 41.70333 115.74799 43.26183
#
# Poissons Ratio (x) = 0.26996 -0.65429
# Poissons Ratio (y) = 0.09726 0.09921
# Poissons Ratio (z) = -0.63072 0.26544
#
# Static dielectric constant tensor:
#      x y z
#    x 2.957180 0.000000 0.000000 
#    y 0.000000 3.390740 0.000000 
#    z 0.000000 0.000000 2.967160 
# 
# 
# High freq. dielectric constant tensor:
#      x y z
#    x 1.656530 0.000000 0.000000 
#    y 0.000000 1.693680 0.000000 
#    z 0.000000 0.000000 1.657850 
# 
# From -- ./inp_files/21972.got.cif
#   From: 2010.06.25/outbox.cif.g09.slc.cpg/sg58_11_cif.got.tgz:21972.got - 2010.06.26 21:38:00.
