data_PCOD8238164
_publ_section_title
;
Structure prediction by ZEFSAII (Michael W. Deem and Ramdas Pophale) SiO2 
 PCOD8238164
Probable space group: P N N M
;
_chemical_formula_sum "Si O2"
_cell_formula_units_Z 44
_cell_length_a 13.853774
_cell_length_b 8.232593
_cell_length_c 19.460295
_cell_angle_alpha 90.000000
_cell_angle_beta 90.000000
_cell_angle_gamma 90.000000
_cell_volume 2219.494962
_symmetry_space_group_name_H-M "P N N M"
_symmetry_group_IT_number 58
_symmetry_cell_setting 'orthorhombic'
loop_
_space_group_symop_operation_xyz
x,y,z
-x,-y,z
1/2+x,1/2-y,1/2-z
1/2-x,1/2+y,1/2-z
-x,-y,-z
x,y,-z
1/2-x,1/2+y,1/2+z
1/2+x,1/2-y,1/2+z
loop_
_atom_site_type_symbol
_atom_site_label
_atom_site_fract_x
_atom_site_fract_y
_atom_site_fract_z
Si Si1 0.339396 0.225709 0.305078
Si Si2 0.500000 0.000000 0.736068
Si Si3 0.737252 0.099218 0.077585
Si Si4 0.347419 0.242621 0.920459
Si Si5 0.833271 0.011699 0.688480
Si Si6 0.553887 0.224286 0.851810
O O1 0.433958 0.113153 0.312593
O O2 0.320983 0.326852 0.374447
O O3 0.249766 0.109919 0.286160
O O4 0.357908 0.351415 0.243913
O O5 0.432379 0.890774 0.785349
O O6 0.634604 0.182365 0.092017
O O7 0.726458 0.906318 0.088909
O O8 0.767875 0.138245 0.000000
O O9 0.301148 0.397632 0.882057
O O10 0.449575 0.198947 0.885363
O O11 0.364267 0.285041 0.000000
O O12 0.930098 0.908979 0.673181
#
# Coordination Sequence:
#
# PCOD8238164 Si02
#       6
#     8   4   8   8   8   8
#     4  11  23  38  59  83 120 165 212 257 299 356
#     4  12  22  38  60  92 120 162 204 258 302 356
#     4  10  21  38  60  84 120 165 204 248 309 370
#     4  11  21  35  58  92 128 160 195 245 309 383
#     4  11  22  37  56  85 121 165 202 253 302 367
#     4  11  20  35  60  90 125 155 197 245 317 378
#
# _framework density 19.82433
#
# number of rings (size 3 to 8) (size 9 to 14) (size 15 to 20)
#    0.000    1.091    3.636    4.364    0.000    5.818 
#    0.000    0.455    0.000    0.000    0.000    5.091 
#    0.000    0.000    0.000    0.000    0.000    0.000 
#
# Total GULP energy -545607.074711 kJ/mol
# GULP energy per Si atom -12400.160789 kJ/mol
# Density = 1.977921 g / cm^3
# Si number density = 19.824330 Si / 1000 Ang^3
#
#
#
# Elastic Constant Matrix: (Units=GPa)
#
#
# Indices 1 2 3 4 5 6 
#
# 1 50.1775 39.4061 47.9269 0.0000 0.0000 0.0000
# 2 39.4061 129.2681 67.8586 0.0000 0.0000 0.0000
# 3 47.9269 67.8586 130.4799 0.0000 0.0000 0.0000
# 4 0.0000 0.0000 0.0000 34.4893 0.0000 0.0000
# 5 0.0000 0.0000 0.0000 0.0000 27.2712 0.0000
# 6 0.0000 0.0000 0.0000 0.0000 0.0000 38.5077
#
#
#
# Elastic Compliance Matrix: (Units=1/GPa)
#
#
# Indices 1 2 3 4 5 6 
#
# 1 0.032958 -0.005078 -0.009465 0.000000 0.000000 0.000000
# 2 -0.005078 0.011423 -0.004076 0.000000 0.000000 0.000000
# 3 -0.009465 -0.004076 0.013260 0.000000 0.000000 0.000000
# 4 0.000000 0.000000 0.000000 0.028994 0.000000 0.000000
# 5 0.000000 0.000000 0.000000 0.000000 0.036669 0.000000
# 6 0.000000 0.000000 0.000000 0.000000 0.000000 0.025969
#
#
# Mechanical properties :
#
#
# Convention : Reuss Voigt Hill
#
# Bulk Modulus (GPa) = 49.01034 68.92318 58.96676
# Shear Modulus (GPa) = 25.86497 30.36924 28.11710
#
# Velocity S-wave (km/s) = 3.61599 3.91822 3.77014
# Velocity P-wave (km/s) = 6.49691 7.43723 6.98292
#
# Compressibility (1/GPa) = 0.02040386
#
# Stress axis : x y z
#
# Youngs Moduli (GPa) = 30.34204 87.53928 75.41425
#
# Poissons Ratio (x) = 0.44456 0.71377
# Poissons Ratio (y) = 0.15409 0.30736
# Poissons Ratio (z) = 0.28718 0.35678
#
# Static dielectric constant tensor:
#      x y z
#    x 3.309050 0.000000 0.000000 
#    y 0.000000 4.012930 0.000000 
#    z 0.000000 0.000000 3.580540 
# 
# 
# High freq. dielectric constant tensor:
#      x y z
#    x 1.741220 0.000000 0.000000 
#    y 0.000000 1.800860 0.000000 
#    z 0.000000 0.000000 1.761220 
# 
# From -- ./inp_files/26727.got.cif
#   From: 2010.06.25/outbox.cif.g09.slc.cpg/sg58_14_cif.got.tgz:26727.got - 2010.06.26 21:38:00.
