data_PCOD8238620
_publ_section_title
;
Structure prediction by ZEFSAII (Michael W. Deem and Ramdas Pophale) SiO2 
 PCOD8238620
Probable space group: P N N M
;
_chemical_formula_sum "Si O2"
_cell_formula_units_Z 64
_cell_length_a 18.589701
_cell_length_b 19.220752
_cell_length_c 8.544626
_cell_angle_alpha 90.000000
_cell_angle_beta 90.000000
_cell_angle_gamma 90.000000
_cell_volume 3053.063506
_symmetry_space_group_name_H-M "P N N M"
_symmetry_group_IT_number 58
_symmetry_cell_setting 'orthorhombic'
loop_
_space_group_symop_operation_xyz
x,y,z
-x,-y,z
1/2+x,1/2-y,1/2-z
1/2-x,1/2+y,1/2-z
-x,-y,-z
x,y,-z
1/2-x,1/2+y,1/2+z
1/2+x,1/2-y,1/2+z
loop_
_atom_site_type_symbol
_atom_site_label
_atom_site_fract_x
_atom_site_fract_y
_atom_site_fract_z
Si Si1 0.141060 0.680570 0.816129
Si Si2 0.485733 0.805054 0.180417
Si Si3 0.285396 0.312045 0.817600
Si Si4 0.302308 0.033287 0.314664
Si Si5 0.452253 0.665879 0.318640
Si Si6 0.860420 0.612993 0.816477
Si Si7 0.597512 0.589134 0.318428
Si Si8 0.640805 0.450446 0.182577
O O1 0.196076 0.733095 0.730401
O O2 0.156555 0.602309 0.756082
O O3 0.058499 0.697265 0.780800
O O4 0.155004 0.688336 0.000000
O O5 0.442008 0.734779 0.215880
O O6 0.433960 0.868226 0.228336
O O7 0.506720 0.811336 0.000000
O O8 0.202290 0.330482 0.781471
O O9 0.333091 0.365062 0.718482
O O10 0.302442 0.323607 0.000000
O O11 0.302339 0.029376 0.500000
O O12 0.339026 0.963127 0.249816
O O13 0.220827 0.035637 0.254508
O O14 0.449700 0.686506 0.500000
O O15 0.527530 0.631868 0.270203
O O16 0.387486 0.614623 0.279951
O O17 0.876833 0.610125 0.000000
O O18 0.596713 0.568754 0.500000
O O19 0.594380 0.518937 0.217675
O O20 0.637845 0.432533 0.000000
#
# Coordination Sequence:
#
# PCOD8238620 Si02
#       8
#     8   8   8   8   8   8   8   8
#     4  11  23  42  67  93 126 166 211 260 316 379
#     4  12  26  43  64  93 126 164 213 265 317 373
#     4  11  22  39  66  95 127 164 208 260 313 373
#     4   9  21  42  66  92 122 164 210 256 312 378
#     4  11  24  41  60  90 128 169 214 258 311 376
#     4  10  22  44  68  92 126 166 210 258 316 378
#     4  11  22  38  62  90 127 172 213 255 308 376
#     4  11  22  39  62  94 130 166 210 261 313 373
#
# _framework density 20.962551000000001
#
# number of rings (size 3 to 8) (size 9 to 14) (size 15 to 20)
#    0.000    1.250    2.500    3.375    1.750    4.500 
#    0.000    5.625    0.000    0.000    0.000    0.000 
#    0.000    0.000    0.000    0.000    0.000    0.000 
#
# Total GULP energy -793933.249034 kJ/mol
# GULP energy per Si atom -12405.207016 kJ/mol
# Density = 2.091484 g / cm^3
# Si number density = 20.962551 Si / 1000 Ang^3
#
#
#
# Elastic Constant Matrix: (Units=GPa)
#
#
# Indices 1 2 3 4 5 6 
#
# 1 51.2442 36.0759 18.4044 0.0000 0.0000 0.0000
# 2 36.0759 129.5689 20.3149 0.0000 0.0000 0.0000
# 3 18.4044 20.3149 43.7266 0.0000 0.0000 0.0000
# 4 0.0000 0.0000 0.0000 32.6664 0.0000 0.0000
# 5 0.0000 0.0000 0.0000 0.0000 21.9605 0.0000
# 6 0.0000 0.0000 0.0000 0.0000 0.0000 39.3556
#
#
#
# Elastic Compliance Matrix: (Units=1/GPa)
#
#
# Indices 1 2 3 4 5 6 
#
# 1 0.026888 -0.006161 -0.008455 0.000000 0.000000 0.000000
# 2 -0.006161 0.009736 -0.001930 0.000000 0.000000 0.000000
# 3 -0.008455 -0.001930 0.027325 0.000000 0.000000 0.000000
# 4 0.000000 0.000000 0.000000 0.030613 0.000000 0.000000
# 5 0.000000 0.000000 0.000000 0.000000 0.045536 0.000000
# 6 0.000000 0.000000 0.000000 0.000000 0.000000 0.025409
#
#
# Mechanical properties :
#
#
# Convention : Reuss Voigt Hill
#
# Bulk Modulus (GPa) = 32.40746 41.57001 36.98873
# Shear Modulus (GPa) = 23.93668 28.77947 26.35808
#
# Velocity S-wave (km/s) = 3.38283 3.70929 3.54981
# Velocity P-wave (km/s) = 5.54539 6.18213 5.87240
#
# Compressibility (1/GPa) = 0.03085710
#
# Stress axis : x y z
#
# Youngs Moduli (GPa) = 37.19097 102.71284 36.59686
#
# Poissons Ratio (x) = 0.63280 0.30942
# Poissons Ratio (y) = 0.22913 0.07064
# Poissons Ratio (z) = 0.31445 0.19824
#
# Static dielectric constant tensor:
#      x y z
#    x 3.775420 0.000000 0.000000 
#    y 0.000000 4.066520 0.000000 
#    z 0.000000 0.000000 3.598740 
# 
# 
# High freq. dielectric constant tensor:
#      x y z
#    x 1.821950 0.000000 0.000000 
#    y 0.000000 1.832860 0.000000 
#    z 0.000000 0.000000 1.809460 
# 
# From -- ./inp_files/9325.got.cif
#   From: 2010.06.25/outbox.cif.g09.slc.cpg/sg58_5_cif.got.tgz:9325.got - 2010.06.26 21:38:00.
