data_PCOD8238359
_publ_section_title
;
Structure prediction by ZEFSAII (Michael W. Deem and Ramdas Pophale) SiO2 
 PCOD8238359
Probable space group: P N N M
;
_chemical_formula_sum "Si O2"
_cell_formula_units_Z 64
_cell_length_a 12.829698
_cell_length_b 28.749984
_cell_length_c 8.906497
_cell_angle_alpha 90.000000
_cell_angle_beta 90.000000
_cell_angle_gamma 90.000000
_cell_volume 3285.193591
_symmetry_space_group_name_H-M "P N N M"
_symmetry_group_IT_number 58
_symmetry_cell_setting 'orthorhombic'
loop_
_space_group_symop_operation_xyz
x,y,z
-x,-y,z
1/2+x,1/2-y,1/2-z
1/2-x,1/2+y,1/2-z
-x,-y,-z
x,y,-z
1/2-x,1/2+y,1/2+z
1/2+x,1/2-y,1/2+z
loop_
_atom_site_type_symbol
_atom_site_label
_atom_site_fract_x
_atom_site_fract_y
_atom_site_fract_z
Si Si1 0.390305 0.049356 0.321298
Si Si2 0.502934 0.356263 0.676044
Si Si3 0.276867 0.208439 0.835026
Si Si4 0.395848 0.949957 0.822257
Si Si5 0.356963 0.794484 0.666253
Si Si6 0.483516 0.257548 0.173832
Si Si7 0.730461 0.628436 0.674211
Si Si8 0.208892 0.119264 0.324889
O O1 0.406136 0.048096 0.500000
O O2 0.495677 0.070230 0.245421
O O3 0.290094 0.079585 0.274423
O O4 0.369392 0.998178 0.258010
O O5 0.521052 0.353261 0.500000
O O6 0.510701 0.304540 0.739876
O O7 0.391340 0.380204 0.714788
O O8 0.597401 0.387278 0.742805
O O9 0.176358 0.240721 0.841487
O O10 0.365771 0.244611 0.789148
O O11 0.261884 0.168438 0.713421
O O12 0.298186 0.186139 0.000000
O O13 0.300031 0.916055 0.783190
O O14 0.408579 0.957227 0.000000
O O15 0.386999 0.812572 0.500000
O O16 0.456662 0.789653 0.773688
O O17 0.269054 0.827740 0.731982
O O18 0.506034 0.266799 0.000000
O O19 0.742539 0.640842 0.500000
O O20 0.186950 0.116838 0.500000
#
# Coordination Sequence:
#
# PCOD8238359 Si02
#       8
#     8   8   8   8   8   8   8   8
#     4  10  22  41  63  91 120 148 185 235 293 349
#     4  11  22  38  59  82 115 156 196 240 287 339
#     4  10  22  37  54  80 114 153 197 239 282 338
#     4  10  21  40  66  92 116 149 188 233 292 350
#     4  11  22  36  55  83 115 153 198 237 285 342
#     4  11  22  37  54  77 113 154 196 243 287 337
#     4  10  23  40  59  87 118 152 196 241 289 345
#     4  11  24  39  59  86 117 154 196 239 289 347
#
# _framework density 19.481349000000002
#
# number of rings (size 3 to 8) (size 9 to 14) (size 15 to 20)
#    0.000    1.500    2.500    3.000    1.750    5.000 
#    0.000    0.625    0.000    3.750    0.000    0.000 
#    0.000    0.000    0.000    0.000    0.000    0.000 
#
# Total GULP energy -793392.391768 kJ/mol
# GULP energy per Si atom -12396.756121 kJ/mol
# Density = 1.943701 g / cm^3
# Si number density = 19.481349 Si / 1000 Ang^3
#
#
#
# Elastic Constant Matrix: (Units=GPa)
#
#
# Indices 1 2 3 4 5 6 
#
# 1 135.7570 61.3077 59.7745 0.0000 0.0000 0.0000
# 2 61.3077 76.7017 40.9412 0.0000 0.0000 0.0000
# 3 59.7745 40.9412 91.2565 0.0000 0.0000 0.0000
# 4 0.0000 0.0000 0.0000 23.7768 0.0000 0.0000
# 5 0.0000 0.0000 0.0000 0.0000 25.0771 0.0000
# 6 0.0000 0.0000 0.0000 0.0000 0.0000 39.6706
#
#
#
# Elastic Compliance Matrix: (Units=1/GPa)
#
#
# Indices 1 2 3 4 5 6 
#
# 1 0.013122 -0.007758 -0.005114 0.000000 0.000000 0.000000
# 2 -0.007758 0.021730 -0.004667 0.000000 0.000000 0.000000
# 3 -0.005114 -0.004667 0.016402 0.000000 0.000000 0.000000
# 4 0.000000 0.000000 0.000000 0.042058 0.000000 0.000000
# 5 0.000000 0.000000 0.000000 0.000000 0.039877 0.000000
# 6 0.000000 0.000000 0.000000 0.000000 0.000000 0.025208
#
#
# Mechanical properties :
#
#
# Convention : Reuss Voigt Hill
#
# Bulk Modulus (GPa) = 61.82678 69.75134 65.78906
# Shear Modulus (GPa) = 25.14257 27.15102 26.14680
#
# Velocity S-wave (km/s) = 3.59639 3.73727 3.66750
# Velocity P-wave (km/s) = 7.00361 7.38274 7.19567
#
# Compressibility (1/GPa) = 0.01617422
#
# Stress axis : x y z
#
# Youngs Moduli (GPa) = 76.21076 46.01973 60.96891
#
# Poissons Ratio (x) = 0.35703 0.31180
# Poissons Ratio (y) = 0.59126 0.28455
# Poissons Ratio (z) = 0.38975 0.21478
#
# Static dielectric constant tensor:
#      x y z
#    x 3.934440 0.000000 0.000000 
#    y 0.000000 3.317530 0.000000 
#    z 0.000000 0.000000 3.673340 
# 
# 
# High freq. dielectric constant tensor:
#      x y z
#    x 1.775020 0.000000 0.000000 
#    y 0.000000 1.733980 0.000000 
#    z 0.000000 0.000000 1.769330 
# 
# From -- ./inp_files/4684.got.cif
#   From: 2010.06.25/outbox.cif.g09.slc.cpg/sg58_3_cif.got.tgz:4684.got - 2010.06.26 21:38:00.
