data_PCOD8238504
_publ_section_title
;
Structure prediction by ZEFSAII (Michael W. Deem and Ramdas Pophale) SiO2 
 PCOD8238504
Probable space group: P N N M
;
_chemical_formula_sum "Si O2"
_cell_formula_units_Z 40
_cell_length_a 8.677294
_cell_length_b 24.966499
_cell_length_c 8.947880
_cell_angle_alpha 90.000000
_cell_angle_beta 90.000000
_cell_angle_gamma 90.000000
_cell_volume 1938.483505
_symmetry_space_group_name_H-M "P N N M"
_symmetry_group_IT_number 58
_symmetry_cell_setting 'orthorhombic'
loop_
_space_group_symop_operation_xyz
x,y,z
-x,-y,z
1/2+x,1/2-y,1/2-z
1/2-x,1/2+y,1/2-z
-x,-y,-z
x,y,-z
1/2-x,1/2+y,1/2+z
1/2+x,1/2-y,1/2+z
loop_
_atom_site_type_symbol
_atom_site_label
_atom_site_fract_x
_atom_site_fract_y
_atom_site_fract_z
Si Si1 0.325965 0.913009 0.823824
Si Si2 0.174551 0.011507 0.675827
Si Si3 0.173646 0.607792 0.671838
Si Si4 0.335364 0.316428 0.825927
Si Si5 0.356023 0.713035 0.670965
O O1 0.290094 0.970855 0.756327
O O2 0.497663 0.896881 0.774406
O O3 0.205414 0.869957 0.762611
O O4 0.307662 0.915877 0.000000
O O5 0.195961 0.005655 0.500000
O O6 0.216818 0.071181 0.726809
O O7 0.000000 0.000000 0.725201
O O8 0.190695 0.589559 0.500000
O O9 0.223284 0.669002 0.694922
O O10 0.504525 0.297516 0.781595
O O11 0.214274 0.270227 0.785654
O O12 0.334662 0.330065 0.000000
O O13 0.414802 0.712337 0.500000
#
# Coordination Sequence:
#
# PCOD8238504 Si02
#       5
#     8   8   8   8   8
#     4  11  23  40  62  87 118 156 197 241 292 351
#     4  11  24  40  59  87 120 153 194 244 295 347
#     4  10  22  40  61  86 116 154 198 240 289 351
#     4  11  23  39  61  90 121 154 197 244 289 343
#     4  10  22  40  61  86 119 157 194 237 291 347
#
# _framework density 20.634685999999999
#
# number of rings (size 3 to 8) (size 9 to 14) (size 15 to 20)
#    0.000    1.400    0.000    4.800    0.000   12.800 
#    0.000    0.000    0.000    0.000    0.000    0.000 
#    0.000    0.000    0.000    0.000    0.000    0.000 
#
# Total GULP energy -496344.101809 kJ/mol
# GULP energy per Si atom -12408.602545 kJ/mol
# Density = 2.058772 g / cm^3
# Si number density = 20.634686 Si / 1000 Ang^3
#
#
#
# Elastic Constant Matrix: (Units=GPa)
#
#
# Indices 1 2 3 4 5 6 
#
# 1 75.7409 -8.3824 28.8032 0.0000 0.0000 0.0000
# 2 -8.3824 69.5094 19.2337 0.0000 0.0000 0.0000
# 3 28.8032 19.2337 66.6478 0.0000 0.0000 0.0000
# 4 0.0000 0.0000 0.0000 28.1725 0.0000 0.0000
# 5 0.0000 0.0000 0.0000 0.0000 34.6217 0.0000
# 6 0.0000 0.0000 0.0000 0.0000 0.0000 38.1116
#
#
#
# Elastic Compliance Matrix: (Units=1/GPa)
#
#
# Indices 1 2 3 4 5 6 
#
# 1 0.016968 0.004429 -0.008611 0.000000 0.000000 0.000000
# 2 0.004429 0.016791 -0.006760 0.000000 0.000000 0.000000
# 3 -0.008611 -0.006760 0.020676 0.000000 0.000000 0.000000
# 4 0.000000 0.000000 0.000000 0.035496 0.000000 0.000000
# 5 0.000000 0.000000 0.000000 0.000000 0.028884 0.000000
# 6 0.000000 0.000000 0.000000 0.000000 0.000000 0.026239
#
#
# Mechanical properties :
#
#
# Convention : Reuss Voigt Hill
#
# Bulk Modulus (GPa) = 30.72053 32.35635 31.53844
# Shear Modulus (GPa) = 28.12345 31.66406 29.89375
#
# Velocity S-wave (km/s) = 3.69578 3.92153 3.81033
# Velocity P-wave (km/s) = 5.75603 6.01823 5.88859
#
# Compressibility (1/GPa) = 0.03255152
#
# Stress axis : x y z
#
# Youngs Moduli (GPa) = 58.93543 59.55527 48.36413
#
# Poissons Ratio (x) = -0.26377 0.41647
# Poissons Ratio (y) = -0.26102 0.32693
# Poissons Ratio (z) = 0.50750 0.40258
#
# Static dielectric constant tensor:
#      x y z
#    x 3.781000 0.000000 0.000000 
#    y 0.000000 3.809800 0.000000 
#    z 0.000000 0.000000 3.712310 
# 
# 
# High freq. dielectric constant tensor:
#      x y z
#    x 1.816230 0.000000 0.000000 
#    y 0.000000 1.821210 0.000000 
#    z 0.000000 0.000000 1.808480 
# 
# From -- ./inp_files/2399.got.cif
#   From: 2010.06.25/outbox.cif.g09.slc.cpg/sg58_2_cif.got.tgz:2399.got - 2010.06.26 21:38:00.
