data_PCOD8238981
_publ_section_title
;
Structure prediction by ZEFSAII (Michael W. Deem and Ramdas Pophale) SiO2 
 PCOD8238981
Probable space group: P N N M
;
_chemical_formula_sum "Si O2"
_cell_formula_units_Z 64
_cell_length_a 21.007218
_cell_length_b 18.815986
_cell_length_c 8.934082
_cell_angle_alpha 90.000000
_cell_angle_beta 90.000000
_cell_angle_gamma 90.000000
_cell_volume 3531.388170
_symmetry_space_group_name_H-M "P N N M"
_symmetry_group_IT_number 58
_symmetry_cell_setting 'orthorhombic'
loop_
_space_group_symop_operation_xyz
x,y,z
-x,-y,z
1/2+x,1/2-y,1/2-z
1/2-x,1/2+y,1/2-z
-x,-y,-z
x,y,-z
1/2-x,1/2+y,1/2+z
1/2+x,1/2-y,1/2+z
loop_
_atom_site_type_symbol
_atom_site_label
_atom_site_fract_x
_atom_site_fract_y
_atom_site_fract_z
Si Si1 0.746076 0.071367 0.825910
Si Si2 0.622994 0.085060 0.677481
Si Si3 0.501533 0.670726 0.678665
Si Si4 0.379508 0.584673 0.677290
Si Si5 0.385571 0.424194 0.673174
Si Si6 0.745541 0.421088 0.825324
Si Si7 0.499200 0.169561 0.321728
Si Si8 0.115406 0.576453 0.175926
O O1 0.686545 0.116050 0.759973
O O2 0.814816 0.109914 0.805406
O O3 0.749947 0.001752 0.725977
O O4 0.735217 0.052641 0.000000
O O5 0.633366 0.088532 0.500000
O O6 0.564559 0.133337 0.730945
O O7 0.610230 0.004570 0.735261
O O8 0.503563 0.672102 0.500000
O O9 0.437119 0.633153 0.735224
O O10 0.561834 0.627532 0.746686
O O11 0.503525 0.750599 0.742620
O O12 0.374216 0.584825 0.500000
O O13 0.389495 0.504294 0.739551
O O14 0.312986 0.617086 0.740280
O O15 0.403000 0.431014 0.500000
O O16 0.815401 0.388083 0.787876
O O17 0.731159 0.417379 0.000000
O O18 0.495377 0.170265 0.500000
O O19 0.439854 0.125304 0.252896
O O20 0.104584 0.572531 0.000000
#
# Coordination Sequence:
#
# PCOD8238981 Si02
#       8
#     8   8   8   8   8   8   8   8
#     4   9  16  27  45  68  91 114 142 179 221 262
#     4   9  16  27  45  67  89 113 142 179 222 266
#     4   9  16  26  42  64  87 112 147 187 219 252
#     4   9  16  27  45  67  89 113 142 179 222 266
#     4   8  14  25  42  63  85 110 142 179 216 253
#     4   9  16  27  45  68  91 114 142 179 221 262
#     4   9  16  26  42  64  87 112 147 187 219 252
#     4   8  14  25  42  63  85 110 142 179 216 253
#
# _framework density 18.123183999999998
#
# number of rings (size 3 to 8) (size 9 to 14) (size 15 to 20)
#    0.000    3.250    0.000    3.000    0.000    3.000 
#    0.000    1.250    0.000   15.750    0.000    0.000 
#    0.000    0.000    0.000    0.000    0.000    0.000 
#
# Total GULP energy -792917.761477 kJ/mol
# GULP energy per Si atom -12389.340023 kJ/mol
# Density = 1.808193 g / cm^3
# Si number density = 18.123184 Si / 1000 Ang^3
#
#
#
# Elastic Constant Matrix: (Units=GPa)
#
#
# Indices 1 2 3 4 5 6 
#
# 1 188.1815 73.4025 30.9417 0.0000 0.0000 0.0000
# 2 73.4025 89.7749 14.3466 0.0000 0.0000 0.0000
# 3 30.9417 14.3466 13.5588 0.0000 0.0000 0.0000
# 4 0.0000 0.0000 0.0000 8.1686 0.0000 0.0000
# 5 0.0000 0.0000 0.0000 0.0000 26.7612 0.0000
# 6 0.0000 0.0000 0.0000 0.0000 0.0000 8.8616
#
#
#
# Elastic Compliance Matrix: (Units=1/GPa)
#
#
# Indices 1 2 3 4 5 6 
#
# 1 0.010482 -0.005714 -0.017874 0.000000 0.000000 0.000000
# 2 -0.005714 0.016520 -0.004442 0.000000 0.000000 0.000000
# 3 -0.017874 -0.004442 0.119241 0.000000 0.000000 0.000000
# 4 0.000000 0.000000 0.000000 0.122420 0.000000 0.000000
# 5 0.000000 0.000000 0.000000 0.000000 0.037368 0.000000
# 6 0.000000 0.000000 0.000000 0.000000 0.000000 0.112846
#
#
# Mechanical properties :
#
#
# Convention : Reuss Voigt Hill
#
# Bulk Modulus (GPa) = 11.08825 58.76631 34.92728
# Shear Modulus (GPa) = 9.90105 20.27991 15.09048
#
# Velocity S-wave (km/s) = 2.33988 3.34878 2.88872
# Velocity P-wave (km/s) = 3.66492 6.88831 5.51727
#
# Compressibility (1/GPa) = 0.09018552
#
# Stress axis : x y z
#
# Youngs Moduli (GPa) = 95.40527 60.53112 8.38635
#
# Poissons Ratio (x) = 0.34586 0.14990
# Poissons Ratio (y) = 0.54512 0.03725
# Poissons Ratio (z) = 1.70525 0.26885
#
# Static dielectric constant tensor:
#      x y z
#    x 4.015680 0.000000 0.000000 
#    y 0.000000 3.226010 0.000000 
#    z 0.000000 0.000000 2.917880 
# 
# 
# High freq. dielectric constant tensor:
#      x y z
#    x 1.729980 0.000000 0.000000 
#    y 0.000000 1.661490 0.000000 
#    z 0.000000 0.000000 1.648390 
# 
# From -- ./inp_files/9434.got.cif
#   From: 2010.06.25/outbox.cif.g09.slc.cpg/sg58_5_cif.got.tgz:9434.got - 2010.06.26 21:38:00.
