data_PCOD8238599
_publ_section_title
;
Structure prediction by ZEFSAII (Michael W. Deem and Ramdas Pophale) SiO2 
 PCOD8238599
Probable space group: P N N M
;
_chemical_formula_sum "Si O2"
_cell_formula_units_Z 40
_cell_length_a 17.323907
_cell_length_b 12.712821
_cell_length_c 8.190814
_cell_angle_alpha 90.000000
_cell_angle_beta 90.000000
_cell_angle_gamma 90.000000
_cell_volume 1803.909890
_symmetry_space_group_name_H-M "P N N M"
_symmetry_group_IT_number 58
_symmetry_cell_setting 'orthorhombic'
loop_
_space_group_symop_operation_xyz
x,y,z
-x,-y,z
1/2+x,1/2-y,1/2-z
1/2-x,1/2+y,1/2-z
-x,-y,-z
x,y,-z
1/2-x,1/2+y,1/2+z
1/2+x,1/2-y,1/2+z
loop_
_atom_site_type_symbol
_atom_site_label
_atom_site_fract_x
_atom_site_fract_y
_atom_site_fract_z
Si Si1 0.562951 0.882063 0.311970
Si Si2 0.400151 0.912519 0.185170
Si Si3 0.840779 0.200893 0.305942
Si Si4 0.088979 0.012221 0.194081
Si Si5 0.179084 0.215576 0.813712
O O1 0.538826 0.894801 0.500000
O O2 0.491787 0.900875 0.192286
O O3 0.591756 0.765436 0.279797
O O4 0.624567 0.973147 0.259078
O O5 0.368679 0.821949 0.300783
O O6 0.369921 0.900820 0.000000
O O7 0.843787 0.208846 0.500000
O O8 0.762188 0.254158 0.235269
O O9 0.854642 0.081083 0.252469
O O10 0.130639 0.118293 0.265670
O O11 0.085647 0.015858 0.000000
O O12 0.000000 0.000000 0.260636
O O13 0.192576 0.185190 0.000000
#
# Coordination Sequence:
#
# PCOD8238599 Si02
#       5
#     8   8   8   8   8
#     4  11  22  39  63  89 123 165 208 252 312 378
#     4  11  22  38  63  93 124 159 206 259 312 371
#     4  11  24  40  61  93 130 165 209 264 318 376
#     4  10  22  42  67  92 123 170 220 264 317 385
#     4  10  23  41  61  91 130 167 207 260 320 378
#
# _framework density 22.174057999999999
#
# number of rings (size 3 to 8) (size 9 to 14) (size 15 to 20)
#    0.000    1.400    0.000    6.600    2.800    4.400 
#    0.000    0.000    0.000    0.000    0.000    0.000 
#    0.000    0.000    0.000    0.000    0.000    0.000 
#
# Total GULP energy -495720.480478 kJ/mol
# GULP energy per Si atom -12393.012012 kJ/mol
# Density = 2.212359 g / cm^3
# Si number density = 22.174058 Si / 1000 Ang^3
#
#
#
# Elastic Constant Matrix: (Units=GPa)
#
#
# Indices 1 2 3 4 5 6 
#
# 1 83.2482 25.0557 4.5951 0.0000 0.0000 0.0000
# 2 25.0557 112.0382 -0.3382 0.0000 0.0000 0.0000
# 3 4.5951 -0.3382 47.4118 0.0000 0.0000 0.0000
# 4 0.0000 0.0000 0.0000 28.9580 0.0000 0.0000
# 5 0.0000 0.0000 0.0000 0.0000 17.0917 0.0000
# 6 0.0000 0.0000 0.0000 0.0000 0.0000 43.1455
#
#
#
# Elastic Compliance Matrix: (Units=1/GPa)
#
#
# Indices 1 2 3 4 5 6 
#
# 1 0.012956 -0.002901 -0.001276 0.000000 0.000000 0.000000
# 2 -0.002901 0.009575 0.000349 0.000000 0.000000 0.000000
# 3 -0.001276 0.000349 0.021218 0.000000 0.000000 0.000000
# 4 0.000000 0.000000 0.000000 0.034533 0.000000 0.000000
# 5 0.000000 0.000000 0.000000 0.000000 0.058508 0.000000
# 6 0.000000 0.000000 0.000000 0.000000 0.000000 0.023177
#
#
# Mechanical properties :
#
#
# Convention : Reuss Voigt Hill
#
# Bulk Modulus (GPa) = 27.70614 33.48037 30.59326
# Shear Modulus (GPa) = 27.83119 32.06476 29.94797
#
# Velocity S-wave (km/s) = 3.54662 3.80682 3.67902
# Velocity P-wave (km/s) = 5.41233 5.86977 5.64568
#
# Compressibility (1/GPa) = 0.03609308
#
# Stress axis : x y z
#
# Youngs Moduli (GPa) = 77.18474 104.43422 47.12977
#
# Poissons Ratio (x) = 0.30299 0.06016
# Poissons Ratio (y) = 0.22393 -0.01647
# Poissons Ratio (z) = 0.09852 -0.03650
#
# Static dielectric constant tensor:
#      x y z
#    x 4.153270 0.000000 0.000000 
#    y 0.000000 4.533990 0.000000 
#    z 0.000000 0.000000 3.626570 
# 
# 
# High freq. dielectric constant tensor:
#      x y z
#    x 1.862960 0.000000 0.000000 
#    y 0.000000 1.895600 0.000000 
#    z 0.000000 0.000000 1.854140 
# 
# From -- ./inp_files/4003.got.cif
#   From: 2010.06.25/outbox.cif.g09.slc.cpg/sg58_3_cif.got.tgz:4003.got - 2010.06.26 21:38:00.
