data_PCOD8238328
_publ_section_title
;
Structure prediction by ZEFSAII (Michael W. Deem and Ramdas Pophale) SiO2 
 PCOD8238328
Probable space group: P N N M
;
_chemical_formula_sum "Si O2"
_cell_formula_units_Z 56
_cell_length_a 14.405807
_cell_length_b 21.518453
_cell_length_c 9.169438
_cell_angle_alpha 90.000000
_cell_angle_beta 90.000000
_cell_angle_gamma 90.000000
_cell_volume 2842.440329
_symmetry_space_group_name_H-M "P N N M"
_symmetry_group_IT_number 58
_symmetry_cell_setting 'orthorhombic'
loop_
_space_group_symop_operation_xyz
x,y,z
-x,-y,z
1/2+x,1/2-y,1/2-z
1/2-x,1/2+y,1/2-z
-x,-y,-z
x,y,-z
1/2-x,1/2+y,1/2+z
1/2+x,1/2-y,1/2+z
loop_
_atom_site_type_symbol
_atom_site_label
_atom_site_fract_x
_atom_site_fract_y
_atom_site_fract_z
Si Si1 0.385557 0.404522 0.831464
Si Si2 0.904023 0.883732 0.331199
Si Si3 0.711286 0.484340 0.668777
Si Si4 0.427984 0.175460 0.670530
Si Si5 0.419835 0.047106 0.167594
Si Si6 0.103157 0.243376 0.833972
Si Si7 0.189330 0.772711 0.333093
O O1 0.495111 0.414600 0.809637
O O2 0.331136 0.453989 0.736662
O O3 0.357140 0.336113 0.775550
O O4 0.357011 0.413143 0.000000
O O5 0.875851 0.883097 0.500000
O O6 0.828235 0.922895 0.244582
O O7 0.904935 0.813895 0.274469
O O8 0.683803 0.481483 0.500000
O O9 0.821503 0.486537 0.691810
O O10 0.409990 0.171770 0.500000
O O11 0.427886 0.106835 0.732553
O O12 0.525622 0.206951 0.709857
O O13 0.344451 0.214663 0.739178
O O14 0.500000 0.000000 0.216411
O O15 0.432119 0.067579 0.000000
O O16 0.200460 0.278480 0.815251
O O17 0.089915 0.219610 0.000000
O O18 0.160100 0.760768 0.500000
#
# Coordination Sequence:
#
# PCOD8238328 Si02
#       7
#     8   8   8   8   8   8   8
#     4  10  22  39  61  88 119 157 201 245 295 359
#     4  11  22  39  62  90 121 158 200 241 295 360
#     4  11  24  40  61  88 119 158 199 249 303 349
#     4  11  23  39  62  94 123 152 196 251 300 346
#     4  10  24  45  64  85 119 163 206 244 295 362
#     4  10  22  38  60  89 122 156 195 243 298 352
#     4  10  21  40  62  86 121 164 200 240 298 360
#
# _framework density 19.701381999999999
#
# number of rings (size 3 to 8) (size 9 to 14) (size 15 to 20)
#    0.000    1.571    1.429    2.571    2.000    9.429 
#    0.000    0.000    0.000    0.000    0.000    0.000 
#    0.000    0.000    0.000    0.000    0.000    0.000 
#
# Total GULP energy -694774.553726 kJ/mol
# GULP energy per Si atom -12406.688459 kJ/mol
# Density = 1.965654 g / cm^3
# Si number density = 19.701382 Si / 1000 Ang^3
#
#
#
# Elastic Constant Matrix: (Units=GPa)
#
#
# Indices 1 2 3 4 5 6 
#
# 1 87.0361 15.3346 35.2720 0.0000 0.0000 0.0000
# 2 15.3346 80.2501 46.6831 0.0000 0.0000 0.0000
# 3 35.2720 46.6831 94.3925 0.0000 0.0000 0.0000
# 4 0.0000 0.0000 0.0000 36.6291 0.0000 0.0000
# 5 0.0000 0.0000 0.0000 0.0000 25.9640 0.0000
# 6 0.0000 0.0000 0.0000 0.0000 0.0000 30.2203
#
#
#
# Elastic Compliance Matrix: (Units=1/GPa)
#
#
# Indices 1 2 3 4 5 6 
#
# 1 0.013554 0.000500 -0.005312 0.000000 0.000000 0.000000
# 2 0.000500 0.017513 -0.008848 0.000000 0.000000 0.000000
# 3 -0.005312 -0.008848 0.016955 0.000000 0.000000 0.000000
# 4 0.000000 0.000000 0.000000 0.027301 0.000000 0.000000
# 5 0.000000 0.000000 0.000000 0.000000 0.038515 0.000000
# 6 0.000000 0.000000 0.000000 0.000000 0.000000 0.033090
#
#
# Mechanical properties :
#
#
# Convention : Reuss Voigt Hill
#
# Bulk Modulus (GPa) = 48.30516 50.69534 49.50025
# Shear Modulus (GPa) = 27.60173 29.52195 28.56184
#
# Velocity S-wave (km/s) = 3.74706 3.87521 3.81167
# Velocity P-wave (km/s) = 6.57970 6.76836 6.67470
#
# Compressibility (1/GPa) = 0.02070172
#
# Stress axis : x y z
#
# Youngs Moduli (GPa) = 73.77807 57.10201 58.97970
#
# Poissons Ratio (x) = -0.02856 0.31331
# Poissons Ratio (y) = -0.03691 0.52185
# Poissons Ratio (z) = 0.39193 0.50524
#
# Static dielectric constant tensor:
#      x y z
#    x 3.796820 0.000000 0.000000 
#    y 0.000000 3.539910 0.000000 
#    z 0.000000 0.000000 3.640820 
# 
# 
# High freq. dielectric constant tensor:
#      x y z
#    x 1.782690 0.000000 0.000000 
#    y 0.000000 1.770890 0.000000 
#    z 0.000000 0.000000 1.770660 
# 
# From -- ./inp_files/6415.got.cif
#   From: 2010.06.25/outbox.cif.g09.slc.cpg/sg58_4_cif.got.tgz:6415.got - 2010.06.26 21:38:00.
