data_PCOD8238083
_publ_section_title
;
Structure prediction by ZEFSAII (Michael W. Deem and Ramdas Pophale) SiO2 
 PCOD8238083
Probable space group: P N N M
;
_chemical_formula_sum "Si O2"
_cell_formula_units_Z 36
_cell_length_a 10.862704
_cell_length_b 9.070007
_cell_length_c 17.651069
_cell_angle_alpha 90.000000
_cell_angle_beta 90.000000
_cell_angle_gamma 90.000000
_cell_volume 1739.068066
_symmetry_space_group_name_H-M "P N N M"
_symmetry_group_IT_number 58
_symmetry_cell_setting 'orthorhombic'
loop_
_space_group_symop_operation_xyz
x,y,z
-x,-y,z
1/2+x,1/2-y,1/2-z
1/2-x,1/2+y,1/2-z
-x,-y,-z
x,y,-z
1/2-x,1/2+y,1/2+z
1/2+x,1/2-y,1/2+z
loop_
_atom_site_type_symbol
_atom_site_label
_atom_site_fract_x
_atom_site_fract_y
_atom_site_fract_z
Si Si1 0.000000 0.500000 0.746280
Si Si2 0.253601 0.489653 0.500000
Si Si3 0.930394 0.769661 0.500000
Si Si4 0.646444 0.126242 0.621389
Si Si5 0.980471 0.824836 0.000000
Si Si6 0.373744 0.188513 0.121037
Si Si7 0.190445 0.608963 0.000000
O O1 0.085854 0.396960 0.797332
O O2 0.081961 0.610655 0.697073
O O3 0.189761 0.333310 0.500000
O O4 0.408258 0.505120 0.500000
O O5 0.202720 0.570825 0.426278
O O6 0.841878 0.913868 0.500000
O O7 0.008699 0.749753 0.424642
O O8 0.578435 0.254259 0.574952
O O9 0.786944 0.172880 0.638781
O O10 0.640796 0.973707 0.574661
O O11 0.126882 0.775327 0.000000
#
# Coordination Sequence:
#
# PCOD8238083 Si02
#       7
#     4   4   4   8   4   8   4
#     4  12  20  38  60  84 124 158 188 236 316 366
#     4   9  17  37  61  81 107 148 200 239 273 340
#     4  11  20  36  61  86 115 152 198 251 293 341
#     4  10  21  37  59  83 110 151 199 241 290 354
#     4   9  17  37  61  81 107 148 200 239 273 340
#     4  10  21  37  59  83 110 151 199 241 290 354
#     4  11  20  36  61  86 115 152 198 251 293 341
#
# _framework density 20.700742999999999
#
# number of rings (size 3 to 8) (size 9 to 14) (size 15 to 20)
#    0.000    1.778    4.444    3.333    0.000    4.000 
#    0.000    0.000    0.000    0.000    0.000    0.000 
#    0.000    0.000    0.000    0.000    0.000    0.000 
#
# Total GULP energy -446080.960733 kJ/mol
# GULP energy per Si atom -12391.137798 kJ/mol
# Density = 2.065363 g / cm^3
# Si number density = 20.700743 Si / 1000 Ang^3
#
#
#
# Elastic Constant Matrix: (Units=GPa)
#
#
# Indices 1 2 3 4 5 6 
#
# 1 180.7133 49.2751 65.3159 0.0000 0.0000 0.0000
# 2 49.2751 89.2239 42.4447 0.0000 0.0000 0.0000
# 3 65.3159 42.4447 147.4606 0.0000 0.0000 0.0000
# 4 0.0000 0.0000 0.0000 9.4729 0.0000 0.0000
# 5 0.0000 0.0000 0.0000 0.0000 304.4417 0.0000
# 6 0.0000 0.0000 0.0000 0.0000 0.0000 25.3549
#
#
#
# Elastic Compliance Matrix: (Units=1/GPa)
#
#
# Indices 1 2 3 4 5 6 
#
# 1 0.007157 -0.002832 -0.002355 0.000000 0.000000 0.000000
# 2 -0.002832 0.014107 -0.002806 0.000000 0.000000 0.000000
# 3 -0.002355 -0.002806 0.008632 0.000000 0.000000 0.000000
# 4 0.000000 0.000000 0.000000 0.105564 0.000000 0.000000
# 5 0.000000 0.000000 0.000000 0.000000 0.003285 0.000000
# 6 0.000000 0.000000 0.000000 0.000000 0.000000 0.039440
#
#
# Mechanical properties :
#
#
# Convention : Reuss Voigt Hill
#
# Bulk Modulus (GPa) = 71.89203 81.27436 76.58319
# Shear Modulus (GPa) = 25.14996 85.21136 55.18066
#
# Velocity S-wave (km/s) = 3.48937 6.42283 5.16858
# Velocity P-wave (km/s) = 7.14415 9.71342 8.52612
#
# Compressibility (1/GPa) = 0.01390975
#
# Stress axis : x y z
#
# Youngs Moduli (GPa) = 139.72225 70.88802 115.84555
#
# Poissons Ratio (x) = 0.20078 0.27280
# Poissons Ratio (y) = 0.39574 0.32505
# Poissons Ratio (z) = 0.32903 0.19891
#
# Static dielectric constant tensor:
#      x y z
#    x 4.197840 0.000000 0.000000 
#    y 0.000000 3.891020 0.000000 
#    z 0.000000 0.000000 3.460670 
# 
# 
# High freq. dielectric constant tensor:
#      x y z
#    x 1.857200 0.000000 0.000000 
#    y 0.000000 1.822410 0.000000 
#    z 0.000000 0.000000 1.782500 
# 
# From -- ./inp_files/26052.got.cif
#   From: 2010.06.25/outbox.cif.g09.slc.cpg/sg58_14_cif.got.tgz:26052.got - 2010.06.26 21:38:00.
