data_PCOD8238793
_publ_section_title
;
Structure prediction by ZEFSAII (Michael W. Deem and Ramdas Pophale) SiO2 
 PCOD8238793
Probable space group: P N N M
;
_chemical_formula_sum "Si O2"
_cell_formula_units_Z 48
_cell_length_a 23.635895
_cell_length_b 13.670662
_cell_length_c 8.722143
_cell_angle_alpha 90.000000
_cell_angle_beta 90.000000
_cell_angle_gamma 90.000000
_cell_volume 2818.284294
_symmetry_space_group_name_H-M "P N N M"
_symmetry_group_IT_number 58
_symmetry_cell_setting 'orthorhombic'
loop_
_space_group_symop_operation_xyz
x,y,z
-x,-y,z
1/2+x,1/2-y,1/2-z
1/2-x,1/2+y,1/2-z
-x,-y,-z
x,y,-z
1/2-x,1/2+y,1/2+z
1/2+x,1/2-y,1/2+z
loop_
_atom_site_type_symbol
_atom_site_label
_atom_site_fract_x
_atom_site_fract_y
_atom_site_fract_z
Si Si1 0.439263 0.101404 0.180452
Si Si2 0.558325 0.105861 0.319523
Si Si3 0.726524 0.602166 0.680078
Si Si4 0.660489 0.786912 0.679973
Si Si5 0.838120 0.703977 0.678919
Si Si6 0.226374 0.101200 0.675539
O O1 0.500537 0.137255 0.236312
O O2 0.394145 0.184218 0.222653
O O3 0.421839 0.000944 0.263884
O O4 0.440356 0.083071 0.000000
O O5 0.548006 0.104213 0.500000
O O6 0.605846 0.184611 0.276679
O O7 0.730249 0.614445 0.500000
O O8 0.678521 0.678342 0.736242
O O9 0.788385 0.633118 0.742967
O O10 0.710006 0.492950 0.725331
O O11 0.646106 0.789829 0.500000
O O12 0.711497 0.860729 0.719646
O O13 0.850275 0.684555 0.500000
O O14 0.820226 0.815987 0.707467
O O15 0.225296 0.068635 0.500000
#
# Coordination Sequence:
#
# PCOD8238793 Si02
#       6
#     8   8   8   8   8   8
#     4  11  21  33  50  72  97 127 159 196 238 284
#     4  11  21  33  50  72  97 127 159 196 238 284
#     4   9  18  31  49  71  99 130 160 195 237 281
#     4   9  18  33  49  70  99 130 160 195 237 282
#     4   9  18  33  49  70  99 130 160 195 237 282
#     4   9  18  31  49  71  99 130 160 195 237 281
#
# _framework density 17.031638000000001
#
# number of rings (size 3 to 8) (size 9 to 14) (size 15 to 20)
#    0.000    2.333    0.000    7.000    0.000    5.333 
#    0.000    3.333    0.000    1.000    0.000    7.000 
#    0.000    0.000    0.000    0.000    0.000    0.000 
#
# Total GULP energy -595225.667611 kJ/mol
# GULP energy per Si atom -12400.534742 kJ/mol
# Density = 1.699287 g / cm^3
# Si number density = 17.031638 Si / 1000 Ang^3
#
#
#
# Elastic Constant Matrix: (Units=GPa)
#
#
# Indices 1 2 3 4 5 6 
#
# 1 98.3134 43.4766 22.6918 0.0000 0.0000 0.0000
# 2 43.4766 85.9527 15.0168 0.0000 0.0000 0.0000
# 3 22.6918 15.0168 50.4463 0.0000 0.0000 0.0000
# 4 0.0000 0.0000 0.0000 28.9088 0.0000 0.0000
# 5 0.0000 0.0000 0.0000 0.0000 26.4824 0.0000
# 6 0.0000 0.0000 0.0000 0.0000 0.0000 27.2350
#
#
#
# Elastic Compliance Matrix: (Units=1/GPa)
#
#
# Indices 1 2 3 4 5 6 
#
# 1 0.013975 -0.006298 -0.004411 0.000000 0.000000 0.000000
# 2 -0.006298 0.015111 -0.001665 0.000000 0.000000 0.000000
# 3 -0.004411 -0.001665 0.022303 0.000000 0.000000 0.000000
# 4 0.000000 0.000000 0.000000 0.034592 0.000000 0.000000
# 5 0.000000 0.000000 0.000000 0.000000 0.037761 0.000000
# 6 0.000000 0.000000 0.000000 0.000000 0.000000 0.036718
#
#
# Mechanical properties :
#
#
# Convention : Reuss Voigt Hill
#
# Bulk Modulus (GPa) = 37.53814 44.12031 40.82923
# Shear Modulus (GPa) = 25.76148 26.76036 26.26092
#
# Velocity S-wave (km/s) = 3.89339 3.96816 3.93095
# Velocity P-wave (km/s) = 6.50380 6.85246 6.68040
#
# Compressibility (1/GPa) = 0.02663957
#
# Stress axis : x y z
#
# Youngs Moduli (GPa) = 71.55674 66.17724 44.83685
#
# Poissons Ratio (x) = 0.41679 0.19779
# Poissons Ratio (y) = 0.45067 0.07466
# Poissons Ratio (z) = 0.31567 0.11020
#
# Static dielectric constant tensor:
#      x y z
#    x 3.142670 0.000000 0.000000 
#    y 0.000000 3.072830 0.000000 
#    z 0.000000 0.000000 3.079160 
# 
# 
# High freq. dielectric constant tensor:
#      x y z
#    x 1.650150 0.000000 0.000000 
#    y 0.000000 1.645120 0.000000 
#    z 0.000000 0.000000 1.655950 
# 
# From -- ./inp_files/6540.got.cif
#   From: 2010.06.25/outbox.cif.g09.slc.cpg/sg58_4_cif.got.tgz:6540.got - 2010.06.26 21:38:00.
