data_PCOD8238156
_publ_section_title
;
Structure prediction by ZEFSAII (Michael W. Deem and Ramdas Pophale) SiO2 
 PCOD8238156
Probable space group: P N N M
;
_chemical_formula_sum "Si O2"
_cell_formula_units_Z 64
_cell_length_a 16.058544
_cell_length_b 22.373311
_cell_length_c 8.878590
_cell_angle_alpha 90.000000
_cell_angle_beta 90.000000
_cell_angle_gamma 90.000000
_cell_volume 3189.924667
_symmetry_space_group_name_H-M "P N N M"
_symmetry_group_IT_number 58
_symmetry_cell_setting 'orthorhombic'
loop_
_space_group_symop_operation_xyz
x,y,z
-x,-y,z
1/2+x,1/2-y,1/2-z
1/2-x,1/2+y,1/2-z
-x,-y,-z
x,y,-z
1/2-x,1/2+y,1/2+z
1/2+x,1/2-y,1/2+z
loop_
_atom_site_type_symbol
_atom_site_label
_atom_site_fract_x
_atom_site_fract_y
_atom_site_fract_z
Si Si1 0.565173 0.331747 0.169638
Si Si2 0.415704 0.034410 0.678160
Si Si3 0.380876 0.281631 0.164810
Si Si4 0.251644 0.985565 0.172584
Si Si5 0.922926 0.959234 0.178820
Si Si6 0.105149 0.283813 0.175010
Si Si7 0.551312 0.842071 0.173110
Si Si8 0.252284 0.846687 0.168659
O O1 0.473884 0.305009 0.170665
O O2 0.567291 0.392843 0.260229
O O3 0.621222 0.280720 0.248134
O O4 0.597402 0.342762 0.000000
O O5 0.414990 0.041891 0.500000
O O6 0.411142 0.098761 0.754654
O O7 0.500000 0.000000 0.730056
O O8 0.332627 0.999959 0.728388
O O9 0.379481 0.209901 0.186221
O O10 0.333562 0.312310 0.301823
O O11 0.342326 0.297135 0.000000
O O12 0.233918 0.915917 0.187225
O O13 0.167182 0.016634 0.233956
O O14 0.269482 0.004431 0.000000
O O15 0.925951 0.957986 0.000000
O O16 0.000000 0.000000 0.239638
O O17 0.184663 0.324640 0.204908
O O18 0.029851 0.322235 0.238452
O O19 0.091194 0.273074 0.000000
O O20 0.526725 0.854087 0.000000
O O21 0.284056 0.831874 0.000000
#
# Coordination Sequence:
#
# PCOD8238156 Si02
#       8
#     8   8   8   8   8   8   8   8
#     4  10  21  38  59  85 116 151 194 239 288 346
#     4  11  24  40  60  87 118 156 200 245 296 352
#     4   9  20  37  57  83 114 147 185 234 288 342
#     4  10  23  40  59  86 118 155 198 243 293 351
#     4  10  21  39  62  88 121 160 200 243 294 352
#     4  11  22  37  59  85 115 150 188 236 292 348
#     4  10  21  39  61  85 115 150 191 237 288 349
#     4  11  22  37  59  85 113 148 192 237 287 347
#
# _framework density 20.063171000000001
#
# number of rings (size 3 to 8) (size 9 to 14) (size 15 to 20)
#    0.000    1.750    0.000    4.875    0.000    9.750 
#    0.000    1.250    0.000    0.000    0.000    0.000 
#    0.000    0.000    0.000    0.000    0.000    0.000 
#
# Total GULP energy -793608.777837 kJ/mol
# GULP energy per Si atom -12400.137154 kJ/mol
# Density = 2.001751 g / cm^3
# Si number density = 20.063171 Si / 1000 Ang^3
#
#
#
# Elastic Constant Matrix: (Units=GPa)
#
#
# Indices 1 2 3 4 5 6 
#
# 1 74.1336 22.1051 31.4428 0.0000 0.0000 0.0000
# 2 22.1051 91.2789 27.3152 0.0000 0.0000 0.0000
# 3 31.4428 27.3152 65.9680 0.0000 0.0000 0.0000
# 4 0.0000 0.0000 0.0000 32.7592 0.0000 0.0000
# 5 0.0000 0.0000 0.0000 0.0000 28.6531 0.0000
# 6 0.0000 0.0000 0.0000 0.0000 0.0000 21.9926
#
#
#
# Elastic Compliance Matrix: (Units=1/GPa)
#
#
# Indices 1 2 3 4 5 6 
#
# 1 0.017207 -0.001955 -0.007392 0.000000 0.000000 0.000000
# 2 -0.001955 0.012727 -0.004338 0.000000 0.000000 0.000000
# 3 -0.007392 -0.004338 0.020478 0.000000 0.000000 0.000000
# 4 0.000000 0.000000 0.000000 0.030526 0.000000 0.000000
# 5 0.000000 0.000000 0.000000 0.000000 0.034900 0.000000
# 6 0.000000 0.000000 0.000000 0.000000 0.000000 0.045470
#
#
# Mechanical properties :
#
#
# Convention : Reuss Voigt Hill
#
# Bulk Modulus (GPa) = 43.39809 43.67852 43.53831
# Shear Modulus (GPa) = 25.46342 26.71546 26.08944
#
# Velocity S-wave (km/s) = 3.56640 3.65302 3.60997
# Velocity P-wave (km/s) = 6.21583 6.29369 6.25488
#
# Compressibility (1/GPa) = 0.02304249
#
# Stress axis : x y z
#
# Youngs Moduli (GPa) = 58.11454 78.57282 48.83174
#
# Poissons Ratio (x) = 0.15361 0.36097
# Poissons Ratio (y) = 0.11362 0.21183
# Poissons Ratio (z) = 0.42959 0.34085
#
# Static dielectric constant tensor:
#      x y z
#    x 3.665870 0.000000 0.000000 
#    y 0.000000 3.953290 0.000000 
#    z 0.000000 0.000000 3.813190 
# 
# 
# High freq. dielectric constant tensor:
#      x y z
#    x 1.778000 0.000000 0.000000 
#    y 0.000000 1.795720 0.000000 
#    z 0.000000 0.000000 1.787100 
# 
# From -- ./inp_files/6967.got.cif
#   From: 2010.06.25/outbox.cif.g09.slc.cpg/sg58_4_cif.got.tgz:6967.got - 2010.06.26 21:38:00.
