data_PCOD8238413
_publ_section_title
;
Structure prediction by ZEFSAII (Michael W. Deem and Ramdas Pophale) SiO2 
 PCOD8238413
Probable space group: P N N M
;
_chemical_formula_sum "Si O2"
_cell_formula_units_Z 40
_cell_length_a 26.234207
_cell_length_b 8.833727
_cell_length_c 7.931400
_cell_angle_alpha 90.000000
_cell_angle_beta 90.000000
_cell_angle_gamma 90.000000
_cell_volume 1838.068818
_symmetry_space_group_name_H-M "P N N M"
_symmetry_group_IT_number 58
_symmetry_cell_setting 'orthorhombic'
loop_
_space_group_symop_operation_xyz
x,y,z
-x,-y,z
1/2+x,1/2-y,1/2-z
1/2-x,1/2+y,1/2-z
-x,-y,-z
x,y,-z
1/2-x,1/2+y,1/2+z
1/2+x,1/2-y,1/2+z
loop_
_atom_site_type_symbol
_atom_site_label
_atom_site_fract_x
_atom_site_fract_y
_atom_site_fract_z
Si Si1 0.424791 0.255960 0.683459
Si Si2 0.049979 0.219151 0.500000
Si Si3 0.500000 0.500000 0.255210
Si Si4 0.690147 0.714894 0.305525
Si Si5 0.559573 0.940428 0.000000
Si Si6 0.652159 0.140103 0.000000
Si Si7 0.284022 0.943097 0.310158
O O1 0.420787 0.170351 0.500000
O O2 0.457745 0.406510 0.643306
O O3 0.368751 0.303978 0.746727
O O4 0.450896 0.154769 0.828837
O O5 0.030903 0.128325 0.658688
O O6 0.027878 0.396324 0.500000
O O7 0.111438 0.222377 0.500000
O O8 0.698039 0.674454 0.500000
O O9 0.724274 0.598948 0.197709
O O10 0.709663 0.882511 0.263720
O O11 0.619709 0.983852 0.000000
O O12 0.685426 0.154293 0.829679
O O13 0.304782 0.910355 0.500000
#
# Coordination Sequence:
#
# PCOD8238413 Si02
#       7
#     8   4   4   8   4   4   8
#     4  11  24  43  67  96 132 175 223 273 334 398
#     4   9  22  43  69  97 127 169 226 265 332 398
#     4  11  23  44  66  95 137 172 221 277 344 385
#     4  10  22  40  60  92 126 167 214 259 315 386
#     4  10  21  42  74  88 132 170 219 273 329 383
#     4  10  21  42  66  94 129 165 217 267 326 380
#     4  11  23  39  64  95 130 168 213 261 322 392
#
# _framework density 21.761970999999999
#
# number of rings (size 3 to 8) (size 9 to 14) (size 15 to 20)
#    0.600    1.000    3.000    1.500    2.800    3.200 
#    0.000    7.000    0.000    0.000    0.000    0.000 
#    0.000    0.000    0.000    0.000    0.000    0.000 
#
# Total GULP energy -495689.601778 kJ/mol
# GULP energy per Si atom -12392.240044 kJ/mol
# Density = 2.171244 g / cm^3
# Si number density = 21.761971 Si / 1000 Ang^3
#
#
#
# Elastic Constant Matrix: (Units=GPa)
#
#
# Indices 1 2 3 4 5 6 
#
# 1 136.5197 66.0270 42.9485 0.0000 0.0000 0.0000
# 2 66.0270 84.9799 41.3529 0.0000 0.0000 0.0000
# 3 42.9485 41.3529 128.2930 0.0000 0.0000 0.0000
# 4 0.0000 0.0000 0.0000 -102.8724 0.0000 0.0000
# 5 0.0000 0.0000 0.0000 0.0000 11.0620 0.0000
# 6 0.0000 0.0000 0.0000 0.0000 0.0000 45.9326
#
#
#
# Elastic Compliance Matrix: (Units=1/GPa)
#
#
# Indices 1 2 3 4 5 6 
#
# 1 0.011885 -0.008656 -0.001189 0.000000 0.000000 0.000000
# 2 -0.008656 0.020261 -0.003633 0.000000 0.000000 0.000000
# 3 -0.001189 -0.003633 0.009364 0.000000 0.000000 0.000000
# 4 0.000000 0.000000 0.000000 -0.009721 0.000000 0.000000
# 5 0.000000 0.000000 0.000000 0.000000 0.090400 0.000000
# 6 0.000000 0.000000 0.000000 0.000000 0.000000 0.021771
#
#
# Mechanical properties :
#
#
# Convention : Reuss Voigt Hill
#
# Bulk Modulus (GPa) = 68.70800 72.27216 70.49008
# Shear Modulus (GPa) = 28.44676 4.12205 16.28441
#
# Velocity S-wave (km/s) = 3.61941 1.37778 2.73847
# Velocity P-wave (km/s) = 7.00770 5.98443 6.51619
#
# Compressibility (1/GPa) = 0.01455435
#
# Stress axis : x y z
#
# Youngs Moduli (GPa) = 84.13653 49.35593 106.79650
#
# Poissons Ratio (x) = 0.42724 0.12695
# Poissons Ratio (y) = 0.72830 0.38798
# Poissons Ratio (z) = 0.10001 0.17931
#
# Static dielectric constant tensor:
#      x y z
#    x 4.185260 0.000000 0.000000 
#    y 0.000000 3.719230 0.000000 
#    z 0.000000 0.000000 3.766190 
# 
# 
# High freq. dielectric constant tensor:
#      x y z
#    x 1.875490 0.000000 0.000000 
#    y 0.000000 1.833700 0.000000 
#    z 0.000000 0.000000 1.856340 
# 
# From -- ./inp_files/10308.got.cif
#   From: 2010.06.25/outbox.cif.g09.slc.cpg/sg58_6_cif.got.tgz:10308.got - 2010.06.26 21:38:00.
