data_PCOD8238505
_publ_section_title
;
Structure prediction by ZEFSAII (Michael W. Deem and Ramdas Pophale) SiO2 
 PCOD8238505
Probable space group: P N N M
;
_chemical_formula_sum "Si O2"
_cell_formula_units_Z 40
_cell_length_a 24.711203
_cell_length_b 8.745626
_cell_length_c 8.997928
_cell_angle_alpha 90.000000
_cell_angle_beta 90.000000
_cell_angle_gamma 90.000000
_cell_volume 1944.586665
_symmetry_space_group_name_H-M "P N N M"
_symmetry_group_IT_number 58
_symmetry_cell_setting 'orthorhombic'
loop_
_space_group_symop_operation_xyz
x,y,z
-x,-y,z
1/2+x,1/2-y,1/2-z
1/2-x,1/2+y,1/2-z
-x,-y,-z
x,y,-z
1/2-x,1/2+y,1/2+z
1/2+x,1/2-y,1/2+z
loop_
_atom_site_type_symbol
_atom_site_label
_atom_site_fract_x
_atom_site_fract_y
_atom_site_fract_z
Si Si1 0.481520 0.332876 0.671257
Si Si2 0.391307 0.153311 0.172088
Si Si3 0.282361 0.327959 0.171557
Si Si4 0.814361 0.833397 0.324933
Si Si5 0.908409 0.666245 0.828225
O O1 0.500000 0.500000 0.723643
O O2 0.462642 0.336578 0.500000
O O3 0.431385 0.285440 0.772934
O O4 0.529466 0.211917 0.694809
O O5 0.330267 0.208092 0.198178
O O6 0.400163 0.001622 0.265158
O O7 0.402686 0.119757 0.000000
O O8 0.231511 0.282505 0.270466
O O9 0.300875 0.494986 0.224894
O O10 0.264527 0.331314 0.000000
O O11 0.819931 0.817625 0.500000
O O12 0.871497 0.789909 0.253918
O O13 0.892149 0.665516 0.000000
#
# Coordination Sequence:
#
# PCOD8238505 Si02
#       5
#     8   8   8   8   8
#     4  10  22  40  61  86 117 155 197 240 292 351
#     4  11  23  39  61  88 119 155 196 242 291 345
#     4  10  23  41  59  85 119 153 191 236 289 346
#     4  11  23  39  61  87 115 150 193 239 286 340
#     4  11  23  39  60  86 118 154 193 239 290 347
#
# _framework density 20.569922999999999
#
# number of rings (size 3 to 8) (size 9 to 14) (size 15 to 20)
#    0.000    1.400    0.000    4.800    0.000   10.800 
#    0.000    0.000    0.000    0.000    0.000    0.000 
#    0.000    0.000    0.000    0.000    0.000    0.000 
#
# Total GULP energy -496319.159218 kJ/mol
# GULP energy per Si atom -12407.978980 kJ/mol
# Density = 2.052311 g / cm^3
# Si number density = 20.569923 Si / 1000 Ang^3
#
#
#
# Elastic Constant Matrix: (Units=GPa)
#
#
# Indices 1 2 3 4 5 6 
#
# 1 47.1789 -8.7666 22.9486 0.0000 0.0000 0.0000
# 2 -8.7666 85.0055 17.7252 0.0000 0.0000 0.0000
# 3 22.9486 17.7252 72.7886 0.0000 0.0000 0.0000
# 4 0.0000 0.0000 0.0000 36.3653 0.0000 0.0000
# 5 0.0000 0.0000 0.0000 0.0000 36.6708 0.0000
# 6 0.0000 0.0000 0.0000 0.0000 0.0000 34.4093
#
#
#
# Elastic Compliance Matrix: (Units=1/GPa)
#
#
# Indices 1 2 3 4 5 6 
#
# 1 0.026745 0.004758 -0.009591 0.000000 0.000000 0.000000
# 2 0.004758 0.013240 -0.004724 0.000000 0.000000 0.000000
# 3 -0.009591 -0.004724 0.017913 0.000000 0.000000 0.000000
# 4 0.000000 0.000000 0.000000 0.027499 0.000000 0.000000
# 5 0.000000 0.000000 0.000000 0.000000 0.027270 0.000000
# 6 0.000000 0.000000 0.000000 0.000000 0.000000 0.029062
#
#
# Mechanical properties :
#
#
# Convention : Reuss Voigt Hill
#
# Bulk Modulus (GPa) = 25.78406 29.86525 27.82465
# Shear Modulus (GPa) = 28.77375 33.02681 30.90028
#
# Velocity S-wave (km/s) = 3.74415 4.01133 3.88004
# Velocity P-wave (km/s) = 5.59049 6.00039 5.79906
#
# Compressibility (1/GPa) = 0.03878366
#
# Stress axis : x y z
#
# Youngs Moduli (GPa) = 37.38994 75.53024 55.82669
#
# Poissons Ratio (x) = -0.35938 0.53542
# Poissons Ratio (y) = -0.17790 0.26374
# Poissons Ratio (z) = 0.35860 0.35682
#
# Static dielectric constant tensor:
#      x y z
#    x 3.773860 0.000000 0.000000 
#    y 0.000000 3.836010 0.000000 
#    z 0.000000 0.000000 3.742660 
# 
# 
# High freq. dielectric constant tensor:
#      x y z
#    x 1.813580 0.000000 0.000000 
#    y 0.000000 1.821390 0.000000 
#    z 0.000000 0.000000 1.808100 
# 
# From -- ./inp_files/2398.got.cif
#   From: 2010.06.25/outbox.cif.g09.slc.cpg/sg58_2_cif.got.tgz:2398.got - 2010.06.26 21:38:00.
