data_PCOD8238668
_publ_section_title
;
Structure prediction by ZEFSAII (Michael W. Deem and Ramdas Pophale) SiO2 
 PCOD8238668
Probable space group: P N N M
;
_chemical_formula_sum "Si O2"
_cell_formula_units_Z 64
_cell_length_a 11.199289
_cell_length_b 15.713960
_cell_length_c 18.521776
_cell_angle_alpha 90.000000
_cell_angle_beta 90.000000
_cell_angle_gamma 90.000000
_cell_volume 3259.558072
_symmetry_space_group_name_H-M "P N N M"
_symmetry_group_IT_number 58
_symmetry_cell_setting 'orthorhombic'
loop_
_space_group_symop_operation_xyz
x,y,z
-x,-y,z
1/2+x,1/2-y,1/2-z
1/2-x,1/2+y,1/2-z
-x,-y,-z
x,y,-z
1/2-x,1/2+y,1/2+z
1/2+x,1/2-y,1/2+z
loop_
_atom_site_type_symbol
_atom_site_label
_atom_site_fract_x
_atom_site_fract_y
_atom_site_fract_z
Si Si1 0.030305 0.886009 0.377563
Si Si2 0.857690 0.486269 0.215744
Si Si3 0.199730 0.025871 0.419809
Si Si4 0.850769 0.278242 0.420937
Si Si5 0.955021 0.587304 0.419796
Si Si6 0.774801 0.821417 0.219989
Si Si7 0.770982 0.646480 0.305533
Si Si8 0.524774 0.592966 0.286015
O O1 0.050521 0.788792 0.395543
O O2 0.889752 0.900841 0.391257
O O3 0.066433 0.912623 0.296897
O O4 0.120045 0.940735 0.426659
O O5 0.813047 0.481213 0.133016
O O6 0.815067 0.397996 0.255550
O O7 0.799755 0.570233 0.250070
O O8 0.000000 0.500000 0.216991
O O9 0.247908 0.047794 0.500000
O O10 0.794181 0.256197 0.500000
O O11 0.752179 0.286178 0.359602
O O12 0.921624 0.364618 0.427357
O O13 0.901126 0.570123 0.500000
O O14 0.857628 0.637931 0.373676
O O15 0.000000 0.500000 0.381635
O O16 0.778263 0.741580 0.274037
O O17 0.908803 0.850548 0.210410
O O18 0.633572 0.634343 0.331017
O O19 0.500000 0.500000 0.318154
#
# Coordination Sequence:
#
# PCOD8238668 Si02
#       8
#     8   8   8   8   8   8   8   8
#     4  11  17  38  59  91 120 153 199 249 300 357
#     4  12  25  41  60  89 126 165 210 257 310 376
#     4  11  21  36  61  89 123 160 197 244 304 368
#     4  11  22  37  60  89 121 155 203 259 306 362
#     4  10  23  42  64  90 123 164 212 264 314 362
#     4  12  24  40  64  93 123 164 211 254 315 372
#     4  12  23  41  65  92 126 160 209 259 310 372
#     4  12  21  39  64  91 124 158 202 259 305 368
#
# _framework density 19.634564000000001
#
# number of rings (size 3 to 8) (size 9 to 14) (size 15 to 20)
#    0.000    0.625    6.250    4.125    1.750    0.250 
#    0.000    0.625    0.000    0.750    0.000    0.000 
#    0.000    0.000    0.000    0.000    0.000    0.000 
#
# Total GULP energy -793225.054502 kJ/mol
# GULP energy per Si atom -12394.141477 kJ/mol
# Density = 1.958987 g / cm^3
# Si number density = 19.634564 Si / 1000 Ang^3
#
#
#
# Elastic Constant Matrix: (Units=GPa)
#
#
# Indices 1 2 3 4 5 6 
#
# 1 133.7994 42.3410 36.3309 0.0000 0.0000 0.0000
# 2 42.3410 124.4184 12.2555 0.0000 0.0000 0.0000
# 3 36.3309 12.2555 89.1284 0.0000 0.0000 0.0000
# 4 0.0000 0.0000 0.0000 14.4937 0.0000 0.0000
# 5 0.0000 0.0000 0.0000 0.0000 30.0980 0.0000
# 6 0.0000 0.0000 0.0000 0.0000 0.0000 29.2518
#
#
#
# Elastic Compliance Matrix: (Units=1/GPa)
#
#
# Indices 1 2 3 4 5 6 
#
# 1 0.009291 -0.002827 -0.003399 0.000000 0.000000 0.000000
# 2 -0.002827 0.009008 -0.000086 0.000000 0.000000 0.000000
# 3 -0.003399 -0.000086 0.012617 0.000000 0.000000 0.000000
# 4 0.000000 0.000000 0.000000 0.068996 0.000000 0.000000
# 5 0.000000 0.000000 0.000000 0.000000 0.033225 0.000000
# 6 0.000000 0.000000 0.000000 0.000000 0.000000 0.034186
#
#
# Mechanical properties :
#
#
# Convention : Reuss Voigt Hill
#
# Bulk Modulus (GPa) = 54.66777 58.80010 56.73394
# Shear Modulus (GPa) = 26.87531 31.86327 29.36929
#
# Velocity S-wave (km/s) = 3.70371 4.03279 3.87175
# Velocity P-wave (km/s) = 6.79655 7.19005 6.99606
#
# Compressibility (1/GPa) = 0.01829231
#
# Stress axis : x y z
#
# Youngs Moduli (GPa) = 107.62652 111.01223 79.25821
#
# Poissons Ratio (x) = 0.31385 0.26937
# Poissons Ratio (y) = 0.30428 0.00683
# Poissons Ratio (z) = 0.36578 0.00957
#
# Static dielectric constant tensor:
#      x y z
#    x 3.528030 0.000000 0.000000 
#    y 0.000000 3.746990 0.000000 
#    z 0.000000 0.000000 3.833790 
# 
# 
# High freq. dielectric constant tensor:
#      x y z
#    x 1.753750 0.000000 0.000000 
#    y 0.000000 1.779670 0.000000 
#    z 0.000000 0.000000 1.755970 
# 
# From -- ./inp_files/26360.got.cif
#   From: 2010.06.25/outbox.cif.g09.slc.cpg/sg58_14_cif.got.tgz:26360.got - 2010.06.26 21:38:00.
