data_PCOD8238489
_publ_section_title
;
Structure prediction by ZEFSAII (Michael W. Deem and Ramdas Pophale) SiO2 
 PCOD8238489
Probable space group: P N N M
;
_chemical_formula_sum "Si O2"
_cell_formula_units_Z 64
_cell_length_a 13.282525
_cell_length_b 17.760659
_cell_length_c 14.003799
_cell_angle_alpha 90.000000
_cell_angle_beta 90.000000
_cell_angle_gamma 90.000000
_cell_volume 3303.585769
_symmetry_space_group_name_H-M "P N N M"
_symmetry_group_IT_number 58
_symmetry_cell_setting 'orthorhombic'
loop_
_space_group_symop_operation_xyz
x,y,z
-x,-y,z
1/2+x,1/2-y,1/2-z
1/2-x,1/2+y,1/2-z
-x,-y,-z
x,y,-z
1/2-x,1/2+y,1/2+z
1/2+x,1/2-y,1/2+z
loop_
_atom_site_type_symbol
_atom_site_label
_atom_site_fract_x
_atom_site_fract_y
_atom_site_fract_z
Si Si1 0.662975 0.675844 0.727826
Si Si2 0.975309 0.723842 0.758767
Si Si3 0.235503 0.569358 0.890043
Si Si4 0.077256 0.566602 0.734023
Si Si5 0.232925 0.088822 0.890873
Si Si6 0.707653 0.233953 0.609280
Si Si7 0.818138 0.764237 0.609827
Si Si8 0.383642 0.494435 0.752412
O O1 0.561332 0.720428 0.704890
O O2 0.701526 0.693783 0.834729
O O3 0.745500 0.699352 0.649622
O O4 0.644868 0.587997 0.716347
O O5 0.899088 0.709969 0.846278
O O6 0.921960 0.762743 0.668073
O O7 0.019189 0.644680 0.725490
O O8 0.129245 0.556992 0.837416
O O9 0.266308 0.655604 0.874427
O O10 0.320826 0.515196 0.846963
O O11 0.221027 0.548191 0.000000
O O12 0.161436 0.561664 0.652136
O O13 0.000000 0.500000 0.715922
O O14 0.222281 0.177545 0.879421
O O15 0.140903 0.051488 0.833663
O O16 0.226943 0.062874 0.000000
O O17 0.711200 0.207200 0.500000
O O18 0.842578 0.748206 0.500000
O O19 0.500000 0.500000 0.779748
#
# Coordination Sequence:
#
# PCOD8238489 Si02
#       8
#     8   8   8   8   8   8   8   8
#     4  11  21  39  61  86 122 153 193 248 293 353
#     4  11  21  39  63  90 119 153 200 245 296 351
#     4  10  22  43  62  86 126 160 194 244 301 355
#     4  11  23  39  62  88 120 162 202 240 298 357
#     4  10  22  43  62  86 126 160 194 244 301 355
#     4  10  22  39  62  89 116 153 197 244 297 352
#     4  10  22  39  62  89 116 153 197 244 297 352
#     4  11  23  39  62  89 119 159 201 241 299 352
#
# _framework density 19.372890000000002
#
# number of rings (size 3 to 8) (size 9 to 14) (size 15 to 20)
#    0.000    1.500    2.500    3.750    7.000    4.000 
#    0.000    0.000    0.000    0.000    0.000    0.000 
#    0.000    0.000    0.000    0.000    0.000    0.000 
#
# Total GULP energy -793946.622878 kJ/mol
# GULP energy per Si atom -12405.415982 kJ/mol
# Density = 1.932880 g / cm^3
# Si number density = 19.372890 Si / 1000 Ang^3
#
#
#
# Elastic Constant Matrix: (Units=GPa)
#
#
# Indices 1 2 3 4 5 6 
#
# 1 77.6747 -2.5438 7.4381 0.0000 0.0000 0.0000
# 2 -2.5438 51.1460 -6.1481 0.0000 0.0000 0.0000
# 3 7.4381 -6.1481 83.1384 0.0000 0.0000 0.0000
# 4 0.0000 0.0000 0.0000 15.1312 0.0000 0.0000
# 5 0.0000 0.0000 0.0000 0.0000 16.2559 0.0000
# 6 0.0000 0.0000 0.0000 0.0000 0.0000 35.3126
#
#
#
# Elastic Compliance Matrix: (Units=1/GPa)
#
#
# Indices 1 2 3 4 5 6 
#
# 1 0.012999 0.000511 -0.001125 0.000000 0.000000 0.000000
# 2 0.000511 0.019747 0.001415 0.000000 0.000000 0.000000
# 3 -0.001125 0.001415 0.012233 0.000000 0.000000 0.000000
# 4 0.000000 0.000000 0.000000 0.066088 0.000000 0.000000
# 5 0.000000 0.000000 0.000000 0.000000 0.061516 0.000000
# 6 0.000000 0.000000 0.000000 0.000000 0.000000 0.028319
#
#
# Mechanical properties :
#
#
# Convention : Reuss Voigt Hill
#
# Bulk Modulus (GPa) = 21.46806 23.27238 22.37022
# Shear Modulus (GPa) = 23.27441 27.55413 25.41427
#
# Velocity S-wave (km/s) = 3.46987 3.77544 3.62587
# Velocity P-wave (km/s) = 5.21142 5.57173 5.39458
#
# Compressibility (1/GPa) = 0.04658084
#
# Stress axis : x y z
#
# Youngs Moduli (GPa) = 76.93084 50.63971 81.74339
#
# Poissons Ratio (x) = -0.02589 0.09197
# Poissons Ratio (y) = -0.03933 -0.11563
# Poissons Ratio (z) = 0.08656 -0.07163
#
# Static dielectric constant tensor:
#      x y z
#    x 1.361560 0.000000 0.000000 
#    y 0.000000 3.666990 0.000000 
#    z 0.000000 0.000000 3.602610 
# 
# 
# High freq. dielectric constant tensor:
#      x y z
#    x 1.762260 0.000000 0.000000 
#    y 0.000000 1.759240 0.000000 
#    z 0.000000 0.000000 1.752440 
# 
# From -- ./inp_files/21522.got.cif
#   From: 2010.06.25/outbox.cif.g09.slc.cpg/sg58_11_cif.got.tgz:21522.got - 2010.06.26 21:38:00.
