data_PCOD8238539
_publ_section_title
;
Structure prediction by ZEFSAII (Michael W. Deem and Ramdas Pophale) SiO2 
 PCOD8238539
Probable space group: P N N M
;
_chemical_formula_sum "Si O2"
_cell_formula_units_Z 48
_cell_length_a 8.558870
_cell_length_b 14.328526
_cell_length_c 18.309058
_cell_angle_alpha 90.000000
_cell_angle_beta 90.000000
_cell_angle_gamma 90.000000
_cell_volume 2245.349478
_symmetry_space_group_name_H-M "P N N M"
_symmetry_group_IT_number 58
_symmetry_cell_setting 'orthorhombic'
loop_
_space_group_symop_operation_xyz
x,y,z
-x,-y,z
1/2+x,1/2-y,1/2-z
1/2-x,1/2+y,1/2-z
-x,-y,-z
x,y,-z
1/2-x,1/2+y,1/2+z
1/2+x,1/2-y,1/2+z
loop_
_atom_site_type_symbol
_atom_site_label
_atom_site_fract_x
_atom_site_fract_y
_atom_site_fract_z
Si Si1 0.756709 0.420117 0.085506
Si Si2 0.984742 0.152385 0.776598
Si Si3 0.000000 0.500000 0.183528
Si Si4 0.496838 0.110658 0.919248
Si Si5 0.149341 0.657762 0.722828
Si Si6 0.500000 0.500000 0.823652
Si Si7 0.173885 0.795327 0.083895
O O1 0.588497 0.429408 0.122188
O O2 0.820782 0.315702 0.100821
O O3 0.855343 0.501178 0.126628
O O4 0.749984 0.442046 0.000000
O O5 0.169158 0.143014 0.757796
O O6 0.902952 0.065820 0.733624
O O7 0.901441 0.240205 0.742826
O O8 0.953085 0.154210 0.863838
O O9 0.028982 0.588707 0.235540
O O10 0.366212 0.146434 0.863933
O O11 0.662101 0.156232 0.898087
O O12 0.500000 0.000000 0.915579
O O13 0.448507 0.144754 0.000000
O O14 0.124627 0.812788 0.000000
#
# Coordination Sequence:
#
# PCOD8238539 Si02
#       7
#     8   8   4   8   8   4   8
#     4  11  24  45  70  98 134 180 225 281 347 405
#     4  12  26  42  68 100 132 178 226 280 342 404
#     4  12  23  44  65 100 126 174 222 282 339 398
#     4  10  22  40  66  96 132 178 219 269 335 402
#     4  12  25  42  68  97 133 175 223 281 336 407
#     4  12  25  40  65 104 134 174 222 278 333 404
#     4  10  23  46  70  98 139 181 229 285 340 408
#
# _framework density 21.377517999999998
#
# number of rings (size 3 to 8) (size 9 to 14) (size 15 to 20)
#    0.000    0.833    4.167    2.500    7.000    0.667 
#    0.000    1.250    0.000    0.000    0.000    0.000 
#    0.000    0.000    0.000    0.000    0.000    0.000 
#
# Total GULP energy -594803.782407 kJ/mol
# GULP energy per Si atom -12391.745467 kJ/mol
# Density = 2.132886 g / cm^3
# Si number density = 21.377518 Si / 1000 Ang^3
#
#
#
# Elastic Constant Matrix: (Units=GPa)
#
#
# Indices 1 2 3 4 5 6 
#
# 1 56.0480 21.1374 38.8452 0.0000 0.0000 0.0000
# 2 21.1374 88.9498 49.5924 0.0000 0.0000 0.0000
# 3 38.8452 49.5924 158.3649 0.0000 0.0000 0.0000
# 4 0.0000 0.0000 0.0000 24.6644 0.0000 0.0000
# 5 0.0000 0.0000 0.0000 0.0000 34.2273 0.0000
# 6 0.0000 0.0000 0.0000 0.0000 0.0000 30.2543
#
#
#
# Elastic Compliance Matrix: (Units=1/GPa)
#
#
# Indices 1 2 3 4 5 6 
#
# 1 0.022015 -0.002691 -0.004558 0.000000 0.000000 0.000000
# 2 -0.002691 0.013949 -0.003708 0.000000 0.000000 0.000000
# 3 -0.004558 -0.003708 0.008594 0.000000 0.000000 0.000000
# 4 0.000000 0.000000 0.000000 0.040544 0.000000 0.000000
# 5 0.000000 0.000000 0.000000 0.000000 0.029216 0.000000
# 6 0.000000 0.000000 0.000000 0.000000 0.000000 0.033053
#
#
# Mechanical properties :
#
#
# Convention : Reuss Voigt Hill
#
# Bulk Modulus (GPa) = 44.15917 58.05699 51.10808
# Shear Modulus (GPa) = 28.27525 30.74837 29.51181
#
# Velocity S-wave (km/s) = 3.64079 3.79667 3.71955
# Velocity P-wave (km/s) = 6.19479 6.81444 6.51199
#
# Compressibility (1/GPa) = 0.02264535
#
# Stress axis : x y z
#
# Youngs Moduli (GPa) = 45.42309 71.68906 116.36442
#
# Poissons Ratio (x) = 0.19288 0.53034
# Poissons Ratio (y) = 0.12221 0.43151
# Poissons Ratio (z) = 0.20702 0.26584
#
# Static dielectric constant tensor:
#      x y z
#    x 6.318550 0.000000 0.000000 
#    y 0.000000 4.061700 0.000000 
#    z 0.000000 0.000000 4.535060 
# 
# 
# High freq. dielectric constant tensor:
#      x y z
#    x 1.812810 0.000000 0.000000 
#    y 0.000000 1.841490 0.000000 
#    z 0.000000 0.000000 1.872270 
# 
# From -- ./inp_files/25336.got.cif
#   From: 2010.06.25/outbox.cif.g09.slc.cpg/sg58_13_cif.got.tgz:25336.got - 2010.06.26 21:38:00.
