data_PCOD8238358
_publ_section_title
;
Structure prediction by ZEFSAII (Michael W. Deem and Ramdas Pophale) SiO2 
 PCOD8238358
Probable space group: P N N M
;
_chemical_formula_sum "Si O2"
_cell_formula_units_Z 40
_cell_length_a 8.434536
_cell_length_b 8.675234
_cell_length_c 26.213511
_cell_angle_alpha 90.000000
_cell_angle_beta 90.000000
_cell_angle_gamma 90.000000
_cell_volume 1918.083846
_symmetry_space_group_name_H-M "P N N M"
_symmetry_group_IT_number 58
_symmetry_cell_setting 'orthorhombic'
loop_
_space_group_symop_operation_xyz
x,y,z
-x,-y,z
1/2+x,1/2-y,1/2-z
1/2-x,1/2+y,1/2-z
-x,-y,-z
x,y,-z
1/2-x,1/2+y,1/2+z
1/2+x,1/2-y,1/2+z
loop_
_atom_site_type_symbol
_atom_site_label
_atom_site_fract_x
_atom_site_fract_y
_atom_site_fract_z
Si Si1 0.430723 0.334106 0.205359
Si Si2 0.432085 0.664986 0.401823
Si Si3 0.559654 0.822435 0.500000
Si Si4 0.422947 0.819974 0.000000
Si Si5 0.559510 0.828875 0.103920
Si Si6 0.942428 0.666648 0.801636
O O1 0.500000 0.500000 0.218793
O O2 0.497510 0.277130 0.150922
O O3 0.243827 0.338228 0.204739
O O4 0.479604 0.215386 0.248863
O O5 0.500000 0.500000 0.414020
O O6 0.480219 0.771035 0.448102
O O7 0.245279 0.660353 0.400248
O O8 0.498633 0.722250 0.347440
O O9 0.738415 0.741571 0.500000
O O10 0.500000 0.000000 0.500000
O O11 0.490297 0.750114 0.947507
O O12 0.500000 0.000000 0.000000
O O13 0.500000 0.000000 0.113997
O O14 0.000000 0.500000 0.817737
#
# Coordination Sequence:
#
# PCOD8238358 Si02
#       6
#     8   8   4   4   8   8
#     4  11  24  40  62  90 123 164 207 256 315 379
#     4  11  23  41  65  93 126 166 211 258 315 381
#     4  12  26  42  65  97 131 167 211 267 322 378
#     4  10  21  40  66  91 122 167 211 257 315 380
#     4  10  22  40  63  91 122 162 208 258 311 373
#     4  11  24  41  63  91 125 162 207 261 316 375
#
# _framework density 20.854144999999999
#
# number of rings (size 3 to 8) (size 9 to 14) (size 15 to 20)
#    0.000    1.200    0.000    6.300    0.000   12.800 
#    0.000    1.500    0.000    0.000    0.000    0.000 
#    0.000    0.000    0.000    0.000    0.000    0.000 
#
# Total GULP energy -495553.021712 kJ/mol
# GULP energy per Si atom -12388.825543 kJ/mol
# Density = 2.080668 g / cm^3
# Si number density = 20.854145 Si / 1000 Ang^3
#
#
#
# Elastic Constant Matrix: (Units=GPa)
#
#
# Indices 1 2 3 4 5 6 
#
# 1 73.2956 37.6899 56.3095 0.0000 0.0000 0.0000
# 2 37.6899 111.9118 40.1309 0.0000 0.0000 0.0000
# 3 56.3095 40.1309 158.0498 0.0000 0.0000 0.0000
# 4 0.0000 0.0000 0.0000 29.6962 0.0000 0.0000
# 5 0.0000 0.0000 0.0000 0.0000 42.7599 0.0000
# 6 0.0000 0.0000 0.0000 0.0000 0.0000 32.7525
#
#
#
# Elastic Compliance Matrix: (Units=1/GPa)
#
#
# Indices 1 2 3 4 5 6 
#
# 1 0.020897 -0.004805 -0.006225 0.000000 0.000000 0.000000
# 2 -0.004805 0.010936 -0.001065 0.000000 0.000000 0.000000
# 3 -0.006225 -0.001065 0.008815 0.000000 0.000000 0.000000
# 4 0.000000 0.000000 0.000000 0.033674 0.000000 0.000000
# 5 0.000000 0.000000 0.000000 0.000000 0.023386 0.000000
# 6 0.000000 0.000000 0.000000 0.000000 0.000000 0.030532
#
#
# Mechanical properties :
#
#
# Convention : Reuss Voigt Hill
#
# Bulk Modulus (GPa) = 60.76153 67.94641 64.35397
# Shear Modulus (GPa) = 31.66237 34.98352 33.32294
#
# Velocity S-wave (km/s) = 3.90073 4.10021 4.00172
# Velocity P-wave (km/s) = 7.03472 7.42079 7.23033
#
# Compressibility (1/GPa) = 0.01645778
#
# Stress axis : x y z
#
# Youngs Moduli (GPa) = 47.85455 91.44296 113.44017
#
# Poissons Ratio (x) = 0.43942 0.70615
# Poissons Ratio (y) = 0.22996 0.12078
# Poissons Ratio (z) = 0.29789 0.09736
#
# Static dielectric constant tensor:
#      x y z
#    x 4.036100 0.000000 0.000000 
#    y 0.000000 3.852080 0.000000 
#    z 0.000000 0.000000 4.465420 
# 
# 
# High freq. dielectric constant tensor:
#      x y z
#    x 1.826900 0.000000 0.000000 
#    y 0.000000 1.815060 0.000000 
#    z 0.000000 0.000000 1.847900 
# 
# From -- ./inp_files/33182.got.cif
#   From: 2010.06.25/outbox.cif.g09.slc.cpg/sg58_17_cif.got.tgz:33182.got - 2010.06.26 21:38:00.
