data_PCOD8238613
_publ_section_title
;
Structure prediction by ZEFSAII (Michael W. Deem and Ramdas Pophale) SiO2 
 PCOD8238613
Probable space group: P N N M
;
_chemical_formula_sum "Si O2"
_cell_formula_units_Z 52
_cell_length_a 17.000603
_cell_length_b 7.923104
_cell_length_c 18.304665
_cell_angle_alpha 90.000000
_cell_angle_beta 90.000000
_cell_angle_gamma 90.000000
_cell_volume 2465.593449
_symmetry_space_group_name_H-M "P N N M"
_symmetry_group_IT_number 58
_symmetry_cell_setting 'orthorhombic'
loop_
_space_group_symop_operation_xyz
x,y,z
-x,-y,z
1/2+x,1/2-y,1/2-z
1/2-x,1/2+y,1/2-z
-x,-y,-z
x,y,-z
1/2-x,1/2+y,1/2+z
1/2+x,1/2-y,1/2+z
loop_
_atom_site_type_symbol
_atom_site_label
_atom_site_fract_x
_atom_site_fract_y
_atom_site_fract_z
Si Si1 0.018764 0.700510 0.276018
Si Si2 0.220215 0.427103 0.342883
Si Si3 0.365531 0.564370 0.581838
Si Si4 0.912058 0.549548 0.918164
Si Si5 0.824083 0.366284 0.208421
Si Si6 0.055781 0.345789 0.580092
Si Si7 0.500000 0.500000 0.678444
O O1 0.110733 0.731146 0.258323
O O2 0.973427 0.833557 0.224163
O O3 0.000000 0.500000 0.262320
O O4 0.992025 0.759070 0.357742
O O5 0.276327 0.549115 0.390091
O O6 0.214070 0.499507 0.262004
O O7 0.258024 0.246797 0.328632
O O8 0.138189 0.407304 0.385580
O O9 0.368316 0.493943 0.500000
O O10 0.398712 0.751791 0.586405
O O11 0.424374 0.447644 0.629546
O O12 0.856862 0.461386 0.861074
O O13 0.000000 0.500000 0.895962
O O14 0.892743 0.484946 0.000000
O O15 0.068557 0.254221 0.500000
O O16 0.000000 0.500000 0.562826
#
# Coordination Sequence:
#
# PCOD8238613 Si02
#       7
#     8   8   8   8   8   8   4
#     4  11  22  43  68  97 130 175 228 277 334 406
#     4  12  25  39  66  98 132 175 226 283 344 402
#     4  11  24  41  62  97 137 173 222 277 336 407
#     4  10  23  42  66  93 133 180 217 265 335 411
#     4  12  23  41  63  96 134 169 221 279 335 406
#     4  10  22  43  69  93 127 179 234 284 343 408
#     4  12  23  40  69 100 134 178 222 272 339 416
#
# _framework density 21.090257999999999
#
# number of rings (size 3 to 8) (size 9 to 14) (size 15 to 20)
#    0.000    0.923    4.615    3.923    2.154    1.231 
#    0.000    0.385    0.000    0.462    0.000    0.000 
#    0.000    0.000    0.000    0.000    0.000    0.000 
#
# Total GULP energy -644354.211234 kJ/mol
# GULP energy per Si atom -12391.427139 kJ/mol
# Density = 2.104226 g / cm^3
# Si number density = 21.090258 Si / 1000 Ang^3
#
#
#
# Elastic Constant Matrix: (Units=GPa)
#
#
# Indices 1 2 3 4 5 6 
#
# 1 101.6482 26.8097 57.1029 0.0000 0.0000 0.0000
# 2 26.8097 67.3828 52.0985 0.0000 0.0000 0.0000
# 3 57.1029 52.0985 178.8860 0.0000 0.0000 0.0000
# 4 0.0000 0.0000 0.0000 23.9810 0.0000 0.0000
# 5 0.0000 0.0000 0.0000 0.0000 57.9963 0.0000
# 6 0.0000 0.0000 0.0000 0.0000 0.0000 35.8508
#
#
#
# Elastic Compliance Matrix: (Units=1/GPa)
#
#
# Indices 1 2 3 4 5 6 
#
# 1 0.012280 -0.002394 -0.003223 0.000000 0.000000 0.000000
# 2 -0.002394 0.019620 -0.004950 0.000000 0.000000 0.000000
# 3 -0.003223 -0.004950 0.008060 0.000000 0.000000 0.000000
# 4 0.000000 0.000000 0.000000 0.041700 0.000000 0.000000
# 5 0.000000 0.000000 0.000000 0.000000 0.017242 0.000000
# 6 0.000000 0.000000 0.000000 0.000000 0.000000 0.027893
#
#
# Mechanical properties :
#
#
# Convention : Reuss Voigt Hill
#
# Bulk Modulus (GPa) = 53.11487 68.88213 60.99850
# Shear Modulus (GPa) = 32.42436 37.69267 35.05852
#
# Velocity S-wave (km/s) = 3.92524 4.23212 4.08157
# Velocity P-wave (km/s) = 6.76628 7.52414 7.15525
#
# Compressibility (1/GPa) = 0.01882712
#
# Stress axis : x y z
#
# Youngs Moduli (GPa) = 81.43561 50.96758 124.06238
#
# Poissons Ratio (x) = 0.12202 0.39980
# Poissons Ratio (y) = 0.19497 0.61410
# Poissons Ratio (z) = 0.26243 0.25229
#
# Static dielectric constant tensor:
#      x y z
#    x 4.093670 0.000000 0.000000 
#    y 0.000000 3.528100 0.000000 
#    z 0.000000 0.000000 4.449000 
# 
# 
# High freq. dielectric constant tensor:
#      x y z
#    x 1.828150 0.000000 0.000000 
#    y 0.000000 1.800620 0.000000 
#    z 0.000000 0.000000 1.855130 
# 
# From -- ./inp_files/27257.got.cif
#   From: 2010.06.25/outbox.cif.g09.slc.cpg/sg58_14_cif.got.tgz:27257.got - 2010.06.26 21:38:00.
