data_PCOD8238329
_publ_section_title
;
Structure prediction by ZEFSAII (Michael W. Deem and Ramdas Pophale) SiO2 
 PCOD8238329
Probable space group: P N N M
;
_chemical_formula_sum "Si O2"
_cell_formula_units_Z 64
_cell_length_a 18.676650
_cell_length_b 19.195540
_cell_length_c 8.857459
_cell_angle_alpha 90.000000
_cell_angle_beta 90.000000
_cell_angle_gamma 90.000000
_cell_volume 3175.473296
_symmetry_space_group_name_H-M "P N N M"
_symmetry_group_IT_number 58
_symmetry_cell_setting 'orthorhombic'
loop_
_space_group_symop_operation_xyz
x,y,z
-x,-y,z
1/2+x,1/2-y,1/2-z
1/2-x,1/2+y,1/2-z
-x,-y,-z
x,y,-z
1/2-x,1/2+y,1/2+z
1/2+x,1/2-y,1/2+z
loop_
_atom_site_type_symbol
_atom_site_label
_atom_site_fract_x
_atom_site_fract_y
_atom_site_fract_z
Si Si1 0.288590 0.964965 0.177328
Si Si2 0.637982 0.175576 0.821396
Si Si3 0.842088 0.385012 0.327761
Si Si4 0.446233 0.338299 0.323558
Si Si5 0.211778 0.182667 0.678498
Si Si6 0.362607 0.455363 0.177766
Si Si7 0.021980 0.698779 0.325297
Si Si8 0.092854 0.088731 0.177514
O O1 0.330028 0.896974 0.239231
O O2 0.216958 0.973087 0.271599
O O3 0.335186 0.033547 0.213135
O O4 0.270773 0.958127 0.000000
O O5 0.687334 0.240200 0.766578
O O6 0.556887 0.182467 0.759269
O O7 0.635188 0.172996 0.000000
O O8 0.818484 0.371647 0.500000
O O9 0.793082 0.333984 0.226084
O O10 0.925883 0.367367 0.304220
O O11 0.430986 0.344545 0.500000
O O12 0.384286 0.379505 0.236834
O O13 0.441748 0.259254 0.271643
O O14 0.523723 0.367210 0.277447
O O15 0.203535 0.176152 0.500000
O O16 0.162527 0.125310 0.756201
O O17 0.415743 0.512329 0.250674
O O18 0.369186 0.458540 0.000000
O O19 0.016751 0.721794 0.500000
O O20 0.102142 0.080631 0.000000
#
# Coordination Sequence:
#
# PCOD8238329 Si02
#       8
#     8   8   8   8   8   8   8   8
#     4  10  21  40  62  88 121 160 204 249 302 359
#     4   9  20  38  62  89 120 158 201 252 302 354
#     4  10  22  38  61  89 122 161 200 251 304 357
#     4  11  24  40  60  88 122 161 200 246 303 361
#     4  11  21  36  61  89 121 160 200 245 300 359
#     4  12  25  39  59  90 123 160 201 247 300 359
#     4  10  21  40  62  90 122 156 204 254 302 355
#     4  11  22  39  62  88 120 159 201 245 300 366
#
# _framework density 20.154475000000001
#
# number of rings (size 3 to 8) (size 9 to 14) (size 15 to 20)
#    0.000    1.500    2.500    2.625    1.750    4.000 
#    0.000    3.750    0.000    0.000    0.000    2.625 
#    0.000    0.000    0.000    0.000    0.000    0.000 
#
# Total GULP energy -793859.844960 kJ/mol
# GULP energy per Si atom -12404.060077 kJ/mol
# Density = 2.010860 g / cm^3
# Si number density = 20.154475 Si / 1000 Ang^3
#
#
#
# Elastic Constant Matrix: (Units=GPa)
#
#
# Indices 1 2 3 4 5 6 
#
# 1 54.5903 40.5506 27.4042 0.0000 0.0000 0.0000
# 2 40.5506 130.2812 32.7663 0.0000 0.0000 0.0000
# 3 27.4042 32.7663 72.1406 0.0000 0.0000 0.0000
# 4 0.0000 0.0000 0.0000 26.6552 0.0000 0.0000
# 5 0.0000 0.0000 0.0000 0.0000 21.1533 0.0000
# 6 0.0000 0.0000 0.0000 0.0000 0.0000 38.7552
#
#
#
# Elastic Compliance Matrix: (Units=1/GPa)
#
#
# Indices 1 2 3 4 5 6 
#
# 1 0.026784 -0.006523 -0.007212 0.000000 0.000000 0.000000
# 2 -0.006523 0.010254 -0.002180 0.000000 0.000000 0.000000
# 3 -0.007212 -0.002180 0.017591 0.000000 0.000000 0.000000
# 4 0.000000 0.000000 0.000000 0.037516 0.000000 0.000000
# 5 0.000000 0.000000 0.000000 0.000000 0.047274 0.000000
# 6 0.000000 0.000000 0.000000 0.000000 0.000000 0.025803
#
#
# Mechanical properties :
#
#
# Convention : Reuss Voigt Hill
#
# Bulk Modulus (GPa) = 43.85779 50.93935 47.39857
# Shear Modulus (GPa) = 24.43186 27.73216 26.08201
#
# Velocity S-wave (km/s) = 3.48549 3.71344 3.60127
# Velocity P-wave (km/s) = 6.16492 6.61177 6.39225
#
# Compressibility (1/GPa) = 0.02280097
#
# Stress axis : x y z
#
# Youngs Moduli (GPa) = 37.33608 97.52176 56.84612
#
# Poissons Ratio (x) = 0.63611 0.40996
# Poissons Ratio (y) = 0.24353 0.12390
# Poissons Ratio (z) = 0.26926 0.21256
#
# Static dielectric constant tensor:
#      x y z
#    x 3.730950 0.000000 0.000000 
#    y 0.000000 3.883080 0.000000 
#    z 0.000000 0.000000 3.474980 
# 
# 
# High freq. dielectric constant tensor:
#      x y z
#    x 1.789110 0.000000 0.000000 
#    y 0.000000 1.796010 0.000000 
#    z 0.000000 0.000000 1.770770 
# 
# From -- ./inp_files/8352.got.cif
#   From: 2010.06.25/outbox.cif.g09.slc.cpg/sg58_5_cif.got.tgz:8352.got - 2010.06.26 21:38:00.
