data_PCOD8238249
_publ_section_title
;
Structure prediction by ZEFSAII (Michael W. Deem and Ramdas Pophale) SiO2 
 PCOD8238249
Probable space group: P N N M
;
_chemical_formula_sum "Si O2"
_cell_formula_units_Z 44
_cell_length_a 5.627874
_cell_length_b 14.555767
_cell_length_c 28.192309
_cell_angle_alpha 90.000000
_cell_angle_beta 90.000000
_cell_angle_gamma 90.000000
_cell_volume 2309.458207
_symmetry_space_group_name_H-M "P N N M"
_symmetry_group_IT_number 58
_symmetry_cell_setting 'orthorhombic'
loop_
_space_group_symop_operation_xyz
x,y,z
-x,-y,z
1/2+x,1/2-y,1/2-z
1/2-x,1/2+y,1/2-z
-x,-y,-z
x,y,-z
1/2-x,1/2+y,1/2+z
1/2+x,1/2-y,1/2+z
loop_
_atom_site_type_symbol
_atom_site_label
_atom_site_fract_x
_atom_site_fract_y
_atom_site_fract_z
Si Si1 0.941845 0.196161 0.319091
Si Si2 0.500000 0.000000 0.247208
Si Si3 0.500000 0.500000 0.805632
Si Si4 0.348222 0.645480 0.360294
Si Si5 0.231561 0.838320 0.786214
Si Si6 0.000000 0.500000 0.395090
Si Si7 0.876775 0.097716 0.947896
O O1 0.775713 0.255929 0.353078
O O2 0.835518 0.189452 0.266554
O O3 0.193739 0.247194 0.314972
O O4 0.976711 0.091652 0.338159
O O5 0.752241 0.988882 0.275735
O O6 0.457043 0.908887 0.215152
O O7 0.515870 0.619172 0.315928
O O8 0.184991 0.554678 0.362327
O O9 0.485766 0.660603 0.410024
O O10 0.113077 0.420941 0.428272
O O11 0.866878 0.145377 0.000000
O O12 0.000000 0.000000 0.952292
#
# Coordination Sequence:
#
# PCOD8238249 Si02
#       7
#     8   4   4   8   8   4   8
#     4  11  22  39  54  78 115 159 204 257 298 357
#     4  10  24  39  57  82 111 162 207 251 298 363
#     4  10  24  42  60  78 109 162 213 248 314 352
#     4  11  23  37  57  87 120 162 208 250 309 367
#     4  11  22  38  56  80 118 160 203 251 299 359
#     4  10  21  39  55  90 124 158 206 251 307 373
#     4   9  19  37  59  85 120 159 197 251 314 378
#
# _framework density 19.052087
#
# number of rings (size 3 to 8) (size 9 to 14) (size 15 to 20)
#    0.000    1.636    1.818    2.455    5.091    6.545 
#   11.455    0.000    0.000    0.000    0.000    0.636 
#    0.000    5.818    0.000    0.364    0.000    0.000 
#
# Total GULP energy -545142.932980 kJ/mol
# GULP energy per Si atom -12389.612113 kJ/mol
# Density = 1.900872 g / cm^3
# Si number density = 19.052087 Si / 1000 Ang^3
#
#
#
# Elastic Constant Matrix: (Units=GPa)
#
#
# Indices 1 2 3 4 5 6 
#
# 1 102.7963 39.8141 30.5347 0.0000 0.0000 0.0000
# 2 39.8141 121.2395 37.2909 0.0000 0.0000 0.0000
# 3 30.5347 37.2909 95.7276 0.0000 0.0000 0.0000
# 4 0.0000 0.0000 0.0000 24.1569 0.0000 0.0000
# 5 0.0000 0.0000 0.0000 0.0000 20.0223 0.0000
# 6 0.0000 0.0000 0.0000 0.0000 0.0000 28.5531
#
#
#
# Elastic Compliance Matrix: (Units=1/GPa)
#
#
# Indices 1 2 3 4 5 6 
#
# 1 0.011662 -0.003051 -0.002531 0.000000 0.000000 0.000000
# 2 -0.003051 0.010169 -0.002988 0.000000 0.000000 0.000000
# 3 -0.002531 -0.002988 0.012418 0.000000 0.000000 0.000000
# 4 0.000000 0.000000 0.000000 0.041396 0.000000 0.000000
# 5 0.000000 0.000000 0.000000 0.000000 0.049944 0.000000
# 6 0.000000 0.000000 0.000000 0.000000 0.000000 0.035023
#
#
# Mechanical properties :
#
#
# Convention : Reuss Voigt Hill
#
# Bulk Modulus (GPa) = 58.45359 59.44921 58.95140
# Shear Modulus (GPa) = 27.25470 28.68805 27.97137
#
# Velocity S-wave (km/s) = 3.78635 3.88463 3.83581
# Velocity P-wave (km/s) = 7.06136 7.16881 7.11528
#
# Compressibility (1/GPa) = 0.01710759
#
# Stress axis : x y z
#
# Youngs Moduli (GPa) = 85.75197 98.33634 80.52975
#
# Poissons Ratio (x) = 0.30002 0.20384
# Poissons Ratio (y) = 0.26163 0.24064
# Poissons Ratio (z) = 0.21706 0.29385
#
# Static dielectric constant tensor:
#      x y z
#    x 3.899570 0.000000 0.000000 
#    y 0.000000 3.923760 0.000000 
#    z 0.000000 0.000000 3.473050 
# 
# 
# High freq. dielectric constant tensor:
#      x y z
#    x 1.765120 0.000000 0.000000 
#    y 0.000000 1.721980 0.000000 
#    z 0.000000 0.000000 1.696930 
# 
# From -- ./inp_files/34146.got.cif
#   From: 2010.06.25/outbox.cif.g09.slc.cpg/sg58_18_cif.got.tgz:34146.got - 2010.06.26 21:38:00.
