data_PCOD8238125
_publ_section_title
;
Structure prediction by ZEFSAII (Michael W. Deem and Ramdas Pophale) SiO2 
 PCOD8238125
Probable space group: P N N M
;
_chemical_formula_sum "Si O2"
_cell_formula_units_Z 44
_cell_length_a 7.866529
_cell_length_b 26.941675
_cell_length_c 9.835760
_cell_angle_alpha 90.000000
_cell_angle_beta 90.000000
_cell_angle_gamma 90.000000
_cell_volume 2084.566067
_symmetry_space_group_name_H-M "P N N M"
_symmetry_group_IT_number 58
_symmetry_cell_setting 'orthorhombic'
loop_
_space_group_symop_operation_xyz
x,y,z
-x,-y,z
1/2+x,1/2-y,1/2-z
1/2-x,1/2+y,1/2-z
-x,-y,-z
x,y,-z
1/2-x,1/2+y,1/2+z
1/2+x,1/2-y,1/2+z
loop_
_atom_site_type_symbol
_atom_site_label
_atom_site_fract_x
_atom_site_fract_y
_atom_site_fract_z
Si Si1 0.609952 0.716850 0.151751
Si Si2 0.500000 0.000000 0.754321
Si Si3 0.482011 0.614482 0.152400
Si Si4 0.376101 0.899442 0.651938
Si Si5 0.596759 0.186004 0.155873
Si Si6 0.648346 0.463127 0.346754
O O1 0.464804 0.674282 0.171854
O O2 0.547414 0.772713 0.161569
O O3 0.742637 0.710058 0.271314
O O4 0.689252 0.708179 0.000000
O O5 0.541578 0.046560 0.659513
O O6 0.333782 0.011411 0.844792
O O7 0.675771 0.598470 0.184238
O O8 0.354921 0.586044 0.253479
O O9 0.430046 0.598735 0.000000
O O10 0.407422 0.878809 0.500000
O O11 0.463995 0.862951 0.762469
O O12 0.640189 0.171646 0.000000
O O13 0.500000 0.500000 0.294321
O O14 0.607915 0.446570 0.500000
#
# Coordination Sequence:
#
# PCOD8238125 Si02
#       6
#     8   4   8   8   8   8
#     4   9  20  39  60  88 124 162 204 250 304 367
#     4  12  24  42  64  92 122 166 214 260 308 380
#     4   9  19  39  63  86 118 161 206 255 306 371
#     4  10  22  40  62  89 121 159 208 259 312 372
#     4  10  21  37  61  90 123 161 203 254 310 365
#     4  11  24  41  61  89 125 163 203 256 313 367
#
# _framework density 21.107510000000001
#
# number of rings (size 3 to 8) (size 9 to 14) (size 15 to 20)
#    0.000    2.000    1.818    2.182    0.000    9.091 
#    0.000    3.636    0.000    0.000    0.000    0.000 
#    0.000    0.000    0.000    0.000    0.000    0.000 
#
# Total GULP energy -545435.660881 kJ/mol
# GULP energy per Si atom -12396.265020 kJ/mol
# Density = 2.105947 g / cm^3
# Si number density = 21.107510 Si / 1000 Ang^3
#
#
#
# Elastic Constant Matrix: (Units=GPa)
#
#
# Indices 1 2 3 4 5 6 
#
# 1 60.0109 31.5152 23.2672 0.0000 0.0000 0.0000
# 2 31.5152 133.5921 67.2878 0.0000 0.0000 0.0000
# 3 23.2672 67.2878 143.5542 0.0000 0.0000 0.0000
# 4 0.0000 0.0000 0.0000 -12.5738 0.0000 0.0000
# 5 0.0000 0.0000 0.0000 0.0000 13.0509 0.0000
# 6 0.0000 0.0000 0.0000 0.0000 0.0000 32.1410
#
#
#
# Elastic Compliance Matrix: (Units=1/GPa)
#
#
# Indices 1 2 3 4 5 6 
#
# 1 0.019202 -0.003878 -0.001295 0.000000 0.000000 0.000000
# 2 -0.003878 0.010582 -0.004332 0.000000 0.000000 0.000000
# 3 -0.001295 -0.004332 0.009206 0.000000 0.000000 0.000000
# 4 0.000000 0.000000 0.000000 -0.079530 0.000000 0.000000
# 5 0.000000 0.000000 0.000000 0.000000 0.076623 0.000000
# 6 0.000000 0.000000 0.000000 0.000000 0.000000 0.031113
#
#
# Mechanical properties :
#
#
# Convention : Reuss Voigt Hill
#
# Bulk Modulus (GPa) = 50.04445 64.58862 57.31653
# Shear Modulus (GPa) = 53.84191 20.86275 37.35233
#
# Velocity S-wave (km/s) = 5.05606 3.14730 4.21125
# Velocity P-wave (km/s) = 7.60565 6.62371 7.13160
#
# Compressibility (1/GPa) = 0.01998224
#
# Stress axis : x y z
#
# Youngs Moduli (GPa) = 52.07773 94.50008 108.62290
#
# Poissons Ratio (x) = 0.36645 0.14063
# Poissons Ratio (y) = 0.20195 0.47051
# Poissons Ratio (z) = 0.06742 0.40933
#
# Static dielectric constant tensor:
#      x y z
#    x 3.516720 0.000000 0.000000 
#    y 0.000000 4.007410 0.000000 
#    z 0.000000 0.000000 3.830300 
# 
# 
# High freq. dielectric constant tensor:
#      x y z
#    x 1.799770 0.000000 0.000000 
#    y 0.000000 1.837190 0.000000 
#    z 0.000000 0.000000 1.832030 
# 
# From -- ./inp_files/2816.got.cif
#   From: 2010.06.25/outbox.cif.g09.slc.cpg/sg58_2_cif.got.tgz:2816.got - 2010.06.26 21:38:00.
