data_PCOD8238891
_publ_section_title
;
Structure prediction by ZEFSAII (Michael W. Deem and Ramdas Pophale) SiO2 
 PCOD8238891
Probable space group: P N N M
;
_chemical_formula_sum "Si O2"
_cell_formula_units_Z 64
_cell_length_a 13.738420
_cell_length_b 12.021218
_cell_length_c 17.754403
_cell_angle_alpha 90.000000
_cell_angle_beta 90.000000
_cell_angle_gamma 90.000000
_cell_volume 2932.184784
_symmetry_space_group_name_H-M "P N N M"
_symmetry_group_IT_number 58
_symmetry_cell_setting 'orthorhombic'
loop_
_space_group_symop_operation_xyz
x,y,z
-x,-y,z
1/2+x,1/2-y,1/2-z
1/2-x,1/2+y,1/2-z
-x,-y,-z
x,y,-z
1/2-x,1/2+y,1/2+z
1/2+x,1/2-y,1/2+z
loop_
_atom_site_type_symbol
_atom_site_label
_atom_site_fract_x
_atom_site_fract_y
_atom_site_fract_z
Si Si1 0.986604 0.781644 0.285367
Si Si2 0.274717 0.940208 0.912355
Si Si3 0.162135 0.315838 0.165232
Si Si4 0.671368 0.852024 0.173055
Si Si5 0.648382 0.305896 0.085766
Si Si6 0.070779 0.903157 0.852148
Si Si7 0.690601 0.935427 0.333872
Si Si8 0.473937 0.172257 0.583399
O O1 0.901830 0.722373 0.236927
O O2 0.937169 0.842193 0.356951
O O3 0.062865 0.694811 0.319676
O O4 0.043702 0.871008 0.233856
O O5 0.329590 0.824192 0.900440
O O6 0.180218 0.946805 0.858667
O O7 0.340307 0.042035 0.882109
O O8 0.248178 0.957966 0.000000
O O9 0.249142 0.234189 0.140661
O O10 0.210583 0.435071 0.179621
O O11 0.089684 0.328001 0.094738
O O12 0.713752 0.877537 0.255296
O O13 0.742108 0.381957 0.101636
O O14 0.615014 0.326696 0.000000
O O15 0.064586 0.797416 0.906583
O O16 0.000000 0.000000 0.881191
O O17 0.578853 0.911121 0.358207
O O18 0.449681 0.130852 0.500000
#
# Coordination Sequence:
#
# PCOD8238891 Si02
#       8
#     8   8   8   8   8   8   8   8
#     4  11  24  44  65 102 132 177 232 276 338 408
#     4  11  24  43  69 101 137 177 223 281 349 404
#     4  11  25  41  63 100 132 176 223 281 336 397
#     4  12  25  42  69  99 135 173 223 282 334 406
#     4  11  24  44  68  95 133 180 229 278 335 407
#     4  11  23  40  66  99 136 177 223 283 341 405
#     4  12  23  40  69  97 134 178 228 276 333 408
#     4  11  23  42  65  99 137 174 223 278 345 405
#
# _framework density 21.826729
#
# number of rings (size 3 to 8) (size 9 to 14) (size 15 to 20)
#    0.000    0.750    5.000    3.375    1.750    6.000 
#    0.000    1.250    0.000    2.625    0.000    0.000 
#    0.000    0.000    0.000    0.000    0.000    0.000 
#
# Total GULP energy -793744.548174 kJ/mol
# GULP energy per Si atom -12402.258565 kJ/mol
# Density = 2.177705 g / cm^3
# Si number density = 21.826729 Si / 1000 Ang^3
#
#
#
# Elastic Constant Matrix: (Units=GPa)
#
#
# Indices 1 2 3 4 5 6 
#
# 1 72.8816 15.0502 32.1639 0.0000 0.0000 0.0000
# 2 15.0502 60.4167 12.7828 0.0000 0.0000 0.0000
# 3 32.1639 12.7828 124.9057 0.0000 0.0000 0.0000
# 4 0.0000 0.0000 0.0000 19.5550 0.0000 0.0000
# 5 0.0000 0.0000 0.0000 0.0000 28.7355 0.0000
# 6 0.0000 0.0000 0.0000 0.0000 0.0000 24.4083
#
#
#
# Elastic Compliance Matrix: (Units=1/GPa)
#
#
# Indices 1 2 3 4 5 6 
#
# 1 0.016062 -0.003195 -0.003809 0.000000 0.000000 0.000000
# 2 -0.003195 0.017554 -0.000974 0.000000 0.000000 0.000000
# 3 -0.003809 -0.000974 0.009087 0.000000 0.000000 0.000000
# 4 0.000000 0.000000 0.000000 0.051138 0.000000 0.000000
# 5 0.000000 0.000000 0.000000 0.000000 0.034800 0.000000
# 6 0.000000 0.000000 0.000000 0.000000 0.000000 0.040970
#
#
# Mechanical properties :
#
#
# Convention : Reuss Voigt Hill
#
# Bulk Modulus (GPa) = 37.38845 42.02197 39.70521
# Shear Modulus (GPa) = 25.70952 27.75357 26.73154
#
# Velocity S-wave (km/s) = 3.43577 3.56974 3.50339
# Velocity P-wave (km/s) = 5.73639 6.02370 5.88180
#
# Compressibility (1/GPa) = 0.02674623
#
# Stress axis : x y z
#
# Youngs Moduli (GPa) = 62.26010 56.96819 110.05320
#
# Poissons Ratio (x) = 0.18202 0.41919
# Poissons Ratio (y) = 0.19893 0.10715
# Poissons Ratio (z) = 0.23715 0.05547
#
# Static dielectric constant tensor:
#      x y z
#    x 3.825150 0.000000 0.000000 
#    y 0.000000 3.946850 0.000000 
#    z 0.000000 0.000000 3.855540 
# 
# 
# High freq. dielectric constant tensor:
#      x y z
#    x 1.853590 0.000000 0.000000 
#    y 0.000000 1.858300 0.000000 
#    z 0.000000 0.000000 1.850960 
# 
# From -- ./inp_files/27021.got.cif
#   From: 2010.06.25/outbox.cif.g09.slc.cpg/sg58_14_cif.got.tgz:27021.got - 2010.06.26 21:38:00.
