data_PCOD8238728
_publ_section_title
;
Structure prediction by ZEFSAII (Michael W. Deem and Ramdas Pophale) SiO2 
 PCOD8238728
Probable space group: P N N M
;
_chemical_formula_sum "Si O2"
_cell_formula_units_Z 32
_cell_length_a 7.533374
_cell_length_b 10.257710
_cell_length_c 17.926802
_cell_angle_alpha 90.000000
_cell_angle_beta 90.000000
_cell_angle_gamma 90.000000
_cell_volume 1385.296597
_symmetry_space_group_name_H-M "P N N M"
_symmetry_group_IT_number 58
_symmetry_cell_setting 'orthorhombic'
loop_
_space_group_symop_operation_xyz
x,y,z
-x,-y,z
1/2+x,1/2-y,1/2-z
1/2-x,1/2+y,1/2-z
-x,-y,-z
x,y,-z
1/2-x,1/2+y,1/2+z
1/2+x,1/2-y,1/2+z
loop_
_atom_site_type_symbol
_atom_site_label
_atom_site_fract_x
_atom_site_fract_y
_atom_site_fract_z
Si Si1 0.299356 0.476475 0.695029
Si Si2 0.211556 0.756077 0.680438
Si Si3 0.517818 0.853707 0.585040
Si Si4 0.375940 0.793543 0.085707
O O1 0.500000 0.500000 0.669612
O O2 0.211359 0.614205 0.720894
O O3 0.291161 0.370400 0.759875
O O4 0.186554 0.428221 0.623769
O O5 0.392995 0.760673 0.633660
O O6 0.043635 0.771118 0.626465
O O7 0.452416 0.843908 0.500000
O O8 0.720886 0.812243 0.593284
O O9 0.500000 0.000000 0.615188
O O10 0.423214 0.823546 0.000000
#
# Coordination Sequence:
#
# PCOD8238728 Si02
#       4
#     8   8   8   8
#     4  12  27  47  71 108 144 195 240 302 366 428
#     4  12  27  47  75 105 147 192 244 299 364 430
#     4  10  24  45  73 109 147 187 236 302 366 428
#     4  11  26  48  76 110 144 190 247 299 362 434
#
# _framework density 23.099747000000001
#
# number of rings (size 3 to 8) (size 9 to 14) (size 15 to 20)
#    0.000    0.750    2.500    3.000    7.000    3.500 
#    0.000    3.750    0.000    0.000    0.000    0.000 
#    0.000    0.000    0.000    0.000    0.000    0.000 
#
# Total GULP energy -396981.546736 kJ/mol
# GULP energy per Si atom -12405.673336 kJ/mol
# Density = 2.304717 g / cm^3
# Si number density = 23.099747 Si / 1000 Ang^3
#
#
#
# Elastic Constant Matrix: (Units=GPa)
#
#
# Indices 1 2 3 4 5 6 
#
# 1 116.9903 44.3924 64.7699 0.0000 0.0000 0.0000
# 2 44.3924 178.8722 78.0635 0.0000 0.0000 0.0000
# 3 64.7699 78.0635 147.8097 0.0000 0.0000 0.0000
# 4 0.0000 0.0000 0.0000 28.3351 0.0000 0.0000
# 5 0.0000 0.0000 0.0000 0.0000 35.9628 0.0000
# 6 0.0000 0.0000 0.0000 0.0000 0.0000 30.8852
#
#
#
# Elastic Compliance Matrix: (Units=1/GPa)
#
#
# Indices 1 2 3 4 5 6 
#
# 1 0.011382 -0.000842 -0.004543 0.000000 0.000000 0.000000
# 2 -0.000842 0.007327 -0.003501 0.000000 0.000000 0.000000
# 3 -0.004543 -0.003501 0.010605 0.000000 0.000000 0.000000
# 4 0.000000 0.000000 0.000000 0.035292 0.000000 0.000000
# 5 0.000000 0.000000 0.000000 0.000000 0.027806 0.000000
# 6 0.000000 0.000000 0.000000 0.000000 0.000000 0.032378
#
#
# Mechanical properties :
#
#
# Convention : Reuss Voigt Hill
#
# Bulk Modulus (GPa) = 86.63298 90.90263 88.76780
# Shear Modulus (GPa) = 34.15045 36.13306 35.14176
#
# Velocity S-wave (km/s) = 3.84916 3.95931 3.90462
# Velocity P-wave (km/s) = 7.57231 7.76783 7.67070
#
# Compressibility (1/GPa) = 0.01154295
#
# Stress axis : x y z
#
# Youngs Moduli (GPa) = 87.85462 136.47338 94.29466
#
# Poissons Ratio (x) = 0.11495 0.42837
# Poissons Ratio (y) = 0.07400 0.33011
# Poissons Ratio (z) = 0.39912 0.47777
#
# Static dielectric constant tensor:
#      x y z
#    x 4.311430 0.000000 0.000000 
#    y 0.000000 4.309140 0.000000 
#    z 0.000000 0.000000 4.218600 
# 
# 
# High freq. dielectric constant tensor:
#      x y z
#    x 1.929030 0.000000 0.000000 
#    y 0.000000 1.923670 0.000000 
#    z 0.000000 0.000000 1.911710 
# 
# From -- ./inp_files/19184.got.cif
#   From: 2010.06.25/outbox.cif.g09.slc.cpg/sg58_10_cif.got.tgz:19184.got - 2010.06.26 21:38:00.
