data_PCOD8238271
_publ_section_title
;
Structure prediction by ZEFSAII (Michael W. Deem and Ramdas Pophale) SiO2 
 PCOD8238271
Probable space group: P N N M
;
_chemical_formula_sum "Si O2"
_cell_formula_units_Z 40
_cell_length_a 18.790219
_cell_length_b 9.785306
_cell_length_c 11.395036
_cell_angle_alpha 90.000000
_cell_angle_beta 90.000000
_cell_angle_gamma 90.000000
_cell_volume 2095.182966
_symmetry_space_group_name_H-M "P N N M"
_symmetry_group_IT_number 58
_symmetry_cell_setting 'orthorhombic'
loop_
_space_group_symop_operation_xyz
x,y,z
-x,-y,z
1/2+x,1/2-y,1/2-z
1/2-x,1/2+y,1/2-z
-x,-y,-z
x,y,-z
1/2-x,1/2+y,1/2+z
1/2+x,1/2-y,1/2+z
loop_
_atom_site_type_symbol
_atom_site_label
_atom_site_fract_x
_atom_site_fract_y
_atom_site_fract_z
Si Si1 0.878143 0.995650 0.500000
Si Si2 0.943019 0.893060 0.137623
Si Si3 0.698926 0.429724 0.772141
Si Si4 0.461792 0.866272 0.219413
Si Si5 0.000157 0.783243 0.500000
Si Si6 0.802193 0.630238 0.639976
O O1 0.827374 0.008806 0.612072
O O2 0.936531 0.111096 0.500000
O O3 0.920634 0.850881 0.500000
O O4 0.962550 0.740193 0.174502
O O5 0.865164 0.929685 0.180793
O O6 0.944441 0.903584 0.000000
O O7 0.000000 0.000000 0.192718
O O8 0.762115 0.509989 0.709262
O O9 0.723420 0.277037 0.809416
O O10 0.384140 0.896213 0.168624
O O11 0.500000 0.000000 0.269609
O O12 0.509810 0.808785 0.114098
O O13 0.787969 0.622589 0.500000
#
# Coordination Sequence:
#
# PCOD8238271 Si02
#       6
#     4   8   8   8   4   8
#     4  11  20  38  68  96 115 158 205 266 297 363
#     4  10  21  39  62  87 119 160 209 246 297 375
#     4  11  22  41  62  90 123 161 205 252 307 368
#     4  11  22  39  62  91 126 154 200 262 313 363
#     4  11  19  36  70  92 120 148 206 260 312 357
#     4  11  23  43  61  87 128 165 203 256 309 363
#
# _framework density 19.091411999999998
#
# number of rings (size 3 to 8) (size 9 to 14) (size 15 to 20)
#    0.000    1.200    6.000    2.100    0.000    3.600 
#    9.000    0.000    0.000    0.000    0.000    0.000 
#    0.000    0.000    0.000    0.000    0.000    0.000 
#
# Total GULP energy -496044.949076 kJ/mol
# GULP energy per Si atom -12401.123727 kJ/mol
# Density = 1.904796 g / cm^3
# Si number density = 19.091412 Si / 1000 Ang^3
#
#
#
# Elastic Constant Matrix: (Units=GPa)
#
#
# Indices 1 2 3 4 5 6 
#
# 1 66.6440 65.1171 39.1202 0.0000 0.0000 0.0000
# 2 65.1171 112.9469 48.2412 0.0000 0.0000 0.0000
# 3 39.1202 48.2412 97.8650 0.0000 0.0000 0.0000
# 4 0.0000 0.0000 0.0000 42.1481 0.0000 0.0000
# 5 0.0000 0.0000 0.0000 0.0000 -2.8816 0.0000
# 6 0.0000 0.0000 0.0000 0.0000 0.0000 37.0972
#
#
#
# Elastic Compliance Matrix: (Units=1/GPa)
#
#
# Indices 1 2 3 4 5 6 
#
# 1 0.036434 -0.018728 -0.005332 0.000000 0.000000 0.000000
# 2 -0.018728 0.020841 -0.002787 0.000000 0.000000 0.000000
# 3 -0.005332 -0.002787 0.013724 0.000000 0.000000 0.000000
# 4 0.000000 0.000000 0.000000 0.023726 0.000000 0.000000
# 5 0.000000 0.000000 0.000000 0.000000 -0.347030 0.000000
# 6 0.000000 0.000000 0.000000 0.000000 0.000000 0.026956
#
#
# Mechanical properties :
#
#
# Convention : Reuss Voigt Hill
#
# Bulk Modulus (GPa) = 57.78977 64.71253 61.25115
# Shear Modulus (GPa) = -30.14115 23.60455 -3.26830
#
# Velocity S-wave (km/s) = -3.97770 3.52006 -1.30982
# Velocity P-wave (km/s) = 3.03968 7.10569 5.46491
#
# Compressibility (1/GPa) = 0.01730410
#
# Stress axis : x y z
#
# Youngs Moduli (GPa) = 27.44705 47.98189 72.86677
#
# Poissons Ratio (x) = 0.89858 0.38856
# Poissons Ratio (y) = 0.51402 0.20310
# Poissons Ratio (z) = 0.14636 0.13374
#
# Static dielectric constant tensor:
#      x y z
#    x 3.430550 0.000000 0.000000 
#    y 0.000000 3.622540 0.000000 
#    z 0.000000 0.000000 3.509470 
# 
# 
# High freq. dielectric constant tensor:
#      x y z
#    x 1.734170 0.000000 0.000000 
#    y 0.000000 1.746280 0.000000 
#    z 0.000000 0.000000 1.751810 
# 
# From -- ./inp_files/16898.got.cif
#   From: 2010.06.25/outbox.cif.g09.slc.cpg/sg58_9_cif.got.tgz:16898.got - 2010.06.26 21:38:00.
