data_PCOD8238379
_publ_section_title
;
Structure prediction by ZEFSAII (Michael W. Deem and Ramdas Pophale) SiO2 
 PCOD8238379
Probable space group: P N N M
;
_chemical_formula_sum "Si O2"
_cell_formula_units_Z 48
_cell_length_a 13.940889
_cell_length_b 9.821907
_cell_length_c 17.560870
_cell_angle_alpha 90.000000
_cell_angle_beta 90.000000
_cell_angle_gamma 90.000000
_cell_volume 2404.541710
_symmetry_space_group_name_H-M "P N N M"
_symmetry_group_IT_number 58
_symmetry_cell_setting 'orthorhombic'
loop_
_space_group_symop_operation_xyz
x,y,z
-x,-y,z
1/2+x,1/2-y,1/2-z
1/2-x,1/2+y,1/2-z
-x,-y,-z
x,y,-z
1/2-x,1/2+y,1/2+z
1/2+x,1/2-y,1/2+z
loop_
_atom_site_type_symbol
_atom_site_label
_atom_site_fract_x
_atom_site_fract_y
_atom_site_fract_z
Si Si1 0.868590 0.595497 0.779078
Si Si2 0.750945 0.997499 0.416079
Si Si3 0.671132 0.041339 0.000000
Si Si4 0.073027 0.705443 0.774764
Si Si5 0.747750 0.703638 0.639135
Si Si6 0.030187 0.679897 0.500000
Si Si7 0.563323 0.627823 0.128188
O O1 0.822133 0.576251 0.861603
O O2 0.893753 0.445096 0.749197
O O3 0.798588 0.664850 0.718178
O O4 0.959839 0.694429 0.792939
O O5 0.703897 0.985869 0.500000
O O6 0.846132 0.085418 0.421780
O O7 0.786270 0.849432 0.387791
O O8 0.731178 0.089398 0.925437
O O9 0.560341 0.081956 0.000000
O O10 0.641615 0.880260 0.000000
O O11 0.133362 0.770355 0.845533
O O12 0.096084 0.804386 0.705951
O O13 0.007656 0.765576 0.424097
O O14 0.500000 0.500000 0.150799
#
# Coordination Sequence:
#
# PCOD8238379 Si02
#       7
#     8   8   4   8   8   4   8
#     4  10  21  41  62  85 126 164 210 258 304 378
#     4  11  22  38  60  92 125 159 205 259 317 363
#     4  11  22  38  58  88 123 165 203 264 308 365
#     4  10  22  39  60  92 118 166 212 251 310 370
#     4  11  21  39  63  88 125 162 209 254 309 373
#     4  11  23  36  58  89 122 159 203 253 326 374
#     4  12  22  36  60  91 124 156 198 260 316 374
#
# _framework density 19.962225
#
# number of rings (size 3 to 8) (size 9 to 14) (size 15 to 20)
#    0.000    1.167    3.333    4.250    0.000    2.667 
#    1.500    1.667    0.000    0.000    0.000    1.750 
#    0.000    0.000    0.000    0.000    0.000    0.000 
#
# Total GULP energy -594845.681002 kJ/mol
# GULP energy per Si atom -12392.618354 kJ/mol
# Density = 1.991679 g / cm^3
# Si number density = 19.962225 Si / 1000 Ang^3
#
#
#
# Elastic Constant Matrix: (Units=GPa)
#
#
# Indices 1 2 3 4 5 6 
#
# 1 87.7037 30.5329 43.2369 0.0000 0.0000 0.0000
# 2 30.5329 70.1097 49.6475 0.0000 0.0000 0.0000
# 3 43.2369 49.6475 136.8969 0.0000 0.0000 0.0000
# 4 0.0000 0.0000 0.0000 30.4551 0.0000 0.0000
# 5 0.0000 0.0000 0.0000 0.0000 18.0435 0.0000
# 6 0.0000 0.0000 0.0000 0.0000 0.0000 29.9280
#
#
#
# Elastic Compliance Matrix: (Units=1/GPa)
#
#
# Indices 1 2 3 4 5 6 
#
# 1 0.014324 -0.004083 -0.003043 0.000000 0.000000 0.000000
# 2 -0.004083 0.020356 -0.006093 0.000000 0.000000 0.000000
# 3 -0.003043 -0.006093 0.010476 0.000000 0.000000 0.000000
# 4 0.000000 0.000000 0.000000 0.032835 0.000000 0.000000
# 5 0.000000 0.000000 0.000000 0.000000 0.055422 0.000000
# 6 0.000000 0.000000 0.000000 0.000000 0.000000 0.033413
#
#
# Mechanical properties :
#
#
# Convention : Reuss Voigt Hill
#
# Bulk Modulus (GPa) = 53.42651 60.17168 56.79910
# Shear Modulus (GPa) = 25.06226 27.10484 26.08355
#
# Velocity S-wave (km/s) = 3.54713 3.68884 3.61868
# Velocity P-wave (km/s) = 6.60288 6.95353 6.78047
#
# Compressibility (1/GPa) = 0.01871730
#
# Stress axis : x y z
#
# Youngs Moduli (GPa) = 69.81424 49.12525 95.46017
#
# Poissons Ratio (x) = 0.20058 0.29050
# Poissons Ratio (y) = 0.28505 0.58163
# Poissons Ratio (z) = 0.21246 0.29931
#
# Static dielectric constant tensor:
#      x y z
#    x 3.664090 0.000000 0.000000 
#    y 0.000000 3.749120 0.000000 
#    z 0.000000 0.000000 3.586810 
# 
# 
# High freq. dielectric constant tensor:
#      x y z
#    x 1.770720 0.000000 0.000000 
#    y 0.000000 1.784570 0.000000 
#    z 0.000000 0.000000 1.776580 
# 
# From -- ./inp_files/26834.got.cif
#   From: 2010.06.25/outbox.cif.g09.slc.cpg/sg58_14_cif.got.tgz:26834.got - 2010.06.26 21:38:00.
