data_PCOD8238436
_publ_section_title
;
Structure prediction by ZEFSAII (Michael W. Deem and Ramdas Pophale) SiO2 
 PCOD8238436
Probable space group: P N N M
;
_chemical_formula_sum "Si O2"
_cell_formula_units_Z 64
_cell_length_a 23.865809
_cell_length_b 15.468644
_cell_length_c 8.817203
_cell_angle_alpha 90.000000
_cell_angle_beta 90.000000
_cell_angle_gamma 90.000000
_cell_volume 3255.061849
_symmetry_space_group_name_H-M "P N N M"
_symmetry_group_IT_number 58
_symmetry_cell_setting 'orthorhombic'
loop_
_space_group_symop_operation_xyz
x,y,z
-x,-y,z
1/2+x,1/2-y,1/2-z
1/2-x,1/2+y,1/2-z
-x,-y,-z
x,y,-z
1/2-x,1/2+y,1/2+z
1/2+x,1/2-y,1/2+z
loop_
_atom_site_type_symbol
_atom_site_label
_atom_site_fract_x
_atom_site_fract_y
_atom_site_fract_z
Si Si1 0.380994 0.900567 0.679148
Si Si2 0.498258 0.169769 0.679599
Si Si3 0.718491 0.823443 0.176278
Si Si4 0.494821 0.363343 0.680200
Si Si5 0.587767 0.492063 0.680570
Si Si6 0.287415 0.511406 0.319707
Si Si7 0.606808 0.917987 0.823679
Si Si8 0.773283 0.660616 0.320718
O O1 0.375698 0.905084 0.500000
O O2 0.441434 0.865358 0.729248
O O3 0.334360 0.834556 0.743260
O O4 0.370642 0.994767 0.748167
O O5 0.490450 0.166944 0.500000
O O6 0.491471 0.266647 0.745953
O O7 0.451883 0.108604 0.751979
O O8 0.754534 0.904395 0.236741
O O9 0.652905 0.843339 0.203400
O O10 0.735014 0.741010 0.274254
O O11 0.731075 0.805519 0.000000
O O12 0.497179 0.359080 0.500000
O O13 0.551131 0.410875 0.739574
O O14 0.440768 0.418016 0.734460
O O15 0.589606 0.490527 0.500000
O O16 0.649891 0.485706 0.749260
O O17 0.289123 0.508921 0.500000
O O18 0.257087 0.425594 0.259449
O O19 0.598497 0.936662 0.000000
O O20 0.780888 0.659592 0.500000
#
# Coordination Sequence:
#
# PCOD8238436 Si02
#       8
#     8   8   8   8   8   8   8   8
#     4  11  23  40  61  85 117 154 194 246 301 354
#     4  10  22  36  57  88 115 146 195 247 295 353
#     4  10  22  40  59  84 119 157 197 243 295 354
#     4   8  15  28  47  80 114 138 176 229 282 339
#     4   8  14  26  49  77 108 143 177 224 284 336
#     4   9  18  34  56  81 114 150 189 238 293 347
#     4  11  23  41  61  83 116 156 196 245 302 357
#     4  11  23  39  60  90 121 156 201 245 294 358
#
# _framework density 19.661686
#
# number of rings (size 3 to 8) (size 9 to 14) (size 15 to 20)
#    0.000    2.250    1.250    2.250    3.500    3.500 
#    0.000    0.000    0.000    0.000    0.000    1.750 
#    0.000    0.000    0.000    0.000    0.000    0.000 
#
# Total GULP energy -793658.670418 kJ/mol
# GULP energy per Si atom -12400.916725 kJ/mol
# Density = 1.961694 g / cm^3
# Si number density = 19.661686 Si / 1000 Ang^3
#
#
#
# Elastic Constant Matrix: (Units=GPa)
#
#
# Indices 1 2 3 4 5 6 
#
# 1 112.9963 13.5953 28.7445 0.0000 0.0000 0.0000
# 2 13.5953 88.9228 18.8929 0.0000 0.0000 0.0000
# 3 28.7445 18.8929 37.9845 0.0000 0.0000 0.0000
# 4 0.0000 0.0000 0.0000 24.3990 0.0000 0.0000
# 5 0.0000 0.0000 0.0000 0.0000 20.6418 0.0000
# 6 0.0000 0.0000 0.0000 0.0000 0.0000 28.1415
#
#
#
# Elastic Compliance Matrix: (Units=1/GPa)
#
#
# Indices 1 2 3 4 5 6 
#
# 1 0.010960 0.000097 -0.008342 0.000000 0.000000 0.000000
# 2 0.000097 0.012575 -0.006328 0.000000 0.000000 0.000000
# 3 -0.008342 -0.006328 0.035787 0.000000 0.000000 0.000000
# 4 0.000000 0.000000 0.000000 0.040985 0.000000 0.000000
# 5 0.000000 0.000000 0.000000 0.000000 0.048445 0.000000
# 6 0.000000 0.000000 0.000000 0.000000 0.000000 0.035535
#
#
# Mechanical properties :
#
#
# Convention : Reuss Voigt Hill
#
# Bulk Modulus (GPa) = 33.13941 40.26324 36.70132
# Shear Modulus (GPa) = 22.37199 26.54784 24.45991
#
# Velocity S-wave (km/s) = 3.37686 3.67854 3.53092
# Velocity P-wave (km/s) = 5.66530 6.21004 5.94392
#
# Compressibility (1/GPa) = 0.03017556
#
# Stress axis : x y z
#
# Youngs Moduli (GPa) = 91.23801 79.52037 27.94318
#
# Poissons Ratio (x) = -0.00769 0.23311
# Poissons Ratio (y) = -0.00882 0.17682
# Poissons Ratio (z) = 0.76113 0.50321
#
# Static dielectric constant tensor:
#      x y z
#    x 3.838440 0.000000 0.000000 
#    y 0.000000 3.725930 0.000000 
#    z 0.000000 0.000000 3.123960 
# 
# 
# High freq. dielectric constant tensor:
#      x y z
#    x 1.782220 0.000000 0.000000 
#    y 0.000000 1.773150 0.000000 
#    z 0.000000 0.000000 1.724160 
# 
# From -- ./inp_files/9996.got.cif
#   From: 2010.06.25/outbox.cif.g09.slc.cpg/sg58_5_cif.got.tgz:9996.got - 2010.06.26 21:38:00.
