data_PCOD8238650
_publ_section_title
;
Structure prediction by ZEFSAII (Michael W. Deem and Ramdas Pophale) SiO2 
 PCOD8238650
Probable space group: P N N M
;
_chemical_formula_sum "Si O2"
_cell_formula_units_Z 56
_cell_length_a 21.646941
_cell_length_b 14.527536
_cell_length_c 8.530691
_cell_angle_alpha 90.000000
_cell_angle_beta 90.000000
_cell_angle_gamma 90.000000
_cell_volume 2682.703680
_symmetry_space_group_name_H-M "P N N M"
_symmetry_group_IT_number 58
_symmetry_cell_setting 'orthorhombic'
loop_
_space_group_symop_operation_xyz
x,y,z
-x,-y,z
1/2+x,1/2-y,1/2-z
1/2-x,1/2+y,1/2-z
-x,-y,-z
x,y,-z
1/2-x,1/2+y,1/2+z
1/2+x,1/2-y,1/2+z
loop_
_atom_site_type_symbol
_atom_site_label
_atom_site_fract_x
_atom_site_fract_y
_atom_site_fract_z
Si Si1 0.902529 0.888666 0.317832
Si Si2 0.487504 0.279888 0.682454
Si Si3 0.117502 0.922381 0.181645
Si Si4 0.231569 0.180916 0.681361
Si Si5 0.051283 0.576032 0.818975
Si Si6 0.680629 0.965046 0.180043
Si Si7 0.245765 0.874284 0.319916
O O1 0.903613 0.913342 0.500000
O O2 0.837000 0.846832 0.265968
O O3 0.954253 0.813453 0.281383
O O4 0.916204 0.981381 0.220231
O O5 0.503315 0.290991 0.500000
O O6 0.427307 0.338876 0.727483
O O7 0.475738 0.174786 0.729638
O O8 0.178812 0.916903 0.285639
O O9 0.135823 0.918259 0.000000
O O10 0.243321 0.157988 0.500000
O O11 0.281080 0.126794 0.784321
O O12 0.241222 0.288576 0.708365
O O13 0.109170 0.553738 0.711035
O O14 0.000000 0.500000 0.785704
O O15 0.072220 0.576833 0.000000
O O16 0.703037 0.048496 0.288337
O O17 0.690234 0.992452 0.000000
O O18 0.249964 0.843653 0.500000
#
# Coordination Sequence:
#
# PCOD8238650 Si02
#       7
#     8   8   8   8   8   8   8
#     4  11  24  40  63  94 129 168 214 270 324 384
#     4  10  23  41  63  92 128 171 215 267 327 387
#     4  11  22  40  65  94 130 171 215 265 326 393
#     4  11  24  43  65  95 132 171 217 272 327 387
#     4  10  23  44  68  95 129 173 221 270 326 386
#     4  12  25  43  68  98 132 173 215 268 327 386
#     4  12  25  41  66  97 130 170 215 268 326 389
#
# _framework density 20.874465000000001
#
# number of rings (size 3 to 8) (size 9 to 14) (size 15 to 20)
#    0.000    1.000    1.429    5.143    2.000    6.571 
#    0.000    0.000    0.000    0.000    0.000    0.000 
#    0.000    0.000    0.000    0.000    0.000    0.000 
#
# Total GULP energy -694940.256317 kJ/mol
# GULP energy per Si atom -12409.647434 kJ/mol
# Density = 2.082695 g / cm^3
# Si number density = 20.874465 Si / 1000 Ang^3
#
#
#
# Elastic Constant Matrix: (Units=GPa)
#
#
# Indices 1 2 3 4 5 6 
#
# 1 104.4477 41.5294 43.5205 0.0000 0.0000 0.0000
# 2 41.5294 95.2443 15.5253 0.0000 0.0000 0.0000
# 3 43.5205 15.5253 73.4162 0.0000 0.0000 0.0000
# 4 0.0000 0.0000 0.0000 31.1836 0.0000 0.0000
# 5 0.0000 0.0000 0.0000 0.0000 29.5990 0.0000
# 6 0.0000 0.0000 0.0000 0.0000 0.0000 33.1765
#
#
#
# Elastic Compliance Matrix: (Units=1/GPa)
#
#
# Indices 1 2 3 4 5 6 
#
# 1 0.014862 -0.005224 -0.007705 0.000000 0.000000 0.000000
# 2 -0.005224 0.012711 0.000409 0.000000 0.000000 0.000000
# 3 -0.007705 0.000409 0.018102 0.000000 0.000000 0.000000
# 4 0.000000 0.000000 0.000000 0.032068 0.000000 0.000000
# 5 0.000000 0.000000 0.000000 0.000000 0.033785 0.000000
# 6 0.000000 0.000000 0.000000 0.000000 0.000000 0.030142
#
#
# Mechanical properties :
#
#
# Convention : Reuss Voigt Hill
#
# Bulk Modulus (GPa) = 48.46470 52.69540 50.58005
# Shear Modulus (GPa) = 28.80375 30.29402 29.54888
#
# Velocity S-wave (km/s) = 3.71867 3.81366 3.76646
# Velocity P-wave (km/s) = 6.45799 6.68511 6.57253
#
# Compressibility (1/GPa) = 0.02063357
#
# Stress axis : x y z
#
# Youngs Moduli (GPa) = 67.28579 78.67459 55.24214
#
# Poissons Ratio (x) = 0.41102 0.42566
# Poissons Ratio (y) = 0.35152 -0.02259
# Poissons Ratio (z) = 0.51846 -0.03218
#
# Static dielectric constant tensor:
#      x y z
#    x 3.753600 0.000000 0.000000 
#    y 0.000000 3.871590 0.000000 
#    z 0.000000 0.000000 3.665070 
# 
# 
# High freq. dielectric constant tensor:
#      x y z
#    x 1.823940 0.000000 0.000000 
#    y 0.000000 1.831240 0.000000 
#    z 0.000000 0.000000 1.817100 
# 
# From -- ./inp_files/8971.got.cif
#   From: 2010.06.25/outbox.cif.g09.slc.cpg/sg58_5_cif.got.tgz:8971.got - 2010.06.26 21:38:00.
