data_PCOD8238956
_publ_section_title
;
Structure prediction by ZEFSAII (Michael W. Deem and Ramdas Pophale) SiO2 
 PCOD8238956
Probable space group: P N N M
;
_chemical_formula_sum "Si O2"
_cell_formula_units_Z 48
_cell_length_a 9.641145
_cell_length_b 16.445830
_cell_length_c 14.020798
_cell_angle_alpha 90.000000
_cell_angle_beta 90.000000
_cell_angle_gamma 90.000000
_cell_volume 2223.090504
_symmetry_space_group_name_H-M "P N N M"
_symmetry_group_IT_number 58
_symmetry_cell_setting 'orthorhombic'
loop_
_space_group_symop_operation_xyz
x,y,z
-x,-y,z
1/2+x,1/2-y,1/2-z
1/2-x,1/2+y,1/2-z
-x,-y,-z
x,y,-z
1/2-x,1/2+y,1/2+z
1/2+x,1/2-y,1/2+z
loop_
_atom_site_type_symbol
_atom_site_label
_atom_site_fract_x
_atom_site_fract_y
_atom_site_fract_z
Si Si1 0.834372 0.489484 0.500000
Si Si2 0.224217 0.929439 0.808491
Si Si3 0.107921 0.689545 0.500000
Si Si4 0.613783 0.246721 0.500000
Si Si5 0.423780 0.087164 0.500000
Si Si6 0.290202 0.083666 0.703402
Si Si7 0.519516 0.172694 0.803169
Si Si8 0.457359 0.671157 0.695243
O O1 0.765295 0.528958 0.592360
O O2 0.801847 0.393743 0.500000
O O3 0.000000 0.500000 0.500000
O O4 0.320024 0.850988 0.788564
O O5 0.065067 0.902596 0.810742
O O6 0.241162 0.991604 0.720691
O O7 0.218142 0.764418 0.500000
O O8 0.004124 0.693776 0.587597
O O9 0.538342 0.159345 0.500000
O O10 0.580505 0.302599 0.589710
O O11 0.324679 0.096379 0.591914
O O12 0.500000 0.000000 0.500000
O O13 0.427123 0.097097 0.767541
O O14 0.173446 0.145952 0.740072
O O15 0.473920 0.250552 0.743218
#
# Coordination Sequence:
#
# PCOD8238956 Si02
#       8
#     4   8   4   4   4   8   8   8
#     4  12  19  41  70 109 141 181 240 291 365 447
#     4  12  24  42  73 103 141 185 235 297 360 429
#     4  12  24  40  70 110 137 179 226 305 360 420
#     4  12  25  45  72 103 149 181 238 301 366 424
#     4  12  28  48  76 106 139 204 256 291 344 448
#     4  12  25  47  71 102 142 188 242 296 358 431
#     4  12  23  42  69 101 143 184 240 284 354 433
#     4  12  27  45  69 107 144 188 234 304 370 421
#
# _framework density 21.591563000000001
#
# number of rings (size 3 to 8) (size 9 to 14) (size 15 to 20)
#    0.000    0.000    6.667    3.500    0.000    0.667 
#    0.000    4.167    0.000    0.000    0.000    0.000 
#    0.000    0.000    0.000    0.000    0.000    0.000 
#
# Total GULP energy -595347.433081 kJ/mol
# GULP energy per Si atom -12403.071523 kJ/mol
# Density = 2.154242 g / cm^3
# Si number density = 21.591563 Si / 1000 Ang^3
#
#
#
# Elastic Constant Matrix: (Units=GPa)
#
#
# Indices 1 2 3 4 5 6 
#
# 1 93.6618 39.8266 43.6705 0.0000 0.0000 0.0000
# 2 39.8266 105.2971 40.9089 0.0000 0.0000 0.0000
# 3 43.6705 40.9089 152.6185 0.0000 0.0000 0.0000
# 4 0.0000 0.0000 0.0000 11.8092 0.0000 0.0000
# 5 0.0000 0.0000 0.0000 0.0000 12.4125 0.0000
# 6 0.0000 0.0000 0.0000 0.0000 0.0000 41.4719
#
#
#
# Elastic Compliance Matrix: (Units=1/GPa)
#
#
# Indices 1 2 3 4 5 6 
#
# 1 0.013740 -0.004096 -0.002834 0.000000 0.000000 0.000000
# 2 -0.004096 0.011822 -0.001997 0.000000 0.000000 0.000000
# 3 -0.002834 -0.001997 0.007898 0.000000 0.000000 0.000000
# 4 0.000000 0.000000 0.000000 0.084680 0.000000 0.000000
# 5 0.000000 0.000000 0.000000 0.000000 0.080564 0.000000
# 6 0.000000 0.000000 0.000000 0.000000 0.000000 0.024113
#
#
# Mechanical properties :
#
#
# Convention : Reuss Voigt Hill
#
# Bulk Modulus (GPa) = 64.07275 66.70995 65.39135
# Shear Modulus (GPa) = 20.33584 28.28347 24.30966
#
# Velocity S-wave (km/s) = 3.07227 3.62322 3.35906
# Velocity P-wave (km/s) = 6.50573 6.96183 6.73764
#
# Compressibility (1/GPa) = 0.01560726
#
# Stress axis : x y z
#
# Youngs Moduli (GPa) = 72.78283 84.58885 126.60901
#
# Poissons Ratio (x) = 0.34646 0.35876
# Poissons Ratio (y) = 0.29811 0.25282
# Poissons Ratio (z) = 0.20624 0.16891
#
# Static dielectric constant tensor:
#      x y z
#    x 3.913110 0.000000 0.000000 
#    y 0.000000 4.005710 0.000000 
#    z 0.000000 0.000000 4.740790 
# 
# 
# High freq. dielectric constant tensor:
#      x y z
#    x 1.848800 0.000000 0.000000 
#    y 0.000000 1.852720 0.000000 
#    z 0.000000 0.000000 1.859630 
# 
# From -- ./inp_files/19889.got.cif
#   From: 2010.06.25/outbox.cif.g09.slc.cpg/sg58_10_cif.got.tgz:19889.got - 2010.06.26 21:38:00.
