data_PCOD8238287
_publ_section_title
;
Structure prediction by ZEFSAII (Michael W. Deem and Ramdas Pophale) SiO2 
 PCOD8238287
Probable space group: P N N M
;
_chemical_formula_sum "Si O2"
_cell_formula_units_Z 56
_cell_length_a 21.398993
_cell_length_b 14.369527
_cell_length_c 9.194686
_cell_angle_alpha 90.000000
_cell_angle_beta 90.000000
_cell_angle_gamma 90.000000
_cell_volume 2827.305331
_symmetry_space_group_name_H-M "P N N M"
_symmetry_group_IT_number 58
_symmetry_cell_setting 'orthorhombic'
loop_
_space_group_symop_operation_xyz
x,y,z
-x,-y,z
1/2+x,1/2-y,1/2-z
1/2-x,1/2+y,1/2-z
-x,-y,-z
x,y,-z
1/2-x,1/2+y,1/2+z
1/2+x,1/2-y,1/2+z
loop_
_atom_site_type_symbol
_atom_site_label
_atom_site_fract_x
_atom_site_fract_y
_atom_site_fract_z
Si Si1 0.015159 0.210157 0.832491
Si Si2 0.453865 0.918897 0.333146
Si Si3 0.904254 0.110998 0.332537
Si Si4 0.116489 0.099567 0.332519
Si Si5 0.758197 0.391337 0.168109
Si Si6 0.172023 0.450261 0.331418
Si Si7 0.286905 0.321227 0.665241
O O1 0.010674 0.321030 0.814755
O O2 0.078861 0.173974 0.761154
O O3 0.955202 0.166516 0.757159
O O4 0.014959 0.180024 0.000000
O O5 0.433981 0.935702 0.500000
O O6 0.392894 0.918263 0.235303
O O7 0.500000 0.000000 0.279251
O O8 0.909445 0.140757 0.500000
O O9 0.835587 0.134956 0.276357
O O10 0.915657 0.000961 0.314885
O O11 0.115459 0.132527 0.500000
O O12 0.187447 0.096934 0.274451
O O13 0.804204 0.455550 0.258700
O O14 0.781811 0.287633 0.193766
O O15 0.761592 0.420879 0.000000
O O16 0.162175 0.470936 0.500000
O O17 0.219906 0.366414 0.303794
O O18 0.308656 0.341603 0.500000
#
# Coordination Sequence:
#
# PCOD8238287 Si02
#       7
#     8   8   8   8   8   8   8
#     4  11  24  40  62  90 121 162 207 256 306 358
#     4  10  24  45  65  86 120 167 210 248 304 372
#     4  11  23  39  62  90 123 161 203 252 306 367
#     4  10  21  40  63  90 124 164 203 244 306 370
#     4  10  21  39  63  88 122 166 202 242 303 370
#     4  11  23  40  64  95 125 156 201 258 306 352
#     4  10  22  39  61  89 125 164 202 250 307 362
#
# _framework density 19.806844000000002
#
# number of rings (size 3 to 8) (size 9 to 14) (size 15 to 20)
#    0.000    1.571    1.429    2.571    2.000    7.143 
#    0.000    0.000    0.000    0.000    0.000    0.000 
#    0.000    0.000    0.000    0.000    0.000    0.000 
#
# Total GULP energy -694771.506862 kJ/mol
# GULP energy per Si atom -12406.634051 kJ/mol
# Density = 1.976176 g / cm^3
# Si number density = 19.806844 Si / 1000 Ang^3
#
#
#
# Elastic Constant Matrix: (Units=GPa)
#
#
# Indices 1 2 3 4 5 6 
#
# 1 73.8645 9.7544 38.1817 0.0000 0.0000 0.0000
# 2 9.7544 72.1317 35.2888 0.0000 0.0000 0.0000
# 3 38.1817 35.2888 93.8441 0.0000 0.0000 0.0000
# 4 0.0000 0.0000 0.0000 27.4228 0.0000 0.0000
# 5 0.0000 0.0000 0.0000 0.0000 33.7760 0.0000
# 6 0.0000 0.0000 0.0000 0.0000 0.0000 32.4436
#
#
#
# Elastic Compliance Matrix: (Units=1/GPa)
#
#
# Indices 1 2 3 4 5 6 
#
# 1 0.017250 0.001349 -0.007526 0.000000 0.000000 0.000000
# 2 0.001349 0.017094 -0.006977 0.000000 0.000000 0.000000
# 3 -0.007526 -0.006977 0.016342 0.000000 0.000000 0.000000
# 4 0.000000 0.000000 0.000000 0.036466 0.000000 0.000000
# 5 0.000000 0.000000 0.000000 0.000000 0.029607 0.000000
# 6 0.000000 0.000000 0.000000 0.000000 0.000000 0.030823
#
#
# Mechanical properties :
#
#
# Convention : Reuss Voigt Hill
#
# Bulk Modulus (GPa) = 41.01923 45.14335 43.08129
# Shear Modulus (GPa) = 27.47014 29.16951 28.31983
#
# Velocity S-wave (km/s) = 3.72815 3.84174 3.78537
# Velocity P-wave (km/s) = 6.26791 6.52073 6.39557
#
# Compressibility (1/GPa) = 0.02437881
#
# Stress axis : x y z
#
# Youngs Moduli (GPa) = 57.96975 58.49850 61.19357
#
# Poissons Ratio (x) = -0.07892 0.46053
# Poissons Ratio (y) = -0.07821 0.42695
# Poissons Ratio (z) = 0.43627 0.40815
#
# Static dielectric constant tensor:
#      x y z
#    x 3.562370 0.000000 0.000000 
#    y 0.000000 3.699050 0.000000 
#    z 0.000000 0.000000 3.703060 
# 
# 
# High freq. dielectric constant tensor:
#      x y z
#    x 1.778620 0.000000 0.000000 
#    y 0.000000 1.783970 0.000000 
#    z 0.000000 0.000000 1.773860 
# 
# From -- ./inp_files/6291.got.cif
#   From: 2010.06.25/outbox.cif.g09.slc.cpg/sg58_4_cif.got.tgz:6291.got - 2010.06.26 21:38:00.
