data_PCOD8238789
_publ_section_title
;
Structure prediction by ZEFSAII (Michael W. Deem and Ramdas Pophale) SiO2 
 PCOD8238789
Probable space group: P N N M
;
_chemical_formula_sum "Si O2"
_cell_formula_units_Z 36
_cell_length_a 9.501379
_cell_length_b 13.200735
_cell_length_c 14.665349
_cell_angle_alpha 90.000000
_cell_angle_beta 90.000000
_cell_angle_gamma 90.000000
_cell_volume 1839.404131
_symmetry_space_group_name_H-M "P N N M"
_symmetry_group_IT_number 58
_symmetry_cell_setting 'orthorhombic'
loop_
_space_group_symop_operation_xyz
x,y,z
-x,-y,z
1/2+x,1/2-y,1/2-z
1/2-x,1/2+y,1/2-z
-x,-y,-z
x,y,-z
1/2-x,1/2+y,1/2+z
1/2+x,1/2-y,1/2+z
loop_
_atom_site_type_symbol
_atom_site_label
_atom_site_fract_x
_atom_site_fract_y
_atom_site_fract_z
Si Si1 0.946578 0.613106 0.000000
Si Si2 0.501842 0.619854 0.000000
Si Si3 0.832146 0.113790 0.840282
Si Si4 0.275569 0.315756 0.140421
Si Si5 0.775342 0.257039 0.000000
Si Si6 0.148387 0.108549 0.107853
O O1 0.854427 0.631309 0.910212
O O2 0.000000 0.500000 0.000000
O O3 0.073006 0.691700 0.000000
O O4 0.500000 0.500000 0.000000
O O5 0.578332 0.659865 0.909414
O O6 0.342035 0.656634 0.000000
O O7 0.776012 0.140869 0.741218
O O8 0.000039 0.125661 0.842654
O O9 0.786482 0.999239 0.864308
O O10 0.756556 0.188208 0.910951
O O11 0.256847 0.194294 0.140456
O O12 0.121436 0.113907 0.000000
#
# Coordination Sequence:
#
# PCOD8238789 Si02
#       6
#     4   4   8   8   4   8
#     4  11  23  44  65  90 134 176 225 272 329 388
#     4  11  27  42  62  94 139 173 215 273 341 383
#     4  11  23  38  71 100 126 171 226 268 327 397
#     4  11  24  43  65  98 131 176 218 281 325 390
#     4  12  22  41  68  96 125 177 226 266 320 404
#     4  11  20  46  69  93 133 180 218 264 337 399
#
# _framework density 19.571555
#
# number of rings (size 3 to 8) (size 9 to 14) (size 15 to 20)
#    0.000    0.889    6.667    2.000    6.222    1.778 
#    0.000    2.222    0.000    0.000    0.000    0.000 
#    0.000    0.000    0.000    0.000    0.000    0.000 
#
# Total GULP energy -446608.090129 kJ/mol
# GULP energy per Si atom -12405.780281 kJ/mol
# Density = 1.952701 g / cm^3
# Si number density = 19.571555 Si / 1000 Ang^3
#
#
#
# Elastic Constant Matrix: (Units=GPa)
#
#
# Indices 1 2 3 4 5 6 
#
# 1 90.8222 46.8315 55.4967 0.0000 0.0000 0.0000
# 2 46.8315 158.6570 64.3538 0.0000 0.0000 0.0000
# 3 55.4967 64.3538 158.7002 0.0000 0.0000 0.0000
# 4 0.0000 0.0000 0.0000 34.8995 0.0000 0.0000
# 5 0.0000 0.0000 0.0000 0.0000 -8.3635 0.0000
# 6 0.0000 0.0000 0.0000 0.0000 0.0000 38.4948
#
#
#
# Elastic Compliance Matrix: (Units=1/GPa)
#
#
# Indices 1 2 3 4 5 6 
#
# 1 0.014936 -0.002741 -0.004112 0.000000 0.000000 0.000000
# 2 -0.002741 0.008047 -0.002304 0.000000 0.000000 0.000000
# 3 -0.004112 -0.002304 0.008673 0.000000 0.000000 0.000000
# 4 0.000000 0.000000 0.000000 0.028654 0.000000 0.000000
# 5 0.000000 0.000000 0.000000 0.000000 -0.119567 0.000000
# 6 0.000000 0.000000 0.000000 0.000000 0.000000 0.025978
#
#
# Mechanical properties :
#
#
# Convention : Reuss Voigt Hill
#
# Bulk Modulus (GPa) = 74.95017 82.39372 78.67195
# Shear Modulus (GPa) = -475.39889 29.10598 -223.14645
#
# Velocity S-wave (km/s) = -15.60225 3.86055 -10.68940
# Velocity P-wave (km/s) = 16.91730 7.87794 10.58615
#
# Compressibility (1/GPa) = 0.01334220
#
# Stress axis : x y z
#
# Youngs Moduli (GPa) = 66.95077 124.27414 115.29395
#
# Poissons Ratio (x) = 0.34065 0.47405
# Poissons Ratio (y) = 0.18352 0.26569
# Poissons Ratio (z) = 0.27528 0.28638
#
# Static dielectric constant tensor:
#      x y z
#    x 3.418810 0.000000 0.000000 
#    y 0.000000 4.153710 0.000000 
#    z 0.000000 0.000000 3.567700 
# 
# 
# High freq. dielectric constant tensor:
#      x y z
#    x 1.747880 0.000000 0.000000 
#    y 0.000000 1.784190 0.000000 
#    z 0.000000 0.000000 1.766570 
# 
# From -- ./inp_files/19413.got.cif
#   From: 2010.06.25/outbox.cif.g09.slc.cpg/sg58_10_cif.got.tgz:19413.got - 2010.06.26 21:38:00.
