data_PCOD8238204
_publ_section_title
;
Structure prediction by ZEFSAII (Michael W. Deem and Ramdas Pophale) SiO2 
 PCOD8238204
Probable space group: P N N M
;
_chemical_formula_sum "Si O2"
_cell_formula_units_Z 56
_cell_length_a 19.408602
_cell_length_b 16.302024
_cell_length_c 8.599382
_cell_angle_alpha 90.000000
_cell_angle_beta 90.000000
_cell_angle_gamma 90.000000
_cell_volume 2720.840127
_symmetry_space_group_name_H-M "P N N M"
_symmetry_group_IT_number 58
_symmetry_cell_setting 'orthorhombic'
loop_
_space_group_symop_operation_xyz
x,y,z
-x,-y,z
1/2+x,1/2-y,1/2-z
1/2-x,1/2+y,1/2-z
-x,-y,-z
x,y,-z
1/2-x,1/2+y,1/2+z
1/2+x,1/2-y,1/2+z
loop_
_atom_site_type_symbol
_atom_site_label
_atom_site_fract_x
_atom_site_fract_y
_atom_site_fract_z
Si Si1 0.446567 0.570920 0.180336
Si Si2 0.344486 0.031014 0.320119
Si Si3 0.519492 0.257869 0.320521
Si Si4 0.778236 0.186638 0.180085
Si Si5 0.692347 0.519329 0.820166
Si Si6 0.882636 0.302437 0.320315
Si Si7 0.126882 0.362930 0.319452
O O1 0.500000 0.500000 0.224585
O O2 0.462047 0.648591 0.285949
O O3 0.369507 0.541802 0.219694
O O4 0.454036 0.595621 0.000000
O O5 0.356490 0.051364 0.500000
O O6 0.263463 0.026317 0.279237
O O7 0.379180 0.101558 0.218037
O O8 0.382042 0.945927 0.278939
O O9 0.534026 0.239195 0.500000
O O10 0.439958 0.242819 0.282093
O O11 0.564588 0.197444 0.215646
O O12 0.809877 0.260392 0.280069
O O13 0.698092 0.181491 0.227035
O O14 0.816055 0.101013 0.218032
O O15 0.788029 0.207690 0.000000
O O16 0.690601 0.546376 0.000000
O O17 0.900716 0.290829 0.500000
O O18 0.127339 0.386741 0.500000
#
# Coordination Sequence:
#
# PCOD8238204 Si02
#       7
#     8   8   8   8   8   8   8
#     4  10  21  38  61  90 126 167 205 246 304 373
#     4  10  21  39  62  91 123 158 206 258 309 362
#     4  12  26  42  62  91 124 162 208 259 311 366
#     4  10  21  38  63  92 125 161 202 255 306 360
#     4   9  19  36  60  89 123 162 201 247 303 365
#     4  12  25  41  62  88 122 163 208 254 310 373
#     4  10  22  42  65  91 125 164 205 252 310 371
#
# _framework density 20.581879000000001
#
# number of rings (size 3 to 8) (size 9 to 14) (size 15 to 20)
#    0.000    1.571    0.000    4.714    2.000    4.857 
#    0.000    2.857    0.000    0.000    0.000    0.000 
#    0.000    0.000    0.000    0.000    0.000    0.000 
#
# Total GULP energy -694834.862860 kJ/mol
# GULP energy per Si atom -12407.765408 kJ/mol
# Density = 2.053503 g / cm^3
# Si number density = 20.581879 Si / 1000 Ang^3
#
#
#
# Elastic Constant Matrix: (Units=GPa)
#
#
# Indices 1 2 3 4 5 6 
#
# 1 42.4380 19.9907 23.7880 0.0000 0.0000 0.0000
# 2 19.9907 90.4754 30.1032 0.0000 0.0000 0.0000
# 3 23.7880 30.1032 64.6419 0.0000 0.0000 0.0000
# 4 0.0000 0.0000 0.0000 40.3676 0.0000 0.0000
# 5 0.0000 0.0000 0.0000 0.0000 26.6354 0.0000
# 6 0.0000 0.0000 0.0000 0.0000 0.0000 34.0418
#
#
#
# Elastic Compliance Matrix: (Units=1/GPa)
#
#
# Indices 1 2 3 4 5 6 
#
# 1 0.030632 -0.003571 -0.009610 0.000000 0.000000 0.000000
# 2 -0.003571 0.013496 -0.004971 0.000000 0.000000 0.000000
# 3 -0.009610 -0.004971 0.021321 0.000000 0.000000 0.000000
# 4 0.000000 0.000000 0.000000 0.024772 0.000000 0.000000
# 5 0.000000 0.000000 0.000000 0.000000 0.037544 0.000000
# 6 0.000000 0.000000 0.000000 0.000000 0.000000 0.029376
#
#
# Mechanical properties :
#
#
# Convention : Reuss Voigt Hill
#
# Bulk Modulus (GPa) = 34.30953 38.36878 36.33915
# Shear Modulus (GPa) = 24.61125 28.45386 26.53255
#
# Velocity S-wave (km/s) = 3.46175 3.72219 3.59433
# Velocity P-wave (km/s) = 5.71701 6.09553 5.90930
#
# Compressibility (1/GPa) = 0.02914642
#
# Stress axis : x y z
#
# Youngs Moduli (GPa) = 32.64509 74.09830 46.90218
#
# Poissons Ratio (x) = 0.26460 0.45071
# Poissons Ratio (y) = 0.11657 0.23314
# Poissons Ratio (z) = 0.31371 0.36832
#
# Static dielectric constant tensor:
#      x y z
#    x 3.791940 0.000000 0.000000 
#    y 0.000000 3.626200 0.000000 
#    z 0.000000 0.000000 3.653440 
# 
# 
# High freq. dielectric constant tensor:
#      x y z
#    x 1.808340 0.000000 0.000000 
#    y 0.000000 1.808530 0.000000 
#    z 0.000000 0.000000 1.805980 
# 
# From -- ./inp_files/8969.got.cif
#   From: 2010.06.25/outbox.cif.g09.slc.cpg/sg58_5_cif.got.tgz:8969.got - 2010.06.26 21:38:00.
