data_PCOD8238198
_publ_section_title
;
Structure prediction by ZEFSAII (Michael W. Deem and Ramdas Pophale) SiO2 
 PCOD8238198
Probable space group: P N N M
;
_chemical_formula_sum "Si O2"
_cell_formula_units_Z 48
_cell_length_a 11.961720
_cell_length_b 23.088857
_cell_length_c 8.950240
_cell_angle_alpha 90.000000
_cell_angle_beta 90.000000
_cell_angle_gamma 90.000000
_cell_volume 2471.899145
_symmetry_space_group_name_H-M "P N N M"
_symmetry_group_IT_number 58
_symmetry_cell_setting 'orthorhombic'
loop_
_space_group_symop_operation_xyz
x,y,z
-x,-y,z
1/2+x,1/2-y,1/2-z
1/2-x,1/2+y,1/2-z
-x,-y,-z
x,y,-z
1/2-x,1/2+y,1/2+z
1/2+x,1/2-y,1/2+z
loop_
_atom_site_type_symbol
_atom_site_label
_atom_site_fract_x
_atom_site_fract_y
_atom_site_fract_z
Si Si1 0.780175 0.583803 0.824717
Si Si2 0.690660 0.950366 0.324957
Si Si3 0.901904 0.156789 0.825002
Si Si4 0.656730 0.361354 0.326811
Si Si5 0.000480 0.619214 0.326000
Si Si6 0.653482 0.773184 0.170516
O O1 0.789316 0.516728 0.783046
O O2 0.663209 0.606659 0.761740
O O3 0.879700 0.619839 0.749345
O O4 0.785444 0.594723 0.000000
O O5 0.674772 0.940919 0.500000
O O6 0.797971 0.914756 0.269663
O O7 0.577321 0.930468 0.245243
O O8 0.856576 0.219660 0.781199
O O9 0.030892 0.151630 0.778164
O O10 0.884441 0.147945 0.000000
O O11 0.667660 0.378960 0.500000
O O12 0.728594 0.303853 0.294901
O O13 0.989318 0.605466 0.500000
O O14 0.053673 0.682006 0.297492
O O15 0.649077 0.750989 0.000000
#
# Coordination Sequence:
#
# PCOD8238198 Si02
#       6
#     8   8   8   8   8   8
#     4  11  24  39  57  86 123 157 195 243 292 346
#     4  10  21  38  61  88 117 155 198 240 293 350
#     4  11  24  39  58  87 117 154 200 242 292 348
#     4   9  21  41  61  83 115 154 195 242 294 348
#     4  10  21  38  62  91 119 153 196 242 294 348
#     4   9  20  39  60  84 115 150 189 239 296 349
#
# _framework density 19.418268000000001
#
# number of rings (size 3 to 8) (size 9 to 14) (size 15 to 20)
#    0.000    2.000    0.000    3.500    2.333   10.000 
#    0.000    3.333    0.000    0.000    0.000    0.000 
#    0.000    0.000    0.000    0.000    0.000    0.000 
#
# Total GULP energy -595480.864905 kJ/mol
# GULP energy per Si atom -12405.851352 kJ/mol
# Density = 1.937407 g / cm^3
# Si number density = 19.418268 Si / 1000 Ang^3
#
#
#
# Elastic Constant Matrix: (Units=GPa)
#
#
# Indices 1 2 3 4 5 6 
#
# 1 114.9551 24.5631 28.7122 0.0000 0.0000 0.0000
# 2 24.5631 63.8184 31.0246 0.0000 0.0000 0.0000
# 3 28.7122 31.0246 72.8293 0.0000 0.0000 0.0000
# 4 0.0000 0.0000 0.0000 33.3534 0.0000 0.0000
# 5 0.0000 0.0000 0.0000 0.0000 29.3227 0.0000
# 6 0.0000 0.0000 0.0000 0.0000 0.0000 19.7160
#
#
#
# Elastic Compliance Matrix: (Units=1/GPa)
#
#
# Indices 1 2 3 4 5 6 
#
# 1 0.009937 -0.002422 -0.002886 0.000000 0.000000 0.000000
# 2 -0.002422 0.020352 -0.007715 0.000000 0.000000 0.000000
# 3 -0.002886 -0.007715 0.018155 0.000000 0.000000 0.000000
# 4 0.000000 0.000000 0.000000 0.029982 0.000000 0.000000
# 5 0.000000 0.000000 0.000000 0.000000 0.034103 0.000000
# 6 0.000000 0.000000 0.000000 0.000000 0.000000 0.050720
#
#
# Mechanical properties :
#
#
# Convention : Reuss Voigt Hill
#
# Bulk Modulus (GPa) = 44.64519 46.68917 45.66718
# Shear Modulus (GPa) = 25.41139 27.63195 26.52167
#
# Velocity S-wave (km/s) = 3.62143 3.77634 3.69970
# Velocity P-wave (km/s) = 6.36613 6.56586 6.46676
#
# Compressibility (1/GPa) = 0.02239883
#
# Stress axis : x y z
#
# Youngs Moduli (GPa) = 100.63029 49.13478 55.08098
#
# Poissons Ratio (x) = 0.11899 0.15897
# Poissons Ratio (y) = 0.24370 0.42495
# Poissons Ratio (z) = 0.29042 0.37908
#
# Static dielectric constant tensor:
#      x y z
#    x 3.681650 0.000000 0.000000 
#    y 0.000000 3.456940 0.000000 
#    z 0.000000 0.000000 3.569470 
# 
# 
# High freq. dielectric constant tensor:
#      x y z
#    x 1.763510 0.000000 0.000000 
#    y 0.000000 1.756250 0.000000 
#    z 0.000000 0.000000 1.764090 
# 
# From -- ./inp_files/4227.got.cif
#   From: 2010.06.25/outbox.cif.g09.slc.cpg/sg58_3_cif.got.tgz:4227.got - 2010.06.26 21:38:00.
