data_PCOD8238581
_publ_section_title
;
Structure prediction by ZEFSAII (Michael W. Deem and Ramdas Pophale) SiO2 
 PCOD8238581
Probable space group: P N N M
;
_chemical_formula_sum "Si O2"
_cell_formula_units_Z 48
_cell_length_a 8.545770
_cell_length_b 16.494990
_cell_length_c 15.409993
_cell_angle_alpha 90.000000
_cell_angle_beta 90.000000
_cell_angle_gamma 90.000000
_cell_volume 2172.229454
_symmetry_space_group_name_H-M "P N N M"
_symmetry_group_IT_number 58
_symmetry_cell_setting 'orthorhombic'
loop_
_space_group_symop_operation_xyz
x,y,z
-x,-y,z
1/2+x,1/2-y,1/2-z
1/2-x,1/2+y,1/2-z
-x,-y,-z
x,y,-z
1/2-x,1/2+y,1/2+z
1/2+x,1/2-y,1/2+z
loop_
_atom_site_type_symbol
_atom_site_label
_atom_site_fract_x
_atom_site_fract_y
_atom_site_fract_z
Si Si1 0.651947 0.682742 0.254029
Si Si2 0.609396 0.112750 0.500000
Si Si3 0.763233 0.031789 0.000000
Si Si4 0.400054 0.750700 0.362455
Si Si5 0.765262 0.446118 0.000000
Si Si6 0.825093 0.519010 0.692899
Si Si7 0.551772 0.374998 0.500000
Si Si8 0.107690 0.074019 0.322831
O O1 0.577096 0.741293 0.326929
O O2 0.759649 0.747845 0.205824
O O3 0.761818 0.608710 0.284367
O O4 0.499963 0.650601 0.201676
O O5 0.621751 0.166382 0.414374
O O6 0.446463 0.069314 0.500000
O O7 0.748454 0.045235 0.500000
O O8 0.665483 0.017550 0.911991
O O9 0.859807 0.117888 0.000000
O O10 0.895341 0.965361 0.000000
O O11 0.376224 0.670140 0.417869
O O12 0.697955 0.405891 0.087812
O O13 0.714969 0.452039 0.739764
O O14 0.000000 0.500000 0.727674
O O15 0.000000 0.000000 0.349011
#
# Coordination Sequence:
#
# PCOD8238581 Si02
#       8
#     8   4   4   8   4   8   4   8
#     4  11  25  41  68  99 137 186 223 288 347 416
#     4  10  24  40  65 100 129 185 217 282 348 405
#     4  11  21  42  71 101 130 178 235 289 338 397
#     4  11  24  44  64  95 140 179 225 275 350 428
#     4  11  23  41  70  96 139 173 236 281 334 403
#     4  11  24  41  71 104 139 175 239 293 344 399
#     4  10  22  41  70  93 134 182 223 279 351 410
#     4  10  23  41  67 101 133 176 230 284 341 396
#
# _framework density 22.097111000000002
#
# number of rings (size 3 to 8) (size 9 to 14) (size 15 to 20)
#    0.000    1.333    1.667    3.500   11.667    2.667 
#    0.000    0.000    3.667    0.000    0.000    0.000 
#    0.000    0.000    0.000    0.000    0.000    0.000 
#
# Total GULP energy -594659.804635 kJ/mol
# GULP energy per Si atom -12388.745930 kJ/mol
# Density = 2.204682 g / cm^3
# Si number density = 22.097111 Si / 1000 Ang^3
#
#
#
# Elastic Constant Matrix: (Units=GPa)
#
#
# Indices 1 2 3 4 5 6 
#
# 1 117.3188 32.5005 41.3606 0.0000 0.0000 0.0000
# 2 32.5005 64.9287 20.7566 0.0000 0.0000 0.0000
# 3 41.3606 20.7566 131.5742 0.0000 0.0000 0.0000
# 4 0.0000 0.0000 0.0000 14.0873 0.0000 0.0000
# 5 0.0000 0.0000 0.0000 0.0000 50.6231 0.0000
# 6 0.0000 0.0000 0.0000 0.0000 0.0000 40.6700
#
#
#
# Elastic Compliance Matrix: (Units=1/GPa)
#
#
# Indices 1 2 3 4 5 6 
#
# 1 0.010710 -0.004512 -0.002655 0.000000 0.000000 0.000000
# 2 -0.004512 0.018120 -0.001440 0.000000 0.000000 0.000000
# 3 -0.002655 -0.001440 0.008662 0.000000 0.000000 0.000000
# 4 0.000000 0.000000 0.000000 0.070986 0.000000 0.000000
# 5 0.000000 0.000000 0.000000 0.000000 0.019754 0.000000
# 6 0.000000 0.000000 0.000000 0.000000 0.000000 0.024588
#
#
# Mechanical properties :
#
#
# Convention : Reuss Voigt Hill
#
# Bulk Modulus (GPa) = 49.31468 55.89521 52.60495
# Shear Modulus (GPa) = 28.28157 35.68968 31.98563
#
# Velocity S-wave (km/s) = 3.58142 4.02323 3.80873
# Velocity P-wave (km/s) = 6.28234 6.85069 6.57266
#
# Compressibility (1/GPa) = 0.02027794
#
# Stress axis : x y z
#
# Youngs Moduli (GPa) = 93.37327 55.18615 115.44652
#
# Poissons Ratio (x) = 0.24901 0.30649
# Poissons Ratio (y) = 0.42131 0.16627
# Poissons Ratio (z) = 0.24789 0.07948
#
# Static dielectric constant tensor:
#      x y z
#    x 3.927950 0.000000 0.000000 
#    y 0.000000 3.927540 0.000000 
#    z 0.000000 0.000000 4.282870 
# 
# 
# High freq. dielectric constant tensor:
#      x y z
#    x 1.867780 0.000000 0.000000 
#    y 0.000000 1.864510 0.000000 
#    z 0.000000 0.000000 1.877060 
# 
# From -- ./inp_files/19925.got.cif
#   From: 2010.06.25/outbox.cif.g09.slc.cpg/sg58_10_cif.got.tgz:19925.got - 2010.06.26 21:38:00.
