data_PCOD8238000
_publ_section_title
;
Structure prediction by ZEFSAII (Michael W. Deem and Ramdas Pophale) SiO2 
 PCOD8238000
Probable space group: P N N M
;
_chemical_formula_sum "Si O2"
_cell_formula_units_Z 56
_cell_length_a 14.084934
_cell_length_b 19.226149
_cell_length_c 9.933915
_cell_angle_alpha 90.000000
_cell_angle_beta 90.000000
_cell_angle_gamma 90.000000
_cell_volume 2690.094643
_symmetry_space_group_name_H-M "P N N M"
_symmetry_group_IT_number 58
_symmetry_cell_setting 'orthorhombic'
loop_
_space_group_symop_operation_xyz
x,y,z
-x,-y,z
1/2+x,1/2-y,1/2-z
1/2-x,1/2+y,1/2-z
-x,-y,-z
x,y,-z
1/2-x,1/2+y,1/2+z
1/2+x,1/2-y,1/2+z
loop_
_atom_site_type_symbol
_atom_site_label
_atom_site_fract_x
_atom_site_fract_y
_atom_site_fract_z
Si Si1 0.128519 0.866970 0.848200
Si Si2 0.555185 0.182536 0.657776
Si Si3 0.103773 0.472240 0.845497
Si Si4 0.351031 0.216157 0.341751
Si Si5 0.053047 0.068153 0.250997
Si Si6 0.235520 0.997326 0.844618
Si Si7 0.141717 0.199881 0.348893
O O1 0.139448 0.793044 0.773228
O O2 0.199838 0.923280 0.784737
O O3 0.021009 0.895303 0.848807
O O4 0.161476 0.858403 0.000000
O O5 0.563386 0.203157 0.500000
O O6 0.607965 0.110122 0.686189
O O7 0.443954 0.172043 0.700918
O O8 0.599445 0.243995 0.746360
O O9 0.175323 0.515569 0.750176
O O10 0.000000 0.500000 0.813936
O O11 0.131745 0.487715 0.000000
O O12 0.355500 0.225338 0.500000
O O13 0.250149 0.182679 0.300157
O O14 0.083350 0.127470 0.357472
O O15 0.147585 0.050070 0.167848
O O16 0.000000 0.000000 0.316718
O O17 0.268095 0.995624 0.000000
O O18 0.141272 0.231572 0.500000
#
# Coordination Sequence:
#
# PCOD8238000 Si02
#       7
#     8   8   8   8   8   8   8
#     4   9  16  33  59  86 115 150 191 241 297 363
#     4  10  21  40  64  86 116 160 207 251 301 367
#     4  10  23  41  62  86 119 165 209 248 303 372
#     4   9  18  33  59  86 112 151 198 243 297 359
#     4  10  21  36  58  89 127 163 199 244 307 374
#     4  10  21  36  60  89 117 154 204 254 302 352
#     4  11  23  38  62  92 123 159 203 255 309 363
#
# _framework density 20.817112000000002
#
# number of rings (size 3 to 8) (size 9 to 14) (size 15 to 20)
#    0.000    2.143    1.429    1.286    2.000    5.143 
#    0.000    2.857    0.000    0.000    0.000    0.000 
#    0.000    0.000    0.000    0.000    0.000    0.000 
#
# Total GULP energy -693761.452486 kJ/mol
# GULP energy per Si atom -12388.597366 kJ/mol
# Density = 2.076973 g / cm^3
# Si number density = 20.817112 Si / 1000 Ang^3
#
#
#
# Elastic Constant Matrix: (Units=GPa)
#
#
# Indices 1 2 3 4 5 6 
#
# 1 125.5862 25.2387 51.5826 0.0000 0.0000 0.0000
# 2 25.2387 64.5378 19.7586 0.0000 0.0000 0.0000
# 3 51.5826 19.7586 75.5578 0.0000 0.0000 0.0000
# 4 0.0000 0.0000 0.0000 13.7227 0.0000 0.0000
# 5 0.0000 0.0000 0.0000 0.0000 28.8902 0.0000
# 6 0.0000 0.0000 0.0000 0.0000 0.0000 33.6237
#
#
#
# Elastic Compliance Matrix: (Units=1/GPa)
#
#
# Indices 1 2 3 4 5 6 
#
# 1 0.011358 -0.002248 -0.007166 0.000000 0.000000 0.000000
# 2 -0.002248 0.017288 -0.002986 0.000000 0.000000 0.000000
# 3 -0.007166 -0.002986 0.018908 0.000000 0.000000 0.000000
# 4 0.000000 0.000000 0.000000 0.072872 0.000000 0.000000
# 5 0.000000 0.000000 0.000000 0.000000 0.034614 0.000000
# 6 0.000000 0.000000 0.000000 0.000000 0.000000 0.029741
#
#
# Mechanical properties :
#
#
# Convention : Reuss Voigt Hill
#
# Bulk Modulus (GPa) = 43.94914 50.98239 47.46577
# Shear Modulus (GPa) = 23.02390 26.52076 24.77233
#
# Velocity S-wave (km/s) = 3.32928 3.57317 3.45338
# Velocity P-wave (km/s) = 5.99472 6.44726 6.22510
#
# Compressibility (1/GPa) = 0.02275357
#
# Stress axis : x y z
#
# Youngs Moduli (GPa) = 88.04596 57.84316 52.88760
#
# Poissons Ratio (x) = 0.13002 0.37899
# Poissons Ratio (y) = 0.19790 0.15794
# Poissons Ratio (z) = 0.63094 0.17274
#
# Static dielectric constant tensor:
#      x y z
#    x 4.023270 0.000000 0.000000 
#    y 0.000000 3.981500 0.000000 
#    z 0.000000 0.000000 3.267000 
# 
# 
# High freq. dielectric constant tensor:
#      x y z
#    x 1.828190 0.000000 0.000000 
#    y 0.000000 1.820510 0.000000 
#    z 0.000000 0.000000 1.766930 
# 
# From -- ./inp_files/6380.got.cif
#   From: 2010.06.25/outbox.cif.g09.slc.cpg/sg58_4_cif.got.tgz:6380.got - 2010.06.26 21:38:00.
