data_PCOD8238544
_publ_section_title
;
Structure prediction by ZEFSAII (Michael W. Deem and Ramdas Pophale) SiO2 
 PCOD8238544
Probable space group: P N N M
;
_chemical_formula_sum "Si O2"
_cell_formula_units_Z 40
_cell_length_a 17.556474
_cell_length_b 9.530752
_cell_length_c 11.144370
_cell_angle_alpha 90.000000
_cell_angle_beta 90.000000
_cell_angle_gamma 90.000000
_cell_volume 1864.747309
_symmetry_space_group_name_H-M "P N N M"
_symmetry_group_IT_number 58
_symmetry_cell_setting 'orthorhombic'
loop_
_space_group_symop_operation_xyz
x,y,z
-x,-y,z
1/2+x,1/2-y,1/2-z
1/2-x,1/2+y,1/2-z
-x,-y,-z
x,y,-z
1/2-x,1/2+y,1/2+z
1/2+x,1/2-y,1/2+z
loop_
_atom_site_type_symbol
_atom_site_label
_atom_site_fract_x
_atom_site_fract_y
_atom_site_fract_z
Si Si1 0.534594 0.152400 0.242775
Si Si2 0.081585 0.928860 0.000000
Si Si3 0.986215 0.664443 0.000000
Si Si4 0.190871 0.273222 0.640496
Si Si5 0.812618 0.009093 0.223364
Si Si6 0.059646 0.876607 0.365444
O O1 0.562353 0.189955 0.378598
O O2 0.602193 0.185402 0.150628
O O3 0.462094 0.249870 0.220307
O O4 0.500000 0.000000 0.226619
O O5 0.127046 0.985092 0.884898
O O6 0.064563 0.759805 0.000000
O O7 0.000000 0.000000 0.000000
O O8 0.000000 0.500000 0.000000
O O9 0.208250 0.238320 0.500000
O O10 0.237638 0.408138 0.684104
O O11 0.211481 0.145811 0.730744
O O12 0.854328 0.077014 0.337788
O O13 0.056808 0.821562 0.500000
O O14 0.000000 0.000000 0.343102
#
# Coordination Sequence:
#
# PCOD8238544 Si02
#       6
#     8   4   4   8   8   8
#     4  11  24  44  72 105 139 183 236 291 352 426
#     4  12  22  44  76 106 137 179 244 297 351 435
#     4  10  22  40  70 104 140 174 230 292 348 409
#     4  12  28  50  68 102 150 188 237 300 369 434
#     4  12  26  47  71 103 144 190 235 300 364 431
#     4  11  22  43  72 100 135 182 235 283 348 421
#
# _framework density 21.450627999999998
#
# number of rings (size 3 to 8) (size 9 to 14) (size 15 to 20)
#    0.000    0.600    5.000    3.000    2.800    1.600 
#    7.200    0.000    0.000    0.000    0.000    0.000 
#    0.000    0.000    0.000    0.000    0.000    0.000 
#
# Total GULP energy -495778.860324 kJ/mol
# GULP energy per Si atom -12394.471508 kJ/mol
# Density = 2.140181 g / cm^3
# Si number density = 21.450628 Si / 1000 Ang^3
#
#
#
# Elastic Constant Matrix: (Units=GPa)
#
#
# Indices 1 2 3 4 5 6 
#
# 1 62.3062 28.0057 14.7102 0.0000 0.0000 0.0000
# 2 28.0057 121.9298 62.7980 0.0000 0.0000 0.0000
# 3 14.7102 62.7980 115.8097 0.0000 0.0000 0.0000
# 4 0.0000 0.0000 0.0000 34.1932 0.0000 0.0000
# 5 0.0000 0.0000 0.0000 0.0000 26.3321 0.0000
# 6 0.0000 0.0000 0.0000 0.0000 0.0000 40.0932
#
#
#
# Elastic Compliance Matrix: (Units=1/GPa)
#
#
# Indices 1 2 3 4 5 6 
#
# 1 0.017898 -0.004079 -0.000061 0.000000 0.000000 0.000000
# 2 -0.004079 0.012309 -0.006157 0.000000 0.000000 0.000000
# 3 -0.000061 -0.006157 0.011981 0.000000 0.000000 0.000000
# 4 0.000000 0.000000 0.000000 0.029246 0.000000 0.000000
# 5 0.000000 0.000000 0.000000 0.000000 0.037977 0.000000
# 6 0.000000 0.000000 0.000000 0.000000 0.000000 0.024942
#
#
# Mechanical properties :
#
#
# Convention : Reuss Voigt Hill
#
# Bulk Modulus (GPa) = 46.30986 56.78594 51.54790
# Shear Modulus (GPa) = 30.83671 33.09248 31.96460
#
# Velocity S-wave (km/s) = 3.79564 3.93202 3.86443
# Velocity P-wave (km/s) = 6.39102 6.86620 6.63286
#
# Compressibility (1/GPa) = 0.02159368
#
# Stress axis : x y z
#
# Youngs Moduli (GPa) = 55.87264 81.23990 83.46514
#
# Poissons Ratio (x) = 0.33140 0.00513
# Poissons Ratio (y) = 0.22792 0.51386
# Poissons Ratio (z) = 0.00343 0.50016
#
# Static dielectric constant tensor:
#      x y z
#    x 3.695680 0.000000 0.000000 
#    y 0.000000 3.643180 0.000000 
#    z 0.000000 0.000000 4.327190 
# 
# 
# High freq. dielectric constant tensor:
#      x y z
#    x 1.819260 0.000000 0.000000 
#    y 0.000000 1.852520 0.000000 
#    z 0.000000 0.000000 1.864780 
# 
# From -- ./inp_files/16216.got.cif
#   From: 2010.06.25/outbox.cif.g09.slc.cpg/sg58_9_cif.got.tgz:16216.got - 2010.06.26 21:38:00.
