data_PCOD8238475
_publ_section_title
;
Structure prediction by ZEFSAII (Michael W. Deem and Ramdas Pophale) SiO2 
 PCOD8238475
Probable space group: P N N M
;
_chemical_formula_sum "Si O2"
_cell_formula_units_Z 32
_cell_length_a 18.126657
_cell_length_b 7.232290
_cell_length_c 11.634553
_cell_angle_alpha 90.000000
_cell_angle_beta 90.000000
_cell_angle_gamma 90.000000
_cell_volume 1525.257789
_symmetry_space_group_name_H-M "P N N M"
_symmetry_group_IT_number 58
_symmetry_cell_setting 'orthorhombic'
loop_
_space_group_symop_operation_xyz
x,y,z
-x,-y,z
1/2+x,1/2-y,1/2-z
1/2-x,1/2+y,1/2-z
-x,-y,-z
x,y,-z
1/2-x,1/2+y,1/2+z
1/2+x,1/2-y,1/2+z
loop_
_atom_site_type_symbol
_atom_site_label
_atom_site_fract_x
_atom_site_fract_y
_atom_site_fract_z
Si Si1 0.191315 0.244477 0.866659
Si Si2 0.086170 0.544698 0.500000
Si Si3 0.657936 0.907664 0.225396
Si Si4 0.586860 0.524179 0.249042
Si Si5 0.585662 0.528522 0.000000
O O1 0.263318 0.183369 0.798201
O O2 0.165006 0.447333 0.828535
O O3 0.127250 0.094502 0.845698
O O4 0.210381 0.252136 0.000000
O O5 0.125162 0.473725 0.383190
O O6 0.104548 0.758661 0.500000
O O7 0.000000 0.500000 0.500000
O O8 0.603089 0.742800 0.263387
O O9 0.500000 0.500000 0.263473
O O10 0.615367 0.449327 0.121870
O O11 0.500000 0.500000 0.000000
#
# Coordination Sequence:
#
# PCOD8238475 Si02
#       5
#     8   4   8   8   4
#     4  12  26  45  66  98 135 177 224 268 334 413
#     4  10  22  38  68 102 131 159 224 285 337 385
#     4  11  24  43  68  99 134 172 224 278 334 398
#     4  10  23  43  67 100 138 172 221 278 331 391
#     4   8  18  36  62  98 128 158 212 272 327 379
#
# _framework density 20.980059000000001
#
# number of rings (size 3 to 8) (size 9 to 14) (size 15 to 20)
#    0.000    1.500    3.750    0.000   10.500    1.500 
#    2.250    1.250    0.000    0.000    0.000    0.000 
#    0.000    0.000    0.000    0.000    0.000    0.000 
#
# Total GULP energy -396630.321741 kJ/mol
# GULP energy per Si atom -12394.697554 kJ/mol
# Density = 2.093231 g / cm^3
# Si number density = 20.980059 Si / 1000 Ang^3
#
#
#
# Elastic Constant Matrix: (Units=GPa)
#
#
# Indices 1 2 3 4 5 6 
#
# 1 104.1403 32.7671 5.9613 0.0000 0.0000 0.0000
# 2 32.7671 98.2715 30.9555 0.0000 0.0000 0.0000
# 3 5.9613 30.9555 59.9744 0.0000 0.0000 0.0000
# 4 0.0000 0.0000 0.0000 31.6274 0.0000 0.0000
# 5 0.0000 0.0000 0.0000 0.0000 32.1340 0.0000
# 6 0.0000 0.0000 0.0000 0.0000 0.0000 40.5194
#
#
#
# Elastic Compliance Matrix: (Units=1/GPa)
#
#
# Indices 1 2 3 4 5 6 
#
# 1 0.010772 -0.003886 0.000935 0.000000 0.000000 0.000000
# 2 -0.003886 0.013554 -0.006609 0.000000 0.000000 0.000000
# 3 0.000935 -0.006609 0.019992 0.000000 0.000000 0.000000
# 4 0.000000 0.000000 0.000000 0.031618 0.000000 0.000000
# 5 0.000000 0.000000 0.000000 0.000000 0.031120 0.000000
# 6 0.000000 0.000000 0.000000 0.000000 0.000000 0.024680
#
#
# Mechanical properties :
#
#
# Convention : Reuss Voigt Hill
#
# Bulk Modulus (GPa) = 39.68772 44.63934 42.16353
# Shear Modulus (GPa) = 31.39626 33.70299 32.54962
#
# Velocity S-wave (km/s) = 3.87263 4.01238 3.94312
# Velocity P-wave (km/s) = 6.24134 6.54131 6.39309
#
# Compressibility (1/GPa) = 0.02519671
#
# Stress axis : x y z
#
# Youngs Moduli (GPa) = 92.83603 73.78091 50.01944
#
# Poissons Ratio (x) = 0.28673 -0.04678
# Poissons Ratio (y) = 0.36078 0.33060
# Poissons Ratio (z) = -0.08682 0.48765
#
# Static dielectric constant tensor:
#      x y z
#    x 3.750560 0.000000 0.000000 
#    y 0.000000 3.924120 0.000000 
#    z 0.000000 0.000000 4.147650 
# 
# 
# High freq. dielectric constant tensor:
#      x y z
#    x 1.825250 0.000000 0.000000 
#    y 0.000000 1.820360 0.000000 
#    z 0.000000 0.000000 1.813610 
# 
# From -- ./inp_files/12372.got.cif
#   From: 2010.06.25/outbox.cif.g09.slc.cpg/sg58_7_cif.got.tgz:12372.got - 2010.06.26 21:38:00.
