data_PCOD8238911
_publ_section_title
;
Structure prediction by ZEFSAII (Michael W. Deem and Ramdas Pophale) SiO2 
 PCOD8238911
Probable space group: P N N M
;
_chemical_formula_sum "Si O2"
_cell_formula_units_Z 32
_cell_length_a 5.125083
_cell_length_b 20.244133
_cell_length_c 12.917770
_cell_angle_alpha 90.000000
_cell_angle_beta 90.000000
_cell_angle_gamma 90.000000
_cell_volume 1340.255607
_symmetry_space_group_name_H-M "P N N M"
_symmetry_group_IT_number 58
_symmetry_cell_setting 'orthorhombic'
loop_
_space_group_symop_operation_xyz
x,y,z
-x,-y,z
1/2+x,1/2-y,1/2-z
1/2-x,1/2+y,1/2-z
-x,-y,-z
x,y,-z
1/2-x,1/2+y,1/2+z
1/2+x,1/2-y,1/2+z
loop_
_atom_site_type_symbol
_atom_site_label
_atom_site_fract_x
_atom_site_fract_y
_atom_site_fract_z
Si Si1 0.821317 0.391369 0.615643
Si Si2 0.253718 0.040723 0.679763
Si Si3 0.670320 0.686810 0.323143
Si Si4 0.585662 0.320437 0.883683
O O1 0.814018 0.420841 0.500000
O O2 0.768161 0.450687 0.695599
O O3 0.604781 0.334382 0.627548
O O4 0.102924 0.360073 0.636209
O O5 0.248708 0.111778 0.624837
O O6 0.500000 0.000000 0.637950
O O7 0.000000 0.000000 0.648756
O O8 0.653852 0.679977 0.197906
O O9 0.714601 0.762156 0.354905
O O10 0.476470 0.311393 0.000000
#
# Coordination Sequence:
#
# PCOD8238911 Si02
#       4
#     8   8   8   8
#     4  11  23  43  71 100 134 172 213 275 342 389
#     4  11  25  43  62  94 137 178 229 271 304 383
#     4  11  24  43  69 106 134 158 218 280 329 402
#     4  11  24  45  72  97 133 178 214 269 339 389
#
# _framework density 23.876042999999999
#
# number of rings (size 3 to 8) (size 9 to 14) (size 15 to 20)
#    0.000    1.000    0.000    8.250    0.000    4.000 
#    0.000   27.500    0.000    0.000    0.000    0.000 
#    0.000    0.000    0.000    0.000    0.000    0.000 
#
# Total GULP energy -396918.049511 kJ/mol
# GULP energy per Si atom -12403.689047 kJ/mol
# Density = 2.382170 g / cm^3
# Si number density = 23.876043 Si / 1000 Ang^3
#
#
#
# Elastic Constant Matrix: (Units=GPa)
#
#
# Indices 1 2 3 4 5 6 
#
# 1 101.3326 16.9398 19.0902 0.0000 0.0000 0.0000
# 2 16.9398 94.5466 -7.6741 0.0000 0.0000 0.0000
# 3 19.0902 -7.6741 160.4322 0.0000 0.0000 0.0000
# 4 0.0000 0.0000 0.0000 7.3438 0.0000 0.0000
# 5 0.0000 0.0000 0.0000 0.0000 8.9486 0.0000
# 6 0.0000 0.0000 0.0000 0.0000 0.0000 29.4232
#
#
#
# Elastic Compliance Matrix: (Units=1/GPa)
#
#
# Indices 1 2 3 4 5 6 
#
# 1 0.010452 -0.001981 -0.001338 0.000000 0.000000 0.000000
# 2 -0.001981 0.010994 0.000762 0.000000 0.000000 0.000000
# 3 -0.001338 0.000762 0.006429 0.000000 0.000000 0.000000
# 4 0.000000 0.000000 0.000000 0.136170 0.000000 0.000000
# 5 0.000000 0.000000 0.000000 0.000000 0.111750 0.000000
# 6 0.000000 0.000000 0.000000 0.000000 0.000000 0.033987
#
#
# Mechanical properties :
#
#
# Convention : Reuss Voigt Hill
#
# Bulk Modulus (GPa) = 43.94047 45.89147 44.91597
# Shear Modulus (GPa) = 15.50468 31.00680 23.25574
#
# Velocity S-wave (km/s) = 2.55106 3.60760 3.12431
# Velocity P-wave (km/s) = 5.20776 6.05107 5.64518
#
# Compressibility (1/GPa) = 0.02275807
#
# Stress axis : x y z
#
# Youngs Moduli (GPa) = 95.67680 90.96208 155.54853
#
# Poissons Ratio (x) = 0.18022 0.20820
# Poissons Ratio (y) = 0.18956 -0.11847
# Poissons Ratio (z) = 0.12806 -0.06928
#
# Static dielectric constant tensor:
#      x y z
#    x 4.164840 0.000000 0.000000 
#    y 0.000000 4.293860 0.000000 
#    z 0.000000 0.000000 4.560940 
# 
# 
# High freq. dielectric constant tensor:
#      x y z
#    x 1.946890 0.000000 0.000000 
#    y 0.000000 1.949020 0.000000 
#    z 0.000000 0.000000 1.947630 
# 
# From -- ./inp_files/18267.got.cif
#   From: 2010.06.25/outbox.cif.g09.slc.cpg/sg58_10_cif.got.tgz:18267.got - 2010.06.26 21:38:00.
