data_PCOD8238469
_publ_section_title
;
Structure prediction by ZEFSAII (Michael W. Deem and Ramdas Pophale) SiO2 
 PCOD8238469
Probable space group: P N N M
;
_chemical_formula_sum "Si O2"
_cell_formula_units_Z 48
_cell_length_a 16.780320
_cell_length_b 16.649784
_cell_length_c 8.896315
_cell_angle_alpha 90.000000
_cell_angle_beta 90.000000
_cell_angle_gamma 90.000000
_cell_volume 2485.529913
_symmetry_space_group_name_H-M "P N N M"
_symmetry_group_IT_number 58
_symmetry_cell_setting 'orthorhombic'
loop_
_space_group_symop_operation_xyz
x,y,z
-x,-y,z
1/2+x,1/2-y,1/2-z
1/2-x,1/2+y,1/2-z
-x,-y,-z
x,y,-z
1/2-x,1/2+y,1/2+z
1/2+x,1/2-y,1/2+z
loop_
_atom_site_type_symbol
_atom_site_label
_atom_site_fract_x
_atom_site_fract_y
_atom_site_fract_z
Si Si1 0.322560 0.861427 0.672139
Si Si2 0.005789 0.905895 0.827155
Si Si3 0.146098 0.816031 0.325199
Si Si4 0.592513 0.994608 0.824987
Si Si5 0.680915 0.847906 0.677343
Si Si6 0.845011 0.821138 0.825930
O O1 0.337285 0.887896 0.500000
O O2 0.228802 0.860922 0.710380
O O3 0.366064 0.921613 0.783821
O O4 0.358031 0.773193 0.702503
O O5 0.076217 0.874651 0.723486
O O6 0.923836 0.866372 0.771393
O O7 0.023129 0.883106 0.000000
O O8 0.000000 0.000000 0.803840
O O9 0.139982 0.795265 0.500000
O O10 0.139242 0.732349 0.237972
O O11 0.500000 0.000000 0.783346
O O12 0.630562 0.923703 0.729715
O O13 0.605802 0.977186 0.000000
O O14 0.680675 0.844889 0.500000
O O15 0.771456 0.856249 0.732906
O O16 0.826094 0.838017 0.000000
#
# Coordination Sequence:
#
# PCOD8238469 Si02
#       6
#     8   8   8   8   8   8
#     4   9  20  39  61  86 118 158 199 244 299 353
#     4  10  22  38  60  93 126 161 202 244 297 356
#     4  10  22  41  63  89 123 159 199 248 302 353
#     4  11  25  41  60  89 122 156 198 248 303 356
#     4  11  23  40  64  90 118 158 204 245 301 361
#     4   9  20  40  62  88 123 159 198 248 300 352
#
# _framework density 19.311776999999999
#
# number of rings (size 3 to 8) (size 9 to 14) (size 15 to 20)
#    0.000    2.000    0.000    3.500    4.667    5.667 
#    0.000    0.000    0.000    0.000    0.000    0.000 
#    0.000    0.000    0.000    0.000    0.000    0.000 
#
# Total GULP energy -595456.171107 kJ/mol
# GULP energy per Si atom -12405.336898 kJ/mol
# Density = 1.926782 g / cm^3
# Si number density = 19.311777 Si / 1000 Ang^3
#
#
#
# Elastic Constant Matrix: (Units=GPa)
#
#
# Indices 1 2 3 4 5 6 
#
# 1 129.5550 75.6581 62.5947 0.0000 0.0000 0.0000
# 2 75.6581 99.8288 51.6628 0.0000 0.0000 0.0000
# 3 62.5947 51.6628 102.0849 0.0000 0.0000 0.0000
# 4 0.0000 0.0000 0.0000 34.2310 0.0000 0.0000
# 5 0.0000 0.0000 0.0000 0.0000 29.9284 0.0000
# 6 0.0000 0.0000 0.0000 0.0000 0.0000 29.4748
#
#
#
# Elastic Compliance Matrix: (Units=1/GPa)
#
#
# Indices 1 2 3 4 5 6 
#
# 1 0.015403 -0.009194 -0.004792 0.000000 0.000000 0.000000
# 2 -0.009194 0.019059 -0.004008 0.000000 0.000000 0.000000
# 3 -0.004792 -0.004008 0.014762 0.000000 0.000000 0.000000
# 4 0.000000 0.000000 0.000000 0.029213 0.000000 0.000000
# 5 0.000000 0.000000 0.000000 0.000000 0.033413 0.000000
# 6 0.000000 0.000000 0.000000 0.000000 0.000000 0.033927
#
#
# Mechanical properties :
#
#
# Convention : Reuss Voigt Hill
#
# Bulk Modulus (GPa) = 75.54512 79.03332 77.28922
# Shear Modulus (GPa) = 26.85609 28.16370 27.50989
#
# Velocity S-wave (km/s) = 3.73320 3.82300 3.77837
# Velocity P-wave (km/s) = 7.60171 7.77823 7.69048
#
# Compressibility (1/GPa) = 0.01323712
#
# Stress axis : x y z
#
# Youngs Moduli (GPa) = 64.92308 52.46836 67.74002
#
# Poissons Ratio (x) = 0.48238 0.32459
# Poissons Ratio (y) = 0.59688 0.27151
# Poissons Ratio (z) = 0.31110 0.21030
#
# Static dielectric constant tensor:
#      x y z
#    x 3.667350 0.000000 0.000000 
#    y 0.000000 3.583120 0.000000 
#    z 0.000000 0.000000 3.496920 
# 
# 
# High freq. dielectric constant tensor:
#      x y z
#    x 1.759400 0.000000 0.000000 
#    y 0.000000 1.758870 0.000000 
#    z 0.000000 0.000000 1.752810 
# 
# From -- ./inp_files/7739.got.cif
#   From: 2010.06.25/outbox.cif.g09.slc.cpg/sg58_4_cif.got.tgz:7739.got - 2010.06.26 21:38:00.
