data_PCOD8238194
_publ_section_title
;
Structure prediction by ZEFSAII (Michael W. Deem and Ramdas Pophale) SiO2 
 PCOD8238194
Probable space group: P N N M
;
_chemical_formula_sum "Si O2"
_cell_formula_units_Z 56
_cell_length_a 18.249504
_cell_length_b 10.444800
_cell_length_c 14.369422
_cell_angle_alpha 90.000000
_cell_angle_beta 90.000000
_cell_angle_gamma 90.000000
_cell_volume 2738.990293
_symmetry_space_group_name_H-M "P N N M"
_symmetry_group_IT_number 58
_symmetry_cell_setting 'orthorhombic'
loop_
_space_group_symop_operation_xyz
x,y,z
-x,-y,z
1/2+x,1/2-y,1/2-z
1/2-x,1/2+y,1/2-z
-x,-y,-z
x,y,-z
1/2-x,1/2+y,1/2+z
1/2+x,1/2-y,1/2+z
loop_
_atom_site_type_symbol
_atom_site_label
_atom_site_fract_x
_atom_site_fract_y
_atom_site_fract_z
Si Si1 0.289980 0.991880 0.103565
Si Si2 0.991492 0.359023 0.778679
Si Si3 0.367450 0.574856 0.603810
Si Si4 0.807365 0.797864 0.607033
Si Si5 0.629274 0.138064 0.396231
Si Si6 0.670147 0.901363 0.289843
Si Si7 0.945595 0.894370 0.710950
O O1 0.325826 0.852049 0.115921
O O2 0.201908 0.981604 0.117072
O O3 0.323254 0.090168 0.178064
O O4 0.307544 0.044777 0.000000
O O5 0.908153 0.336971 0.812951
O O6 0.000000 0.500000 0.729482
O O7 0.043413 0.357679 0.869111
O O8 0.015064 0.244206 0.710381
O O9 0.402402 0.555462 0.500000
O O10 0.337021 0.720406 0.613262
O O11 0.426649 0.552892 0.685120
O O12 0.795615 0.838340 0.500000
O O13 0.733590 0.818520 0.665023
O O14 0.872542 0.883264 0.649422
O O15 0.635368 0.083792 0.500000
O O16 0.675347 0.045893 0.329206
O O17 0.000000 0.000000 0.666326
#
# Coordination Sequence:
#
# PCOD8238194 Si02
#       7
#     8   8   8   8   8   8   8
#     4  10  21  38  61  87 118 154 199 253 307 360
#     4   9  20  36  58  87 118 159 199 250 311 372
#     4   9  18  36  60  87 118 154 194 246 307 364
#     4  11  24  40  60  87 123 165 204 254 309 366
#     4   9  18  34  56  86 124 157 192 248 313 375
#     4  11  21  34  62  88 119 154 209 253 309 367
#     4  11  23  41  61  87 125 165 205 251 309 369
#
# _framework density 20.445491000000001
#
# number of rings (size 3 to 8) (size 9 to 14) (size 15 to 20)
#    0.000    2.000    1.429    3.000    2.000    3.714 
#    0.000    0.714    0.000    6.000    0.000    0.000 
#    0.000    0.000    0.000    0.000    0.000    0.000 
#
# Total GULP energy -694252.610663 kJ/mol
# GULP energy per Si atom -12397.368048 kJ/mol
# Density = 2.039896 g / cm^3
# Si number density = 20.445491 Si / 1000 Ang^3
#
#
#
# Elastic Constant Matrix: (Units=GPa)
#
#
# Indices 1 2 3 4 5 6 
#
# 1 79.7478 25.7578 22.0646 0.0000 0.0000 0.0000
# 2 25.7578 60.6630 21.2706 0.0000 0.0000 0.0000
# 3 22.0646 21.2706 107.6025 0.0000 0.0000 0.0000
# 4 0.0000 0.0000 0.0000 24.1912 0.0000 0.0000
# 5 0.0000 0.0000 0.0000 0.0000 19.4746 0.0000
# 6 0.0000 0.0000 0.0000 0.0000 0.0000 34.7627
#
#
#
# Elastic Compliance Matrix: (Units=1/GPa)
#
#
# Indices 1 2 3 4 5 6 
#
# 1 0.014900 -0.005647 -0.001939 0.000000 0.000000 0.000000
# 2 -0.005647 0.019852 -0.002766 0.000000 0.000000 0.000000
# 3 -0.001939 -0.002766 0.010238 0.000000 0.000000 0.000000
# 4 0.000000 0.000000 0.000000 0.041337 0.000000 0.000000
# 5 0.000000 0.000000 0.000000 0.000000 0.051349 0.000000
# 6 0.000000 0.000000 0.000000 0.000000 0.000000 0.028766
#
#
# Mechanical properties :
#
#
# Convention : Reuss Voigt Hill
#
# Bulk Modulus (GPa) = 41.17671 42.91102 42.04387
# Shear Modulus (GPa) = 25.60922 27.61372 26.61147
#
# Velocity S-wave (km/s) = 3.54299 3.67904 3.61166
# Velocity P-wave (km/s) = 6.07623 6.25146 6.16446
#
# Compressibility (1/GPa) = 0.02428558
#
# Stress axis : x y z
#
# Youngs Moduli (GPa) = 67.11477 50.37248 97.67581
#
# Poissons Ratio (x) = 0.28444 0.18940
# Poissons Ratio (y) = 0.37897 0.27021
# Poissons Ratio (z) = 0.13014 0.13935
#
# Static dielectric constant tensor:
#      x y z
#    x 3.538440 0.000000 0.000000 
#    y 0.000000 3.686980 0.000000 
#    z 0.000000 0.000000 3.708080 
# 
# 
# High freq. dielectric constant tensor:
#      x y z
#    x 1.787900 0.000000 0.000000 
#    y 0.000000 1.790300 0.000000 
#    z 0.000000 0.000000 1.788550 
# 
# From -- ./inp_files/22227.got.cif
#   From: 2010.06.25/outbox.cif.g09.slc.cpg/sg58_12_cif.got.tgz:22227.got - 2010.06.26 21:38:00.
