data_PCOD8238571
_publ_section_title
;
Structure prediction by ZEFSAII (Michael W. Deem and Ramdas Pophale) SiO2 
 PCOD8238571
Probable space group: P N N M
;
_chemical_formula_sum "Si O2"
_cell_formula_units_Z 48
_cell_length_a 11.352154
_cell_length_b 10.022859
_cell_length_c 22.179908
_cell_angle_alpha 90.000000
_cell_angle_beta 90.000000
_cell_angle_gamma 90.000000
_cell_volume 2523.652975
_symmetry_space_group_name_H-M "P N N M"
_symmetry_group_IT_number 58
_symmetry_cell_setting 'orthorhombic'
loop_
_space_group_symop_operation_xyz
x,y,z
-x,-y,z
1/2+x,1/2-y,1/2-z
1/2-x,1/2+y,1/2-z
-x,-y,-z
x,y,-z
1/2-x,1/2+y,1/2+z
1/2+x,1/2-y,1/2+z
loop_
_atom_site_type_symbol
_atom_site_label
_atom_site_fract_x
_atom_site_fract_y
_atom_site_fract_z
Si Si1 0.635861 0.500795 0.202859
Si Si2 0.734024 0.504907 0.330822
Si Si3 0.250733 0.370479 0.000000
Si Si4 0.500000 0.500000 0.401412
Si Si5 0.142378 0.754325 0.620582
Si Si6 0.753713 0.315676 0.000000
Si Si7 0.516685 0.281795 0.500000
Si Si8 0.133143 0.250896 0.378124
O O1 0.500000 0.500000 0.223036
O O2 0.718127 0.474098 0.260242
O O3 0.669529 0.642352 0.174049
O O4 0.662150 0.388830 0.153379
O O5 0.609137 0.540502 0.360025
O O6 0.791549 0.381148 0.364477
O O7 0.819141 0.631180 0.336324
O O8 0.312852 0.309979 0.057804
O O9 0.271284 0.527896 0.000000
O O10 0.112819 0.335220 0.000000
O O11 0.534215 0.372478 0.441225
O O12 0.004748 0.727115 0.613351
O O13 0.891906 0.289876 0.000000
O O14 0.696173 0.244786 0.057459
#
# Coordination Sequence:
#
# PCOD8238571 Si02
#       8
#     8   8   4   4   8   4   4   8
#     4  10  22  41  65  89 123 168 209 246 305 367
#     4  12  22  42  64  91 126 161 209 255 305 362
#     4  12  23  41  67  89 126 159 204 257 307 369
#     4  11  22  38  66  88 118 169 202 248 316 365
#     4  11  24  40  64  95 124 163 203 255 311 363
#     4  12  23  41  67  89 126 159 204 257 307 369
#     4  11  23  42  60  96 121 161 206 252 306 360
#     4  11  24  40  64  95 124 163 203 255 311 363
#
# _framework density 19.020049
#
# number of rings (size 3 to 8) (size 9 to 14) (size 15 to 20)
#    0.000    0.833    5.833    2.250    0.000    1.333 
#    0.000    1.667    3.667    0.000    0.000    0.000 
#    0.000    0.000    0.000    0.000    0.000    0.000 
#
# Total GULP energy -595532.128455 kJ/mol
# GULP energy per Si atom -12406.919343 kJ/mol
# Density = 1.897676 g / cm^3
# Si number density = 19.020049 Si / 1000 Ang^3
#
#
#
# Elastic Constant Matrix: (Units=GPa)
#
#
# Indices 1 2 3 4 5 6 
#
# 1 98.3406 22.7946 41.9535 0.0000 0.0000 0.0000
# 2 22.7946 74.6168 4.2240 0.0000 0.0000 0.0000
# 3 41.9535 4.2240 98.0618 0.0000 0.0000 0.0000
# 4 0.0000 0.0000 0.0000 14.4177 0.0000 0.0000
# 5 0.0000 0.0000 0.0000 0.0000 29.9320 0.0000
# 6 0.0000 0.0000 0.0000 0.0000 0.0000 32.2045
#
#
#
# Elastic Compliance Matrix: (Units=1/GPa)
#
#
# Indices 1 2 3 4 5 6 
#
# 1 0.013427 -0.003786 -0.005582 0.000000 0.000000 0.000000
# 2 -0.003786 0.014502 0.000995 0.000000 0.000000 0.000000
# 3 -0.005582 0.000995 0.012543 0.000000 0.000000 0.000000
# 4 0.000000 0.000000 0.000000 0.069359 0.000000 0.000000
# 5 0.000000 0.000000 0.000000 0.000000 0.033409 0.000000
# 6 0.000000 0.000000 0.000000 0.000000 0.000000 0.031052
#
#
# Mechanical properties :
#
#
# Convention : Reuss Voigt Hill
#
# Bulk Modulus (GPa) = 42.14549 45.44036 43.79293
# Shear Modulus (GPa) = 25.13244 28.78063 26.95654
#
# Velocity S-wave (km/s) = 3.63900 3.89417 3.76875
# Velocity P-wave (km/s) = 6.31372 6.64546 6.48171
#
# Compressibility (1/GPa) = 0.02372733
#
# Stress axis : x y z
#
# Youngs Moduli (GPa) = 74.47422 68.95575 79.72750
#
# Poissons Ratio (x) = 0.26106 0.44500
# Poissons Ratio (y) = 0.28196 -0.07933
# Poissons Ratio (z) = 0.41568 -0.06861
#
# Static dielectric constant tensor:
#      x y z
#    x 3.528040 0.000000 0.000000 
#    y 0.000000 3.578100 0.000000 
#    z 0.000000 0.000000 3.497500 
# 
# 
# High freq. dielectric constant tensor:
#      x y z
#    x 1.746670 0.000000 0.000000 
#    y 0.000000 1.746890 0.000000 
#    z 0.000000 0.000000 1.750440 
# 
# From -- ./inp_files/29578.got.cif
#   From: 2010.06.25/outbox.cif.g09.slc.cpg/sg58_15_cif.got.tgz:29578.got - 2010.06.26 21:38:00.
