data_PCOD8238357
_publ_section_title
;
Structure prediction by ZEFSAII (Michael W. Deem and Ramdas Pophale) SiO2 
 PCOD8238357
Probable space group: P N N M
;
_chemical_formula_sum "Si O2"
_cell_formula_units_Z 48
_cell_length_a 13.711477
_cell_length_b 9.051013
_cell_length_c 17.457456
_cell_angle_alpha 90.000000
_cell_angle_beta 90.000000
_cell_angle_gamma 90.000000
_cell_volume 2166.518412
_symmetry_space_group_name_H-M "P N N M"
_symmetry_group_IT_number 58
_symmetry_cell_setting 'orthorhombic'
loop_
_space_group_symop_operation_xyz
x,y,z
-x,-y,z
1/2+x,1/2-y,1/2-z
1/2-x,1/2+y,1/2-z
-x,-y,-z
x,y,-z
1/2-x,1/2+y,1/2+z
1/2+x,1/2-y,1/2+z
loop_
_atom_site_type_symbol
_atom_site_label
_atom_site_fract_x
_atom_site_fract_y
_atom_site_fract_z
Si Si1 0.806277 0.363091 0.646120
Si Si2 0.860109 0.657530 0.912537
Si Si3 0.742217 0.174003 0.910760
Si Si4 0.748965 0.936291 0.687359
Si Si5 0.465378 0.340730 0.638837
Si Si6 0.567832 0.624645 0.190453
O O1 0.713023 0.292156 0.605301
O O2 0.817340 0.527135 0.612796
O O3 0.795906 0.362617 0.737729
O O4 0.905236 0.263104 0.633996
O O5 0.837502 0.515721 0.860039
O O6 0.970285 0.712442 0.899556
O O7 0.846862 0.607963 0.000000
O O8 0.696853 0.312035 0.864485
O O9 0.854821 0.174609 0.886962
O O10 0.728977 0.200658 0.000000
O O11 0.828270 0.054533 0.713585
O O12 0.500000 0.500000 0.609243
O O13 0.482367 0.325457 0.730322
O O14 0.500000 0.500000 0.149305
#
# Coordination Sequence:
#
# PCOD8238357 Si02
#       6
#     8   8   8   8   8   8
#     4  11  20  39  64  88 124 171 223 261 313 384
#     4  11  23  38  62  94 134 172 207 261 332 398
#     4  12  23  37  62  95 131 168 207 268 330 385
#     4  11  22  42  60  90 131 176 217 259 318 393
#     4  11  20  36  61  96 133 164 206 253 320 400
#     4  10  21  40  66  91 119 165 222 271 313 373
#
# _framework density 22.155362
#
# number of rings (size 3 to 8) (size 9 to 14) (size 15 to 20)
#    0.000    1.000    5.000    3.500    0.000    1.333 
#    0.000    4.167    0.000   19.000    0.000    0.000 
#    0.000    0.000    0.000    0.000    0.000    0.000 
#
# Total GULP energy -595183.138806 kJ/mol
# GULP energy per Si atom -12399.648725 kJ/mol
# Density = 2.210494 g / cm^3
# Si number density = 22.155362 Si / 1000 Ang^3
#
#
#
# Elastic Constant Matrix: (Units=GPa)
#
#
# Indices 1 2 3 4 5 6 
#
# 1 55.9225 16.3631 15.6842 0.0000 0.0000 0.0000
# 2 16.3631 83.5048 15.2953 0.0000 0.0000 0.0000
# 3 15.6842 15.2953 100.7371 0.0000 0.0000 0.0000
# 4 0.0000 0.0000 0.0000 33.3253 0.0000 0.0000
# 5 0.0000 0.0000 0.0000 0.0000 21.2405 0.0000
# 6 0.0000 0.0000 0.0000 0.0000 0.0000 45.4282
#
#
#
# Elastic Compliance Matrix: (Units=1/GPa)
#
#
# Indices 1 2 3 4 5 6 
#
# 1 0.019580 -0.003372 -0.002536 0.000000 0.000000 0.000000
# 2 -0.003372 0.012899 -0.001433 0.000000 0.000000 0.000000
# 3 -0.002536 -0.001433 0.010539 0.000000 0.000000 0.000000
# 4 0.000000 0.000000 0.000000 0.030007 0.000000 0.000000
# 5 0.000000 0.000000 0.000000 0.000000 0.047080 0.000000
# 6 0.000000 0.000000 0.000000 0.000000 0.000000 0.022013
#
#
# Mechanical properties :
#
#
# Convention : Reuss Voigt Hill
#
# Bulk Modulus (GPa) = 35.29342 37.20552 36.24947
# Shear Modulus (GPa) = 30.07578 32.85358 31.46468
#
# Velocity S-wave (km/s) = 3.68842 3.85499 3.77262
# Velocity P-wave (km/s) = 5.83984 6.05343 5.94760
#
# Compressibility (1/GPa) = 0.02833390
#
# Stress axis : x y z
#
# Youngs Moduli (GPa) = 51.07260 77.52712 94.88216
#
# Poissons Ratio (x) = 0.26143 0.24067
# Poissons Ratio (y) = 0.17223 0.13601
# Poissons Ratio (z) = 0.12954 0.11113
#
# Static dielectric constant tensor:
#      x y z
#    x 3.810860 0.000000 0.000000 
#    y 0.000000 4.441530 0.000000 
#    z 0.000000 0.000000 3.837200 
# 
# 
# High freq. dielectric constant tensor:
#      x y z
#    x 1.847050 0.000000 0.000000 
#    y 0.000000 1.892640 0.000000 
#    z 0.000000 0.000000 1.853680 
# 
# From -- ./inp_files/25260.got.cif
#   From: 2010.06.25/outbox.cif.g09.slc.cpg/sg58_13_cif.got.tgz:25260.got - 2010.06.26 21:38:00.
