data_PCOD8238078
_publ_section_title
;
Structure prediction by ZEFSAII (Michael W. Deem and Ramdas Pophale) SiO2 
 PCOD8238078
Probable space group: P N N M
;
_chemical_formula_sum "Si O2"
_cell_formula_units_Z 40
_cell_length_a 7.770966
_cell_length_b 28.183016
_cell_length_c 9.001789
_cell_angle_alpha 90.000000
_cell_angle_beta 90.000000
_cell_angle_gamma 90.000000
_cell_volume 1971.475140
_symmetry_space_group_name_H-M "P N N M"
_symmetry_group_IT_number 58
_symmetry_cell_setting 'orthorhombic'
loop_
_space_group_symop_operation_xyz
x,y,z
-x,-y,z
1/2+x,1/2-y,1/2-z
1/2-x,1/2+y,1/2-z
-x,-y,-z
x,y,-z
1/2-x,1/2+y,1/2+z
1/2+x,1/2-y,1/2+z
loop_
_atom_site_type_symbol
_atom_site_label
_atom_site_fract_x
_atom_site_fract_y
_atom_site_fract_z
Si Si1 0.202216 0.706975 0.332217
Si Si2 0.805680 0.700034 0.670468
Si Si3 0.995534 0.555937 0.670860
Si Si4 0.186806 0.891479 0.675453
Si Si5 0.157350 0.105304 0.171860
O O1 0.227026 0.726033 0.500000
O O2 0.256412 0.747026 0.217142
O O3 0.319932 0.661448 0.302700
O O4 0.006893 0.691079 0.305956
O O5 0.750895 0.692979 0.500000
O O6 0.703316 0.662431 0.768639
O O7 0.966230 0.571445 0.500000
O O8 0.175194 0.577238 0.729804
O O9 0.000000 0.500000 0.689710
O O10 0.840699 0.576072 0.767160
O O11 0.186293 0.892115 0.500000
O O12 0.006508 0.912474 0.734897
O O13 0.124533 0.093263 0.000000
#
# Coordination Sequence:
#
# PCOD8238078 Si02
#       5
#     8   8   8   8   8
#     4  10  21  37  58  88 123 162 209 261 315 368
#     4  11  22  38  59  86 124 166 213 260 308 373
#     4  10  22  44  72  97 123 163 215 266 318 375
#     4  12  25  40  62  93 130 168 209 258 317 378
#     4  10  21  41  66  92 126 165 210 261 311 371
#
# _framework density 20.289376000000001
#
# number of rings (size 3 to 8) (size 9 to 14) (size 15 to 20)
#    0.000    1.400    2.000    3.600    0.000    7.600 
#    0.000    4.000    0.000    0.000    0.000    0.000 
#    0.000    0.000    0.000    0.000    0.000    0.000 
#
# Total GULP energy -496258.861884 kJ/mol
# GULP energy per Si atom -12406.471547 kJ/mol
# Density = 2.024320 g / cm^3
# Si number density = 20.289376 Si / 1000 Ang^3
#
#
#
# Elastic Constant Matrix: (Units=GPa)
#
#
# Indices 1 2 3 4 5 6 
#
# 1 159.5840 45.5943 82.5963 0.0000 0.0000 0.0000
# 2 45.5943 76.6751 44.4743 0.0000 0.0000 0.0000
# 3 82.5963 44.4743 123.8555 0.0000 0.0000 0.0000
# 4 0.0000 0.0000 0.0000 24.1432 0.0000 0.0000
# 5 0.0000 0.0000 0.0000 0.0000 24.8086 0.0000
# 6 0.0000 0.0000 0.0000 0.0000 0.0000 22.6005
#
#
#
# Elastic Compliance Matrix: (Units=1/GPa)
#
#
# Indices 1 2 3 4 5 6 
#
# 1 0.009968 -0.002617 -0.005708 0.000000 0.000000 0.000000
# 2 -0.002617 0.017160 -0.004417 0.000000 0.000000 0.000000
# 3 -0.005708 -0.004417 0.013466 0.000000 0.000000 0.000000
# 4 0.000000 0.000000 0.000000 0.041420 0.000000 0.000000
# 5 0.000000 0.000000 0.000000 0.000000 0.040309 0.000000
# 6 0.000000 0.000000 0.000000 0.000000 0.000000 0.044247
#
#
# Mechanical properties :
#
#
# Convention : Reuss Voigt Hill
#
# Bulk Modulus (GPa) = 66.17416 78.38273 72.27844
# Shear Modulus (GPa) = 25.36919 26.80712 26.08815
#
# Velocity S-wave (km/s) = 3.53989 3.63883 3.58970
# Velocity P-wave (km/s) = 7.02807 7.50806 7.27203
#
# Compressibility (1/GPa) = 0.01511164
#
# Stress axis : x y z
#
# Youngs Moduli (GPa) = 100.31933 58.27523 74.25890
#
# Poissons Ratio (x) = 0.15249 0.42386
# Poissons Ratio (y) = 0.26251 0.32799
# Poissons Ratio (z) = 0.57262 0.25739
#
# Static dielectric constant tensor:
#      x y z
#    x 3.855860 0.000000 0.000000 
#    y 0.000000 3.643320 0.000000 
#    z 0.000000 0.000000 3.636750 
# 
# 
# High freq. dielectric constant tensor:
#      x y z
#    x 1.810640 0.000000 0.000000 
#    y 0.000000 1.788450 0.000000 
#    z 0.000000 0.000000 1.781710 
# 
# From -- ./inp_files/2729.got.cif
#   From: 2010.06.25/outbox.cif.g09.slc.cpg/sg58_2_cif.got.tgz:2729.got - 2010.06.26 21:38:00.
