data_PCOD8238785
_publ_section_title
;
Structure prediction by ZEFSAII (Michael W. Deem and Ramdas Pophale) SiO2 
 PCOD8238785
Probable space group: P N N M
;
_chemical_formula_sum "Si O2"
_cell_formula_units_Z 40
_cell_length_a 18.198060
_cell_length_b 6.535241
_cell_length_c 15.307697
_cell_angle_alpha 90.000000
_cell_angle_beta 90.000000
_cell_angle_gamma 90.000000
_cell_volume 1820.524624
_symmetry_space_group_name_H-M "P N N M"
_symmetry_group_IT_number 58
_symmetry_cell_setting 'orthorhombic'
loop_
_space_group_symop_operation_xyz
x,y,z
-x,-y,z
1/2+x,1/2-y,1/2-z
1/2-x,1/2+y,1/2-z
-x,-y,-z
x,y,-z
1/2-x,1/2+y,1/2+z
1/2+x,1/2-y,1/2+z
loop_
_atom_site_type_symbol
_atom_site_label
_atom_site_fract_x
_atom_site_fract_y
_atom_site_fract_z
Si Si1 0.643650 0.155180 0.597126
Si Si2 0.775894 0.412639 0.360515
Si Si3 0.081129 0.081188 0.249244
Si Si4 0.923106 0.601407 0.599208
Si Si5 0.683175 0.761157 0.315242
O O1 0.610948 0.178849 0.500000
O O2 0.729215 0.229678 0.596104
O O3 0.593501 0.284845 0.662532
O O4 0.638404 0.917472 0.623980
O O5 0.858983 0.428298 0.396540
O O6 0.734960 0.628652 0.379163
O O7 0.770852 0.391946 0.255200
O O8 0.098014 0.213511 0.336097
O O9 0.131470 0.881289 0.244692
O O10 0.000000 0.000000 0.252480
O O11 0.929863 0.684282 0.500000
O O12 0.000000 0.500000 0.629012
#
# Coordination Sequence:
#
# PCOD8238785 Si02
#       5
#     8   8   8   8   8
#     4  11  25  42  68 100 131 171 220 273 327 386
#     4  11  20  41  67  97 131 171 215 266 321 387
#     4  11  25  43  69  95 133 176 219 272 330 392
#     4  11  24  43  69  99 133 174 221 271 331 399
#     4  11  21  40  68  97 130 175 217 262 325 390
#
# _framework density 21.971688
#
# number of rings (size 3 to 8) (size 9 to 14) (size 15 to 20)
#    0.000    1.000    4.000    3.000    0.000    4.800 
#    0.000    2.000    0.000    0.000    0.000    0.000 
#    0.000    0.000    0.000    0.000    0.000    0.000 
#
# Total GULP energy -495990.082511 kJ/mol
# GULP energy per Si atom -12399.752063 kJ/mol
# Density = 2.192168 g / cm^3
# Si number density = 21.971688 Si / 1000 Ang^3
#
#
#
# Elastic Constant Matrix: (Units=GPa)
#
#
# Indices 1 2 3 4 5 6 
#
# 1 71.6889 12.9263 -3.6208 0.0000 0.0000 0.0000
# 2 12.9263 102.5379 36.1464 0.0000 0.0000 0.0000
# 3 -3.6208 36.1464 138.0719 0.0000 0.0000 0.0000
# 4 0.0000 0.0000 0.0000 17.2001 0.0000 0.0000
# 5 0.0000 0.0000 0.0000 0.0000 16.1263 0.0000
# 6 0.0000 0.0000 0.0000 0.0000 0.0000 30.4181
#
#
#
# Elastic Compliance Matrix: (Units=1/GPa)
#
#
# Indices 1 2 3 4 5 6 
#
# 1 0.014383 -0.002144 0.000938 0.000000 0.000000 0.000000
# 2 -0.002144 0.011064 -0.002953 0.000000 0.000000 0.000000
# 3 0.000938 -0.002953 0.008040 0.000000 0.000000 0.000000
# 4 0.000000 0.000000 0.000000 0.058139 0.000000 0.000000
# 5 0.000000 0.000000 0.000000 0.000000 0.062010 0.000000
# 6 0.000000 0.000000 0.000000 0.000000 0.000000 0.032875
#
#
# Mechanical properties :
#
#
# Convention : Reuss Voigt Hill
#
# Bulk Modulus (GPa) = 39.72880 44.80027 42.26454
# Shear Modulus (GPa) = 24.60408 30.53869 27.57139
#
# Velocity S-wave (km/s) = 3.34998 3.73220 3.54624
# Velocity P-wave (km/s) = 5.75189 6.24553 6.00379
#
# Compressibility (1/GPa) = 0.02517066
#
# Stress axis : x y z
#
# Youngs Moduli (GPa) = 69.52575 90.38625 124.37515
#
# Poissons Ratio (x) = 0.19379 -0.11672
# Poissons Ratio (y) = 0.14906 0.36723
# Poissons Ratio (z) = -0.06525 0.26688
#
# Static dielectric constant tensor:
#      x y z
#    x 3.991800 0.000000 0.000000 
#    y 0.000000 4.041070 0.000000 
#    z 0.000000 0.000000 3.833330 
# 
# 
# High freq. dielectric constant tensor:
#      x y z
#    x 1.858900 0.000000 0.000000 
#    y 0.000000 1.867540 0.000000 
#    z 0.000000 0.000000 1.856470 
# 
# From -- ./inp_files/24182.got.cif
#   From: 2010.06.25/outbox.cif.g09.slc.cpg/sg58_13_cif.got.tgz:24182.got - 2010.06.26 21:38:00.
