data_PCOD8238089
_publ_section_title
;
Structure prediction by ZEFSAII (Michael W. Deem and Ramdas Pophale) SiO2 
 PCOD8238089
Probable space group: P N N M
;
_chemical_formula_sum "Si O2"
_cell_formula_units_Z 56
_cell_length_a 12.230819
_cell_length_b 16.524633
_cell_length_c 14.274718
_cell_angle_alpha 90.000000
_cell_angle_beta 90.000000
_cell_angle_gamma 90.000000
_cell_volume 2885.060332
_symmetry_space_group_name_H-M "P N N M"
_symmetry_group_IT_number 58
_symmetry_cell_setting 'orthorhombic'
loop_
_space_group_symop_operation_xyz
x,y,z
-x,-y,z
1/2+x,1/2-y,1/2-z
1/2-x,1/2+y,1/2-z
-x,-y,-z
x,y,-z
1/2-x,1/2+y,1/2+z
1/2+x,1/2-y,1/2+z
loop_
_atom_site_type_symbol
_atom_site_label
_atom_site_fract_x
_atom_site_fract_y
_atom_site_fract_z
Si Si1 0.619424 0.966114 0.892964
Si Si2 0.729389 0.524950 0.768726
Si Si3 0.068799 0.835672 0.727910
Si Si4 0.303837 0.213967 0.894525
Si Si5 0.085078 0.073224 0.394557
Si Si6 0.579192 0.071827 0.392622
Si Si7 0.052619 0.242854 0.105282
O O1 0.712869 0.003664 0.828349
O O2 0.629959 0.869676 0.882105
O O3 0.500000 0.000000 0.862207
O O4 0.642781 0.992377 0.000000
O O5 0.626089 0.580353 0.744976
O O6 0.688590 0.447355 0.828315
O O7 0.809942 0.574007 0.835212
O O8 0.153344 0.774634 0.682677
O O9 0.972267 0.849208 0.652491
O O10 0.027190 0.802148 0.825382
O O11 0.174398 0.209082 0.876416
O O12 0.323155 0.247420 0.000000
O O13 0.124903 0.095302 0.500000
O O14 0.000000 0.000000 0.400341
O O15 0.608563 0.053876 0.500000
O O16 0.531357 0.161361 0.379523
O O17 0.500000 0.000000 0.354483
O O18 0.017935 0.220169 0.000000
#
# Coordination Sequence:
#
# PCOD8238089 Si02
#       7
#     8   8   8   8   8   8   8
#     4  10  23  40  59  85 115 153 201 245 285 342
#     4  11  21  36  60  85 115 155 191 237 294 353
#     4  11  22  35  60  89 115 153 193 238 295 344
#     4  10  21  39  62  83 114 157 198 239 289 353
#     4   9  19  35  56  86 119 145 185 238 284 339
#     4  10  21  37  59  86 115 152 196 239 289 352
#     4  10  22  40  59  87 121 154 196 242 291 352
#
# _framework density 19.410339
#
# number of rings (size 3 to 8) (size 9 to 14) (size 15 to 20)
#    0.000    1.857    1.429    2.143    4.000    1.714 
#    0.000    0.000    0.000    6.000    0.000    0.000 
#    0.000    0.000    0.000    0.000    0.000    0.000 
#
# Total GULP energy -694314.506024 kJ/mol
# GULP energy per Si atom -12398.473322 kJ/mol
# Density = 1.936616 g / cm^3
# Si number density = 19.410339 Si / 1000 Ang^3
#
#
#
# Elastic Constant Matrix: (Units=GPa)
#
#
# Indices 1 2 3 4 5 6 
#
# 1 78.7191 31.7704 65.4886 0.0000 0.0000 0.0000
# 2 31.7704 69.6304 41.9995 0.0000 0.0000 0.0000
# 3 65.4886 41.9995 127.5562 0.0000 0.0000 0.0000
# 4 0.0000 0.0000 0.0000 -6.7559 0.0000 0.0000
# 5 0.0000 0.0000 0.0000 0.0000 38.5863 0.0000
# 6 0.0000 0.0000 0.0000 0.0000 0.0000 31.5682
#
#
#
# Elastic Compliance Matrix: (Units=1/GPa)
#
#
# Indices 1 2 3 4 5 6 
#
# 1 0.023132 -0.004231 -0.010483 0.000000 0.000000 0.000000
# 2 -0.004231 0.018695 -0.003983 0.000000 0.000000 0.000000
# 3 -0.010483 -0.003983 0.014533 0.000000 0.000000 0.000000
# 4 0.000000 0.000000 0.000000 -0.148018 0.000000 0.000000
# 5 0.000000 0.000000 0.000000 0.000000 0.025916 0.000000
# 6 0.000000 0.000000 0.000000 0.000000 0.000000 0.031677
#
#
# Mechanical properties :
#
#
# Convention : Reuss Voigt Hill
#
# Bulk Modulus (GPa) = 52.72822 61.60251 57.16536
# Shear Modulus (GPa) = 518.01344 21.78952 269.90148
#
# Velocity S-wave (km/s) = 16.35403 3.35412 11.80475
# Velocity P-wave (km/s) = 19.59158 6.84149 14.67371
#
# Compressibility (1/GPa) = 0.01896518
#
# Stress axis : x y z
#
# Youngs Moduli (GPa) = 43.22939 53.49112 68.80764
#
# Poissons Ratio (x) = 0.22635 0.72132
# Poissons Ratio (y) = 0.18292 0.27406
# Poissons Ratio (z) = 0.45318 0.21305
#
# Static dielectric constant tensor:
#      x y z
#    x 3.518930 0.000000 0.000000 
#    y 0.000000 3.500580 0.000000 
#    z 0.000000 0.000000 3.666450 
# 
# 
# High freq. dielectric constant tensor:
#      x y z
#    x 1.747820 0.000000 0.000000 
#    y 0.000000 1.745840 0.000000 
#    z 0.000000 0.000000 1.767440 
# 
# From -- ./inp_files/21267.got.cif
#   From: 2010.06.25/outbox.cif.g09.slc.cpg/sg58_11_cif.got.tgz:21267.got - 2010.06.26 21:38:00.
