data_PCOD8238434
_publ_section_title
;
Structure prediction by ZEFSAII (Michael W. Deem and Ramdas Pophale) SiO2 
 PCOD8238434
Probable space group: P N N M
;
_chemical_formula_sum "Si O2"
_cell_formula_units_Z 40
_cell_length_a 28.348866
_cell_length_b 9.432094
_cell_length_c 9.056769
_cell_angle_alpha 90.000000
_cell_angle_beta 90.000000
_cell_angle_gamma 90.000000
_cell_volume 2421.681936
_symmetry_space_group_name_H-M "P N N M"
_symmetry_group_IT_number 58
_symmetry_cell_setting 'orthorhombic'
loop_
_space_group_symop_operation_xyz
x,y,z
-x,-y,z
1/2+x,1/2-y,1/2-z
1/2-x,1/2+y,1/2-z
-x,-y,-z
x,y,-z
1/2-x,1/2+y,1/2+z
1/2+x,1/2-y,1/2+z
loop_
_atom_site_type_symbol
_atom_site_label
_atom_site_fract_x
_atom_site_fract_y
_atom_site_fract_z
Si Si1 0.948161 0.024245 0.331900
Si Si2 0.204679 0.336764 0.174274
Si Si3 0.214810 0.659943 0.171235
Si Si4 0.360950 0.642779 0.832296
Si Si5 0.634538 0.628146 0.671214
O O1 0.952914 0.079100 0.500000
O O2 0.918155 0.875996 0.326172
O O3 0.918709 0.142247 0.238734
O O4 0.000000 0.000000 0.262699
O O5 0.212335 0.498112 0.224079
O O6 0.246924 0.239834 0.231499
O O7 0.155651 0.282765 0.246229
O O8 0.200548 0.323684 0.000000
O O9 0.163356 0.728185 0.198660
O O10 0.229281 0.672703 0.000000
O O11 0.338524 0.502187 0.754079
O O12 0.342406 0.648888 0.000000
O O13 0.630696 0.589872 0.500000
#
# Coordination Sequence:
#
# PCOD8238434 Si02
#       5
#     8   8   8   8   8
#     4   8  16  31  52  77 104 132 165 209 254 296
#     4  11  22  34  50  71  98 133 171 207 247 297
#     4  10  22  36  49  70 102 134 167 208 250 297
#     4   9  18  32  50  73 101 129 163 205 249 295
#     4   9  17  31  51  75 101 129 166 206 247 295
#
# _framework density 16.517447000000001
#
# number of rings (size 3 to 8) (size 9 to 14) (size 15 to 20)
#    1.200    1.400    0.000    2.400    0.000    6.800 
#    0.000    0.000    0.000    1.200    0.000    8.400 
#    0.000    0.000    0.000    0.000    0.000    0.000 
#
# Total GULP energy -495600.630555 kJ/mol
# GULP energy per Si atom -12390.015764 kJ/mol
# Density = 1.647985 g / cm^3
# Si number density = 16.517447 Si / 1000 Ang^3
#
#
#
# Elastic Constant Matrix: (Units=GPa)
#
#
# Indices 1 2 3 4 5 6 
#
# 1 106.9294 49.6182 40.6358 0.0000 0.0000 0.0000
# 2 49.6182 110.5935 50.6140 0.0000 0.0000 0.0000
# 3 40.6358 50.6140 87.5605 0.0000 0.0000 0.0000
# 4 0.0000 0.0000 0.0000 20.7739 0.0000 0.0000
# 5 0.0000 0.0000 0.0000 0.0000 24.3556 0.0000
# 6 0.0000 0.0000 0.0000 0.0000 0.0000 22.6455
#
#
#
# Elastic Compliance Matrix: (Units=1/GPa)
#
#
# Indices 1 2 3 4 5 6 
#
# 1 0.012551 -0.004032 -0.003494 0.000000 0.000000 0.000000
# 2 -0.004032 0.013590 -0.005984 0.000000 0.000000 0.000000
# 3 -0.003494 -0.005984 0.016501 0.000000 0.000000 0.000000
# 4 0.000000 0.000000 0.000000 0.048137 0.000000 0.000000
# 5 0.000000 0.000000 0.000000 0.000000 0.041058 0.000000
# 6 0.000000 0.000000 0.000000 0.000000 0.000000 0.044159
#
#
# Mechanical properties :
#
#
# Convention : Reuss Voigt Hill
#
# Bulk Modulus (GPa) = 64.01469 65.20214 64.60841
# Shear Modulus (GPa) = 24.01259 24.50271 24.25765
#
# Velocity S-wave (km/s) = 3.81697 3.85573 3.83640
# Velocity P-wave (km/s) = 7.63319 7.70601 7.66969
#
# Compressibility (1/GPa) = 0.01562141
#
# Stress axis : x y z
#
# Youngs Moduli (GPa) = 79.67713 73.58437 60.60060
#
# Poissons Ratio (x) = 0.29668 0.21174
# Poissons Ratio (y) = 0.32124 0.36266
# Poissons Ratio (z) = 0.27839 0.44036
#
# Static dielectric constant tensor:
#      x y z
#    x 3.077280 0.000000 0.000000 
#    y 0.000000 2.977530 0.000000 
#    z 0.000000 0.000000 3.152170 
# 
# 
# High freq. dielectric constant tensor:
#      x y z
#    x 1.625860 0.000000 0.000000 
#    y 0.000000 1.607980 0.000000 
#    z 0.000000 0.000000 1.647230 
# 
# From -- ./inp_files/2728.got.cif
#   From: 2010.06.25/outbox.cif.g09.slc.cpg/sg58_2_cif.got.tgz:2728.got - 2010.06.26 21:38:00.
