data_PCOD8238555
_publ_section_title
;
Structure prediction by ZEFSAII (Michael W. Deem and Ramdas Pophale) SiO2 
 PCOD8238555
Probable space group: P N N M
;
_chemical_formula_sum "Si O2"
_cell_formula_units_Z 32
_cell_length_a 11.546030
_cell_length_b 8.631078
_cell_length_c 14.676828
_cell_angle_alpha 90.000000
_cell_angle_beta 90.000000
_cell_angle_gamma 90.000000
_cell_volume 1462.614679
_symmetry_space_group_name_H-M "P N N M"
_symmetry_group_IT_number 58
_symmetry_cell_setting 'orthorhombic'
loop_
_space_group_symop_operation_xyz
x,y,z
-x,-y,z
1/2+x,1/2-y,1/2-z
1/2-x,1/2+y,1/2-z
-x,-y,-z
x,y,-z
1/2-x,1/2+y,1/2+z
1/2+x,1/2-y,1/2+z
loop_
_atom_site_type_symbol
_atom_site_label
_atom_site_fract_x
_atom_site_fract_y
_atom_site_fract_z
Si Si1 0.515500 0.682725 0.101343
Si Si2 0.387249 0.394803 0.600819
Si Si3 0.270782 0.695311 0.394877
Si Si4 0.972535 0.677170 0.781299
O O1 0.500000 0.500000 0.106031
O O2 0.644484 0.739162 0.124600
O O3 0.438666 0.756080 0.181237
O O4 0.478620 0.741322 0.000000
O O5 0.500000 0.500000 0.594823
O O6 0.360020 0.323758 0.500000
O O7 0.283767 0.512149 0.632998
O O8 0.413396 0.260719 0.674535
O O9 0.304658 0.710935 0.500000
O O10 0.359881 0.804224 0.342339
O O11 0.000000 0.500000 0.770292
#
# Coordination Sequence:
#
# PCOD8238555 Si02
#       4
#     8   8   8   8
#     4  10  22  41  63  86 119 164 211 259 311 373
#     4   8  15  31  55  81 113 152 195 248 303 357
#     4   9  19  38  62  87 118 160 206 254 312 369
#     4  11  22  33  56  90 125 162 207 257 307 367
#
# _framework density 21.878626000000001
#
# number of rings (size 3 to 8) (size 9 to 14) (size 15 to 20)
#    0.000    2.500    0.000    4.500    0.000    6.500 
#    0.000    0.000    0.000   12.000    0.000    0.000 
#    0.000    0.000    0.000    0.000    0.000    0.000 
#
# Total GULP energy -396579.411884 kJ/mol
# GULP energy per Si atom -12393.106621 kJ/mol
# Density = 2.182883 g / cm^3
# Si number density = 21.878626 Si / 1000 Ang^3
#
#
#
# Elastic Constant Matrix: (Units=GPa)
#
#
# Indices 1 2 3 4 5 6 
#
# 1 48.8269 8.1329 4.3225 0.0000 0.0000 0.0000
# 2 8.1329 100.3584 42.9389 0.0000 0.0000 0.0000
# 3 4.3225 42.9389 119.9770 0.0000 0.0000 0.0000
# 4 0.0000 0.0000 0.0000 1.6211 0.0000 0.0000
# 5 0.0000 0.0000 0.0000 0.0000 14.1420 0.0000
# 6 0.0000 0.0000 0.0000 0.0000 0.0000 41.3071
#
#
#
# Elastic Compliance Matrix: (Units=1/GPa)
#
#
# Indices 1 2 3 4 5 6 
#
# 1 0.020764 -0.001609 -0.000172 0.000000 0.000000 0.000000
# 2 -0.001609 0.011891 -0.004198 0.000000 0.000000 0.000000
# 3 -0.000172 -0.004198 0.009843 0.000000 0.000000 0.000000
# 4 0.000000 0.000000 0.000000 0.616881 0.000000 0.000000
# 5 0.000000 0.000000 0.000000 0.000000 0.070711 0.000000
# 6 0.000000 0.000000 0.000000 0.000000 0.000000 0.024209
#
#
# Mechanical properties :
#
#
# Convention : Reuss Voigt Hill
#
# Bulk Modulus (GPa) = 32.74372 42.21678 37.48025
# Shear Modulus (GPa) = 6.43967 25.66523 16.05245
#
# Velocity S-wave (km/s) = 1.71748 3.42873 2.71164
# Velocity P-wave (km/s) = 4.35104 5.91716 5.19347
#
# Compressibility (1/GPa) = 0.03054021
#
# Stress axis : x y z
#
# Youngs Moduli (GPa) = 48.16080 84.09972 101.59064
#
# Poissons Ratio (x) = 0.13531 0.01750
# Poissons Ratio (y) = 0.07749 0.42644
# Poissons Ratio (z) = 0.00830 0.35302
#
# Static dielectric constant tensor:
#      x y z
#    x 3.942690 0.000000 0.000000 
#    y 0.000000 4.087470 0.000000 
#    z 0.000000 0.000000 4.429420 
# 
# 
# High freq. dielectric constant tensor:
#      x y z
#    x 1.832600 0.000000 0.000000 
#    y 0.000000 1.849420 0.000000 
#    z 0.000000 0.000000 1.880680 
# 
# From -- ./inp_files/19079.got.cif
#   From: 2010.06.25/outbox.cif.g09.slc.cpg/sg58_10_cif.got.tgz:19079.got - 2010.06.26 21:38:00.
