data_PCOD8238173
_publ_section_title
;
Structure prediction by ZEFSAII (Michael W. Deem and Ramdas Pophale) SiO2 
 PCOD8238173
Probable space group: P N N M
;
_chemical_formula_sum "Si O2"
_cell_formula_units_Z 56
_cell_length_a 16.327009
_cell_length_b 19.969260
_cell_length_c 8.924171
_cell_angle_alpha 90.000000
_cell_angle_beta 90.000000
_cell_angle_gamma 90.000000
_cell_volume 2909.621432
_symmetry_space_group_name_H-M "P N N M"
_symmetry_group_IT_number 58
_symmetry_cell_setting 'orthorhombic'
loop_
_space_group_symop_operation_xyz
x,y,z
-x,-y,z
1/2+x,1/2-y,1/2-z
1/2-x,1/2+y,1/2-z
-x,-y,-z
x,y,-z
1/2-x,1/2+y,1/2+z
1/2+x,1/2-y,1/2+z
loop_
_atom_site_type_symbol
_atom_site_label
_atom_site_fract_x
_atom_site_fract_y
_atom_site_fract_z
Si Si1 0.245440 0.526438 0.176381
Si Si2 0.155332 0.140271 0.829516
Si Si3 0.324364 0.791606 0.327044
Si Si4 0.178883 0.888821 0.676253
Si Si5 0.063804 0.557550 0.823208
Si Si6 0.971938 0.175202 0.174637
Si Si7 0.992153 0.687271 0.677270
O O1 0.300858 0.588836 0.221055
O O2 0.284291 0.458065 0.239742
O O3 0.152829 0.534138 0.234872
O O4 0.243288 0.521450 0.000000
O O5 0.191648 0.213626 0.795242
O O6 0.058800 0.139902 0.795796
O O7 0.173225 0.119252 0.000000
O O8 0.349520 0.803199 0.500000
O O9 0.242106 0.829971 0.284413
O O10 0.398285 0.820037 0.228409
O O11 0.160440 0.892059 0.500000
O O12 0.095391 0.875658 0.763846
O O13 0.043487 0.624934 0.736110
O O14 0.000000 0.500000 0.778897
O O15 0.062085 0.572048 0.000000
O O16 0.966344 0.245669 0.259449
O O17 0.958689 0.189458 0.000000
O O18 0.996612 0.689759 0.500000
#
# Coordination Sequence:
#
# PCOD8238173 Si02
#       7
#     8   8   8   8   8   8   8
#     4  10  22  37  57  86 117 153 194 240 291 350
#     4   9  20  38  58  81 113 152 193 241 292 346
#     4   9  19  38  61  83 114 154 194 237 293 352
#     4  10  21  38  60  87 117 151 194 241 294 347
#     4  10  21  39  61  84 118 161 197 235 292 359
#     4  10  22  40  60  84 113 152 198 241 294 351
#     4  11  22  36  58  88 118 150 193 244 294 343
#
# _framework density 19.246490000000001
#
# number of rings (size 3 to 8) (size 9 to 14) (size 15 to 20)
#    0.000    2.143    0.000    3.429    2.000    7.714 
#    0.000    4.286    0.000    0.000    0.000    0.000 
#    0.000    0.000    0.000    0.000    0.000    0.000 
#
# Total GULP energy -694628.954313 kJ/mol
# GULP energy per Si atom -12404.088470 kJ/mol
# Density = 1.920268 g / cm^3
# Si number density = 19.246490 Si / 1000 Ang^3
#
#
#
# Elastic Constant Matrix: (Units=GPa)
#
#
# Indices 1 2 3 4 5 6 
#
# 1 121.5849 78.2614 41.2461 0.0000 0.0000 0.0000
# 2 78.2614 118.3427 37.6363 0.0000 0.0000 0.0000
# 3 41.2461 37.6363 61.8264 0.0000 0.0000 0.0000
# 4 0.0000 0.0000 0.0000 32.2942 0.0000 0.0000
# 5 0.0000 0.0000 0.0000 0.0000 28.9772 0.0000
# 6 0.0000 0.0000 0.0000 0.0000 0.0000 32.0894
#
#
#
# Elastic Compliance Matrix: (Units=1/GPa)
#
#
# Indices 1 2 3 4 5 6 
#
# 1 0.015513 -0.008640 -0.005089 0.000000 0.000000 0.000000
# 2 -0.008640 0.015291 -0.003544 0.000000 0.000000 0.000000
# 3 -0.005089 -0.003544 0.021727 0.000000 0.000000 0.000000
# 4 0.000000 0.000000 0.000000 0.030965 0.000000 0.000000
# 5 0.000000 0.000000 0.000000 0.000000 0.034510 0.000000
# 6 0.000000 0.000000 0.000000 0.000000 0.000000 0.031163
#
#
# Mechanical properties :
#
#
# Convention : Reuss Voigt Hill
#
# Bulk Modulus (GPa) = 55.60679 68.44905 62.02792
# Shear Modulus (GPa) = 26.35593 28.31284 27.33439
#
# Velocity S-wave (km/s) = 3.70454 3.83961 3.77268
# Velocity P-wave (km/s) = 6.87407 7.43629 7.16070
#
# Compressibility (1/GPa) = 0.01798342
#
# Stress axis : x y z
#
# Youngs Moduli (GPa) = 64.46347 65.39785 46.02560
#
# Poissons Ratio (x) = 0.56505 0.23424
# Poissons Ratio (y) = 0.55697 0.16312
# Poissons Ratio (z) = 0.32807 0.23178
#
# Static dielectric constant tensor:
#      x y z
#    x 3.645850 0.000000 0.000000 
#    y 0.000000 3.615960 0.000000 
#    z 0.000000 0.000000 3.374810 
# 
# 
# High freq. dielectric constant tensor:
#      x y z
#    x 1.756390 0.000000 0.000000 
#    y 0.000000 1.755950 0.000000 
#    z 0.000000 0.000000 1.738970 
# 
# From -- ./inp_files/6323.got.cif
#   From: 2010.06.25/outbox.cif.g09.slc.cpg/sg58_4_cif.got.tgz:6323.got - 2010.06.26 21:38:00.
