data_PCOD8238375
_publ_section_title
;
Structure prediction by ZEFSAII (Michael W. Deem and Ramdas Pophale) SiO2 
 PCOD8238375
Probable space group: P N N M
;
_chemical_formula_sum "Si O2"
_cell_formula_units_Z 40
_cell_length_a 10.039300
_cell_length_b 10.203403
_cell_length_c 18.262831
_cell_angle_alpha 90.000000
_cell_angle_beta 90.000000
_cell_angle_gamma 90.000000
_cell_volume 1870.753527
_symmetry_space_group_name_H-M "P N N M"
_symmetry_group_IT_number 58
_symmetry_cell_setting 'orthorhombic'
loop_
_space_group_symop_operation_xyz
x,y,z
-x,-y,z
1/2+x,1/2-y,1/2-z
1/2-x,1/2+y,1/2-z
-x,-y,-z
x,y,-z
1/2-x,1/2+y,1/2+z
1/2+x,1/2-y,1/2+z
loop_
_atom_site_type_symbol
_atom_site_label
_atom_site_fract_x
_atom_site_fract_y
_atom_site_fract_z
Si Si1 0.846164 0.994465 0.720877
Si Si2 0.209666 0.159342 0.417449
Si Si3 0.022454 0.645062 0.584762
Si Si4 0.739843 0.258177 0.319394
Si Si5 0.992257 0.651588 0.916252
O O1 0.775718 0.135024 0.732918
O O2 0.827426 0.961001 0.635095
O O3 0.774237 0.885305 0.769310
O O4 0.000000 0.000000 0.742888
O O5 0.190949 0.105179 0.500000
O O6 0.360242 0.211304 0.406465
O O7 0.115724 0.281643 0.401006
O O8 0.062602 0.639719 0.500000
O O9 0.138650 0.720901 0.625785
O O10 0.000000 0.500000 0.616477
O O11 0.604808 0.232696 0.364018
O O12 0.000000 0.500000 0.892244
O O13 0.942074 0.663670 0.000000
#
# Coordination Sequence:
#
# PCOD8238375 Si02
#       5
#     8   8   8   8   8
#     4  12  28  44  66 103 134 184 228 276 344 399
#     4  10  22  43  71  98 132 169 225 285 336 401
#     4  10  23  44  72 103 135 178 228 286 346 403
#     4  12  27  43  69  97 143 179 229 281 335 413
#     4  10  21  40  69 102 131 168 222 286 345 395
#
# _framework density 21.381758000000001
#
# number of rings (size 3 to 8) (size 9 to 14) (size 15 to 20)
#    0.000    1.200    4.000    0.600    5.600    1.200 
#    0.000    0.000    0.000    6.000    0.000    0.000 
#    0.000    0.000    0.000    0.000    0.000    0.000 
#
# Total GULP energy -496206.017179 kJ/mol
# GULP energy per Si atom -12405.150429 kJ/mol
# Density = 2.133309 g / cm^3
# Si number density = 21.381758 Si / 1000 Ang^3
#
#
#
# Elastic Constant Matrix: (Units=GPa)
#
#
# Indices 1 2 3 4 5 6 
#
# 1 146.1489 57.9932 44.1366 0.0000 0.0000 0.0000
# 2 57.9932 130.4532 46.3628 0.0000 0.0000 0.0000
# 3 44.1366 46.3628 73.6538 0.0000 0.0000 0.0000
# 4 0.0000 0.0000 0.0000 26.0346 0.0000 0.0000
# 5 0.0000 0.0000 0.0000 0.0000 17.9386 0.0000
# 6 0.0000 0.0000 0.0000 0.0000 0.0000 38.4714
#
#
#
# Elastic Compliance Matrix: (Units=1/GPa)
#
#
# Indices 1 2 3 4 5 6 
#
# 1 0.009034 -0.002695 -0.003717 0.000000 0.000000 0.000000
# 2 -0.002695 0.010679 -0.005107 0.000000 0.000000 0.000000
# 3 -0.003717 -0.005107 0.019019 0.000000 0.000000 0.000000
# 4 0.000000 0.000000 0.000000 0.038410 0.000000 0.000000
# 5 0.000000 0.000000 0.000000 0.000000 0.055746 0.000000
# 6 0.000000 0.000000 0.000000 0.000000 0.000000 0.025993
#
#
# Mechanical properties :
#
#
# Convention : Reuss Voigt Hill
#
# Bulk Modulus (GPa) = 63.71986 71.91569 67.81778
# Shear Modulus (GPa) = 26.71630 29.93981 28.32805
#
# Velocity S-wave (km/s) = 3.53865 3.74605 3.64383
# Velocity P-wave (km/s) = 6.82362 7.24001 7.03489
#
# Compressibility (1/GPa) = 0.01569369
#
# Stress axis : x y z
#
# Youngs Moduli (GPa) = 110.68792 93.64449 52.57841
#
# Poissons Ratio (x) = 0.25239 0.19545
# Poissons Ratio (y) = 0.29832 0.26851
# Poissons Ratio (z) = 0.41146 0.47823
#
# Static dielectric constant tensor:
#      x y z
#    x 4.032980 0.000000 0.000000 
#    y 0.000000 3.794920 0.000000 
#    z 0.000000 0.000000 3.840220 
# 
# 
# High freq. dielectric constant tensor:
#      x y z
#    x 1.854650 0.000000 0.000000 
#    y 0.000000 1.833680 0.000000 
#    z 0.000000 0.000000 1.836970 
# 
# From -- ./inp_files/24932.got.cif
#   From: 2010.06.25/outbox.cif.g09.slc.cpg/sg58_13_cif.got.tgz:24932.got - 2010.06.26 21:38:00.
