data_PCOD8238990
_publ_section_title
;
Structure prediction by ZEFSAII (Michael W. Deem and Ramdas Pophale) SiO2 
 PCOD8238990
Probable space group: P N N M
;
_chemical_formula_sum "Si O2"
_cell_formula_units_Z 48
_cell_length_a 16.578284
_cell_length_b 17.979372
_cell_length_c 9.593181
_cell_angle_alpha 90.000000
_cell_angle_beta 90.000000
_cell_angle_gamma 90.000000
_cell_volume 2859.411978
_symmetry_space_group_name_H-M "P N N M"
_symmetry_group_IT_number 58
_symmetry_cell_setting 'orthorhombic'
loop_
_space_group_symop_operation_xyz
x,y,z
-x,-y,z
1/2+x,1/2-y,1/2-z
1/2-x,1/2+y,1/2-z
-x,-y,-z
x,y,-z
1/2-x,1/2+y,1/2+z
1/2+x,1/2-y,1/2+z
loop_
_atom_site_type_symbol
_atom_site_label
_atom_site_fract_x
_atom_site_fract_y
_atom_site_fract_z
Si Si1 0.270652 0.053769 0.339660
Si Si2 0.142439 0.171456 0.334671
Si Si3 0.507786 0.582088 0.165103
Si Si4 0.812756 0.100888 0.658843
Si Si5 0.822790 0.664523 0.662606
Si Si6 0.408358 0.986432 0.162835
O O1 0.298378 0.061625 0.500000
O O2 0.222924 0.127093 0.286507
O O3 0.350393 0.042300 0.246842
O O4 0.208656 0.985702 0.321745
O O5 0.138071 0.166610 0.500000
O O6 0.142865 0.256765 0.284195
O O7 0.061792 0.134504 0.270303
O O8 0.500000 0.500000 0.230678
O O9 0.595050 0.615077 0.203032
O O10 0.497358 0.576587 0.000000
O O11 0.797000 0.125342 0.500000
O O12 0.760564 0.152267 0.758513
O O13 0.802718 0.666766 0.500000
O O14 0.886500 0.599275 0.697556
O O15 0.500000 0.000000 0.210739
O O16 0.397066 0.003971 0.000000
#
# Coordination Sequence:
#
# PCOD8238990 Si02
#       6
#     8   8   8   8   8   8
#     4   9  16  28  49  71  90 115 151 191 230 272
#     4   9  16  28  46  69  95 122 153 188 231 278
#     4   9  14  24  46  74  96 114 146 192 232 268
#     4   9  16  28  48  72  92 115 149 189 228 268
#     4   9  18  32  48  64  92 129 155 184 229 276
#     4   9  18  33  49  66  91 124 161 192 221 268
#
# _framework density 16.786667000000001
#
# number of rings (size 3 to 8) (size 9 to 14) (size 15 to 20)
#    0.000    3.000    1.667    0.000    0.000    0.333 
#    3.000    0.833    0.000    2.500    0.000    0.000 
#    0.000    0.000    0.000    0.000    0.000    0.000 
#
# Total GULP energy -595056.971090 kJ/mol
# GULP energy per Si atom -12397.020231 kJ/mol
# Density = 1.674846 g / cm^3
# Si number density = 16.786667 Si / 1000 Ang^3
#
#
#
# Elastic Constant Matrix: (Units=GPa)
#
#
# Indices 1 2 3 4 5 6 
#
# 1 147.5642 76.9501 42.6430 0.0000 0.0000 0.0000
# 2 76.9501 113.0351 29.9818 0.0000 0.0000 0.0000
# 3 42.6430 29.9818 33.5148 0.0000 0.0000 0.0000
# 4 0.0000 0.0000 0.0000 16.8122 0.0000 0.0000
# 5 0.0000 0.0000 0.0000 0.0000 21.2020 0.0000
# 6 0.0000 0.0000 0.0000 0.0000 0.0000 23.3327
#
#
#
# Elastic Compliance Matrix: (Units=1/GPa)
#
#
# Indices 1 2 3 4 5 6 
#
# 1 0.013185 -0.005934 -0.011468 0.000000 0.000000 0.000000
# 2 -0.005934 0.014270 -0.005215 0.000000 0.000000 0.000000
# 3 -0.011468 -0.005215 0.049094 0.000000 0.000000 0.000000
# 4 0.000000 0.000000 0.000000 0.059480 0.000000 0.000000
# 5 0.000000 0.000000 0.000000 0.000000 0.047165 0.000000
# 6 0.000000 0.000000 0.000000 0.000000 0.000000 0.042858
#
#
# Mechanical properties :
#
#
# Convention : Reuss Voigt Hill
#
# Bulk Modulus (GPa) = 31.93354 65.91818 48.92586
# Shear Modulus (GPa) = 17.74778 21.90534 19.82656
#
# Velocity S-wave (km/s) = 3.25507 3.61629 3.44043
# Velocity P-wave (km/s) = 5.76123 7.53593 6.70753
#
# Compressibility (1/GPa) = 0.03131504
#
# Stress axis : x y z
#
# Youngs Moduli (GPa) = 75.84302 70.07765 20.36912
#
# Poissons Ratio (x) = 0.41586 0.23359
# Poissons Ratio (y) = 0.45007 0.10623
# Poissons Ratio (z) = 0.86974 0.36546
#
# Static dielectric constant tensor:
#      x y z
#    x 3.247810 0.000000 0.000000 
#    y 0.000000 3.238500 0.000000 
#    z 0.000000 0.000000 2.828240 
# 
# 
# High freq. dielectric constant tensor:
#      x y z
#    x 1.651530 0.000000 0.000000 
#    y 0.000000 1.640160 0.000000 
#    z 0.000000 0.000000 1.607980 
# 
# From -- ./inp_files/7846.got.cif
#   From: 2010.06.25/outbox.cif.g09.slc.cpg/sg58_4_cif.got.tgz:7846.got - 2010.06.26 21:38:00.
