data_PCOD8238760
_publ_section_title
;
Structure prediction by ZEFSAII (Michael W. Deem and Ramdas Pophale) SiO2 
 PCOD8238760
Probable space group: P N N M
;
_chemical_formula_sum "Si O2"
_cell_formula_units_Z 40
_cell_length_a 19.371434
_cell_length_b 5.039557
_cell_length_c 24.645090
_cell_angle_alpha 90.000000
_cell_angle_beta 90.000000
_cell_angle_gamma 90.000000
_cell_volume 2405.938608
_symmetry_space_group_name_H-M "P N N M"
_symmetry_group_IT_number 58
_symmetry_cell_setting 'orthorhombic'
loop_
_space_group_symop_operation_xyz
x,y,z
-x,-y,z
1/2+x,1/2-y,1/2-z
1/2-x,1/2+y,1/2-z
-x,-y,-z
x,y,-z
1/2-x,1/2+y,1/2+z
1/2+x,1/2-y,1/2+z
loop_
_atom_site_type_symbol
_atom_site_label
_atom_site_fract_x
_atom_site_fract_y
_atom_site_fract_z
Si Si1 0.130819 0.338800 0.886003
Si Si2 0.427901 0.370515 0.562247
Si Si3 0.238893 0.897193 0.321831
Si Si4 0.546348 0.244735 0.282291
Si Si5 0.670317 0.107173 0.785967
O O1 0.092617 0.611237 0.903131
O O2 0.211720 0.385508 0.874445
O O3 0.096313 0.201748 0.833150
O O4 0.127208 0.109884 0.931868
O O5 0.500000 0.500000 0.583180
O O6 0.433452 0.279493 0.500000
O O7 0.286018 0.896653 0.268846
O O8 0.181837 0.664878 0.318695
O O9 0.196223 0.166403 0.326517
O O10 0.500000 0.500000 0.268751
O O11 0.590651 0.162074 0.229167
O O12 0.500000 0.000000 0.299328
#
# Coordination Sequence:
#
# PCOD8238760 Si02
#       5
#     8   8   8   8   8
#     4  11  20  32  48  64  83 113 158 195 222 259
#     4  11  22  34  46  62  87 117 150 192 238 271
#     4   9  17  29  45  61  80 109 144 185 219 253
#     4  11  20  29  44  65  89 117 149 184 218 255
#     4   9  17  29  42  61  86 109 140 179 219 257
#
# _framework density 16.625527000000002
#
# number of rings (size 3 to 8) (size 9 to 14) (size 15 to 20)
#    0.000    1.800    0.000    6.600    0.000    8.000 
#    0.000    0.000    0.000    0.000    0.000    0.000 
#    0.000    0.000    0.000    0.000    0.000  252.000 
#
# Total GULP energy -495858.484862 kJ/mol
# GULP energy per Si atom -12396.462122 kJ/mol
# Density = 1.658769 g / cm^3
# Si number density = 16.625527 Si / 1000 Ang^3
#
#
#
# Elastic Constant Matrix: (Units=GPa)
#
#
# Indices 1 2 3 4 5 6 
#
# 1 40.8162 5.2600 19.6762 0.0000 0.0000 0.0000
# 2 5.2600 86.4203 9.8445 0.0000 0.0000 0.0000
# 3 19.6762 9.8445 35.1593 0.0000 0.0000 0.0000
# 4 0.0000 0.0000 0.0000 22.7759 0.0000 0.0000
# 5 0.0000 0.0000 0.0000 0.0000 24.5085 0.0000
# 6 0.0000 0.0000 0.0000 0.0000 0.0000 27.6255
#
#
#
# Elastic Compliance Matrix: (Units=1/GPa)
#
#
# Indices 1 2 3 4 5 6 
#
# 1 0.033552 0.000100 -0.018805 0.000000 0.000000 0.000000
# 2 0.000100 0.011953 -0.003403 0.000000 0.000000 0.000000
# 3 -0.018805 -0.003403 0.039918 0.000000 0.000000 0.000000
# 4 0.000000 0.000000 0.000000 0.043906 0.000000 0.000000
# 5 0.000000 0.000000 0.000000 0.000000 0.040802 0.000000
# 6 0.000000 0.000000 0.000000 0.000000 0.000000 0.036198
#
#
# Mechanical properties :
#
#
# Convention : Reuss Voigt Hill
#
# Bulk Modulus (GPa) = 24.26687 25.77305 25.01996
# Shear Modulus (GPa) = 18.91918 23.48965 21.20442
#
# Velocity S-wave (km/s) = 3.37703 3.76289 3.57517
# Velocity P-wave (km/s) = 5.46201 5.86642 5.66782
#
# Compressibility (1/GPa) = 0.04120844
#
# Stress axis : x y z
#
# Youngs Moduli (GPa) = 29.80410 83.66174 25.05105
#
# Poissons Ratio (x) = -0.00836 0.47108
# Poissons Ratio (y) = -0.00298 0.08524
# Poissons Ratio (z) = 0.56046 0.28468
#
# Static dielectric constant tensor:
#      x y z
#    x 3.153150 0.000000 0.000000 
#    y 0.000000 3.209760 0.000000 
#    z 0.000000 0.000000 2.776950 
# 
# 
# High freq. dielectric constant tensor:
#      x y z
#    x 1.619120 0.000000 0.000000 
#    y 0.000000 1.665570 0.000000 
#    z 0.000000 0.000000 1.585070 
# 
# From -- ./inp_files/30182.got.cif
#   From: 2010.06.25/outbox.cif.g09.slc.cpg/sg58_16_cif.got.tgz:30182.got - 2010.06.26 21:38:00.
