data_PCOD8238345
_publ_section_title
;
Structure prediction by ZEFSAII (Michael W. Deem and Ramdas Pophale) SiO2 
 PCOD8238345
Probable space group: P N N M
;
_chemical_formula_sum "Si O2"
_cell_formula_units_Z 48
_cell_length_a 6.929786
_cell_length_b 14.087523
_cell_length_c 24.830315
_cell_angle_alpha 90.000000
_cell_angle_beta 90.000000
_cell_angle_gamma 90.000000
_cell_volume 2424.022745
_symmetry_space_group_name_H-M "P N N M"
_symmetry_group_IT_number 58
_symmetry_cell_setting 'orthorhombic'
loop_
_space_group_symop_operation_xyz
x,y,z
-x,-y,z
1/2+x,1/2-y,1/2-z
1/2-x,1/2+y,1/2-z
-x,-y,-z
x,y,-z
1/2-x,1/2+y,1/2+z
1/2+x,1/2-y,1/2+z
loop_
_atom_site_type_symbol
_atom_site_label
_atom_site_fract_x
_atom_site_fract_y
_atom_site_fract_z
Si Si1 0.926724 0.749585 0.124256
Si Si2 0.500000 0.000000 0.872825
Si Si3 0.582151 0.820544 0.804344
Si Si4 0.000000 0.000000 0.363526
Si Si5 0.230558 0.165689 0.304923
Si Si6 0.156879 0.073817 0.942052
Si Si7 0.670035 0.071498 0.437564
O O1 0.744544 0.760957 0.163791
O O2 0.951673 0.849889 0.095259
O O3 0.892012 0.677888 0.075132
O O4 0.117447 0.713078 0.154288
O O5 0.479850 0.905190 0.837054
O O6 0.682053 0.984232 0.910388
O O7 0.666083 0.867015 0.749948
O O8 0.420788 0.745511 0.788283
O O9 0.142522 0.943667 0.401858
O O10 0.876581 0.926850 0.327842
O O11 0.235617 0.115251 0.000000
O O12 0.000000 0.000000 0.958744
O O13 0.723062 0.059713 0.500000
O O14 0.500000 0.000000 0.420543
#
# Coordination Sequence:
#
# PCOD8238345 Si02
#       7
#     8   4   8   4   8   8   8
#     4  11  22  41  65  91 124 167 209 259 318 377
#     4  10  23  40  62  90 122 162 205 260 312 370
#     4  11  24  41  63  91 125 166 213 262 316 377
#     4  12  25  42  66  96 128 170 215 262 318 380
#     4  12  24  41  65  92 128 168 213 260 317 379
#     4  10  21  40  64  92 123 159 204 256 314 375
#     4  11  23  41  64  93 129 166 209 261 316 379
#
# _framework density 19.801794000000001
#
# number of rings (size 3 to 8) (size 9 to 14) (size 15 to 20)
#    0.000    1.000    5.000    2.000    0.000    2.667 
#    6.000    0.000    0.000    0.000    0.000    0.000 
#    0.000    0.000    0.000    0.000    0.000    0.000 
#
# Total GULP energy -594981.541584 kJ/mol
# GULP energy per Si atom -12395.448783 kJ/mol
# Density = 1.975672 g / cm^3
# Si number density = 19.801794 Si / 1000 Ang^3
#
#
#
# Elastic Constant Matrix: (Units=GPa)
#
#
# Indices 1 2 3 4 5 6 
#
# 1 89.2027 55.4683 53.9171 0.0000 0.0000 0.0000
# 2 55.4683 102.0766 50.6350 0.0000 0.0000 0.0000
# 3 53.9171 50.6350 135.0578 0.0000 0.0000 0.0000
# 4 0.0000 0.0000 0.0000 30.7377 0.0000 0.0000
# 5 0.0000 0.0000 0.0000 0.0000 37.9382 0.0000
# 6 0.0000 0.0000 0.0000 0.0000 0.0000 40.7730
#
#
#
# Elastic Compliance Matrix: (Units=1/GPa)
#
#
# Indices 1 2 3 4 5 6 
#
# 1 0.018968 -0.008048 -0.004555 0.000000 0.000000 0.000000
# 2 -0.008048 0.015449 -0.002579 0.000000 0.000000 0.000000
# 3 -0.004555 -0.002579 0.010190 0.000000 0.000000 0.000000
# 4 0.000000 0.000000 0.000000 0.032533 0.000000 0.000000
# 5 0.000000 0.000000 0.000000 0.000000 0.026359 0.000000
# 6 0.000000 0.000000 0.000000 0.000000 0.000000 0.024526
#
#
# Mechanical properties :
#
#
# Convention : Reuss Voigt Hill
#
# Bulk Modulus (GPa) = 70.21180 71.81975 71.01577
# Shear Modulus (GPa) = 30.64925 32.97758 31.81342
#
# Velocity S-wave (km/s) = 3.93848 4.08534 4.01258
# Velocity P-wave (km/s) = 7.49776 7.65515 7.57687
#
# Compressibility (1/GPa) = 0.01424262
#
# Stress axis : x y z
#
# Youngs Moduli (GPa) = 52.72093 64.72884 98.13792
#
# Poissons Ratio (x) = 0.52091 0.44703
# Poissons Ratio (y) = 0.42427 0.25313
# Poissons Ratio (z) = 0.24015 0.16696
#
# Static dielectric constant tensor:
#      x y z
#    x 3.837260 0.000000 0.000000 
#    y 0.000000 3.658360 0.000000 
#    z 0.000000 0.000000 3.671950 
# 
# 
# High freq. dielectric constant tensor:
#      x y z
#    x 1.775220 0.000000 0.000000 
#    y 0.000000 1.776770 0.000000 
#    z 0.000000 0.000000 1.790090 
# 
# From -- ./inp_files/32862.got.cif
#   From: 2010.06.25/outbox.cif.g09.slc.cpg/sg58_17_cif.got.tgz:32862.got - 2010.06.26 21:38:00.
