data_PCOD8238835
_publ_section_title
;
Structure prediction by ZEFSAII (Michael W. Deem and Ramdas Pophale) SiO2 
 PCOD8238835
Probable space group: P N N M
;
_chemical_formula_sum "Si O2"
_cell_formula_units_Z 48
_cell_length_a 18.593381
_cell_length_b 15.213905
_cell_length_c 8.888856
_cell_angle_alpha 90.000000
_cell_angle_beta 90.000000
_cell_angle_gamma 90.000000
_cell_volume 2514.461205
_symmetry_space_group_name_H-M "P N N M"
_symmetry_group_IT_number 58
_symmetry_cell_setting 'orthorhombic'
loop_
_space_group_symop_operation_xyz
x,y,z
-x,-y,z
1/2+x,1/2-y,1/2-z
1/2-x,1/2+y,1/2-z
-x,-y,-z
x,y,-z
1/2-x,1/2+y,1/2+z
1/2+x,1/2-y,1/2+z
loop_
_atom_site_type_symbol
_atom_site_label
_atom_site_fract_x
_atom_site_fract_y
_atom_site_fract_z
Si Si1 0.681810 0.108748 0.173214
Si Si2 0.656925 0.410874 0.321457
Si Si3 0.923498 0.740496 0.822938
Si Si4 0.574572 0.765883 0.822059
Si Si5 0.184250 0.590000 0.322268
Si Si6 0.150008 0.893412 0.173932
O O1 0.638535 0.171852 0.283148
O O2 0.766053 0.125529 0.199808
O O3 0.660949 0.009175 0.218105
O O4 0.661336 0.127569 0.000000
O O5 0.664099 0.410743 0.500000
O O6 0.600977 0.337294 0.266133
O O7 0.736404 0.390391 0.254459
O O8 0.630981 0.507698 0.271054
O O9 0.996085 0.713653 0.740698
O O10 0.936409 0.739974 0.000000
O O11 0.627512 0.840675 0.754419
O O12 0.601791 0.670598 0.772951
O O13 0.571245 0.770351 0.000000
O O14 0.187245 0.601093 0.500000
O O15 0.129107 0.880289 0.000000
#
# Coordination Sequence:
#
# PCOD8238835 Si02
#       6
#     8   8   8   8   8   8
#     4   9  18  35  58  80 101 129 170 217 261 307
#     4   8  16  33  56  77  98 132 175 212 252 311
#     4  11  22  35  52  76 108 142 176 213 256 307
#     4  11  22  35  52  76 108 142 176 213 256 307
#     4   8  16  33  56  77  98 132 175 212 252 311
#     4   9  18  35  58  80 101 129 170 217 261 307
#
# _framework density 19.089576000000001
#
# number of rings (size 3 to 8) (size 9 to 14) (size 15 to 20)
#    0.000    2.667    0.000    4.000    0.000    3.333 
#    0.000   10.000    0.000    4.000    0.000    0.000 
#    0.000    0.000    0.000    0.000    0.000    0.000 
#
# Total GULP energy -595139.465811 kJ/mol
# GULP energy per Si atom -12398.738871 kJ/mol
# Density = 1.904613 g / cm^3
# Si number density = 19.089576 Si / 1000 Ang^3
#
#
#
# Elastic Constant Matrix: (Units=GPa)
#
#
# Indices 1 2 3 4 5 6 
#
# 1 47.7533 15.6585 19.2466 0.0000 0.0000 0.0000
# 2 15.6585 74.1910 17.9780 0.0000 0.0000 0.0000
# 3 19.2466 17.9780 42.8471 0.0000 0.0000 0.0000
# 4 0.0000 0.0000 0.0000 26.8451 0.0000 0.0000
# 5 0.0000 0.0000 0.0000 0.0000 19.2409 0.0000
# 6 0.0000 0.0000 0.0000 0.0000 0.0000 18.1825
#
#
#
# Elastic Compliance Matrix: (Units=1/GPa)
#
#
# Indices 1 2 3 4 5 6 
#
# 1 0.026147 -0.002975 -0.010497 0.000000 0.000000 0.000000
# 2 -0.002975 0.015343 -0.005101 0.000000 0.000000 0.000000
# 3 -0.010497 -0.005101 0.030194 0.000000 0.000000 0.000000
# 4 0.000000 0.000000 0.000000 0.037251 0.000000 0.000000
# 5 0.000000 0.000000 0.000000 0.000000 0.051973 0.000000
# 6 0.000000 0.000000 0.000000 0.000000 0.000000 0.054998
#
#
# Mechanical properties :
#
#
# Convention : Reuss Voigt Hill
#
# Bulk Modulus (GPa) = 28.95353 30.06195 29.50774
# Shear Modulus (GPa) = 18.89901 20.31426 19.60663
#
# Velocity S-wave (km/s) = 3.14987 3.26568 3.20829
# Velocity P-wave (km/s) = 5.33189 5.47737 5.40512
#
# Compressibility (1/GPa) = 0.03453811
#
# Stress axis : x y z
#
# Youngs Moduli (GPa) = 38.24510 65.17741 33.11885
#
# Poissons Ratio (x) = 0.19390 0.34764
# Poissons Ratio (y) = 0.11378 0.16895
# Poissons Ratio (z) = 0.40145 0.33249
#
# Static dielectric constant tensor:
#      x y z
#    x 3.621360 0.000000 0.000000 
#    y 0.000000 3.744780 0.000000 
#    z 0.000000 0.000000 3.099380 
# 
# 
# High freq. dielectric constant tensor:
#      x y z
#    x 1.742090 0.000000 0.000000 
#    y 0.000000 1.754760 0.000000 
#    z 0.000000 0.000000 1.706960 
# 
# From -- ./inp_files/5750.got.cif
#   From: 2010.06.25/outbox.cif.g09.slc.cpg/sg58_3_cif.got.tgz:5750.got - 2010.06.26 21:38:00.
