data_PCOD8238818
_publ_section_title
;
Structure prediction by ZEFSAII (Michael W. Deem and Ramdas Pophale) SiO2 
 PCOD8238818
Probable space group: P N N M
;
_chemical_formula_sum "Si O2"
_cell_formula_units_Z 48
_cell_length_a 10.304168
_cell_length_b 28.317450
_cell_length_c 8.337750
_cell_angle_alpha 90.000000
_cell_angle_beta 90.000000
_cell_angle_gamma 90.000000
_cell_volume 2432.853414
_symmetry_space_group_name_H-M "P N N M"
_symmetry_group_IT_number 58
_symmetry_cell_setting 'orthorhombic'
loop_
_space_group_symop_operation_xyz
x,y,z
-x,-y,z
1/2+x,1/2-y,1/2-z
1/2-x,1/2+y,1/2-z
-x,-y,-z
x,y,-z
1/2-x,1/2+y,1/2+z
1/2+x,1/2-y,1/2+z
loop_
_atom_site_type_symbol
_atom_site_label
_atom_site_fract_x
_atom_site_fract_y
_atom_site_fract_z
Si Si1 0.852928 0.445498 0.310019
Si Si2 0.760503 0.144691 0.190323
Si Si3 0.488442 0.698498 0.313854
Si Si4 0.647655 0.049607 0.190083
Si Si5 0.256184 0.148881 0.683549
Si Si6 0.993840 0.698493 0.313809
O O1 0.839246 0.438627 0.500000
O O2 0.804837 0.497701 0.253631
O O3 0.766048 0.406638 0.222052
O O4 0.001447 0.439405 0.252694
O O5 0.741651 0.091009 0.256292
O O6 0.641552 0.177086 0.249805
O O7 0.895304 0.165780 0.254654
O O8 0.762975 0.143661 0.000000
O O9 0.509898 0.711149 0.500000
O O10 0.353852 0.671257 0.294887
O O11 0.488981 0.745731 0.210282
O O12 0.644889 0.049340 0.000000
O O13 0.215724 0.155922 0.500000
O O14 0.390847 0.175300 0.714259
O O15 0.015404 0.686332 0.500000
#
# Coordination Sequence:
#
# PCOD8238818 Si02
#       6
#     8   8   8   8   8   8
#     4   9  16  31  59  86 108 139 184 238 289 336
#     4   9  18  34  58  85 110 139 181 234 288 341
#     4  11  23  38  57  83 116 151 188 232 287 343
#     4   8  14  29  57  88 109 134 181 237 291 344
#     4  12  24  38  55  81 118 157 194 229 272 333
#     4  11  21  38  63  86 111 144 188 240 290 340
#
# _framework density 19.729918000000001
#
# number of rings (size 3 to 8) (size 9 to 14) (size 15 to 20)
#    0.000    2.000    1.667    4.500    0.000    1.333 
#    0.000    5.000    0.000    5.000    0.000    0.000 
#    0.000    0.000    0.000    0.000    0.000    0.000 
#
# Total GULP energy -595169.772135 kJ/mol
# GULP energy per Si atom -12399.370253 kJ/mol
# Density = 1.968501 g / cm^3
# Si number density = 19.729918 Si / 1000 Ang^3
#
#
#
# Elastic Constant Matrix: (Units=GPa)
#
#
# Indices 1 2 3 4 5 6 
#
# 1 92.6921 48.0425 8.4052 0.0000 0.0000 0.0000
# 2 48.0425 157.5573 8.0258 0.0000 0.0000 0.0000
# 3 8.4052 8.0258 38.1749 0.0000 0.0000 0.0000
# 4 0.0000 0.0000 0.0000 27.8969 0.0000 0.0000
# 5 0.0000 0.0000 0.0000 0.0000 15.8153 0.0000
# 6 0.0000 0.0000 0.0000 0.0000 0.0000 6.7828
#
#
#
# Elastic Compliance Matrix: (Units=1/GPa)
#
#
# Indices 1 2 3 4 5 6 
#
# 1 0.012970 -0.003850 -0.002046 0.000000 0.000000 0.000000
# 2 -0.003850 0.007559 -0.000741 0.000000 0.000000 0.000000
# 3 -0.002046 -0.000741 0.026802 0.000000 0.000000 0.000000
# 4 0.000000 0.000000 0.000000 0.035846 0.000000 0.000000
# 5 0.000000 0.000000 0.000000 0.000000 0.063230 0.000000
# 6 0.000000 0.000000 0.000000 0.000000 0.000000 0.147432
#
#
# Mechanical properties :
#
#
# Convention : Reuss Voigt Hill
#
# Bulk Modulus (GPa) = 29.36498 46.37458 37.86978
# Shear Modulus (GPa) = 15.70029 25.02904 20.36466
#
# Velocity S-wave (km/s) = 2.82398 3.56558 3.21623
# Velocity P-wave (km/s) = 5.05460 6.36450 5.74699
#
# Compressibility (1/GPa) = 0.03405417
#
# Stress axis : x y z
#
# Youngs Moduli (GPa) = 77.10299 132.29687 37.31120
#
# Poissons Ratio (x) = 0.50941 0.07634
# Poissons Ratio (y) = 0.29688 0.02766
# Poissons Ratio (z) = 0.15776 0.09808
#
# Static dielectric constant tensor:
#      x y z
#    x 3.559500 0.000000 0.000000 
#    y 0.000000 4.033440 0.000000 
#    z 0.000000 0.000000 3.172100 
# 
# 
# High freq. dielectric constant tensor:
#      x y z
#    x 1.751230 0.000000 0.000000 
#    y 0.000000 1.789870 0.000000 
#    z 0.000000 0.000000 1.736770 
# 
# From -- ./inp_files/2939.got.cif
#   From: 2010.06.25/outbox.cif.g09.slc.cpg/sg58_2_cif.got.tgz:2939.got - 2010.06.26 21:38:00.
