data_PCOD8238908
_publ_section_title
;
Structure prediction by ZEFSAII (Michael W. Deem and Ramdas Pophale) SiO2 
 PCOD8238908
Probable space group: P N N M
;
_chemical_formula_sum "Si O2"
_cell_formula_units_Z 28
_cell_length_a 19.208870
_cell_length_b 5.181270
_cell_length_c 11.423963
_cell_angle_alpha 90.000000
_cell_angle_beta 90.000000
_cell_angle_gamma 90.000000
_cell_volume 1136.985247
_symmetry_space_group_name_H-M "P N N M"
_symmetry_group_IT_number 58
_symmetry_cell_setting 'orthorhombic'
loop_
_space_group_symop_operation_xyz
x,y,z
-x,-y,z
1/2+x,1/2-y,1/2-z
1/2-x,1/2+y,1/2-z
-x,-y,-z
x,y,-z
1/2-x,1/2+y,1/2+z
1/2+x,1/2-y,1/2+z
loop_
_atom_site_type_symbol
_atom_site_label
_atom_site_fract_x
_atom_site_fract_y
_atom_site_fract_z
Si Si1 0.427018 0.651128 0.364549
Si Si2 0.341893 0.716367 0.000000
Si Si3 0.069032 0.719738 0.500000
Si Si4 0.000000 0.500000 0.295567
Si Si5 0.210957 0.063821 0.263931
O O1 0.500000 0.500000 0.351570
O O2 0.412120 0.717015 0.500000
O O3 0.360029 0.507967 0.309184
O O4 0.436567 0.912287 0.288903
O O5 0.374977 0.435646 0.000000
O O6 0.296735 0.729566 0.883397
O O7 0.399257 0.934555 0.000000
O O8 0.023729 0.736780 0.619529
O O9 0.258577 0.281952 0.199919
#
# Coordination Sequence:
#
# PCOD8238908 Si02
#       5
#     8   4   4   4   8
#     4  11  26  47  76 108 150 198 256 309 378 447
#     4  12  24  49  70 104 141 195 241 297 371 437
#     4  11  24  40  78 106 144 180 245 303 368 444
#     4  11  23  42  70 110 143 187 236 310 370 435
#     4  12  29  49  75 108 151 198 250 308 374 449
#
# _framework density 24.626531
#
# number of rings (size 3 to 8) (size 9 to 14) (size 15 to 20)
#    0.000    0.571    2.857    3.857    8.000    1.143 
#    0.000    0.000    0.000    0.000    0.000    0.000 
#    0.000    0.000    0.000    0.000    0.000    0.000 
#
# Total GULP energy -346977.729986 kJ/mol
# GULP energy per Si atom -12392.061785 kJ/mol
# Density = 2.457048 g / cm^3
# Si number density = 24.626531 Si / 1000 Ang^3
#
#
#
# Elastic Constant Matrix: (Units=GPa)
#
#
# Indices 1 2 3 4 5 6 
#
# 1 113.5885 33.7597 22.3163 0.0000 0.0000 0.0000
# 2 33.7597 82.9126 9.4703 0.0000 0.0000 0.0000
# 3 22.3163 9.4703 137.1514 0.0000 0.0000 0.0000
# 4 0.0000 0.0000 0.0000 21.5456 0.0000 0.0000
# 5 0.0000 0.0000 0.0000 0.0000 32.7449 0.0000
# 6 0.0000 0.0000 0.0000 0.0000 0.0000 46.2818
#
#
#
# Elastic Compliance Matrix: (Units=1/GPa)
#
#
# Indices 1 2 3 4 5 6 
#
# 1 0.010273 -0.004024 -0.001394 0.000000 0.000000 0.000000
# 2 -0.004024 0.013733 -0.000294 0.000000 0.000000 0.000000
# 3 -0.001394 -0.000294 0.007538 0.000000 0.000000 0.000000
# 4 0.000000 0.000000 0.000000 0.046413 0.000000 0.000000
# 5 0.000000 0.000000 0.000000 0.000000 0.030539 0.000000
# 6 0.000000 0.000000 0.000000 0.000000 0.000000 0.021607
#
#
# Mechanical properties :
#
#
# Convention : Reuss Voigt Hill
#
# Bulk Modulus (GPa) = 49.69627 51.63834 50.66730
# Shear Modulus (GPa) = 33.73057 37.98820 35.85939
#
# Velocity S-wave (km/s) = 3.70494 3.93182 3.82006
# Velocity P-wave (km/s) = 6.20692 6.45185 6.33057
#
# Compressibility (1/GPa) = 0.02012224
#
# Stress axis : x y z
#
# Youngs Moduli (GPa) = 97.33797 72.81816 132.65646
#
# Poissons Ratio (x) = 0.29301 0.18489
# Poissons Ratio (y) = 0.39168 0.03894
# Poissons Ratio (z) = 0.13567 0.02137
#
# Static dielectric constant tensor:
#      x y z
#    x 4.442500 0.000000 0.000000 
#    y 0.000000 4.108370 0.000000 
#    z 0.000000 0.000000 4.893010 
# 
# 
# High freq. dielectric constant tensor:
#      x y z
#    x 1.976790 0.000000 0.000000 
#    y 0.000000 1.972380 0.000000 
#    z 0.000000 0.000000 2.000190 
# 
# From -- ./inp_files/11484.got.cif
#   From: 2010.06.25/outbox.cif.g09.slc.cpg/sg58_6_cif.got.tgz:11484.got - 2010.06.26 21:38:00.
