data_PCOD8238862
_publ_section_title
;
Structure prediction by ZEFSAII (Michael W. Deem and Ramdas Pophale) SiO2 
 PCOD8238862
Probable space group: P N N M
;
_chemical_formula_sum "Si O2"
_cell_formula_units_Z 48
_cell_length_a 18.165905
_cell_length_b 18.615048
_cell_length_c 7.409697
_cell_angle_alpha 90.000000
_cell_angle_beta 90.000000
_cell_angle_gamma 90.000000
_cell_volume 2505.657162
_symmetry_space_group_name_H-M "P N N M"
_symmetry_group_IT_number 58
_symmetry_cell_setting 'orthorhombic'
loop_
_space_group_symop_operation_xyz
x,y,z
-x,-y,z
1/2+x,1/2-y,1/2-z
1/2-x,1/2+y,1/2-z
-x,-y,-z
x,y,-z
1/2-x,1/2+y,1/2+z
1/2+x,1/2-y,1/2+z
loop_
_atom_site_type_symbol
_atom_site_label
_atom_site_fract_x
_atom_site_fract_y
_atom_site_fract_z
Si Si1 0.880123 0.281500 0.500000
Si Si2 0.620915 0.179715 0.204662
Si Si3 0.166964 0.556571 0.500000
Si Si4 0.920220 0.523025 0.205674
Si Si5 0.545627 0.429328 0.209209
Si Si6 0.512407 0.722363 0.290700
Si Si7 0.834783 0.903594 0.000000
Si Si8 0.785559 0.742149 0.000000
O O1 0.873347 0.367043 0.500000
O O2 0.920417 0.256013 0.319378
O O3 0.801098 0.245726 0.500000
O O4 0.582948 0.108433 0.279389
O O5 0.562935 0.243817 0.219412
O O6 0.692304 0.198187 0.321869
O O7 0.647310 0.169682 0.000000
O O8 0.143541 0.513745 0.321739
O O9 0.254995 0.560149 0.500000
O O10 0.000000 0.500000 0.279915
O O11 0.909526 0.497761 0.000000
O O12 0.500000 0.500000 0.260411
O O13 0.492764 0.362728 0.258256
O O14 0.621043 0.427596 0.322270
O O15 0.568138 0.428514 0.000000
O O16 0.525407 0.740042 0.500000
O O17 0.827251 0.817965 0.000000
#
# Coordination Sequence:
#
# PCOD8238862 Si02
#       8
#     4   8   4   8   8   8   4   4
#     4  11  26  43  64  94 135 163 209 276 320 370
#     4  12  21  38  69  92 125 171 214 256 312 386
#     4  11  25  43  61  94 137 170 206 260 334 378
#     4  11  23  40  64  96 126 165 215 261 310 378
#     4  11  22  40  66  96 122 161 218 268 315 371
#     4  12  22  40  68  98 123 168 218 263 318 379
#     4  11  23  43  65  90 129 172 211 257 319 393
#     4  11  24  43  60  96 131 163 211 267 315 385
#
# _framework density 19.156652000000001
#
# number of rings (size 3 to 8) (size 9 to 14) (size 15 to 20)
#    0.000    0.667    6.667    1.500    0.000    3.333 
#    3.000    3.333    0.000    0.000    0.000    0.000 
#    0.000    0.000    0.000    0.000    0.000    0.000 
#
# Total GULP energy -595491.985601 kJ/mol
# GULP energy per Si atom -12406.083033 kJ/mol
# Density = 1.911305 g / cm^3
# Si number density = 19.156652 Si / 1000 Ang^3
#
#
#
# Elastic Constant Matrix: (Units=GPa)
#
#
# Indices 1 2 3 4 5 6 
#
# 1 100.8848 35.6557 54.3989 0.0000 0.0000 0.0000
# 2 35.6557 89.7740 21.5541 0.0000 0.0000 0.0000
# 3 54.3989 21.5541 141.3751 0.0000 0.0000 0.0000
# 4 0.0000 0.0000 0.0000 40.3404 0.0000 0.0000
# 5 0.0000 0.0000 0.0000 0.0000 19.2449 0.0000
# 6 0.0000 0.0000 0.0000 0.0000 0.0000 30.1120
#
#
#
# Elastic Compliance Matrix: (Units=1/GPa)
#
#
# Indices 1 2 3 4 5 6 
#
# 1 0.014026 -0.004437 -0.004720 0.000000 0.000000 0.000000
# 2 -0.004437 0.012966 -0.000269 0.000000 0.000000 0.000000
# 3 -0.004720 -0.000269 0.008931 0.000000 0.000000 0.000000
# 4 0.000000 0.000000 0.000000 0.024789 0.000000 0.000000
# 5 0.000000 0.000000 0.000000 0.000000 0.051962 0.000000
# 6 0.000000 0.000000 0.000000 0.000000 0.000000 0.033209
#
#
# Mechanical properties :
#
#
# Convention : Reuss Voigt Hill
#
# Bulk Modulus (GPa) = 58.58746 61.69459 60.14103
# Shear Modulus (GPa) = 29.33807 32.63448 30.98627
#
# Velocity S-wave (km/s) = 3.91766 4.13190 4.02620
# Velocity P-wave (km/s) = 7.14939 7.41880 7.28534
#
# Compressibility (1/GPa) = 0.01706850
#
# Stress axis : x y z
#
# Youngs Moduli (GPa) = 71.29640 77.12386 111.97195
#
# Poissons Ratio (x) = 0.34223 0.52856
# Poissons Ratio (y) = 0.31637 0.03016
# Poissons Ratio (z) = 0.33655 0.02078
#
# Static dielectric constant tensor:
#      x y z
#    x 3.381910 0.000000 0.000000 
#    y 0.000000 3.666660 0.000000 
#    z 0.000000 0.000000 3.864740 
# 
# 
# High freq. dielectric constant tensor:
#      x y z
#    x 1.729590 0.000000 0.000000 
#    y 0.000000 1.759140 0.000000 
#    z 0.000000 0.000000 1.764400 
# 
# From -- ./inp_files/5984.got.cif
#   From: 2010.06.25/outbox.cif.g09.slc.cpg/sg58_3_cif.got.tgz:5984.got - 2010.06.26 21:38:00.
