data_PCOD8238187
_publ_section_title
;
Structure prediction by ZEFSAII (Michael W. Deem and Ramdas Pophale) SiO2 
 PCOD8238187
Probable space group: P N N M
;
_chemical_formula_sum "Si O2"
_cell_formula_units_Z 56
_cell_length_a 9.426543
_cell_length_b 21.504371
_cell_length_c 14.124208
_cell_angle_alpha 90.000000
_cell_angle_beta 90.000000
_cell_angle_gamma 90.000000
_cell_volume 2863.144728
_symmetry_space_group_name_H-M "P N N M"
_symmetry_group_IT_number 58
_symmetry_cell_setting 'orthorhombic'
loop_
_space_group_symop_operation_xyz
x,y,z
-x,-y,z
1/2+x,1/2-y,1/2-z
1/2-x,1/2+y,1/2-z
-x,-y,-z
x,y,-z
1/2-x,1/2+y,1/2+z
1/2+x,1/2-y,1/2+z
loop_
_atom_site_type_symbol
_atom_site_label
_atom_site_fract_x
_atom_site_fract_y
_atom_site_fract_z
Si Si1 0.226020 0.036347 0.212494
Si Si2 0.710582 0.277241 0.608027
Si Si3 0.663727 0.014275 0.393013
Si Si4 0.934432 0.378081 0.607994
Si Si5 0.685049 0.642086 0.892043
Si Si6 0.500758 0.360784 0.713554
Si Si7 0.250014 0.906815 0.890215
O O1 0.364304 0.070172 0.173161
O O2 0.084769 0.075366 0.192504
O O3 0.241810 0.028952 0.325503
O O4 0.217498 0.969537 0.165409
O O5 0.658476 0.290052 0.500000
O O6 0.862699 0.310841 0.624260
O O7 0.726824 0.204558 0.627184
O O8 0.598571 0.302484 0.685033
O O9 0.702059 0.995640 0.500000
O O10 0.703863 0.086309 0.373049
O O11 0.500000 0.000000 0.371247
O O12 0.914811 0.400174 0.500000
O O13 0.099485 0.375881 0.635040
O O14 0.548554 0.640529 0.823018
O O15 0.627387 0.640342 0.000000
O O16 0.365319 0.357117 0.644707
O O17 0.233620 0.921052 0.000000
#
# Coordination Sequence:
#
# PCOD8238187 Si02
#       7
#     8   8   8   8   8   8   8
#     4  11  21  35  55  83 120 155 189 239 295 355
#     4   9  20  41  63  84 117 155 195 242 297 356
#     4  10  21  38  61  86 114 154 202 245 289 344
#     4   9  19  35  58  86 116 156 194 232 291 362
#     4  10  22  41  63  84 116 160 201 246 299 350
#     4  11  23  37  57  89 116 151 196 240 301 353
#     4  11  21  33  55  87 122 155 193 240 292 355
#
# _framework density 19.558914000000001
#
# number of rings (size 3 to 8) (size 9 to 14) (size 15 to 20)
#    0.000    1.857    1.429    2.571    0.000    5.143 
#    2.571    1.429    0.000    0.857    0.000    0.000 
#    0.000    0.000    0.000    0.000    0.000    0.000 
#
# Total GULP energy -694397.532742 kJ/mol
# GULP energy per Si atom -12399.955942 kJ/mol
# Density = 1.951440 g / cm^3
# Si number density = 19.558914 Si / 1000 Ang^3
#
#
#
# Elastic Constant Matrix: (Units=GPa)
#
#
# Indices 1 2 3 4 5 6 
#
# 1 129.4358 46.2557 62.7163 0.0000 0.0000 0.0000
# 2 46.2557 78.2975 32.4706 0.0000 0.0000 0.0000
# 3 62.7163 32.4706 108.6893 0.0000 0.0000 0.0000
# 4 0.0000 0.0000 0.0000 22.0962 0.0000 0.0000
# 5 0.0000 0.0000 0.0000 0.0000 35.4482 0.0000
# 6 0.0000 0.0000 0.0000 0.0000 0.0000 18.1728
#
#
#
# Elastic Compliance Matrix: (Units=1/GPa)
#
#
# Indices 1 2 3 4 5 6 
#
# 1 0.012164 -0.004880 -0.005561 0.000000 0.000000 0.000000
# 2 -0.004880 0.016536 -0.002124 0.000000 0.000000 0.000000
# 3 -0.005561 -0.002124 0.013044 0.000000 0.000000 0.000000
# 4 0.000000 0.000000 0.000000 0.045257 0.000000 0.000000
# 5 0.000000 0.000000 0.000000 0.000000 0.028210 0.000000
# 6 0.000000 0.000000 0.000000 0.000000 0.000000 0.055027
#
#
# Mechanical properties :
#
#
# Convention : Reuss Voigt Hill
#
# Bulk Modulus (GPa) = 60.19243 66.58974 63.39109
# Shear Modulus (GPa) = 24.88716 26.80879 25.84797
#
# Velocity S-wave (km/s) = 3.57097 3.70627 3.63925
# Velocity P-wave (km/s) = 6.91695 7.24119 7.08093
#
# Compressibility (1/GPa) = 0.01661338
#
# Stress axis : x y z
#
# Youngs Moduli (GPa) = 82.20703 60.47545 76.66327
#
# Poissons Ratio (x) = 0.29512 0.42634
# Poissons Ratio (y) = 0.40117 0.16284
# Poissons Ratio (z) = 0.45717 0.12845
#
# Static dielectric constant tensor:
#      x y z
#    x 3.543580 0.000000 0.000000 
#    y 0.000000 3.493890 0.000000 
#    z 0.000000 0.000000 3.789100 
# 
# 
# High freq. dielectric constant tensor:
#      x y z
#    x 1.758500 0.000000 0.000000 
#    y 0.000000 1.751970 0.000000 
#    z 0.000000 0.000000 1.773130 
# 
# From -- ./inp_files/20128.got.cif
#   From: 2010.06.25/outbox.cif.g09.slc.cpg/sg58_11_cif.got.tgz:20128.got - 2010.06.26 21:38:00.
