data_PCOD8238415
_publ_section_title
;
Structure prediction by ZEFSAII (Michael W. Deem and Ramdas Pophale) SiO2 
 PCOD8238415
Probable space group: P N N M
;
_chemical_formula_sum "Si O2"
_cell_formula_units_Z 48
_cell_length_a 16.915825
_cell_length_b 9.051638
_cell_length_c 14.711878
_cell_angle_alpha 90.000000
_cell_angle_beta 90.000000
_cell_angle_gamma 90.000000
_cell_volume 2252.622799
_symmetry_space_group_name_H-M "P N N M"
_symmetry_group_IT_number 58
_symmetry_cell_setting 'orthorhombic'
loop_
_space_group_symop_operation_xyz
x,y,z
-x,-y,z
1/2+x,1/2-y,1/2-z
1/2-x,1/2+y,1/2-z
-x,-y,-z
x,y,-z
1/2-x,1/2+y,1/2+z
1/2+x,1/2-y,1/2+z
loop_
_atom_site_type_symbol
_atom_site_label
_atom_site_fract_x
_atom_site_fract_y
_atom_site_fract_z
Si Si1 0.944040 0.731788 0.396712
Si Si2 0.681758 0.754442 0.738117
Si Si3 0.889043 0.404514 0.602754
Si Si4 0.067091 0.104311 0.099524
Si Si5 0.337232 0.587966 0.769282
Si Si6 0.046322 0.637297 0.898687
O O1 0.938580 0.789648 0.500000
O O2 0.896770 0.579516 0.385836
O O3 0.911316 0.862573 0.332292
O O4 0.033681 0.691207 0.370448
O O5 0.677621 0.855344 0.827699
O O6 0.681516 0.586322 0.773930
O O7 0.765288 0.807950 0.696588
O O8 0.613509 0.791237 0.664953
O O9 0.864143 0.366974 0.500000
O O10 0.142583 0.118281 0.164076
O O11 0.028294 0.260479 0.086768
O O12 0.094055 0.041613 0.000000
O O13 0.000000 0.000000 0.143898
O O14 0.000000 0.500000 0.852304
O O15 0.081705 0.600763 0.000000
#
# Coordination Sequence:
#
# PCOD8238415 Si02
#       6
#     8   8   8   8   8   8
#     4   9  20  40  66  91 120 160 206 256 308 369
#     4  12  26  40  61  93 130 169 207 258 316 376
#     4   9  20  40  65  91 119 161 207 252 313 373
#     4  10  21  42  68  92 120 161 213 263 313 371
#     4  12  26  40  60  94 129 170 210 256 320 371
#     4  10  23  42  68  96 122 161 211 263 315 372
#
# _framework density 21.308492999999999
#
# number of rings (size 3 to 8) (size 9 to 14) (size 15 to 20)
#    0.000    1.667    1.667    3.000    7.000    2.000 
#    0.000    1.667    0.000    0.000    0.000    0.000 
#    0.000    0.000    0.000    0.000    0.000    0.000 
#
# Total GULP energy -594816.236151 kJ/mol
# GULP energy per Si atom -12392.004920 kJ/mol
# Density = 2.125999 g / cm^3
# Si number density = 21.308493 Si / 1000 Ang^3
#
#
#
# Elastic Constant Matrix: (Units=GPa)
#
#
# Indices 1 2 3 4 5 6 
#
# 1 49.1816 15.1373 18.8591 0.0000 0.0000 0.0000
# 2 15.1373 94.4004 16.5499 0.0000 0.0000 0.0000
# 3 18.8591 16.5499 85.9054 0.0000 0.0000 0.0000
# 4 0.0000 0.0000 0.0000 30.5966 0.0000 0.0000
# 5 0.0000 0.0000 0.0000 0.0000 35.4329 0.0000
# 6 0.0000 0.0000 0.0000 0.0000 0.0000 37.2761
#
#
#
# Elastic Compliance Matrix: (Units=1/GPa)
#
#
# Indices 1 2 3 4 5 6 
#
# 1 0.022941 -0.002893 -0.004479 0.000000 0.000000 0.000000
# 2 -0.002893 0.011328 -0.001547 0.000000 0.000000 0.000000
# 3 -0.004479 -0.001547 0.012922 0.000000 0.000000 0.000000
# 4 0.000000 0.000000 0.000000 0.032683 0.000000 0.000000
# 5 0.000000 0.000000 0.000000 0.000000 0.028222 0.000000
# 6 0.000000 0.000000 0.000000 0.000000 0.000000 0.026827
#
#
# Mechanical properties :
#
#
# Convention : Reuss Voigt Hill
#
# Bulk Modulus (GPa) = 34.06893 36.73112 35.40002
# Shear Modulus (GPa) = 30.76035 32.59052 31.67543
#
# Velocity S-wave (km/s) = 3.80356 3.91508 3.85972
# Velocity P-wave (km/s) = 5.94244 6.14103 6.04255
#
# Compressibility (1/GPa) = 0.02935226
#
# Stress axis : x y z
#
# Youngs Moduli (GPa) = 43.59045 88.27378 77.38706
#
# Poissons Ratio (x) = 0.25541 0.34661
# Poissons Ratio (y) = 0.12612 0.11974
# Poissons Ratio (z) = 0.19524 0.13658
#
# Static dielectric constant tensor:
#      x y z
#    x 3.618360 0.000000 0.000000 
#    y 0.000000 3.981470 0.000000 
#    z 0.000000 0.000000 4.025830 
# 
# 
# High freq. dielectric constant tensor:
#      x y z
#    x 1.813910 0.000000 0.000000 
#    y 0.000000 1.842070 0.000000 
#    z 0.000000 0.000000 1.841140 
# 
# From -- ./inp_files/19839.got.cif
#   From: 2010.06.25/outbox.cif.g09.slc.cpg/sg58_10_cif.got.tgz:19839.got - 2010.06.26 21:38:00.
