data_PCOD8238975
_publ_section_title
;
Structure prediction by ZEFSAII (Michael W. Deem and Ramdas Pophale) SiO2 
 PCOD8238975
Probable space group: P N N M
;
_chemical_formula_sum "Si O2"
_cell_formula_units_Z 64
_cell_length_a 19.083281
_cell_length_b 21.502932
_cell_length_c 9.878515
_cell_angle_alpha 90.000000
_cell_angle_beta 90.000000
_cell_angle_gamma 90.000000
_cell_volume 4053.613993
_symmetry_space_group_name_H-M "P N N M"
_symmetry_group_IT_number 58
_symmetry_cell_setting 'orthorhombic'
loop_
_space_group_symop_operation_xyz
x,y,z
-x,-y,z
1/2+x,1/2-y,1/2-z
1/2-x,1/2+y,1/2-z
-x,-y,-z
x,y,-z
1/2-x,1/2+y,1/2+z
1/2+x,1/2-y,1/2+z
loop_
_atom_site_type_symbol
_atom_site_label
_atom_site_fract_x
_atom_site_fract_y
_atom_site_fract_z
Si Si1 0.967689 0.307262 0.150767
Si Si2 0.581478 0.345110 0.154736
Si Si3 0.174188 0.384132 0.160980
Si Si4 0.877245 0.745482 0.850262
Si Si5 0.576005 0.484786 0.839381
Si Si6 0.970921 0.565018 0.161304
Si Si7 0.574001 0.704319 0.156024
Si Si8 0.327571 0.406421 0.161238
O O1 0.977097 0.378404 0.203842
O O2 0.920625 0.267220 0.254617
O O3 0.043366 0.276770 0.142319
O O4 0.933551 0.306422 0.000000
O O5 0.630989 0.302142 0.246521
O O6 0.597553 0.415240 0.201424
O O7 0.499590 0.330863 0.175013
O O8 0.603478 0.334031 0.000000
O O9 0.169202 0.311815 0.203904
O O10 0.248089 0.409368 0.218033
O O11 0.107992 0.423365 0.218971
O O12 0.171806 0.388000 0.000000
O O13 0.852692 0.766973 0.000000
O O14 0.500000 0.500000 0.776860
O O15 0.632329 0.533416 0.779408
O O16 0.572011 0.491672 0.000000
O O17 0.000000 0.500000 0.221109
O O18 0.967769 0.562718 0.000000
O O19 0.633972 0.657005 0.207155
O O20 0.584979 0.723653 0.000000
O O21 0.327807 0.408588 0.000000
#
# Coordination Sequence:
#
# PCOD8238975 Si02
#       8
#     8   8   8   8   8   8   8   8
#     4   8  14  24  39  59  81 102 126 162 205 241
#     4   9  15  23  39  61  82 103 131 165 200 237
#     4   8  14  24  39  59  78 100 137 175 204 239
#     4   8  14  25  40  57  77 101 131 167 200 231
#     4   9  14  22  36  57  83 108 134 166 202 236
#     4   8  13  23  41  61  78 101 135 173 209 244
#     4   9  15  23  38  60  81 103 133 166 197 232
#     4   9  15  23  38  58  79 105 138 173 202 235
#
# _framework density 15.78838
#
# number of rings (size 3 to 8) (size 9 to 14) (size 15 to 20)
#    0.000    3.500    1.250    1.500    0.000    0.000 
#    0.000    0.000    2.750    2.250    0.000    0.000 
#    0.000    0.000    0.000    0.000    0.000    0.000 
#
# Total GULP energy -793046.670937 kJ/mol
# GULP energy per Si atom -12391.354233 kJ/mol
# Density = 1.575245 g / cm^3
# Si number density = 15.788380 Si / 1000 Ang^3
#
#
#
# Elastic Constant Matrix: (Units=GPa)
#
#
# Indices 1 2 3 4 5 6 
#
# 1 78.8856 62.3597 19.1796 0.0000 0.0000 0.0000
# 2 62.3597 149.2492 42.9431 0.0000 0.0000 0.0000
# 3 19.1796 42.9431 34.7309 0.0000 0.0000 0.0000
# 4 0.0000 0.0000 0.0000 20.5856 0.0000 0.0000
# 5 0.0000 0.0000 0.0000 0.0000 7.7372 0.0000
# 6 0.0000 0.0000 0.0000 0.0000 0.0000 22.2806
#
#
#
# Elastic Compliance Matrix: (Units=1/GPa)
#
#
# Indices 1 2 3 4 5 6 
#
# 1 0.018953 -0.007618 -0.001048 0.000000 0.000000 0.000000
# 2 -0.007618 0.013462 -0.012438 0.000000 0.000000 0.000000
# 3 -0.001048 -0.012438 0.044751 0.000000 0.000000 0.000000
# 4 0.000000 0.000000 0.000000 0.048578 0.000000 0.000000
# 5 0.000000 0.000000 0.000000 0.000000 0.129245 0.000000
# 6 0.000000 0.000000 0.000000 0.000000 0.000000 0.044882
#
#
# Mechanical properties :
#
#
# Convention : Reuss Voigt Hill
#
# Bulk Modulus (GPa) = 28.60541 56.87007 42.73774
# Shear Modulus (GPa) = 14.13507 19.34626 16.74067
#
# Velocity S-wave (km/s) = 2.99537 3.50429 3.25978
# Velocity P-wave (km/s) = 5.48820 7.24374 6.42620
#
# Compressibility (1/GPa) = 0.03495843
#
# Stress axis : x y z
#
# Youngs Moduli (GPa) = 52.76200 74.28434 22.34604
#
# Poissons Ratio (x) = 0.56586 0.02341
# Poissons Ratio (y) = 0.40192 0.27794
# Poissons Ratio (z) = 0.05528 0.92396
#
# Static dielectric constant tensor:
#      x y z
#    x 2.997520 0.000000 0.000000 
#    y 0.000000 3.273800 0.000000 
#    z 0.000000 0.000000 2.719920 
# 
# 
# High freq. dielectric constant tensor:
#      x y z
#    x 1.578980 0.000000 0.000000 
#    y 0.000000 1.611960 0.000000 
#    z 0.000000 0.000000 1.551990 
# 
# From -- ./inp_files/16653.got.cif
#   From: 2010.06.25/outbox.cif.g09.slc.cpg/sg58_9_cif.got.tgz:16653.got - 2010.06.26 21:38:00.
