data_PCOD8238171
_publ_section_title
;
Structure prediction by ZEFSAII (Michael W. Deem and Ramdas Pophale) SiO2 
 PCOD8238171
Probable space group: P N N M
;
_chemical_formula_sum "Si O2"
_cell_formula_units_Z 48
_cell_length_a 15.468304
_cell_length_b 9.324141
_cell_length_c 16.664563
_cell_angle_alpha 90.000000
_cell_angle_beta 90.000000
_cell_angle_gamma 90.000000
_cell_volume 2403.507383
_symmetry_space_group_name_H-M "P N N M"
_symmetry_group_IT_number 58
_symmetry_cell_setting 'orthorhombic'
loop_
_space_group_symop_operation_xyz
x,y,z
-x,-y,z
1/2+x,1/2-y,1/2-z
1/2-x,1/2+y,1/2-z
-x,-y,-z
x,y,-z
1/2-x,1/2+y,1/2+z
1/2+x,1/2-y,1/2+z
loop_
_atom_site_type_symbol
_atom_site_label
_atom_site_fract_x
_atom_site_fract_y
_atom_site_fract_z
Si Si1 0.842111 0.714563 0.852955
Si Si2 0.370318 0.773171 0.829397
Si Si3 0.815002 0.044381 0.324698
Si Si4 0.285930 0.473050 0.356550
Si Si5 0.531295 0.663016 0.909884
Si Si6 0.532971 0.159451 0.500000
Si Si7 0.912771 0.095583 0.000000
O O1 0.887092 0.713093 0.765659
O O2 0.780012 0.577635 0.858756
O O3 0.913704 0.703334 0.921202
O O4 0.781058 0.854784 0.862955
O O5 0.329058 0.619233 0.850288
O O6 0.308452 0.897860 0.866329
O O7 0.463982 0.776288 0.871407
O O8 0.822650 0.071398 0.229873
O O9 0.879660 0.162227 0.361445
O O10 0.354926 0.424058 0.421760
O O11 0.500000 0.500000 0.906258
O O12 0.548548 0.714329 0.000000
O O13 0.442961 0.241854 0.500000
O O14 0.500000 0.000000 0.500000
O O15 0.000000 0.000000 0.000000
#
# Coordination Sequence:
#
# PCOD8238171 Si02
#       7
#     8   8   8   8   8   4   4
#     4  10  21  41  58  86 123 155 196 246 308 356
#     4   9  20  37  62  87 115 159 200 248 293 359
#     4   9  20  36  61  85 117 159 196 248 297 352
#     4  10  21  38  60  86 118 155 201 242 302 364
#     4   9  18  33  55  87 115 148 199 244 291 343
#     4  12  28  42  60  93 122 157 201 258 309 370
#     4  12  24  40  62  89 116 159 199 244 313 370
#
# _framework density 19.970814000000001
#
# number of rings (size 3 to 8) (size 9 to 14) (size 15 to 20)
#    0.000    2.167    1.667    0.000    7.000    0.667 
#    0.000    0.833    0.000    1.000    0.000    0.000 
#    0.000    0.000    0.000    0.000    0.000    0.000 
#
# Total GULP energy -594972.878730 kJ/mol
# GULP energy per Si atom -12395.268307 kJ/mol
# Density = 1.992536 g / cm^3
# Si number density = 19.970814 Si / 1000 Ang^3
#
#
#
# Elastic Constant Matrix: (Units=GPa)
#
#
# Indices 1 2 3 4 5 6 
#
# 1 57.9841 16.8359 40.3962 0.0000 0.0000 0.0000
# 2 16.8359 67.8958 24.0446 0.0000 0.0000 0.0000
# 3 40.3962 24.0446 102.5792 0.0000 0.0000 0.0000
# 4 0.0000 0.0000 0.0000 21.1742 0.0000 0.0000
# 5 0.0000 0.0000 0.0000 0.0000 31.9865 0.0000
# 6 0.0000 0.0000 0.0000 0.0000 0.0000 39.2608
#
#
#
# Elastic Compliance Matrix: (Units=1/GPa)
#
#
# Indices 1 2 3 4 5 6 
#
# 1 0.024269 -0.002872 -0.008884 0.000000 0.000000 0.000000
# 2 -0.002872 0.016402 -0.002714 0.000000 0.000000 0.000000
# 3 -0.008884 -0.002714 0.013883 0.000000 0.000000 0.000000
# 4 0.000000 0.000000 0.000000 0.047227 0.000000 0.000000
# 5 0.000000 0.000000 0.000000 0.000000 0.031263 0.000000
# 6 0.000000 0.000000 0.000000 0.000000 0.000000 0.025471
#
#
# Mechanical properties :
#
#
# Convention : Reuss Voigt Hill
#
# Bulk Modulus (GPa) = 39.03963 43.44582 41.24273
# Shear Modulus (GPa) = 25.51114 28.29648 26.90381
#
# Velocity S-wave (km/s) = 3.57798 3.76825 3.67434
# Velocity P-wave (km/s) = 6.05475 6.38238 6.22072
#
# Compressibility (1/GPa) = 0.02561500
#
# Stress axis : x y z
#
# Youngs Moduli (GPa) = 41.20419 60.96991 72.02892
#
# Poissons Ratio (x) = 0.17509 0.63992
# Poissons Ratio (y) = 0.11833 0.19546
# Poissons Ratio (z) = 0.36607 0.16545
#
# Static dielectric constant tensor:
#      x y z
#    x 3.739720 0.000000 0.000000 
#    y 0.000000 3.630430 0.000000 
#    z 0.000000 0.000000 3.725740 
# 
# 
# High freq. dielectric constant tensor:
#      x y z
#    x 1.772940 0.000000 0.000000 
#    y 0.000000 1.769040 0.000000 
#    z 0.000000 0.000000 1.787030 
# 
# From -- ./inp_files/25340.got.cif
#   From: 2010.06.25/outbox.cif.g09.slc.cpg/sg58_13_cif.got.tgz:25340.got - 2010.06.26 21:38:00.
