data_PCOD8238295
_publ_section_title
;
Structure prediction by ZEFSAII (Michael W. Deem and Ramdas Pophale) SiO2 
 PCOD8238295
Probable space group: P N N M
;
_chemical_formula_sum "Si O2"
_cell_formula_units_Z 48
_cell_length_a 23.439929
_cell_length_b 11.845781
_cell_length_c 8.635171
_cell_angle_alpha 90.000000
_cell_angle_beta 90.000000
_cell_angle_gamma 90.000000
_cell_volume 2397.678414
_symmetry_space_group_name_H-M "P N N M"
_symmetry_group_IT_number 58
_symmetry_cell_setting 'orthorhombic'
loop_
_space_group_symop_operation_xyz
x,y,z
-x,-y,z
1/2+x,1/2-y,1/2-z
1/2-x,1/2+y,1/2-z
-x,-y,-z
x,y,-z
1/2-x,1/2+y,1/2+z
1/2+x,1/2-y,1/2+z
loop_
_atom_site_type_symbol
_atom_site_label
_atom_site_fract_x
_atom_site_fract_y
_atom_site_fract_z
Si Si1 0.620087 0.517170 0.320266
Si Si2 0.329198 0.900453 0.821874
Si Si3 0.354072 0.135251 0.678111
Si Si4 0.581135 0.289596 0.822444
Si Si5 0.212376 0.835982 0.679470
Si Si6 0.461968 0.284250 0.677359
O O1 0.635472 0.531705 0.500000
O O2 0.604462 0.389176 0.284818
O O3 0.675526 0.553615 0.223169
O O4 0.566528 0.596393 0.276926
O O5 0.383301 0.822290 0.785798
O O6 0.277987 0.860948 0.713242
O O7 0.347152 0.027643 0.786053
O O8 0.310026 0.891855 0.000000
O O9 0.344612 0.101134 0.500000
O O10 0.307212 0.228643 0.721210
O O11 0.417149 0.184115 0.705596
O O12 0.515575 0.262134 0.786529
O O13 0.587177 0.327060 0.000000
O O14 0.204294 0.807908 0.500000
O O15 0.482671 0.287090 0.500000
#
# Coordination Sequence:
#
# PCOD8238295 Si02
#       6
#     8   8   8   8   8   8
#     4  10  21  39  63  90 122 160 202 250 304 360
#     4  11  25  42  59  86 123 162 204 249 301 359
#     4  10  22  42  65  89 119 157 202 249 302 364
#     4  11  24  38  58  90 125 160 203 253 300 356
#     4  11  23  40  64  90 119 157 200 249 306 362
#     4   9  20  39  62  88 120 159 199 248 306 363
#
# _framework density 20.019366000000002
#
# number of rings (size 3 to 8) (size 9 to 14) (size 15 to 20)
#    0.000    1.667    0.000    5.000    2.333    9.333 
#    0.000    3.333    0.000    0.000    0.000    0.000 
#    0.000    0.000    0.000    0.000    0.000    0.000 
#
# Total GULP energy -595537.067983 kJ/mol
# GULP energy per Si atom -12407.022250 kJ/mol
# Density = 1.997380 g / cm^3
# Si number density = 20.019366 Si / 1000 Ang^3
#
#
#
# Elastic Constant Matrix: (Units=GPa)
#
#
# Indices 1 2 3 4 5 6 
#
# 1 83.2813 44.7130 40.4808 0.0000 0.0000 0.0000
# 2 44.7130 100.2607 15.9195 0.0000 0.0000 0.0000
# 3 40.4808 15.9195 69.3870 0.0000 0.0000 0.0000
# 4 0.0000 0.0000 0.0000 30.7078 0.0000 0.0000
# 5 0.0000 0.0000 0.0000 0.0000 34.9356 0.0000
# 6 0.0000 0.0000 0.0000 0.0000 0.0000 21.0590
#
#
#
# Elastic Compliance Matrix: (Units=1/GPa)
#
#
# Indices 1 2 3 4 5 6 
#
# 1 0.021425 -0.007856 -0.010697 0.000000 0.000000 0.000000
# 2 -0.007856 0.013232 0.001548 0.000000 0.000000 0.000000
# 3 -0.010697 0.001548 0.020298 0.000000 0.000000 0.000000
# 4 0.000000 0.000000 0.000000 0.032565 0.000000 0.000000
# 5 0.000000 0.000000 0.000000 0.000000 0.028624 0.000000
# 6 0.000000 0.000000 0.000000 0.000000 0.000000 0.047486
#
#
# Mechanical properties :
#
#
# Convention : Reuss Voigt Hill
#
# Bulk Modulus (GPa) = 47.74854 50.57284 49.16069
# Shear Modulus (GPa) = 24.43531 27.46151 25.94841
#
# Velocity S-wave (km/s) = 3.49748 3.70773 3.60414
# Velocity P-wave (km/s) = 6.34135 6.60655 6.47531
#
# Compressibility (1/GPa) = 0.02094305
#
# Stress axis : x y z
#
# Youngs Moduli (GPa) = 46.67432 75.57459 49.26710
#
# Poissons Ratio (x) = 0.59374 0.52701
# Poissons Ratio (y) = 0.36669 -0.07625
# Poissons Ratio (z) = 0.49928 -0.11696
#
# Static dielectric constant tensor:
#      x y z
#    x 3.606430 0.000000 0.000000 
#    y 0.000000 3.596850 0.000000 
#    z 0.000000 0.000000 3.665450 
# 
# 
# High freq. dielectric constant tensor:
#      x y z
#    x 1.785000 0.000000 0.000000 
#    y 0.000000 1.781520 0.000000 
#    z 0.000000 0.000000 1.789450 
# 
# From -- ./inp_files/9738.got.cif
#   From: 2010.06.25/outbox.cif.g09.slc.cpg/sg58_5_cif.got.tgz:9738.got - 2010.06.26 21:38:00.
