data_PCOD8238058
_publ_section_title
;
Structure prediction by ZEFSAII (Michael W. Deem and Ramdas Pophale) SiO2 
 PCOD8238058
Probable space group: P N N M
;
_chemical_formula_sum "Si O2"
_cell_formula_units_Z 64
_cell_length_a 9.015431
_cell_length_b 12.791377
_cell_length_c 29.339942
_cell_angle_alpha 90.000000
_cell_angle_beta 90.000000
_cell_angle_gamma 90.000000
_cell_volume 3383.475561
_symmetry_space_group_name_H-M "P N N M"
_symmetry_group_IT_number 58
_symmetry_cell_setting 'orthorhombic'
loop_
_space_group_symop_operation_xyz
x,y,z
-x,-y,z
1/2+x,1/2-y,1/2-z
1/2-x,1/2+y,1/2-z
-x,-y,-z
x,y,-z
1/2-x,1/2+y,1/2+z
1/2+x,1/2-y,1/2+z
loop_
_atom_site_type_symbol
_atom_site_label
_atom_site_fract_x
_atom_site_fract_y
_atom_site_fract_z
Si Si1 0.826542 0.983964 0.250186
Si Si2 0.820827 0.886080 0.552029
Si Si3 0.329678 0.380560 0.052063
Si Si4 0.663421 0.791845 0.720107
Si Si5 0.335103 0.274214 0.618053
Si Si6 0.171782 0.339454 0.214483
Si Si7 0.823052 0.776229 0.880389
Si Si8 0.676311 0.502474 0.353444
O O1 0.718857 0.038871 0.288405
O O2 0.772647 0.009895 0.198853
O O3 0.792361 0.863203 0.258755
O O4 0.000000 0.000000 0.258899
O O5 0.771977 0.868126 0.500000
O O6 0.747806 0.795345 0.581348
O O7 0.995345 0.876496 0.557281
O O8 0.771786 0.003749 0.567315
O O9 0.264920 0.287865 0.082099
O O10 0.282215 0.360326 0.000000
O O11 0.685061 0.779898 0.666592
O O12 0.702202 0.686210 0.746971
O O13 0.496458 0.827589 0.731678
O O14 0.506805 0.276597 0.604567
O O15 0.270289 0.393273 0.619450
O O16 0.200115 0.277725 0.168282
O O17 0.763055 0.896086 0.877265
O O18 0.500000 0.500000 0.352820
#
# Coordination Sequence:
#
# PCOD8238058 Si02
#       8
#     8   8   8   8   8   8   8   8
#     4  11  21  37  55  74 111 158 194 237 286 330
#     4   9  20  40  62  84 112 143 178 227 285 341
#     4   9  20  40  62  84 112 143 178 227 285 341
#     4  11  22  36  54  81 114 151 195 238 279 333
#     4  10  21  37  58  82 112 148 188 232 277 332
#     4  11  22  36  54  81 114 151 195 238 279 333
#     4  10  21  37  58  82 112 148 188 232 277 332
#     4   9  18  37  56  76 111 153 187 223 275 328
#
# _framework density 18.915461000000001
#
# number of rings (size 3 to 8) (size 9 to 14) (size 15 to 20)
#    0.000    2.000    2.500    1.875    1.750    3.000 
#    0.000    2.500    0.000    3.750    0.000    0.000 
#    0.000    0.000    0.000    0.000    0.000    0.000 
#
# Total GULP energy -793191.190575 kJ/mol
# GULP energy per Si atom -12393.612353 kJ/mol
# Density = 1.887241 g / cm^3
# Si number density = 18.915461 Si / 1000 Ang^3
#
#
#
# Elastic Constant Matrix: (Units=GPa)
#
#
# Indices 1 2 3 4 5 6 
#
# 1 62.3385 39.9332 42.3493 0.0000 0.0000 0.0000
# 2 39.9332 140.4170 65.3583 0.0000 0.0000 0.0000
# 3 42.3493 65.3583 81.0545 0.0000 0.0000 0.0000
# 4 0.0000 0.0000 0.0000 38.6283 0.0000 0.0000
# 5 0.0000 0.0000 0.0000 0.0000 32.9012 0.0000
# 6 0.0000 0.0000 0.0000 0.0000 0.0000 36.7647
#
#
#
# Elastic Compliance Matrix: (Units=1/GPa)
#
#
# Indices 1 2 3 4 5 6 
#
# 1 0.025106 -0.001656 -0.011782 0.000000 0.000000 0.000000
# 2 -0.001656 0.011510 -0.008416 0.000000 0.000000 0.000000
# 3 -0.011782 -0.008416 0.025280 0.000000 0.000000 0.000000
# 4 0.000000 0.000000 0.000000 0.025888 0.000000 0.000000
# 5 0.000000 0.000000 0.000000 0.000000 0.030394 0.000000
# 6 0.000000 0.000000 0.000000 0.000000 0.000000 0.027200
#
#
# Mechanical properties :
#
#
# Convention : Reuss Voigt Hill
#
# Bulk Modulus (GPa) = 54.98220 64.34352 59.66286
# Shear Modulus (GPa) = 25.62157 30.73678 28.17918
#
# Velocity S-wave (km/s) = 3.68439 4.03545 3.86391
# Velocity P-wave (km/s) = 6.87241 7.47016 7.17751
#
# Compressibility (1/GPa) = 0.01818771
#
# Stress axis : x y z
#
# Youngs Moduli (GPa) = 39.83036 86.88306 39.55774
#
# Poissons Ratio (x) = 0.14386 0.46609
# Poissons Ratio (y) = 0.06595 0.33291
# Poissons Ratio (z) = 0.46930 0.73119
#
# Static dielectric constant tensor:
#      x y z
#    x 3.251970 0.000000 0.000000 
#    y 0.000000 3.913010 0.000000 
#    z 0.000000 0.000000 3.271290 
# 
# 
# High freq. dielectric constant tensor:
#      x y z
#    x 1.720910 0.000000 0.000000 
#    y 0.000000 1.758990 0.000000 
#    z 0.000000 0.000000 1.715230 
# 
# From -- ./inp_files/34752.got.cif
#   From: 2010.06.25/outbox.cif.g09.slc.cpg/sg58_18_cif.got.tgz:34752.got - 2010.06.26 21:38:00.
