data_PCOD8238061
_publ_section_title
;
Structure prediction by ZEFSAII (Michael W. Deem and Ramdas Pophale) SiO2 
 PCOD8238061
Probable space group: P N N M
;
_chemical_formula_sum "Si O2"
_cell_formula_units_Z 56
_cell_length_a 22.058629
_cell_length_b 14.726974
_cell_length_c 8.570565
_cell_angle_alpha 90.000000
_cell_angle_beta 90.000000
_cell_angle_gamma 90.000000
_cell_volume 2784.206798
_symmetry_space_group_name_H-M "P N N M"
_symmetry_group_IT_number 58
_symmetry_cell_setting 'orthorhombic'
loop_
_space_group_symop_operation_xyz
x,y,z
-x,-y,z
1/2+x,1/2-y,1/2-z
1/2-x,1/2+y,1/2-z
-x,-y,-z
x,y,-z
1/2-x,1/2+y,1/2+z
1/2+x,1/2-y,1/2+z
loop_
_atom_site_type_symbol
_atom_site_label
_atom_site_fract_x
_atom_site_fract_y
_atom_site_fract_z
Si Si1 0.568742 0.504141 0.684020
Si Si2 0.468624 0.150172 0.819602
Si Si3 0.855127 0.840016 0.681098
Si Si4 0.372122 0.028670 0.320981
Si Si5 0.278623 0.176981 0.681718
Si Si6 0.113980 0.801051 0.814558
Si Si7 0.405641 0.834049 0.322447
O O1 0.500000 0.500000 0.753665
O O2 0.563882 0.502539 0.500000
O O3 0.607719 0.418862 0.736401
O O4 0.604377 0.594983 0.738431
O O5 0.424453 0.065314 0.791765
O O6 0.438366 0.244514 0.769131
O O7 0.526738 0.133435 0.712610
O O8 0.487023 0.154444 0.000000
O O9 0.851495 0.864628 0.500000
O O10 0.788139 0.827756 0.758553
O O11 0.888966 0.745136 0.703678
O O12 0.390708 0.049746 0.500000
O O13 0.310122 0.080804 0.279828
O O14 0.362168 0.921347 0.294961
O O15 0.268797 0.191864 0.500000
O O16 0.320477 0.261297 0.742201
O O17 0.107148 0.788524 0.000000
O O18 0.400410 0.798904 0.500000
#
# Coordination Sequence:
#
# PCOD8238061 Si02
#       7
#     8   8   8   8   8   8   8
#     4  10  21  37  58  83 109 143 189 234 277 332
#     4  11  21  33  54  86 118 141 171 222 276 323
#     4  11  23  37  55  80 112 144 179 233 286 326
#     4   9  19  37  59  79 106 148 187 217 259 322
#     4   8  17  36  57  79 108 144 184 223 273 330
#     4   9  18  36  60  80 108 151 188 220 266 332
#     4  11  22  36  55  78 107 146 188 223 263 324
#
# _framework density 20.113448999999999
#
# number of rings (size 3 to 8) (size 9 to 14) (size 15 to 20)
#    0.000    2.143    0.000    4.286    0.000    6.000 
#    0.000    5.714    0.000    0.000    0.000    0.000 
#    0.000    0.000    0.000    0.000    0.000    0.000 
#
# Total GULP energy -694298.810904 kJ/mol
# GULP energy per Si atom -12398.193052 kJ/mol
# Density = 2.006767 g / cm^3
# Si number density = 20.113449 Si / 1000 Ang^3
#
#
#
# Elastic Constant Matrix: (Units=GPa)
#
#
# Indices 1 2 3 4 5 6 
#
# 1 114.0527 50.3434 13.0177 0.0000 0.0000 0.0000
# 2 50.3434 142.8188 13.9624 0.0000 0.0000 0.0000
# 3 13.0177 13.9624 20.8233 0.0000 0.0000 0.0000
# 4 0.0000 0.0000 0.0000 17.2931 0.0000 0.0000
# 5 0.0000 0.0000 0.0000 0.0000 15.3045 0.0000
# 6 0.0000 0.0000 0.0000 0.0000 0.0000 19.6160
#
#
#
# Elastic Compliance Matrix: (Units=1/GPa)
#
#
# Indices 1 2 3 4 5 6 
#
# 1 0.010760 -0.003355 -0.004477 0.000000 0.000000 0.000000
# 2 -0.003355 0.008539 -0.003628 0.000000 0.000000 0.000000
# 3 -0.004477 -0.003628 0.053255 0.000000 0.000000 0.000000
# 4 0.000000 0.000000 0.000000 0.057827 0.000000 0.000000
# 5 0.000000 0.000000 0.000000 0.000000 0.065340 0.000000
# 6 0.000000 0.000000 0.000000 0.000000 0.000000 0.050979
#
#
# Mechanical properties :
#
#
# Convention : Reuss Voigt Hill
#
# Bulk Modulus (GPa) = 20.14776 48.03797 34.09286
# Shear Modulus (GPa) = 17.47247 23.80080 20.63664
#
# Velocity S-wave (km/s) = 2.95056 3.44369 3.20662
# Velocity P-wave (km/s) = 4.65259 6.30455 5.54048
#
# Compressibility (1/GPa) = 0.04963332
#
# Stress axis : x y z
#
# Youngs Moduli (GPa) = 92.93831 117.10590 18.77768
#
# Poissons Ratio (x) = 0.39291 0.08406
# Poissons Ratio (y) = 0.31182 0.06813
# Poissons Ratio (z) = 0.41607 0.42489
#
# Static dielectric constant tensor:
#      x y z
#    x 3.874800 0.000000 0.000000 
#    y 0.000000 3.754910 0.000000 
#    z 0.000000 0.000000 3.347310 
# 
# 
# High freq. dielectric constant tensor:
#      x y z
#    x 1.783820 0.000000 0.000000 
#    y 0.000000 1.792480 0.000000 
#    z 0.000000 0.000000 1.761740 
# 
# From -- ./inp_files/9064.got.cif
#   From: 2010.06.25/outbox.cif.g09.slc.cpg/sg58_5_cif.got.tgz:9064.got - 2010.06.26 21:38:00.
