data_PCOD8238715
_publ_section_title
;
Structure prediction by ZEFSAII (Michael W. Deem and Ramdas Pophale) SiO2 
 PCOD8238715
Probable space group: P N N M
;
_chemical_formula_sum "Si O2"
_cell_formula_units_Z 48
_cell_length_a 9.444090
_cell_length_b 30.454111
_cell_length_c 7.783303
_cell_angle_alpha 90.000000
_cell_angle_beta 90.000000
_cell_angle_gamma 90.000000
_cell_volume 2238.566401
_symmetry_space_group_name_H-M "P N N M"
_symmetry_group_IT_number 58
_symmetry_cell_setting 'orthorhombic'
loop_
_space_group_symop_operation_xyz
x,y,z
-x,-y,z
1/2+x,1/2-y,1/2-z
1/2-x,1/2+y,1/2-z
-x,-y,-z
x,y,-z
1/2-x,1/2+y,1/2+z
1/2+x,1/2-y,1/2+z
loop_
_atom_site_type_symbol
_atom_site_label
_atom_site_fract_x
_atom_site_fract_y
_atom_site_fract_z
Si Si1 0.531776 0.369548 0.200868
Si Si2 0.024527 0.293308 0.195122
Si Si3 0.592105 0.541873 0.693489
Si Si4 0.655253 0.712754 0.799133
Si Si5 0.791473 0.528580 0.000000
Si Si6 0.103191 0.565184 0.000000
Si Si7 0.163588 0.629707 0.308175
O O1 0.503227 0.414619 0.300704
O O2 0.408696 0.334918 0.242869
O O3 0.681370 0.350422 0.266911
O O4 0.541754 0.379749 0.000000
O O5 0.183069 0.285924 0.267867
O O6 0.936515 0.248512 0.199393
O O7 0.948226 0.330795 0.303983
O O8 0.034280 0.310226 0.000000
O O9 0.500000 0.500000 0.747882
O O10 0.652083 0.535934 0.500000
O O11 0.718744 0.546964 0.828254
O O12 0.645994 0.723756 0.000000
O O13 0.789580 0.475790 0.000000
O O14 0.945403 0.548393 0.000000
O O15 0.128751 0.592026 0.827101
O O16 0.159181 0.609560 0.500000
#
# Coordination Sequence:
#
# PCOD8238715 Si02
#       7
#     8   8   8   8   4   4   8
#     4  11  22  41  68  97 135 178 227 281 337 405
#     4  11  23  42  65  94 136 177 222 275 333 404
#     4  11  24  41  68 102 136 177 231 283 341 406
#     4  10  24  41  65  97 132 178 225 275 337 399
#     4  11  25  44  70  96 141 178 229 286 345 404
#     4  11  26  46  68 100 134 185 228 279 347 409
#     4  12  25  43  69  97 135 178 228 279 339 401
#
# _framework density 21.442295999999999
#
# number of rings (size 3 to 8) (size 9 to 14) (size 15 to 20)
#    0.000    1.000    2.500    3.250    2.333    8.000 
#    0.000    1.667    0.000    0.000    0.000    0.000 
#    0.000    0.000    0.000    0.000    0.000    0.000 
#
# Total GULP energy -595493.631346 kJ/mol
# GULP energy per Si atom -12406.117320 kJ/mol
# Density = 2.139349 g / cm^3
# Si number density = 21.442296 Si / 1000 Ang^3
#
#
#
# Elastic Constant Matrix: (Units=GPa)
#
#
# Indices 1 2 3 4 5 6 
#
# 1 151.4843 56.2957 39.0422 0.0000 0.0000 0.0000
# 2 56.2957 105.7184 32.5632 0.0000 0.0000 0.0000
# 3 39.0422 32.5632 120.9226 0.0000 0.0000 0.0000
# 4 0.0000 0.0000 0.0000 20.4883 0.0000 0.0000
# 5 0.0000 0.0000 0.0000 0.0000 13.5032 0.0000
# 6 0.0000 0.0000 0.0000 0.0000 0.0000 31.8672
#
#
#
# Elastic Compliance Matrix: (Units=1/GPa)
#
#
# Indices 1 2 3 4 5 6 
#
# 1 0.008528 -0.004027 -0.001669 0.000000 0.000000 0.000000
# 2 -0.004027 0.012216 -0.001989 0.000000 0.000000 0.000000
# 3 -0.001669 -0.001989 0.009344 0.000000 0.000000 0.000000
# 4 0.000000 0.000000 0.000000 0.048808 0.000000 0.000000
# 5 0.000000 0.000000 0.000000 0.000000 0.074056 0.000000
# 6 0.000000 0.000000 0.000000 0.000000 0.000000 0.031380
#
#
# Mechanical properties :
#
#
# Convention : Reuss Voigt Hill
#
# Bulk Modulus (GPa) = 67.94619 70.43641 69.19130
# Shear Modulus (GPa) = 24.43663 29.85336 27.14500
#
# Velocity S-wave (km/s) = 3.37953 3.73536 3.56189
# Velocity P-wave (km/s) = 6.85456 7.17805 7.01817
#
# Compressibility (1/GPa) = 0.01471753
#
# Stress axis : x y z
#
# Youngs Moduli (GPa) = 117.25934 81.85722 107.01637
#
# Poissons Ratio (x) = 0.32965 0.17861
# Poissons Ratio (y) = 0.47223 0.21291
# Poissons Ratio (z) = 0.19570 0.16285
#
# Static dielectric constant tensor:
#      x y z
#    x 4.015290 0.000000 0.000000 
#    y 0.000000 3.854550 0.000000 
#    z 0.000000 0.000000 3.859650 
# 
# 
# High freq. dielectric constant tensor:
#      x y z
#    x 1.848820 0.000000 0.000000 
#    y 0.000000 1.843700 0.000000 
#    z 0.000000 0.000000 1.848030 
# 
# From -- ./inp_files/3065.got.cif
#   From: 2010.06.25/outbox.cif.g09.slc.cpg/sg58_2_cif.got.tgz:3065.got - 2010.06.26 21:38:00.
