data_PCOD8238984
_publ_section_title
;
Structure prediction by ZEFSAII (Michael W. Deem and Ramdas Pophale) SiO2 
 PCOD8238984
Probable space group: P N N M
;
_chemical_formula_sum "Si O2"
_cell_formula_units_Z 48
_cell_length_a 17.090057
_cell_length_b 19.538572
_cell_length_c 9.298318
_cell_angle_alpha 90.000000
_cell_angle_beta 90.000000
_cell_angle_gamma 90.000000
_cell_volume 3104.850730
_symmetry_space_group_name_H-M "P N N M"
_symmetry_group_IT_number 58
_symmetry_cell_setting 'orthorhombic'
loop_
_space_group_symop_operation_xyz
x,y,z
-x,-y,z
1/2+x,1/2-y,1/2-z
1/2-x,1/2+y,1/2-z
-x,-y,-z
x,y,-z
1/2-x,1/2+y,1/2+z
1/2+x,1/2-y,1/2+z
loop_
_atom_site_type_symbol
_atom_site_label
_atom_site_fract_x
_atom_site_fract_y
_atom_site_fract_z
Si Si1 0.348119 0.079155 0.331575
Si Si2 0.417979 0.961681 0.837787
Si Si3 0.314777 0.637825 0.161750
Si Si4 0.492038 0.847667 0.666154
Si Si5 0.056343 0.196533 0.168291
Si Si6 0.968526 0.928934 0.337893
O O1 0.343218 0.061828 0.500000
O O2 0.269425 0.116252 0.276787
O O3 0.419930 0.129531 0.296020
O O4 0.355274 0.007776 0.246772
O O5 0.428363 0.889004 0.759130
O O6 0.500000 0.000000 0.835203
O O7 0.388376 0.949355 0.000000
O O8 0.355618 0.695424 0.263081
O O9 0.373194 0.571651 0.160492
O O10 0.305852 0.667482 0.000000
O O11 0.472991 0.862367 0.500000
O O12 0.485004 0.767996 0.704056
O O13 0.003799 0.135924 0.240596
O O14 0.062949 0.182965 0.000000
O O15 0.001823 0.920024 0.500000
O O16 0.000000 0.000000 0.270940
#
# Coordination Sequence:
#
# PCOD8238984 Si02
#       6
#     8   8   8   8   8   8
#     4   9  16  29  48  66  87 118 153 185 221 270
#     4   9  17  27  42  67  93 115 145 184 221 262
#     4   8  16  29  46  65  85 115 150 183 226 270
#     4   9  17  29  46  66  89 119 151 183 221 269
#     4   9  17  28  45  68  91 116 150 188 225 265
#     4   8  15  29  48  66  85 113 152 186 217 265
#
# _framework density 15.459681
#
# number of rings (size 3 to 8) (size 9 to 14) (size 15 to 20)
#    1.000    2.333    0.000    0.500    0.000    4.333 
#    0.000    0.000    3.667    0.000    0.000    0.000 
#    0.000    0.000    0.000    0.000    0.000    0.000 
#
# Total GULP energy -594708.154278 kJ/mol
# GULP energy per Si atom -12389.753214 kJ/mol
# Density = 1.542449 g / cm^3
# Si number density = 15.459681 Si / 1000 Ang^3
#
#
#
# Elastic Constant Matrix: (Units=GPa)
#
#
# Indices 1 2 3 4 5 6 
#
# 1 59.0241 36.5361 27.1983 0.0000 0.0000 0.0000
# 2 36.5361 115.2653 57.2808 0.0000 0.0000 0.0000
# 3 27.1983 57.2808 75.6235 0.0000 0.0000 0.0000
# 4 0.0000 0.0000 0.0000 26.5986 0.0000 0.0000
# 5 0.0000 0.0000 0.0000 0.0000 18.2093 0.0000
# 6 0.0000 0.0000 0.0000 0.0000 0.0000 19.0029
#
#
#
# Elastic Compliance Matrix: (Units=1/GPa)
#
#
# Indices 1 2 3 4 5 6 
#
# 1 0.021877 -0.004850 -0.004195 0.000000 0.000000 0.000000
# 2 -0.004850 0.014988 -0.009608 0.000000 0.000000 0.000000
# 3 -0.004195 -0.009608 0.022010 0.000000 0.000000 0.000000
# 4 0.000000 0.000000 0.000000 0.037596 0.000000 0.000000
# 5 0.000000 0.000000 0.000000 0.000000 0.054917 0.000000
# 6 0.000000 0.000000 0.000000 0.000000 0.000000 0.052624
#
#
# Mechanical properties :
#
#
# Convention : Reuss Voigt Hill
#
# Bulk Modulus (GPa) = 46.36241 54.66035 50.51138
# Shear Modulus (GPa) = 20.12023 21.35534 20.73779
#
# Velocity S-wave (km/s) = 3.61150 3.72069 3.66650
# Velocity P-wave (km/s) = 6.88802 7.34109 7.11816
#
# Compressibility (1/GPa) = 0.02156920
#
# Stress axis : x y z
#
# Youngs Moduli (GPa) = 45.70949 66.72164 45.43483
#
# Poissons Ratio (x) = 0.32360 0.19058
# Poissons Ratio (y) = 0.22169 0.43654
# Poissons Ratio (z) = 0.19173 0.64106
#
# Static dielectric constant tensor:
#      x y z
#    x 2.746940 0.000000 0.000000 
#    y 0.000000 2.835980 0.000000 
#    z 0.000000 0.000000 3.000540 
# 
# 
# High freq. dielectric constant tensor:
#      x y z
#    x 1.562070 0.000000 0.000000 
#    y 0.000000 1.577470 0.000000 
#    z 0.000000 0.000000 1.597400 
# 
# From -- ./inp_files/9142.got.cif
#   From: 2010.06.25/outbox.cif.g09.slc.cpg/sg58_5_cif.got.tgz:9142.got - 2010.06.26 21:38:00.
