data_PCOD8238667
_publ_section_title
;
Structure prediction by ZEFSAII (Michael W. Deem and Ramdas Pophale) SiO2 
 PCOD8238667
Probable space group: P N N M
;
_chemical_formula_sum "Si O2"
_cell_formula_units_Z 64
_cell_length_a 15.208473
_cell_length_b 22.871090
_cell_length_c 9.137708
_cell_angle_alpha 90.000000
_cell_angle_beta 90.000000
_cell_angle_gamma 90.000000
_cell_volume 3178.408766
_symmetry_space_group_name_H-M "P N N M"
_symmetry_group_IT_number 58
_symmetry_cell_setting 'orthorhombic'
loop_
_space_group_symop_operation_xyz
x,y,z
-x,-y,z
1/2+x,1/2-y,1/2-z
1/2-x,1/2+y,1/2-z
-x,-y,-z
x,y,-z
1/2-x,1/2+y,1/2+z
1/2+x,1/2-y,1/2+z
loop_
_atom_site_type_symbol
_atom_site_label
_atom_site_fract_x
_atom_site_fract_y
_atom_site_fract_z
Si Si1 0.428361 0.048231 0.328406
Si Si2 0.694063 0.306074 0.667035
Si Si3 0.649495 0.633542 0.835782
Si Si4 0.510009 0.702875 0.335462
Si Si5 0.476384 0.833230 0.332581
Si Si6 0.249762 0.566126 0.672086
Si Si7 0.900791 0.000424 0.665558
Si Si8 0.300110 0.809738 0.172176
O O1 0.409535 0.041747 0.500000
O O2 0.462165 0.112862 0.286905
O O3 0.336457 0.037665 0.245640
O O4 0.500000 0.000000 0.277684
O O5 0.711890 0.287803 0.500000
O O6 0.590551 0.314339 0.692186
O O7 0.746240 0.364834 0.707939
O O8 0.728295 0.253960 0.768952
O O9 0.563431 0.667823 0.784564
O O10 0.634027 0.565443 0.832658
O O11 0.728434 0.644283 0.724728
O O12 0.672686 0.654494 0.000000
O O13 0.538714 0.684984 0.500000
O O14 0.527683 0.772141 0.313043
O O15 0.443925 0.840353 0.500000
O O16 0.392598 0.832970 0.228999
O O17 0.245555 0.554357 0.500000
O O18 0.338898 0.538328 0.732797
O O19 0.899856 0.974979 0.500000
O O20 0.000000 0.000000 0.728610
O O21 0.302907 0.806881 0.000000
#
# Coordination Sequence:
#
# PCOD8238667 Si02
#       8
#     8   8   8   8   8   8   8   8
#     4  10  23  42  64  88 119 165 212 254 306 371
#     4   9  20  40  61  87 123 159 193 239 305 365
#     4  11  23  37  58  86 121 158 197 245 298 358
#     4   9  18  35  59  87 119 154 195 243 296 360
#     4   9  20  40  62  85 120 159 199 247 305 364
#     4  11  24  40  64  96 128 161 202 259 313 362
#     4  10  23  43  65  90 122 164 210 251 297 365
#     4  11  23  37  59  89 119 155 200 248 297 357
#
# _framework density 20.135861999999999
#
# number of rings (size 3 to 8) (size 9 to 14) (size 15 to 20)
#    0.000    2.000    0.000    3.375    3.500    5.000 
#    0.000    0.000    0.000    0.000    0.000    0.000 
#    0.000    0.000    0.000    0.000    0.000    0.000 
#
# Total GULP energy -793777.371024 kJ/mol
# GULP energy per Si atom -12402.771422 kJ/mol
# Density = 2.009003 g / cm^3
# Si number density = 20.135862 Si / 1000 Ang^3
#
#
#
# Elastic Constant Matrix: (Units=GPa)
#
#
# Indices 1 2 3 4 5 6 
#
# 1 94.2770 28.2497 49.9243 0.0000 0.0000 0.0000
# 2 28.2497 59.7714 38.3462 0.0000 0.0000 0.0000
# 3 49.9243 38.3462 106.1749 0.0000 0.0000 0.0000
# 4 0.0000 0.0000 0.0000 42.6642 0.0000 0.0000
# 5 0.0000 0.0000 0.0000 0.0000 26.2690 0.0000
# 6 0.0000 0.0000 0.0000 0.0000 0.0000 32.8273
#
#
#
# Elastic Compliance Matrix: (Units=1/GPa)
#
#
# Indices 1 2 3 4 5 6 
#
# 1 0.014593 -0.003247 -0.005689 0.000000 0.000000 0.000000
# 2 -0.003247 0.022499 -0.006599 0.000000 0.000000 0.000000
# 3 -0.005689 -0.006599 0.014477 0.000000 0.000000 0.000000
# 4 0.000000 0.000000 0.000000 0.023439 0.000000 0.000000
# 5 0.000000 0.000000 0.000000 0.000000 0.038068 0.000000
# 6 0.000000 0.000000 0.000000 0.000000 0.000000 0.030462
#
#
# Mechanical properties :
#
#
# Convention : Reuss Voigt Hill
#
# Bulk Modulus (GPa) = 48.78485 54.80709 51.79597
# Shear Modulus (GPa) = 27.55753 29.93232 28.74492
#
# Velocity S-wave (km/s) = 3.70344 3.85972 3.78239
# Velocity P-wave (km/s) = 6.52440 6.86593 6.69734
#
# Compressibility (1/GPa) = 0.02049817
#
# Stress axis : x y z
#
# Youngs Moduli (GPa) = 68.52812 44.44736 69.07738
#
# Poissons Ratio (x) = 0.14433 0.39296
# Poissons Ratio (y) = 0.22253 0.45582
# Poissons Ratio (z) = 0.38984 0.29329
#
# Static dielectric constant tensor:
#      x y z
#    x 3.587180 0.000000 0.000000 
#    y 0.000000 3.647110 0.000000 
#    z 0.000000 0.000000 3.678770 
# 
# 
# High freq. dielectric constant tensor:
#      x y z
#    x 1.787810 0.000000 0.000000 
#    y 0.000000 1.791180 0.000000 
#    z 0.000000 0.000000 1.782870 
# 
# From -- ./inp_files/6893.got.cif
#   From: 2010.06.25/outbox.cif.g09.slc.cpg/sg58_4_cif.got.tgz:6893.got - 2010.06.26 21:38:00.
