data_PCOD8238341
_publ_section_title
;
Structure prediction by ZEFSAII (Michael W. Deem and Ramdas Pophale) SiO2 
 PCOD8238341
Probable space group: P N N M
;
_chemical_formula_sum "Si O2"
_cell_formula_units_Z 64
_cell_length_a 30.830537
_cell_length_b 11.912791
_cell_length_c 8.560005
_cell_angle_alpha 90.000000
_cell_angle_beta 90.000000
_cell_angle_gamma 90.000000
_cell_volume 3143.899322
_symmetry_space_group_name_H-M "P N N M"
_symmetry_group_IT_number 58
_symmetry_cell_setting 'orthorhombic'
loop_
_space_group_symop_operation_xyz
x,y,z
-x,-y,z
1/2+x,1/2-y,1/2-z
1/2-x,1/2+y,1/2-z
-x,-y,-z
x,y,-z
1/2-x,1/2+y,1/2+z
1/2+x,1/2-y,1/2+z
loop_
_atom_site_type_symbol
_atom_site_label
_atom_site_fract_x
_atom_site_fract_y
_atom_site_fract_z
Si Si1 0.203126 0.729564 0.817079
Si Si2 0.449850 0.777901 0.818493
Si Si3 0.668069 0.988485 0.819910
Si Si4 0.299387 0.768292 0.815008
Si Si5 0.377014 0.370968 0.685463
Si Si6 0.538178 0.756699 0.319712
Si Si7 0.923210 0.493584 0.821382
Si Si8 0.625565 0.371856 0.316380
O O1 0.195035 0.599793 0.780536
O O2 0.250234 0.763022 0.751178
O O3 0.165217 0.807648 0.742913
O O4 0.203335 0.748869 0.000000
O O5 0.495631 0.719443 0.776660
O O6 0.410821 0.695612 0.776597
O O7 0.447677 0.892164 0.719801
O O8 0.446914 0.807257 0.000000
O O9 0.617224 0.974785 0.791744
O O10 0.681899 0.111723 0.765828
O O11 0.678902 0.967746 0.000000
O O12 0.327013 0.673756 0.726562
O O13 0.302546 0.747523 0.000000
O O14 0.375832 0.359289 0.500000
O O15 0.420547 0.310897 0.748557
O O16 0.376639 0.499510 0.739298
O O17 0.530671 0.725038 0.500000
O O18 0.544485 0.889834 0.297633
O O19 0.906657 0.498186 0.000000
O O20 0.617000 0.360024 0.500000
#
# Coordination Sequence:
#
# PCOD8238341 Si02
#       8
#     8   8   8   8   8   8   8   8
#     4  10  21  41  64  88 122 163 204 247 301 358
#     4  12  25  40  59  88 127 159 195 246 308 363
#     4  11  22  37  61  93 127 160 197 250 307 355
#     4  10  23  40  61  89 126 162 197 251 307 352
#     4   9  20  40  64  88 114 155 205 254 294 346
#     4  10  21  40  64  89 118 152 202 251 299 359
#     4  11  21  38  65  92 120 158 202 247 296 358
#     4  11  23  40  65  88 116 159 210 252 296 360
#
# _framework density 20.356885999999999
#
# number of rings (size 3 to 8) (size 9 to 14) (size 15 to 20)
#    0.000    1.500    2.500    2.625    1.750    4.000 
#    0.000    5.000    0.000    0.000    0.000    0.000 
#    0.000    0.000    0.000    0.000    0.000    0.000 
#
# Total GULP energy -793872.041488 kJ/mol
# GULP energy per Si atom -12404.250648 kJ/mol
# Density = 2.031055 g / cm^3
# Si number density = 20.356886 Si / 1000 Ang^3
#
#
#
# Elastic Constant Matrix: (Units=GPa)
#
#
# Indices 1 2 3 4 5 6 
#
# 1 137.2434 39.2511 28.5851 0.0000 0.0000 0.0000
# 2 39.2511 110.6151 23.0396 0.0000 0.0000 0.0000
# 3 28.5851 23.0396 25.1631 0.0000 0.0000 0.0000
# 4 0.0000 0.0000 0.0000 17.4930 0.0000 0.0000
# 5 0.0000 0.0000 0.0000 0.0000 30.1000 0.0000
# 6 0.0000 0.0000 0.0000 0.0000 0.0000 20.4373
#
#
#
# Elastic Compliance Matrix: (Units=1/GPa)
#
#
# Indices 1 2 3 4 5 6 
#
# 1 0.009722 -0.001420 -0.009744 0.000000 0.000000 0.000000
# 2 -0.001420 0.011378 -0.008805 0.000000 0.000000 0.000000
# 3 -0.009744 -0.008805 0.058871 0.000000 0.000000 0.000000
# 4 0.000000 0.000000 0.000000 0.057166 0.000000 0.000000
# 5 0.000000 0.000000 0.000000 0.000000 0.033223 0.000000
# 6 0.000000 0.000000 0.000000 0.000000 0.000000 0.048930
#
#
# Mechanical properties :
#
#
# Convention : Reuss Voigt Hill
#
# Bulk Modulus (GPa) = 24.97870 50.53036 37.75453
# Shear Modulus (GPa) = 18.34384 25.74911 22.04648
#
# Velocity S-wave (km/s) = 3.00511 3.56038 3.29446
# Velocity P-wave (km/s) = 4.93335 6.46358 5.74960
#
# Compressibility (1/GPa) = 0.04003410
#
# Stress axis : x y z
#
# Youngs Moduli (GPa) = 102.86028 87.88724 16.98634
#
# Poissons Ratio (x) = 0.12483 0.16551
# Poissons Ratio (y) = 0.14609 0.14956
# Poissons Ratio (z) = 1.00223 0.77381
#
# Static dielectric constant tensor:
#      x y z
#    x 3.890030 0.000000 0.000000 
#    y 0.000000 3.748600 0.000000 
#    z 0.000000 0.000000 3.427910 
# 
# 
# High freq. dielectric constant tensor:
#      x y z
#    x 1.810070 0.000000 0.000000 
#    y 0.000000 1.796670 0.000000 
#    z 0.000000 0.000000 1.774960 
# 
# From -- ./inp_files/11050.got.cif
#   From: 2010.06.25/outbox.cif.g09.slc.cpg/sg58_6_cif.got.tgz:11050.got - 2010.06.26 21:38:00.
