data_PCOD8238301
_publ_section_title
;
Structure prediction by ZEFSAII (Michael W. Deem and Ramdas Pophale) SiO2 
 PCOD8238301
Probable space group: P N N M
;
_chemical_formula_sum "Si O2"
_cell_formula_units_Z 48
_cell_length_a 14.785509
_cell_length_b 18.445580
_cell_length_c 8.847281
_cell_angle_alpha 90.000000
_cell_angle_beta 90.000000
_cell_angle_gamma 90.000000
_cell_volume 2412.894963
_symmetry_space_group_name_H-M "P N N M"
_symmetry_group_IT_number 58
_symmetry_cell_setting 'orthorhombic'
loop_
_space_group_symop_operation_xyz
x,y,z
-x,-y,z
1/2+x,1/2-y,1/2-z
1/2-x,1/2+y,1/2-z
-x,-y,-z
x,y,-z
1/2-x,1/2+y,1/2+z
1/2+x,1/2-y,1/2+z
loop_
_atom_site_type_symbol
_atom_site_label
_atom_site_fract_x
_atom_site_fract_y
_atom_site_fract_z
Si Si1 0.896948 0.513139 0.324330
Si Si2 0.999140 0.787873 0.675779
Si Si3 0.343117 0.824460 0.175230
Si Si4 0.436919 0.566278 0.322041
Si Si5 0.302587 0.236866 0.823765
Si Si6 0.748408 0.912433 0.677925
O O1 0.880844 0.495207 0.500000
O O2 0.873040 0.595032 0.283587
O O3 0.836579 0.459898 0.226103
O O4 0.000000 0.500000 0.278327
O O5 0.995675 0.809075 0.500000
O O6 0.094358 0.752419 0.719970
O O7 0.924173 0.729098 0.718368
O O8 0.984231 0.859574 0.772424
O O9 0.256284 0.806632 0.277301
O O10 0.316889 0.817464 0.000000
O O11 0.500000 0.500000 0.270417
O O12 0.422735 0.567330 0.500000
O O13 0.339549 0.554560 0.247005
O O14 0.264566 0.169630 0.730514
O O15 0.292168 0.219808 0.000000
O O16 0.758766 0.912699 0.500000
#
# Coordination Sequence:
#
# PCOD8238301 Si02
#       6
#     8   8   8   8   8   8
#     4  10  22  42  67  93 127 170 211 257 316 378
#     4  10  22  41  65  93 125 163 205 254 313 375
#     4  10  21  39  63  92 124 161 206 257 311 372
#     4  11  25  43  64  92 125 166 214 263 319 380
#     4  11  23  40  64  93 125 165 209 254 315 378
#     4  12  25  42  65  94 130 170 213 261 316 373
#
# _framework density 19.893115000000002
#
# number of rings (size 3 to 8) (size 9 to 14) (size 15 to 20)
#    0.000    1.333    1.667    3.500    2.333    6.333 
#    0.000    1.667    0.000    0.000    0.000    0.000 
#    0.000    0.000    0.000    0.000    0.000    0.000 
#
# Total GULP energy -595540.019534 kJ/mol
# GULP energy per Si atom -12407.083740 kJ/mol
# Density = 1.984784 g / cm^3
# Si number density = 19.893115 Si / 1000 Ang^3
#
#
#
# Elastic Constant Matrix: (Units=GPa)
#
#
# Indices 1 2 3 4 5 6 
#
# 1 111.0321 26.8806 44.1472 0.0000 0.0000 0.0000
# 2 26.8806 90.0823 29.1981 0.0000 0.0000 0.0000
# 3 44.1472 29.1981 74.3852 0.0000 0.0000 0.0000
# 4 0.0000 0.0000 0.0000 52.7076 0.0000 0.0000
# 5 0.0000 0.0000 0.0000 0.0000 33.6822 0.0000
# 6 0.0000 0.0000 0.0000 0.0000 0.0000 35.8726
#
#
#
# Elastic Compliance Matrix: (Units=1/GPa)
#
#
# Indices 1 2 3 4 5 6 
#
# 1 0.011952 -0.001452 -0.006523 0.000000 0.000000 0.000000
# 2 -0.001452 0.012896 -0.004200 0.000000 0.000000 0.000000
# 3 -0.006523 -0.004200 0.018964 0.000000 0.000000 0.000000
# 4 0.000000 0.000000 0.000000 0.018973 0.000000 0.000000
# 5 0.000000 0.000000 0.000000 0.000000 0.029689 0.000000
# 6 0.000000 0.000000 0.000000 0.000000 0.000000 0.027876
#
#
# Mechanical properties :
#
#
# Convention : Reuss Voigt Hill
#
# Bulk Modulus (GPa) = 51.38698 52.88350 52.13524
# Shear Modulus (GPa) = 33.07168 36.13739 34.60454
#
# Velocity S-wave (km/s) = 4.08176 4.26676 4.17528
# Velocity P-wave (km/s) = 6.93556 7.13549 7.03623
#
# Compressibility (1/GPa) = 0.01946018
#
# Stress axis : x y z
#
# Youngs Moduli (GPa) = 83.67054 77.54576 52.73227
#
# Poissons Ratio (x) = 0.11260 0.34399
# Poissons Ratio (y) = 0.12149 0.22148
# Poissons Ratio (z) = 0.54581 0.32570
#
# Static dielectric constant tensor:
#      x y z
#    x 3.825080 0.000000 0.000000 
#    y 0.000000 3.938020 0.000000 
#    z 0.000000 0.000000 3.559520 
# 
# 
# High freq. dielectric constant tensor:
#      x y z
#    x 1.794400 0.000000 0.000000 
#    y 0.000000 1.786420 0.000000 
#    z 0.000000 0.000000 1.773490 
# 
# From -- ./inp_files/5872.got.cif
#   From: 2010.06.25/outbox.cif.g09.slc.cpg/sg58_3_cif.got.tgz:5872.got - 2010.06.26 21:38:00.
