data_PCOD8238520
_publ_section_title
;
Structure prediction by ZEFSAII (Michael W. Deem and Ramdas Pophale) SiO2 
 PCOD8238520
Probable space group: P N N M
;
_chemical_formula_sum "Si O2"
_cell_formula_units_Z 64
_cell_length_a 15.219925
_cell_length_b 23.642261
_cell_length_c 8.904812
_cell_angle_alpha 90.000000
_cell_angle_beta 90.000000
_cell_angle_gamma 90.000000
_cell_volume 3204.249128
_symmetry_space_group_name_H-M "P N N M"
_symmetry_group_IT_number 58
_symmetry_cell_setting 'orthorhombic'
loop_
_space_group_symop_operation_xyz
x,y,z
-x,-y,z
1/2+x,1/2-y,1/2-z
1/2-x,1/2+y,1/2-z
-x,-y,-z
x,y,-z
1/2-x,1/2+y,1/2+z
1/2+x,1/2-y,1/2+z
loop_
_atom_site_type_symbol
_atom_site_label
_atom_site_fract_x
_atom_site_fract_y
_atom_site_fract_z
Si Si1 0.250666 0.055804 0.176110
Si Si2 0.154239 0.750115 0.177685
Si Si3 0.163002 0.245606 0.172043
Si Si4 0.391800 0.632126 0.172245
Si Si5 0.241656 0.925388 0.175538
Si Si6 0.089234 0.856110 0.672688
Si Si7 0.900605 0.374668 0.175478
Si Si8 0.099042 0.367184 0.170505
O O1 0.165781 0.085747 0.244502
O O2 0.341324 0.081036 0.236618
O O3 0.247672 0.990563 0.221710
O O4 0.247984 0.064982 0.000000
O O5 0.246177 0.764976 0.254337
O O6 0.086481 0.797339 0.235709
O O7 0.122852 0.688459 0.229444
O O8 0.162976 0.754708 0.000000
O O9 0.121656 0.194015 0.260995
O O10 0.098208 0.299106 0.183977
O O11 0.178295 0.227442 0.000000
O O12 0.493709 0.615033 0.188709
O O13 0.361331 0.634120 0.000000
O O14 0.160523 0.899166 0.264060
O O15 0.332899 0.895613 0.216958
O O16 0.224672 0.916876 0.000000
O O17 0.111751 0.842888 0.500000
O O18 0.001716 0.388338 0.213205
O O19 0.881233 0.380888 0.000000
O O20 0.123221 0.384658 0.000000
#
# Coordination Sequence:
#
# PCOD8238520 Si02
#       8
#     8   8   8   8   8   8   8   8
#     4  11  25  43  63  88 119 159 206 256 309 362
#     4  11  21  36  62  94 127 162 200 243 299 362
#     4  11  21  36  62  94 127 162 200 243 299 362
#     4  11  24  41  63  92 124 161 204 249 303 364
#     4  11  25  43  63  88 119 159 206 256 309 362
#     4  11  24  41  63  92 124 161 204 249 303 364
#     4  10  22  40  63  91 123 161 202 245 298 360
#     4  10  22  40  63  91 123 161 202 245 298 360
#
# _framework density 19.973478
#
# number of rings (size 3 to 8) (size 9 to 14) (size 15 to 20)
#    0.000    1.250    2.500    3.000    0.000    7.500 
#    0.000    5.000    0.000    0.000    0.000    0.000 
#    0.000    0.000    0.000    0.000    0.000    0.000 
#
# Total GULP energy -793948.305543 kJ/mol
# GULP energy per Si atom -12405.442274 kJ/mol
# Density = 1.992802 g / cm^3
# Si number density = 19.973478 Si / 1000 Ang^3
#
#
#
# Elastic Constant Matrix: (Units=GPa)
#
#
# Indices 1 2 3 4 5 6 
#
# 1 109.1937 41.0894 29.8844 0.0000 0.0000 0.0000
# 2 41.0894 109.1904 28.2199 0.0000 0.0000 0.0000
# 3 29.8844 28.2199 31.7986 0.0000 0.0000 0.0000
# 4 0.0000 0.0000 0.0000 33.9896 0.0000 0.0000
# 5 0.0000 0.0000 0.0000 0.0000 24.8710 0.0000
# 6 0.0000 0.0000 0.0000 0.0000 0.0000 9.5410
#
#
#
# Elastic Compliance Matrix: (Units=1/GPa)
#
#
# Indices 1 2 3 4 5 6 
#
# 1 0.012725 -0.002203 -0.010004 0.000000 0.000000 0.000000
# 2 -0.002203 0.012265 -0.008815 0.000000 0.000000 0.000000
# 3 -0.010004 -0.008815 0.048672 0.000000 0.000000 0.000000
# 4 0.000000 0.000000 0.000000 0.029421 0.000000 0.000000
# 5 0.000000 0.000000 0.000000 0.000000 0.040207 0.000000
# 6 0.000000 0.000000 0.000000 0.000000 0.000000 0.104810
#
#
# Mechanical properties :
#
#
# Convention : Reuss Voigt Hill
#
# Bulk Modulus (GPa) = 31.62598 49.84113 40.73356
# Shear Modulus (GPa) = 16.62874 23.74626 20.18750
#
# Velocity S-wave (km/s) = 2.88851 3.45177 3.18262
# Velocity P-wave (km/s) = 5.19548 6.39485 5.82611
#
# Compressibility (1/GPa) = 0.03161957
#
# Stress axis : x y z
#
# Youngs Moduli (GPa) = 78.58603 81.52974 20.54559
#
# Poissons Ratio (x) = 0.17961 0.20553
# Poissons Ratio (y) = 0.17313 0.18110
# Poissons Ratio (z) = 0.78616 0.71866
#
# Static dielectric constant tensor:
#      x y z
#    x 3.756880 0.000000 0.000000 
#    y 0.000000 3.617140 0.000000 
#    z 0.000000 0.000000 3.710400 
# 
# 
# High freq. dielectric constant tensor:
#      x y z
#    x 1.791130 0.000000 0.000000 
#    y 0.000000 1.777190 0.000000 
#    z 0.000000 0.000000 1.788620 
# 
# From -- ./inp_files/6822.got.cif
#   From: 2010.06.25/outbox.cif.g09.slc.cpg/sg58_4_cif.got.tgz:6822.got - 2010.06.26 21:38:00.
