data_PCOD8238816
_publ_section_title
;
Structure prediction by ZEFSAII (Michael W. Deem and Ramdas Pophale) SiO2 
 PCOD8238816
Probable space group: P N N M
;
_chemical_formula_sum "Si O2"
_cell_formula_units_Z 40
_cell_length_a 9.534921
_cell_length_b 7.680012
_cell_length_c 28.297025
_cell_angle_alpha 90.000000
_cell_angle_beta 90.000000
_cell_angle_gamma 90.000000
_cell_volume 2072.143254
_symmetry_space_group_name_H-M "P N N M"
_symmetry_group_IT_number 58
_symmetry_cell_setting 'orthorhombic'
loop_
_space_group_symop_operation_xyz
x,y,z
-x,-y,z
1/2+x,1/2-y,1/2-z
1/2-x,1/2+y,1/2-z
-x,-y,-z
x,y,-z
1/2-x,1/2+y,1/2+z
1/2+x,1/2-y,1/2+z
loop_
_atom_site_type_symbol
_atom_site_label
_atom_site_fract_x
_atom_site_fract_y
_atom_site_fract_z
Si Si1 0.683914 0.825196 0.388372
Si Si2 0.333042 0.491188 0.552262
Si Si3 0.131017 0.384570 0.220933
Si Si4 0.131562 0.116455 0.298916
Si Si5 0.635359 0.213399 0.379595
O O1 0.729360 0.696301 0.430929
O O2 0.791489 0.805994 0.344845
O O3 0.530507 0.753605 0.375170
O O4 0.674171 0.027385 0.403778
O O5 0.500000 0.500000 0.548620
O O6 0.270033 0.526915 0.500000
O O7 0.285699 0.640470 0.589409
O O8 0.080583 0.273053 0.265453
O O9 0.261245 0.508400 0.234349
O O10 0.187058 0.278387 0.174863
O O11 0.000000 0.500000 0.203286
O O12 0.000000 0.000000 0.314865
#
# Coordination Sequence:
#
# PCOD8238816 Si02
#       5
#     8   8   8   8   8
#     4   9  18  35  50  76 110 144 176 225 278 330
#     4   9  18  30  53  84 106 138 185 232 285 331
#     4  11  21  38  54  80 111 150 189 226 281 329
#     4  11  23  34  54  81 111 148 190 228 274 334
#     4   9  17  33  53  74 110 142 179 222 279 330
#
# _framework density 19.303685000000002
#
# number of rings (size 3 to 8) (size 9 to 14) (size 15 to 20)
#    0.000    2.200    4.000    1.200    2.800    1.600 
#    0.000    4.000    0.000    0.600    0.000    5.600 
#    0.000    0.000    0.000    0.000    0.000    0.000 
#
# Total GULP energy -495671.904008 kJ/mol
# GULP energy per Si atom -12391.797600 kJ/mol
# Density = 1.925975 g / cm^3
# Si number density = 19.303685 Si / 1000 Ang^3
#
#
#
# Elastic Constant Matrix: (Units=GPa)
#
#
# Indices 1 2 3 4 5 6 
#
# 1 48.6847 24.5704 24.7906 0.0000 0.0000 0.0000
# 2 24.5704 93.5466 71.0799 0.0000 0.0000 0.0000
# 3 24.7906 71.0799 131.7346 0.0000 0.0000 0.0000
# 4 0.0000 0.0000 0.0000 30.4410 0.0000 0.0000
# 5 0.0000 0.0000 0.0000 0.0000 13.2319 0.0000
# 6 0.0000 0.0000 0.0000 0.0000 0.0000 16.5373
#
#
#
# Elastic Compliance Matrix: (Units=1/GPa)
#
#
# Indices 1 2 3 4 5 6 
#
# 1 0.023953 -0.004858 -0.001886 0.000000 0.000000 0.000000
# 2 -0.004858 0.019103 -0.009393 0.000000 0.000000 0.000000
# 3 -0.001886 -0.009393 0.013014 0.000000 0.000000 0.000000
# 4 0.000000 0.000000 0.000000 0.032850 0.000000 0.000000
# 5 0.000000 0.000000 0.000000 0.000000 0.075575 0.000000
# 6 0.000000 0.000000 0.000000 0.000000 0.000000 0.060469
#
#
# Mechanical properties :
#
#
# Convention : Reuss Voigt Hill
#
# Bulk Modulus (GPa) = 42.02574 57.20533 49.61553
# Shear Modulus (GPa) = 18.85571 22.27704 20.56638
#
# Velocity S-wave (km/s) = 3.12876 3.40079 3.26761
# Velocity P-wave (km/s) = 5.90511 6.71708 6.32414
#
# Compressibility (1/GPa) = 0.02379494
#
# Stress axis : x y z
#
# Youngs Moduli (GPa) = 41.74912 52.34738 76.83845
#
# Poissons Ratio (x) = 0.25430 0.14494
# Poissons Ratio (y) = 0.20282 0.72176
# Poissons Ratio (z) = 0.07875 0.49171
#
# Static dielectric constant tensor:
#      x y z
#    x 3.135870 0.000000 0.000000 
#    y 0.000000 3.715000 0.000000 
#    z 0.000000 0.000000 3.513900 
# 
# 
# High freq. dielectric constant tensor:
#      x y z
#    x 1.706810 0.000000 0.000000 
#    y 0.000000 1.754460 0.000000 
#    z 0.000000 0.000000 1.738950 
# 
# From -- ./inp_files/31263.got.cif
#   From: 2010.06.25/outbox.cif.g09.slc.cpg/sg58_16_cif.got.tgz:31263.got - 2010.06.26 21:38:00.
