data_PCOD8238557
_publ_section_title
;
Structure prediction by ZEFSAII (Michael W. Deem and Ramdas Pophale) SiO2 
 PCOD8238557
Probable space group: P N N M
;
_chemical_formula_sum "Si O2"
_cell_formula_units_Z 64
_cell_length_a 28.529594
_cell_length_b 12.710326
_cell_length_c 8.649833
_cell_angle_alpha 90.000000
_cell_angle_beta 90.000000
_cell_angle_gamma 90.000000
_cell_volume 3136.606252
_symmetry_space_group_name_H-M "P N N M"
_symmetry_group_IT_number 58
_symmetry_cell_setting 'orthorhombic'
loop_
_space_group_symop_operation_xyz
x,y,z
-x,-y,z
1/2+x,1/2-y,1/2-z
1/2-x,1/2+y,1/2-z
-x,-y,-z
x,y,-z
1/2-x,1/2+y,1/2+z
1/2+x,1/2-y,1/2+z
loop_
_atom_site_type_symbol
_atom_site_label
_atom_site_fract_x
_atom_site_fract_y
_atom_site_fract_z
Si Si1 0.614489 0.461658 0.818870
Si Si2 0.704539 0.952950 0.679116
Si Si3 0.960893 0.810564 0.177106
Si Si4 0.559671 0.668888 0.179278
Si Si5 0.601908 0.870975 0.323745
Si Si6 0.915463 0.599700 0.175855
Si Si7 0.204435 0.129711 0.821093
Si Si8 0.322337 0.841780 0.823060
O O1 0.579026 0.368300 0.774976
O O2 0.593939 0.574722 0.770431
O O3 0.664026 0.450668 0.732729
O O4 0.624114 0.454121 0.000000
O O5 0.705980 0.982860 0.500000
O O6 0.656093 0.893296 0.717802
O O7 0.748129 0.881053 0.723547
O O8 0.709909 0.059309 0.778534
O O9 0.957635 0.683115 0.199232
O O10 0.011911 0.847190 0.227707
O O11 0.953033 0.842404 0.000000
O O12 0.583734 0.780203 0.212171
O O13 0.547089 0.661424 0.000000
O O14 0.596626 0.831785 0.500000
O O15 0.570538 0.977203 0.297328
O O16 0.876145 0.627238 0.300101
O O17 0.895350 0.608770 0.000000
O O18 0.187749 0.247537 0.792961
O O19 0.214950 0.110505 0.000000
O O20 0.313374 0.808527 0.000000
#
# Coordination Sequence:
#
# PCOD8238557 Si02
#       8
#     8   8   8   8   8   8   8   8
#     4  11  24  42  61  86 122 162 206 258 312 365
#     4  10  22  41  63  89 122 159 202 255 310 366
#     4  11  22  38  64  92 120 158 206 255 311 371
#     4  11  25  41  59  86 126 166 203 252 310 367
#     4   9  20  40  63  86 119 160 202 249 305 365
#     4   9  19  37  61  89 119 154 199 254 304 353
#     4  12  24  39  62  92 122 157 204 254 306 370
#     4  11  21  36  60  88 119 157 197 246 304 364
#
# _framework density 20.404219000000001
#
# number of rings (size 3 to 8) (size 9 to 14) (size 15 to 20)
#    0.000    1.500    1.250    4.875    0.000    8.000 
#    0.000    5.000    0.000    0.000    0.000    0.000 
#    0.000    0.000    0.000    0.000    0.000    0.000 
#
# Total GULP energy -793712.542061 kJ/mol
# GULP energy per Si atom -12401.758470 kJ/mol
# Density = 2.035778 g / cm^3
# Si number density = 20.404219 Si / 1000 Ang^3
#
#
#
# Elastic Constant Matrix: (Units=GPa)
#
#
# Indices 1 2 3 4 5 6 
#
# 1 44.3117 3.4510 21.4582 0.0000 0.0000 0.0000
# 2 3.4510 88.8624 21.1993 0.0000 0.0000 0.0000
# 3 21.4582 21.1993 63.3577 0.0000 0.0000 0.0000
# 4 0.0000 0.0000 0.0000 33.7168 0.0000 0.0000
# 5 0.0000 0.0000 0.0000 0.0000 30.0818 0.0000
# 6 0.0000 0.0000 0.0000 0.0000 0.0000 19.1356
#
#
#
# Elastic Compliance Matrix: (Units=1/GPa)
#
#
# Indices 1 2 3 4 5 6 
#
# 1 0.027119 0.001237 -0.009599 0.000000 0.000000 0.000000
# 2 0.001237 0.012286 -0.004530 0.000000 0.000000 0.000000
# 3 -0.009599 -0.004530 0.020550 0.000000 0.000000 0.000000
# 4 0.000000 0.000000 0.000000 0.029659 0.000000 0.000000
# 5 0.000000 0.000000 0.000000 0.000000 0.033243 0.000000
# 6 0.000000 0.000000 0.000000 0.000000 0.000000 0.052259
#
#
# Mechanical properties :
#
#
# Convention : Reuss Voigt Hill
#
# Bulk Modulus (GPa) = 29.26383 32.08320 30.67352
# Shear Modulus (GPa) = 23.55276 26.61505 25.08391
#
# Velocity S-wave (km/s) = 3.40120 3.61555 3.51001
# Velocity P-wave (km/s) = 5.45870 5.76086 5.61181
#
# Compressibility (1/GPa) = 0.03417188
#
# Stress axis : x y z
#
# Youngs Moduli (GPa) = 36.87409 81.39383 48.66193
#
# Poissons Ratio (x) = -0.10066 0.46709
# Poissons Ratio (y) = -0.04560 0.22042
# Poissons Ratio (z) = 0.35394 0.36869
#
# Static dielectric constant tensor:
#      x y z
#    x 3.622950 0.000000 0.000000 
#    y 0.000000 3.828350 0.000000 
#    z 0.000000 0.000000 3.636110 
# 
# 
# High freq. dielectric constant tensor:
#      x y z
#    x 1.787030 0.000000 0.000000 
#    y 0.000000 1.805180 0.000000 
#    z 0.000000 0.000000 1.801670 
# 
# From -- ./inp_files/10938.got.cif
#   From: 2010.06.25/outbox.cif.g09.slc.cpg/sg58_6_cif.got.tgz:10938.got - 2010.06.26 21:38:00.
