data_PCOD8238693
_publ_section_title
;
Structure prediction by ZEFSAII (Michael W. Deem and Ramdas Pophale) SiO2 
 PCOD8238693
Probable space group: P N N M
;
_chemical_formula_sum "Si O2"
_cell_formula_units_Z 36
_cell_length_a 7.961020
_cell_length_b 8.892066
_cell_length_c 22.203429
_cell_angle_alpha 90.000000
_cell_angle_beta 90.000000
_cell_angle_gamma 90.000000
_cell_volume 1571.778858
_symmetry_space_group_name_H-M "P N N M"
_symmetry_group_IT_number 58
_symmetry_cell_setting 'orthorhombic'
loop_
_space_group_symop_operation_xyz
x,y,z
-x,-y,z
1/2+x,1/2-y,1/2-z
1/2-x,1/2+y,1/2-z
-x,-y,-z
x,y,-z
1/2-x,1/2+y,1/2+z
1/2+x,1/2-y,1/2+z
loop_
_atom_site_type_symbol
_atom_site_label
_atom_site_fract_x
_atom_site_fract_y
_atom_site_fract_z
Si Si1 0.000000 0.000000 0.363412
Si Si2 0.335498 0.928311 0.566754
Si Si3 0.326939 0.580918 0.566121
Si Si4 0.923376 0.743486 0.727999
Si Si5 0.731526 0.950600 0.804728
O O1 0.062082 0.144352 0.327493
O O2 0.839782 0.044361 0.401667
O O3 0.321018 0.999253 0.500000
O O4 0.370695 0.753742 0.563737
O O5 0.500000 0.000000 0.599724
O O6 0.500000 0.500000 0.580250
O O7 0.252582 0.530406 0.500000
O O8 0.203745 0.545795 0.622672
O O9 0.896621 0.851538 0.786836
O O10 0.767740 0.623245 0.719487
O O11 0.086492 0.639186 0.730962
#
# Coordination Sequence:
#
# PCOD8238693 Si02
#       5
#     4   8   8   8   8
#     4  12  23  44  68 106 141 186 236 308 354 430
#     4  10  23  43  69 103 142 190 238 289 358 429
#     4  10  23  44  71 100 138 186 237 293 351 429
#     4  11  26  44  69 102 140 181 238 290 370 419
#     4  11  25  46  68 104 139 186 233 298 352 443
#
# _framework density 22.903984999999999
#
# number of rings (size 3 to 8) (size 9 to 14) (size 15 to 20)
#    0.000    1.333    2.222    1.667    7.778    0.000 
#    0.000    3.333    0.000    0.000    0.000    0.000 
#    0.000    0.000    0.000    0.000    0.000    0.000 
#
# Total GULP energy -445994.040929 kJ/mol
# GULP energy per Si atom -12388.723359 kJ/mol
# Density = 2.285185 g / cm^3
# Si number density = 22.903985 Si / 1000 Ang^3
#
#
#
# Elastic Constant Matrix: (Units=GPa)
#
#
# Indices 1 2 3 4 5 6 
#
# 1 96.9798 38.1778 38.4565 0.0000 0.0000 0.0000
# 2 38.1778 142.8787 44.4695 0.0000 0.0000 0.0000
# 3 38.4565 44.4695 134.3907 0.0000 0.0000 0.0000
# 4 0.0000 0.0000 0.0000 -11.5384 0.0000 0.0000
# 5 0.0000 0.0000 0.0000 0.0000 12.4154 0.0000
# 6 0.0000 0.0000 0.0000 0.0000 0.0000 37.8997
#
#
#
# Elastic Compliance Matrix: (Units=1/GPa)
#
#
# Indices 1 2 3 4 5 6 
#
# 1 0.012358 -0.002454 -0.002724 0.000000 0.000000 0.000000
# 2 -0.002454 0.008290 -0.002041 0.000000 0.000000 0.000000
# 3 -0.002724 -0.002041 0.008896 0.000000 0.000000 0.000000
# 4 0.000000 0.000000 0.000000 -0.086667 0.000000 0.000000
# 5 0.000000 0.000000 0.000000 0.000000 0.080545 0.000000
# 6 0.000000 0.000000 0.000000 0.000000 0.000000 0.026385
#
#
# Mechanical properties :
#
#
# Convention : Reuss Voigt Hill
#
# Bulk Modulus (GPa) = 66.20247 68.49519 67.34883
# Shear Modulus (GPa) = 72.17049 24.63170 48.40109
#
# Velocity S-wave (km/s) = 5.61947 3.28294 4.60196
# Velocity P-wave (km/s) = 8.43040 6.65887 7.59645
#
# Compressibility (1/GPa) = 0.01510518
#
# Stress axis : x y z
#
# Youngs Moduli (GPa) = 80.92056 120.62868 112.41226
#
# Poissons Ratio (x) = 0.29605 0.30623
# Poissons Ratio (y) = 0.19859 0.22941
# Poissons Ratio (z) = 0.22044 0.24618
#
# Static dielectric constant tensor:
#      x y z
#    x 4.264850 0.000000 0.000000 
#    y 0.000000 4.460820 0.000000 
#    z 0.000000 0.000000 4.424380 
# 
# 
# High freq. dielectric constant tensor:
#      x y z
#    x 1.895000 0.000000 0.000000 
#    y 0.000000 1.927590 0.000000 
#    z 0.000000 0.000000 1.900970 
# 
# From -- ./inp_files/28566.got.cif
#   From: 2010.06.25/outbox.cif.g09.slc.cpg/sg58_15_cif.got.tgz:28566.got - 2010.06.26 21:38:00.
