data_PCOD8238689
_publ_section_title
;
Structure prediction by ZEFSAII (Michael W. Deem and Ramdas Pophale) SiO2 
 PCOD8238689
Probable space group: P N N M
;
_chemical_formula_sum "Si O2"
_cell_formula_units_Z 56
_cell_length_a 14.842865
_cell_length_b 20.941601
_cell_length_c 8.381579
_cell_angle_alpha 90.000000
_cell_angle_beta 90.000000
_cell_angle_gamma 90.000000
_cell_volume 2605.274334
_symmetry_space_group_name_H-M "P N N M"
_symmetry_group_IT_number 58
_symmetry_cell_setting 'orthorhombic'
loop_
_space_group_symop_operation_xyz
x,y,z
-x,-y,z
1/2+x,1/2-y,1/2-z
1/2-x,1/2+y,1/2-z
-x,-y,-z
x,y,-z
1/2-x,1/2+y,1/2+z
1/2+x,1/2-y,1/2+z
loop_
_atom_site_type_symbol
_atom_site_label
_atom_site_fract_x
_atom_site_fract_y
_atom_site_fract_z
Si Si1 0.682801 0.734218 0.813119
Si Si2 0.734794 0.468698 0.816486
Si Si3 0.672103 0.336989 0.686679
Si Si4 0.020515 0.240051 0.687122
Si Si5 0.922908 0.448428 0.317959
Si Si6 0.433240 0.867748 0.314608
Si Si7 0.749540 0.101292 0.185110
O O1 0.747359 0.790788 0.744477
O O2 0.581169 0.737299 0.743481
O O3 0.719270 0.663819 0.777864
O O4 0.677544 0.743347 0.000000
O O5 0.692203 0.410985 0.717628
O O6 0.842117 0.465155 0.798641
O O7 0.700889 0.537249 0.748778
O O8 0.706888 0.462981 0.000000
O O9 0.660106 0.325366 0.500000
O O10 0.577162 0.323894 0.775851
O O11 0.021036 0.255086 0.500000
O O12 0.078275 0.292614 0.784339
O O13 0.888050 0.441749 0.500000
O O14 0.000000 0.500000 0.297176
O O15 0.968149 0.382823 0.258252
O O16 0.424768 0.885162 0.500000
O O17 0.357328 0.906786 0.216931
O O18 0.770216 0.109360 0.000000
#
# Coordination Sequence:
#
# PCOD8238689 Si02
#       7
#     8   8   8   8   8   8   8
#     4  10  23  43  67  95 130 170 212 265 324 383
#     4  12  25  41  63  91 129 170 214 265 325 388
#     4  11  23  42  67  95 132 172 215 266 323 384
#     4  11  23  41  66  96 129 166 214 267 323 381
#     4  11  22  36  57  86 123 163 206 254 314 381
#     4  12  23  37  60  90 126 165 209 258 319 383
#     4  12  24  40  64  92 126 167 214 262 317 381
#
# _framework density 21.494857
#
# number of rings (size 3 to 8) (size 9 to 14) (size 15 to 20)
#    0.000    0.714    2.857    6.000    0.000    3.429 
#    0.000    0.714    0.000    4.286    0.000    0.000 
#    0.000    0.000    0.000    0.000    0.000    0.000 
#
# Total GULP energy -694511.118267 kJ/mol
# GULP energy per Si atom -12401.984255 kJ/mol
# Density = 2.144593 g / cm^3
# Si number density = 21.494857 Si / 1000 Ang^3
#
#
#
# Elastic Constant Matrix: (Units=GPa)
#
#
# Indices 1 2 3 4 5 6 
#
# 1 64.8459 6.9823 9.1345 0.0000 0.0000 0.0000
# 2 6.9823 100.5877 -9.5854 0.0000 0.0000 0.0000
# 3 9.1345 -9.5854 51.2980 0.0000 0.0000 0.0000
# 4 0.0000 0.0000 0.0000 33.8894 0.0000 0.0000
# 5 0.0000 0.0000 0.0000 0.0000 27.3245 0.0000
# 6 0.0000 0.0000 0.0000 0.0000 0.0000 24.7815
#
#
#
# Elastic Compliance Matrix: (Units=1/GPa)
#
#
# Indices 1 2 3 4 5 6 
#
# 1 0.016012 -0.001408 -0.003114 0.000000 0.000000 0.000000
# 2 -0.001408 0.010246 0.002165 0.000000 0.000000 0.000000
# 3 -0.003114 0.002165 0.020453 0.000000 0.000000 0.000000
# 4 0.000000 0.000000 0.000000 0.029508 0.000000 0.000000
# 5 0.000000 0.000000 0.000000 0.000000 0.036597 0.000000
# 6 0.000000 0.000000 0.000000 0.000000 0.000000 0.040353
#
#
# Mechanical properties :
#
#
# Convention : Reuss Voigt Hill
#
# Bulk Modulus (GPa) = 23.81195 25.53273 24.67234
# Shear Modulus (GPa) = 29.08992 31.21244 30.15118
#
# Velocity S-wave (km/s) = 3.68277 3.81476 3.74935
# Velocity P-wave (km/s) = 5.40239 5.59531 5.49970
#
# Compressibility (1/GPa) = 0.04199573
#
# Stress axis : x y z
#
# Youngs Moduli (GPa) = 62.45507 97.60234 48.89238
#
# Poissons Ratio (x) = 0.13745 0.15226
# Poissons Ratio (y) = 0.08795 -0.10586
# Poissons Ratio (z) = 0.19450 -0.21133
#
# Static dielectric constant tensor:
#      x y z
#    x 3.907180 0.000000 0.000000 
#    y 0.000000 4.025170 0.000000 
#    z 0.000000 0.000000 3.661460 
# 
# 
# High freq. dielectric constant tensor:
#      x y z
#    x 1.825440 0.000000 0.000000 
#    y 0.000000 1.856470 0.000000 
#    z 0.000000 0.000000 1.840140 
# 
# From -- ./inp_files/6352.got.cif
#   From: 2010.06.25/outbox.cif.g09.slc.cpg/sg58_4_cif.got.tgz:6352.got - 2010.06.26 21:38:00.
