data_PCOD8238460
_publ_section_title
;
Structure prediction by ZEFSAII (Michael W. Deem and Ramdas Pophale) SiO2 
 PCOD8238460
Probable space group: P N N M
;
_chemical_formula_sum "Si O2"
_cell_formula_units_Z 40
_cell_length_a 8.782101
_cell_length_b 28.747996
_cell_length_c 7.659679
_cell_angle_alpha 90.000000
_cell_angle_beta 90.000000
_cell_angle_gamma 90.000000
_cell_volume 1933.822340
_symmetry_space_group_name_H-M "P N N M"
_symmetry_group_IT_number 58
_symmetry_cell_setting 'orthorhombic'
loop_
_space_group_symop_operation_xyz
x,y,z
-x,-y,z
1/2+x,1/2-y,1/2-z
1/2-x,1/2+y,1/2-z
-x,-y,-z
x,y,-z
1/2-x,1/2+y,1/2+z
1/2+x,1/2-y,1/2+z
loop_
_atom_site_type_symbol
_atom_site_label
_atom_site_fract_x
_atom_site_fract_y
_atom_site_fract_z
Si Si1 0.339957 0.395682 0.694350
Si Si2 0.640625 0.788672 0.795751
Si Si3 0.157812 0.559865 0.000000
Si Si4 0.189585 0.117823 0.797903
Si Si5 0.803489 0.696271 0.802698
Si Si6 0.807847 0.549096 0.000000
O O1 0.331573 0.417299 0.500000
O O2 0.511756 0.383212 0.745993
O O3 0.240846 0.348659 0.691321
O O4 0.276522 0.433630 0.826938
O O5 0.754150 0.830654 0.751167
O O6 0.719328 0.741641 0.725836
O O7 0.483591 0.795937 0.696225
O O8 0.607257 0.785722 0.000000
O O9 0.224669 0.581094 0.176828
O O10 0.198218 0.505981 0.000000
O O11 0.977978 0.569058 0.000000
O O12 0.223408 0.105207 0.000000
O O13 0.750397 0.686777 0.000000
#
# Coordination Sequence:
#
# PCOD8238460 Si02
#       6
#     8   8   4   8   8   4
#     4  11  23  42  66  92 130 168 210 266 319 382
#     4  10  22  38  57  87 127 168 214 260 311 376
#     4  11  25  43  69  93 129 165 211 275 316 389
#     4  10  23  42  64  93 127 168 212 260 323 381
#     4  11  22  37  59  90 127 168 217 261 311 376
#     4  11  25  45  65  99 125 165 219 259 332 385
#
# _framework density 20.684422999999999
#
# number of rings (size 3 to 8) (size 9 to 14) (size 15 to 20)
#    0.000    1.400    1.000    3.600    1.400    8.000 
#    0.000    4.000    0.000    0.000    0.000    0.000 
#    0.000    0.000    0.000    0.000    0.000    0.000 
#
# Total GULP energy -496229.571984 kJ/mol
# GULP energy per Si atom -12405.739300 kJ/mol
# Density = 2.063734 g / cm^3
# Si number density = 20.684423 Si / 1000 Ang^3
#
#
#
# Elastic Constant Matrix: (Units=GPa)
#
#
# Indices 1 2 3 4 5 6 
#
# 1 69.2531 6.3372 25.4509 0.0000 0.0000 0.0000
# 2 6.3372 64.0766 31.8590 0.0000 0.0000 0.0000
# 3 25.4509 31.8590 89.9224 0.0000 0.0000 0.0000
# 4 0.0000 0.0000 0.0000 12.1409 0.0000 0.0000
# 5 0.0000 0.0000 0.0000 0.0000 28.6112 0.0000
# 6 0.0000 0.0000 0.0000 0.0000 0.0000 39.1837
#
#
#
# Elastic Compliance Matrix: (Units=1/GPa)
#
#
# Indices 1 2 3 4 5 6 
#
# 1 0.016152 0.000820 -0.004862 0.000000 0.000000 0.000000
# 2 0.000820 0.018985 -0.006958 0.000000 0.000000 0.000000
# 3 -0.004862 -0.006958 0.014962 0.000000 0.000000 0.000000
# 4 0.000000 0.000000 0.000000 0.082366 0.000000 0.000000
# 5 0.000000 0.000000 0.000000 0.000000 0.034951 0.000000
# 6 0.000000 0.000000 0.000000 0.000000 0.000000 0.025521
#
#
# Mechanical properties :
#
#
# Convention : Reuss Voigt Hill
#
# Bulk Modulus (GPa) = 35.58975 38.94959 37.26967
# Shear Modulus (GPa) = 22.29121 26.62749 24.45935
#
# Velocity S-wave (km/s) = 3.28637 3.59182 3.44248
# Velocity P-wave (km/s) = 5.62527 6.00606 5.81878
#
# Compressibility (1/GPa) = 0.02809798
#
# Stress axis : x y z
#
# Youngs Moduli (GPa) = 61.91362 52.67337 66.83564
#
# Poissons Ratio (x) = -0.04319 0.32495
# Poissons Ratio (y) = -0.05077 0.46506
# Poissons Ratio (z) = 0.30102 0.36652
#
# Static dielectric constant tensor:
#      x y z
#    x 3.834660 0.000000 0.000000 
#    y 0.000000 3.673530 0.000000 
#    z 0.000000 0.000000 4.012910 
# 
# 
# High freq. dielectric constant tensor:
#      x y z
#    x 1.823180 0.000000 0.000000 
#    y 0.000000 1.805780 0.000000 
#    z 0.000000 0.000000 1.817700 
# 
# From -- ./inp_files/2673.got.cif
#   From: 2010.06.25/outbox.cif.g09.slc.cpg/sg58_2_cif.got.tgz:2673.got - 2010.06.26 21:38:00.
