data_PCOD8238049
_publ_section_title
;
Structure prediction by ZEFSAII (Michael W. Deem and Ramdas Pophale) SiO2 
 PCOD8238049
Probable space group: P N N M
;
_chemical_formula_sum "Si O2"
_cell_formula_units_Z 64
_cell_length_a 22.072774
_cell_length_b 10.528291
_cell_length_c 14.176029
_cell_angle_alpha 90.000000
_cell_angle_beta 90.000000
_cell_angle_gamma 90.000000
_cell_volume 3294.347361
_symmetry_space_group_name_H-M "P N N M"
_symmetry_group_IT_number 58
_symmetry_cell_setting 'orthorhombic'
loop_
_space_group_symop_operation_xyz
x,y,z
-x,-y,z
1/2+x,1/2-y,1/2-z
1/2-x,1/2+y,1/2-z
-x,-y,-z
x,y,-z
1/2-x,1/2+y,1/2+z
1/2+x,1/2-y,1/2+z
loop_
_atom_site_type_symbol
_atom_site_label
_atom_site_fract_x
_atom_site_fract_y
_atom_site_fract_z
Si Si1 0.669215 0.575600 0.768011
Si Si2 0.817789 0.353203 0.730643
Si Si3 0.948534 0.904735 0.755816
Si Si4 0.091583 0.521852 0.393056
Si Si5 0.280769 0.562211 0.603691
Si Si6 0.784154 0.528640 0.111661
Si Si7 0.880760 0.743019 0.102410
Si Si8 0.487116 0.787361 0.893595
O O1 0.645779 0.720730 0.766962
O O2 0.612311 0.480318 0.775067
O O3 0.707237 0.559350 0.670478
O O4 0.715850 0.560886 0.854948
O O5 0.853470 0.465766 0.678582
O O6 0.758996 0.337010 0.663607
O O7 0.802878 0.397771 0.836622
O O8 0.933956 0.785297 0.825470
O O9 0.979199 0.841042 0.664934
O O10 0.000000 0.000000 0.798642
O O11 0.110672 0.554828 0.500000
O O12 0.072143 0.375610 0.386966
O O13 0.041572 0.623119 0.358622
O O14 0.253300 0.524951 0.500000
O O15 0.344325 0.628282 0.585656
O O16 0.835232 0.633333 0.139274
O O17 0.782405 0.507335 0.000000
O O18 0.908677 0.702458 0.000000
O O19 0.498722 0.742320 0.000000
#
# Coordination Sequence:
#
# PCOD8238049 Si02
#       8
#     8   8   8   8   8   8   8   8
#     4  10  22  35  54  81 115 151 192 235 289 349
#     4  11  19  32  55  81 106 139 185 237 282 341
#     4  11  22  36  56  85 119 155 192 235 292 347
#     4   9  18  33  56  81 105 145 192 232 276 334
#     4   9  18  33  52  73 103 139 179 229 283 337
#     4  10  21  37  57  82 113 151 193 242 299 346
#     4   9  18  36  58  77 105 147 191 237 286 343
#     4   9  19  36  53  76 114 150 186 229 277 336
#
# _framework density 19.427216000000001
#
# number of rings (size 3 to 8) (size 9 to 14) (size 15 to 20)
#    0.000    2.250    1.250    2.625    0.000    2.000 
#    0.000    0.000    0.000    2.250    0.000    8.750 
#    0.000    0.000    0.000    0.000    0.000    0.000 
#
# Total GULP energy -792889.155908 kJ/mol
# GULP energy per Si atom -12388.893061 kJ/mol
# Density = 1.938300 g / cm^3
# Si number density = 19.427216 Si / 1000 Ang^3
#
#
#
# Elastic Constant Matrix: (Units=GPa)
#
#
# Indices 1 2 3 4 5 6 
#
# 1 54.7722 17.5674 23.4983 0.0000 0.0000 0.0000
# 2 17.5674 56.4230 29.6131 0.0000 0.0000 0.0000
# 3 23.4983 29.6131 110.7552 0.0000 0.0000 0.0000
# 4 0.0000 0.0000 0.0000 22.1235 0.0000 0.0000
# 5 0.0000 0.0000 0.0000 0.0000 20.1607 0.0000
# 6 0.0000 0.0000 0.0000 0.0000 0.0000 28.7019
#
#
#
# Elastic Compliance Matrix: (Units=1/GPa)
#
#
# Indices 1 2 3 4 5 6 
#
# 1 0.021204 -0.004933 -0.003180 0.000000 0.000000 0.000000
# 2 -0.004933 0.021764 -0.004773 0.000000 0.000000 0.000000
# 3 -0.003180 -0.004773 0.010980 0.000000 0.000000 0.000000
# 4 0.000000 0.000000 0.000000 0.045201 0.000000 0.000000
# 5 0.000000 0.000000 0.000000 0.000000 0.049602 0.000000
# 6 0.000000 0.000000 0.000000 0.000000 0.000000 0.034841
#
#
# Mechanical properties :
#
#
# Convention : Reuss Voigt Hill
#
# Bulk Modulus (GPa) = 35.49010 40.36757 37.92884
# Shear Modulus (GPa) = 22.85678 24.28198 23.56938
#
# Velocity S-wave (km/s) = 3.43379 3.53922 3.48690
# Velocity P-wave (km/s) = 5.83344 6.12580 5.98141
#
# Compressibility (1/GPa) = 0.02817687
#
# Stress axis : x y z
#
# Youngs Moduli (GPa) = 47.16141 45.94752 91.07806
#
# Poissons Ratio (x) = 0.22666 0.28960
# Poissons Ratio (y) = 0.23265 0.43467
# Poissons Ratio (z) = 0.14996 0.21929
#
# Static dielectric constant tensor:
#      x y z
#    x 3.414670 0.000000 0.000000 
#    y 0.000000 3.335620 0.000000 
#    z 0.000000 0.000000 3.799050 
# 
# 
# High freq. dielectric constant tensor:
#      x y z
#    x 1.741980 0.000000 0.000000 
#    y 0.000000 1.745160 0.000000 
#    z 0.000000 0.000000 1.755090 
# 
# From -- ./inp_files/23546.got.cif
#   From: 2010.06.25/outbox.cif.g09.slc.cpg/sg58_12_cif.got.tgz:23546.got - 2010.06.26 21:38:00.
