data_PCOD8238596
_publ_section_title
;
Structure prediction by ZEFSAII (Michael W. Deem and Ramdas Pophale) SiO2 
 PCOD8238596
Probable space group: P N N M
;
_chemical_formula_sum "Si O2"
_cell_formula_units_Z 40
_cell_length_a 15.339386
_cell_length_b 15.233772
_cell_length_c 7.979956
_cell_angle_alpha 90.000000
_cell_angle_beta 90.000000
_cell_angle_gamma 90.000000
_cell_volume 1864.729856
_symmetry_space_group_name_H-M "P N N M"
_symmetry_group_IT_number 58
_symmetry_cell_setting 'orthorhombic'
loop_
_space_group_symop_operation_xyz
x,y,z
-x,-y,z
1/2+x,1/2-y,1/2-z
1/2-x,1/2+y,1/2-z
-x,-y,-z
x,y,-z
1/2-x,1/2+y,1/2+z
1/2+x,1/2-y,1/2+z
loop_
_atom_site_type_symbol
_atom_site_label
_atom_site_fract_x
_atom_site_fract_y
_atom_site_fract_z
Si Si1 0.493648 0.250517 0.812537
Si Si2 0.294810 0.206064 0.195321
Si Si3 0.011285 0.138474 0.000000
Si Si4 0.353053 0.845653 0.691231
Si Si5 0.252411 0.015874 0.313255
Si Si6 0.636673 0.521549 0.500000
O O1 0.394676 0.229440 0.763772
O O2 0.535393 0.313758 0.673244
O O3 0.560384 0.168123 0.804634
O O4 0.496585 0.291321 0.000000
O O5 0.229324 0.284475 0.251231
O O6 0.277757 0.117282 0.297158
O O7 0.282397 0.184696 0.000000
O O8 0.908506 0.116671 0.000000
O O9 0.065597 0.052072 0.000000
O O10 0.374900 0.820757 0.500000
O O11 0.333433 0.949231 0.707732
O O12 0.211971 0.002084 0.500000
O O13 0.187096 0.985721 0.172012
#
# Coordination Sequence:
#
# PCOD8238596 Si02
#       6
#     8   8   4   8   8   4
#     4  11  24  41  65  97 129 171 221 267 326 394
#     4  10  22  42  65  92 132 173 216 270 325 390
#     4  11  24  42  64  93 132 172 218 277 332 391
#     4  10  22  42  65  92 132 173 216 270 325 390
#     4  11  24  41  65  97 129 171 221 267 326 394
#     4  11  24  42  64  93 132 172 218 277 332 391
#
# _framework density 21.450828000000001
#
# number of rings (size 3 to 8) (size 9 to 14) (size 15 to 20)
#    0.000    1.400    2.000    2.400    2.800    6.400 
#    0.000    6.000    0.000    0.000    0.000    0.000 
#    0.000    0.000    0.000    0.000    0.000    0.000 
#
# Total GULP energy -495734.362879 kJ/mol
# GULP energy per Si atom -12393.359072 kJ/mol
# Density = 2.140201 g / cm^3
# Si number density = 21.450828 Si / 1000 Ang^3
#
#
#
# Elastic Constant Matrix: (Units=GPa)
#
#
# Indices 1 2 3 4 5 6 
#
# 1 64.5356 -19.5164 14.1487 0.0000 0.0000 0.0000
# 2 -19.5164 57.0308 13.5815 0.0000 0.0000 0.0000
# 3 14.1487 13.5815 123.2690 0.0000 0.0000 0.0000
# 4 0.0000 0.0000 0.0000 25.1559 0.0000 0.0000
# 5 0.0000 0.0000 0.0000 0.0000 37.6864 0.0000
# 6 0.0000 0.0000 0.0000 0.0000 0.0000 22.7899
#
#
#
# Elastic Compliance Matrix: (Units=1/GPa)
#
#
# Indices 1 2 3 4 5 6 
#
# 1 0.018210 0.006911 -0.002852 0.000000 0.000000 0.000000
# 2 0.006911 0.020629 -0.003066 0.000000 0.000000 0.000000
# 3 -0.002852 -0.003066 0.008777 0.000000 0.000000 0.000000
# 4 0.000000 0.000000 0.000000 0.039752 0.000000 0.000000
# 5 0.000000 0.000000 0.000000 0.000000 0.026535 0.000000
# 6 0.000000 0.000000 0.000000 0.000000 0.000000 0.043879
#
#
# Mechanical properties :
#
#
# Convention : Reuss Voigt Hill
#
# Bulk Modulus (GPa) = 20.15983 29.02923 24.59453
# Shear Modulus (GPa) = 29.01383 32.90122 30.95752
#
# Velocity S-wave (km/s) = 3.68173 3.92062 3.80305
# Velocity P-wave (km/s) = 5.24328 5.83587 5.54749
#
# Compressibility (1/GPa) = 0.04960360
#
# Stress axis : x y z
#
# Youngs Moduli (GPa) = 54.91356 48.47430 113.92817
#
# Poissons Ratio (x) = -0.33500 0.32488
# Poissons Ratio (y) = -0.37950 0.34932
# Poissons Ratio (z) = 0.15659 0.14863
#
# Static dielectric constant tensor:
#      x y z
#    x 4.301790 0.000000 0.000000 
#    y 0.000000 3.951040 0.000000 
#    z 0.000000 0.000000 3.768720 
# 
# 
# High freq. dielectric constant tensor:
#      x y z
#    x 1.841200 0.000000 0.000000 
#    y 0.000000 1.838930 0.000000 
#    z 0.000000 0.000000 1.850540 
# 
# From -- ./inp_files/5430.got.cif
#   From: 2010.06.25/outbox.cif.g09.slc.cpg/sg58_3_cif.got.tgz:5430.got - 2010.06.26 21:38:00.
