data_PCOD8238631
_publ_section_title
;
Structure prediction by ZEFSAII (Michael W. Deem and Ramdas Pophale) SiO2 
 PCOD8238631
Probable space group: P N N M
;
_chemical_formula_sum "Si O2"
_cell_formula_units_Z 40
_cell_length_a 8.803703
_cell_length_b 9.072806
_cell_length_c 23.101073
_cell_angle_alpha 90.000000
_cell_angle_beta 90.000000
_cell_angle_gamma 90.000000
_cell_volume 1845.181790
_symmetry_space_group_name_H-M "P N N M"
_symmetry_group_IT_number 58
_symmetry_cell_setting 'orthorhombic'
loop_
_space_group_symop_operation_xyz
x,y,z
-x,-y,z
1/2+x,1/2-y,1/2-z
1/2-x,1/2+y,1/2-z
-x,-y,-z
x,y,-z
1/2-x,1/2+y,1/2+z
1/2+x,1/2-y,1/2+z
loop_
_atom_site_type_symbol
_atom_site_label
_atom_site_fract_x
_atom_site_fract_y
_atom_site_fract_z
Si Si1 0.395640 0.134586 0.645264
Si Si2 0.335506 0.166561 0.933918
Si Si3 0.320211 0.713645 0.680808
Si Si4 0.672689 0.520259 0.768391
Si Si5 0.681307 0.177513 0.065154
O O1 0.502200 0.244597 0.682621
O O2 0.309148 0.228740 0.597122
O O3 0.500000 0.000000 0.619882
O O4 0.269272 0.071373 0.686458
O O5 0.233376 0.244616 0.885190
O O6 0.507625 0.202977 0.914654
O O7 0.289929 0.996111 0.930296
O O8 0.304028 0.222904 0.000000
O O9 0.301078 0.545370 0.703307
O O10 0.226709 0.811166 0.727549
O O11 0.500000 0.500000 0.787590
O O12 0.695714 0.231875 0.000000
#
# Coordination Sequence:
#
# PCOD8238631 Si02
#       5
#     8   8   8   8   8
#     4  10  23  40  59  90 130 162 210 258 312 375
#     4   9  20  39  65  93 121 162 210 254 310 374
#     4  11  24  40  64  95 124 164 204 261 309 365
#     4  11  24  42  61  89 127 168 208 249 311 371
#     4   9  19  38  63  91 124 165 208 254 308 375
#
# _framework density 21.678080999999999
#
# number of rings (size 3 to 8) (size 9 to 14) (size 15 to 20)
#    0.000    2.000    0.000    3.600    5.600    1.200 
#    7.200    5.000    0.000   10.800    0.000    0.000 
#    0.000    0.000    0.000    0.000    0.000    0.000 
#
# Total GULP energy -495692.355675 kJ/mol
# GULP energy per Si atom -12392.308892 kJ/mol
# Density = 2.162874 g / cm^3
# Si number density = 21.678081 Si / 1000 Ang^3
#
#
#
# Elastic Constant Matrix: (Units=GPa)
#
#
# Indices 1 2 3 4 5 6 
#
# 1 135.7079 36.1670 54.2462 0.0000 0.0000 0.0000
# 2 36.1670 67.2703 43.0408 0.0000 0.0000 0.0000
# 3 54.2462 43.0408 87.8829 0.0000 0.0000 0.0000
# 4 0.0000 0.0000 0.0000 34.9929 0.0000 0.0000
# 5 0.0000 0.0000 0.0000 0.0000 31.6575 0.0000
# 6 0.0000 0.0000 0.0000 0.0000 0.0000 38.0050
#
#
#
# Elastic Compliance Matrix: (Units=1/GPa)
#
#
# Indices 1 2 3 4 5 6 
#
# 1 0.009977 -0.002074 -0.005143 0.000000 0.000000 0.000000
# 2 -0.002074 0.022080 -0.009534 0.000000 0.000000 0.000000
# 3 -0.005143 -0.009534 0.019223 0.000000 0.000000 0.000000
# 4 0.000000 0.000000 0.000000 0.028577 0.000000 0.000000
# 5 0.000000 0.000000 0.000000 0.000000 0.031588 0.000000
# 6 0.000000 0.000000 0.000000 0.000000 0.000000 0.026312
#
#
# Mechanical properties :
#
#
# Convention : Reuss Voigt Hill
#
# Bulk Modulus (GPa) = 56.24581 61.97436 59.11008
# Shear Modulus (GPa) = 28.21916 31.42489 29.82203
#
# Velocity S-wave (km/s) = 3.61187 3.81151 3.71304
# Velocity P-wave (km/s) = 6.58760 6.92970 6.76081
#
# Compressibility (1/GPa) = 0.01777910
#
# Stress axis : x y z
#
# Youngs Moduli (GPa) = 100.22904 45.28948 52.02234
#
# Poissons Ratio (x) = 0.09391 0.26755
# Poissons Ratio (y) = 0.20783 0.49598
# Poissons Ratio (z) = 0.51547 0.43179
#
# Static dielectric constant tensor:
#      x y z
#    x 4.128100 0.000000 0.000000 
#    y 0.000000 4.043850 0.000000 
#    z 0.000000 0.000000 3.826500 
# 
# 
# High freq. dielectric constant tensor:
#      x y z
#    x 1.863600 0.000000 0.000000 
#    y 0.000000 1.846950 0.000000 
#    z 0.000000 0.000000 1.843650 
# 
# From -- ./inp_files/31274.got.cif
#   From: 2010.06.25/outbox.cif.g09.slc.cpg/sg58_16_cif.got.tgz:31274.got - 2010.06.26 21:38:00.
