data_PCOD8238922
_publ_section_title
;
Structure prediction by ZEFSAII (Michael W. Deem and Ramdas Pophale) SiO2 
 PCOD8238922
Probable space group: P N N M
;
_chemical_formula_sum "Si O2"
_cell_formula_units_Z 64
_cell_length_a 24.551795
_cell_length_b 9.970346
_cell_length_c 13.895043
_cell_angle_alpha 90.000000
_cell_angle_beta 90.000000
_cell_angle_gamma 90.000000
_cell_volume 3401.366062
_symmetry_space_group_name_H-M "P N N M"
_symmetry_group_IT_number 58
_symmetry_cell_setting 'orthorhombic'
loop_
_space_group_symop_operation_xyz
x,y,z
-x,-y,z
1/2+x,1/2-y,1/2-z
1/2-x,1/2+y,1/2-z
-x,-y,-z
x,y,-z
1/2-x,1/2+y,1/2+z
1/2+x,1/2-y,1/2+z
loop_
_atom_site_type_symbol
_atom_site_label
_atom_site_fract_x
_atom_site_fract_y
_atom_site_fract_z
Si Si1 0.617269 0.021525 0.299128
Si Si2 0.346686 0.086458 0.107867
Si Si3 0.845713 0.095191 0.392807
Si Si4 0.278128 0.895815 0.389312
Si Si5 0.938533 0.772285 0.113678
Si Si6 0.936358 0.272273 0.888038
Si Si7 0.723089 0.407097 0.610986
Si Si8 0.880423 0.023470 0.197428
O O1 0.614905 0.989242 0.184970
O O2 0.680264 0.008064 0.332064
O O3 0.596603 0.170137 0.322841
O O4 0.578260 0.922440 0.357585
O O5 0.284417 0.039678 0.124027
O O6 0.350736 0.245628 0.120878
O O7 0.365784 0.046255 0.000000
O O8 0.865307 0.053984 0.500000
O O9 0.783117 0.050307 0.377441
O O10 0.882755 0.018306 0.314266
O O11 0.295787 0.898367 0.500000
O O12 0.282697 0.744177 0.349368
O O13 0.001360 0.755070 0.139250
O O14 0.921168 0.919965 0.147222
O O15 0.927081 0.753159 0.000000
O O16 0.896998 0.172188 0.832573
O O17 0.926482 0.252956 0.000000
O O18 0.705971 0.409388 0.500000
O O19 0.682238 0.503424 0.667669
#
# Coordination Sequence:
#
# PCOD8238922 Si02
#       8
#     8   8   8   8   8   8   8   8
#     4  12  20  36  60  84 109 151 193 224 274 334
#     4   9  19  36  56  83 117 151 186 226 273 328
#     4   9  19  36  56  83 117 151 186 226 273 328
#     4   9  17  31  54  84 118 151 181 216 273 342
#     4  11  24  40  58  81 115 151 180 228 292 343
#     4  11  24  38  56  85 115 141 186 240 282 329
#     4   9  17  31  54  84 118 151 181 216 273 342
#     4  12  20  36  60  84 109 151 193 224 274 334
#
# _framework density 18.815968999999999
#
# number of rings (size 3 to 8) (size 9 to 14) (size 15 to 20)
#    0.000    1.750    2.500    5.250    0.000    2.000 
#    0.000    0.625    0.000    7.500    0.000    0.000 
#    0.000    0.000    0.000    0.000    0.000    0.000 
#
# Total GULP energy -793598.257572 kJ/mol
# GULP energy per Si atom -12399.972775 kJ/mol
# Density = 1.877314 g / cm^3
# Si number density = 18.815969 Si / 1000 Ang^3
#
#
#
# Elastic Constant Matrix: (Units=GPa)
#
#
# Indices 1 2 3 4 5 6 
#
# 1 48.4197 11.5189 42.1376 0.0000 0.0000 0.0000
# 2 11.5189 38.5690 17.0525 0.0000 0.0000 0.0000
# 3 42.1376 17.0525 109.5955 0.0000 0.0000 0.0000
# 4 0.0000 0.0000 0.0000 31.0180 0.0000 0.0000
# 5 0.0000 0.0000 0.0000 0.0000 21.9934 0.0000
# 6 0.0000 0.0000 0.0000 0.0000 0.0000 19.9820
#
#
#
# Elastic Compliance Matrix: (Units=1/GPa)
#
#
# Indices 1 2 3 4 5 6 
#
# 1 0.031713 -0.004382 -0.011511 0.000000 0.000000 0.000000
# 2 -0.004382 0.028448 -0.002742 0.000000 0.000000 0.000000
# 3 -0.011511 -0.002742 0.013977 0.000000 0.000000 0.000000
# 4 0.000000 0.000000 0.000000 0.032239 0.000000 0.000000
# 5 0.000000 0.000000 0.000000 0.000000 0.045468 0.000000
# 6 0.000000 0.000000 0.000000 0.000000 0.000000 0.050045
#
#
# Mechanical properties :
#
#
# Convention : Reuss Voigt Hill
#
# Bulk Modulus (GPa) = 27.12329 37.55581 32.33955
# Shear Modulus (GPa) = 19.88467 22.99037 21.43752
#
# Velocity S-wave (km/s) = 3.25437 3.49930 3.37905
# Velocity P-wave (km/s) = 5.34486 6.02741 5.69637
#
# Compressibility (1/GPa) = 0.03686868
#
# Stress axis : x y z
#
# Youngs Moduli (GPa) = 31.53282 35.15140 71.54632
#
# Poissons Ratio (x) = 0.15403 0.82359
# Poissons Ratio (y) = 0.13817 0.19616
# Poissons Ratio (z) = 0.36298 0.09637
#
# Static dielectric constant tensor:
#      x y z
#    x 3.369460 0.000000 0.000000 
#    y 0.000000 3.208620 0.000000 
#    z 0.000000 0.000000 3.496740 
# 
# 
# High freq. dielectric constant tensor:
#      x y z
#    x 1.720310 0.000000 0.000000 
#    y 0.000000 1.713710 0.000000 
#    z 0.000000 0.000000 1.732320 
# 
# From -- ./inp_files/23561.got.cif
#   From: 2010.06.25/outbox.cif.g09.slc.cpg/sg58_12_cif.got.tgz:23561.got - 2010.06.26 21:38:00.
