data_PCOD8238786
_publ_section_title
;
Structure prediction by ZEFSAII (Michael W. Deem and Ramdas Pophale) SiO2 
 PCOD8238786
Probable space group: P N N M
;
_chemical_formula_sum "Si O2"
_cell_formula_units_Z 48
_cell_length_a 11.810385
_cell_length_b 10.790875
_cell_length_c 19.839600
_cell_angle_alpha 90.000000
_cell_angle_beta 90.000000
_cell_angle_gamma 90.000000
_cell_volume 2528.445685
_symmetry_space_group_name_H-M "P N N M"
_symmetry_group_IT_number 58
_symmetry_cell_setting 'orthorhombic'
loop_
_space_group_symop_operation_xyz
x,y,z
-x,-y,z
1/2+x,1/2-y,1/2-z
1/2-x,1/2+y,1/2-z
-x,-y,-z
x,y,-z
1/2-x,1/2+y,1/2+z
1/2+x,1/2-y,1/2+z
loop_
_atom_site_type_symbol
_atom_site_label
_atom_site_fract_x
_atom_site_fract_y
_atom_site_fract_z
Si Si1 0.162182 0.459211 0.122980
Si Si2 0.418390 0.384104 0.307228
Si Si3 0.165350 0.465628 0.280507
Si Si4 0.037873 0.697893 0.076882
Si Si5 0.036954 0.701199 0.314604
Si Si6 0.090768 0.893013 0.422271
O O1 0.137913 0.470501 0.201723
O O2 0.124880 0.585058 0.086691
O O3 0.293398 0.438414 0.110573
O O4 0.089729 0.344575 0.094373
O O5 0.500000 0.500000 0.309489
O O6 0.292698 0.433136 0.296816
O O7 0.425138 0.312822 0.377674
O O8 0.454881 0.297322 0.246189
O O9 0.137685 0.601103 0.309908
O O10 0.085426 0.362741 0.314075
O O11 0.043030 0.743027 0.000000
O O12 0.047949 0.769620 0.385768
O O13 0.108691 0.860145 0.500000
O O14 0.000000 0.000000 0.411303
#
# Coordination Sequence:
#
# PCOD8238786 Si02
#       6
#     8   8   8   8   8   8
#     4  11  20  41  68  94 124 165 209 263 313 362
#     4  12  26  38  65  95 125 167 208 259 312 366
#     4  11  24  41  67  95 125 164 212 256 317 375
#     4  11  23  41  64  94 130 163 207 257 317 374
#     4  11  23  44  63  91 128 165 209 260 311 371
#     4  11  25  41  65  96 127 166 214 258 306 366
#
# _framework density 18.983995
#
# number of rings (size 3 to 8) (size 9 to 14) (size 15 to 20)
#    0.000    0.833    5.000    3.500    7.000    0.333 
#    0.000    2.500    0.000    0.000    0.000    0.000 
#    0.000    0.000    0.000    0.000    0.000    0.000 
#
# Total GULP energy -595503.116311 kJ/mol
# GULP energy per Si atom -12406.314923 kJ/mol
# Density = 1.894079 g / cm^3
# Si number density = 18.983995 Si / 1000 Ang^3
#
#
#
# Elastic Constant Matrix: (Units=GPa)
#
#
# Indices 1 2 3 4 5 6 
#
# 1 154.6452 100.1248 -42.7792 0.0000 0.0000 0.0000
# 2 100.1248 176.6329 -6.1460 0.0000 0.0000 0.0000
# 3 -42.7792 -6.1460 104.5809 0.0000 0.0000 0.0000
# 4 0.0000 0.0000 0.0000 40.9283 0.0000 0.0000
# 5 0.0000 0.0000 0.0000 0.0000 7.1428 0.0000
# 6 0.0000 0.0000 0.0000 0.0000 0.0000 -370.7424
#
#
#
# Elastic Compliance Matrix: (Units=1/GPa)
#
#
# Indices 1 2 3 4 5 6 
#
# 1 0.012035 -0.006664 0.004531 0.000000 0.000000 0.000000
# 2 -0.006664 0.009363 -0.002176 0.000000 0.000000 0.000000
# 3 0.004531 -0.002176 0.011288 0.000000 0.000000 0.000000
# 4 0.000000 0.000000 0.000000 0.024433 0.000000 0.000000
# 5 0.000000 0.000000 0.000000 0.000000 0.140000 0.000000
# 6 0.000000 0.000000 0.000000 0.000000 0.000000 -0.002697
#
#
# Mechanical properties :
#
#
# Convention : Reuss Voigt Hill
#
# Bulk Modulus (GPa) = 41.54894 59.80646 50.67770
# Shear Modulus (GPa) = 23.68974 -38.89029 -7.60027
#
# Velocity S-wave (km/s) = 3.53637 -4.53104 -2.00305
# Velocity P-wave (km/s) = 6.21356 2.04897 4.62637
#
# Compressibility (1/GPa) = 0.02406800
#
# Stress axis : x y z
#
# Youngs Moduli (GPa) = 83.09406 106.79942 88.59285
#
# Poissons Ratio (x) = 0.71173 -0.40143
# Poissons Ratio (y) = 0.55375 0.19275
# Poissons Ratio (z) = -0.37651 0.23237
#
# Static dielectric constant tensor:
#      x y z
#    x 3.558270 0.000000 0.000000 
#    y 0.000000 3.599270 0.000000 
#    z 0.000000 0.000000 3.424930 
# 
# 
# High freq. dielectric constant tensor:
#      x y z
#    x 1.751550 0.000000 0.000000 
#    y 0.000000 1.739650 0.000000 
#    z 0.000000 0.000000 1.741840 
# 
# From -- ./inp_files/26159.got.cif
#   From: 2010.06.25/outbox.cif.g09.slc.cpg/sg58_14_cif.got.tgz:26159.got - 2010.06.26 21:38:00.
