data_PCOD8238355
_publ_section_title
;
Structure prediction by ZEFSAII (Michael W. Deem and Ramdas Pophale) SiO2 
 PCOD8238355
Probable space group: P N N M
;
_chemical_formula_sum "Si O2"
_cell_formula_units_Z 48
_cell_length_a 14.755622
_cell_length_b 18.662910
_cell_length_c 8.434664
_cell_angle_alpha 90.000000
_cell_angle_beta 90.000000
_cell_angle_gamma 90.000000
_cell_volume 2322.761772
_symmetry_space_group_name_H-M "P N N M"
_symmetry_group_IT_number 58
_symmetry_cell_setting 'orthorhombic'
loop_
_space_group_symop_operation_xyz
x,y,z
-x,-y,z
1/2+x,1/2-y,1/2-z
1/2-x,1/2+y,1/2-z
-x,-y,-z
x,y,-z
1/2-x,1/2+y,1/2+z
1/2+x,1/2-y,1/2+z
loop_
_atom_site_type_symbol
_atom_site_label
_atom_site_fract_x
_atom_site_fract_y
_atom_site_fract_z
Si Si1 0.796169 0.741409 0.817652
Si Si2 0.519259 0.283191 0.815466
Si Si3 0.374138 0.183269 0.681894
Si Si4 0.443802 0.433354 0.812138
Si Si5 0.262441 0.922411 0.314117
Si Si6 0.903692 0.469312 0.316402
O O1 0.873484 0.776856 0.710162
O O2 0.702792 0.782868 0.791640
O O3 0.782845 0.659238 0.769346
O O4 0.824517 0.748616 0.000000
O O5 0.470287 0.219111 0.722470
O O6 0.485086 0.359185 0.746275
O O7 0.495659 0.276334 0.000000
O O8 0.349028 0.196940 0.500000
O O9 0.380516 0.098983 0.710804
O O10 0.500000 0.500000 0.739570
O O11 0.339623 0.440951 0.761200
O O12 0.453187 0.432843 0.000000
O O13 0.277212 0.937073 0.500000
O O14 0.327978 0.970954 0.210450
O O15 0.906411 0.446945 0.500000
O O16 0.000000 0.500000 0.260343
#
# Coordination Sequence:
#
# PCOD8238355 Si02
#       6
#     8   8   8   8   8   8
#     4  11  23  41  64  94 130 167 209 264 320 378
#     4  11  22  40  65  94 127 166 212 267 322 380
#     4  12  25  42  65  93 126 170 217 263 319 383
#     4   9  19  37  61  89 124 165 207 252 308 376
#     4  10  21  40  65  92 126 167 208 255 315 380
#     4  11  25  43  64  92 128 166 207 265 326 380
#
# _framework density 20.665054000000001
#
# number of rings (size 3 to 8) (size 9 to 14) (size 15 to 20)
#    0.000    1.333    1.667    4.000    2.333    5.333 
#    0.000    0.000    0.000    2.500    0.000    0.000 
#    0.000    0.000    0.000    0.000    0.000    0.000 
#
# Total GULP energy -595559.929587 kJ/mol
# GULP energy per Si atom -12407.498533 kJ/mol
# Density = 2.061802 g / cm^3
# Si number density = 20.665054 Si / 1000 Ang^3
#
#
#
# Elastic Constant Matrix: (Units=GPa)
#
#
# Indices 1 2 3 4 5 6 
#
# 1 121.3143 52.5187 23.0615 0.0000 0.0000 0.0000
# 2 52.5187 134.6140 30.0162 0.0000 0.0000 0.0000
# 3 23.0615 30.0162 45.2367 0.0000 0.0000 0.0000
# 4 0.0000 0.0000 0.0000 25.2052 0.0000 0.0000
# 5 0.0000 0.0000 0.0000 0.0000 31.6636 0.0000
# 6 0.0000 0.0000 0.0000 0.0000 0.0000 43.5343
#
#
#
# Elastic Compliance Matrix: (Units=1/GPa)
#
#
# Indices 1 2 3 4 5 6 
#
# 1 0.010258 -0.003329 -0.003021 0.000000 0.000000 0.000000
# 2 -0.003329 0.009799 -0.004805 0.000000 0.000000 0.000000
# 3 -0.003021 -0.004805 0.026834 0.000000 0.000000 0.000000
# 4 0.000000 0.000000 0.000000 0.039674 0.000000 0.000000
# 5 0.000000 0.000000 0.000000 0.000000 0.031582 0.000000
# 6 0.000000 0.000000 0.000000 0.000000 0.000000 0.022970
#
#
# Mechanical properties :
#
#
# Convention : Reuss Voigt Hill
#
# Bulk Modulus (GPa) = 40.67970 56.92864 48.80417
# Shear Modulus (GPa) = 29.13397 33.11853 31.12625
#
# Velocity S-wave (km/s) = 3.75883 4.00764 3.88522
# Velocity P-wave (km/s) = 6.21018 7.00164 6.61775
#
# Compressibility (1/GPa) = 0.02458229
#
# Stress axis : x y z
#
# Youngs Moduli (GPa) = 97.48172 102.05483 37.26583
#
# Poissons Ratio (x) = 0.33970 0.11258
# Poissons Ratio (y) = 0.32448 0.17906
# Poissons Ratio (z) = 0.29449 0.49036
#
# Static dielectric constant tensor:
#      x y z
#    x 3.767120 0.000000 0.000000 
#    y 0.000000 3.857950 0.000000 
#    z 0.000000 0.000000 3.449120 
# 
# 
# High freq. dielectric constant tensor:
#      x y z
#    x 1.821690 0.000000 0.000000 
#    y 0.000000 1.819550 0.000000 
#    z 0.000000 0.000000 1.792260 
# 
# From -- ./inp_files/5815.got.cif
#   From: 2010.06.25/outbox.cif.g09.slc.cpg/sg58_3_cif.got.tgz:5815.got - 2010.06.26 21:38:00.
