data_PCOD8238514
_publ_section_title
;
Structure prediction by ZEFSAII (Michael W. Deem and Ramdas Pophale) SiO2 
 PCOD8238514
Probable space group: P N N M
;
_chemical_formula_sum "Si O2"
_cell_formula_units_Z 48
_cell_length_a 9.367869
_cell_length_b 28.702234
_cell_length_c 8.672737
_cell_angle_alpha 90.000000
_cell_angle_beta 90.000000
_cell_angle_gamma 90.000000
_cell_volume 2331.914841
_symmetry_space_group_name_H-M "P N N M"
_symmetry_group_IT_number 58
_symmetry_cell_setting 'orthorhombic'
loop_
_space_group_symop_operation_xyz
x,y,z
-x,-y,z
1/2+x,1/2-y,1/2-z
1/2-x,1/2+y,1/2-z
-x,-y,-z
x,y,-z
1/2-x,1/2+y,1/2+z
1/2+x,1/2-y,1/2+z
loop_
_atom_site_type_symbol
_atom_site_label
_atom_site_fract_x
_atom_site_fract_y
_atom_site_fract_z
Si Si1 0.697391 0.212238 0.319890
Si Si2 0.306707 0.623144 0.319415
Si Si3 0.878073 0.537733 0.170778
Si Si4 0.144456 0.019373 0.819967
Si Si5 0.529371 0.295466 0.180320
Si Si6 0.982668 0.630708 0.321772
O O1 0.677591 0.201389 0.500000
O O2 0.630303 0.262041 0.280428
O O3 0.614320 0.174396 0.219751
O O4 0.864126 0.211771 0.274422
O O5 0.344957 0.626027 0.500000
O O6 0.314421 0.570232 0.254233
O O7 0.422677 0.652330 0.223209
O O8 0.147903 0.642879 0.288077
O O9 0.760709 0.519947 0.288971
O O10 0.937069 0.587164 0.221070
O O11 0.000000 0.500000 0.170284
O O12 0.812048 0.542933 0.000000
O O13 0.125057 0.025338 0.000000
O O14 0.000000 0.000000 0.743106
O O15 0.552861 0.285651 0.000000
O O16 0.962089 0.617747 0.500000
#
# Coordination Sequence:
#
# PCOD8238514 Si02
#       6
#     8   8   8   8   8   8
#     4  11  25  44  65  94 127 158 201 253 305 367
#     4  10  22  40  62  91 125 162 207 257 305 361
#     4  11  23  39  61  91 126 166 209 254 307 363
#     4  10  22  40  62  90 124 166 212 257 308 362
#     4  11  25  43  65  93 125 161 201 248 307 367
#     4  11  23  40  65  92 123 163 208 255 307 363
#
# _framework density 20.583943000000001
#
# number of rings (size 3 to 8) (size 9 to 14) (size 15 to 20)
#    0.000    1.333    1.667    3.000    2.333    9.667 
#    0.000    0.000    0.000    0.000    0.000    0.000 
#    0.000    0.000    0.000    0.000    0.000    0.000 
#
# Total GULP energy -595365.058340 kJ/mol
# GULP energy per Si atom -12403.438715 kJ/mol
# Density = 2.053709 g / cm^3
# Si number density = 20.583943 Si / 1000 Ang^3
#
#
#
# Elastic Constant Matrix: (Units=GPa)
#
#
# Indices 1 2 3 4 5 6 
#
# 1 135.6953 39.5029 39.1348 0.0000 0.0000 0.0000
# 2 39.5029 84.3538 21.7364 0.0000 0.0000 0.0000
# 3 39.1348 21.7364 28.7860 0.0000 0.0000 0.0000
# 4 0.0000 0.0000 0.0000 30.8180 0.0000 0.0000
# 5 0.0000 0.0000 0.0000 0.0000 30.0866 0.0000
# 6 0.0000 0.0000 0.0000 0.0000 0.0000 40.8499
#
#
#
# Elastic Compliance Matrix: (Units=1/GPa)
#
#
# Indices 1 2 3 4 5 6 
#
# 1 0.012341 -0.001808 -0.015412 0.000000 0.000000 0.000000
# 2 -0.001808 0.014984 -0.008857 0.000000 0.000000 0.000000
# 3 -0.015412 -0.008857 0.062380 0.000000 0.000000 0.000000
# 4 0.000000 0.000000 0.000000 0.032449 0.000000 0.000000
# 5 0.000000 0.000000 0.000000 0.000000 0.033237 0.000000
# 6 0.000000 0.000000 0.000000 0.000000 0.000000 0.024480
#
#
# Mechanical properties :
#
#
# Convention : Reuss Voigt Hill
#
# Bulk Modulus (GPa) = 26.63040 49.95369 38.29205
# Shear Modulus (GPa) = 20.44659 30.24830 25.34745
#
# Velocity S-wave (km/s) = 3.15513 3.83758 3.51296
# Velocity P-wave (km/s) = 5.12237 6.63000 5.92434
#
# Compressibility (1/GPa) = 0.03755107
#
# Stress axis : x y z
#
# Youngs Moduli (GPa) = 81.03332 66.73996 16.03083
#
# Poissons Ratio (x) = 0.12064 0.24707
# Poissons Ratio (y) = 0.14648 0.14198
# Poissons Ratio (z) = 1.24890 0.59109
#
# Static dielectric constant tensor:
#      x y z
#    x 3.834150 0.000000 0.000000 
#    y 0.000000 3.706180 0.000000 
#    z 0.000000 0.000000 3.680520 
# 
# 
# High freq. dielectric constant tensor:
#      x y z
#    x 1.813760 0.000000 0.000000 
#    y 0.000000 1.816770 0.000000 
#    z 0.000000 0.000000 1.801120 
# 
# From -- ./inp_files/2929.got.cif
#   From: 2010.06.25/outbox.cif.g09.slc.cpg/sg58_2_cif.got.tgz:2929.got - 2010.06.26 21:38:00.
