data_PCOD8238624
_publ_section_title
;
Structure prediction by ZEFSAII (Michael W. Deem and Ramdas Pophale) SiO2 
 PCOD8238624
Probable space group: P N N M
;
_chemical_formula_sum "Si O2"
_cell_formula_units_Z 48
_cell_length_a 30.513403
_cell_length_b 9.011631
_cell_length_c 8.145022
_cell_angle_alpha 90.000000
_cell_angle_beta 90.000000
_cell_angle_gamma 90.000000
_cell_volume 2239.681728
_symmetry_space_group_name_H-M "P N N M"
_symmetry_group_IT_number 58
_symmetry_cell_setting 'orthorhombic'
loop_
_space_group_symop_operation_xyz
x,y,z
-x,-y,z
1/2+x,1/2-y,1/2-z
1/2-x,1/2+y,1/2-z
-x,-y,-z
x,y,-z
1/2-x,1/2+y,1/2+z
1/2+x,1/2-y,1/2+z
loop_
_atom_site_type_symbol
_atom_site_label
_atom_site_fract_x
_atom_site_fract_y
_atom_site_fract_z
Si Si1 0.889944 0.446022 0.500000
Si Si2 0.096405 0.041118 0.500000
Si Si3 0.011114 0.332046 0.177704
Si Si4 0.796332 0.742537 0.820587
Si Si5 0.174037 0.809273 0.500000
Si Si6 0.105946 0.296855 0.248110
Si Si7 0.531464 0.714713 0.000000
Si Si8 0.222592 0.924598 0.189018
O O1 0.844816 0.356264 0.500000
O O2 0.891941 0.550323 0.344525
O O3 0.930862 0.336366 0.500000
O O4 0.136144 0.929047 0.500000
O O5 0.050641 0.951614 0.500000
O O6 0.099782 0.144536 0.343873
O O7 0.062738 0.312119 0.138598
O O8 0.000000 0.500000 0.226582
O O9 0.997005 0.231339 0.332932
O O10 0.988422 0.291213 0.000000
O O11 0.848085 0.717688 0.844696
O O12 0.774109 0.622430 0.698377
O O13 0.785128 0.906852 0.754690
O O14 0.774653 0.724053 0.000000
O O15 0.199530 0.822033 0.326218
O O16 0.205890 0.899392 0.000000
#
# Coordination Sequence:
#
# PCOD8238624 Si02
#       8
#     4   4   8   8   4   8   4   8
#     4  10  23  37  71  97 129 176 222 267 323 394
#     4  10  23  40  72  96 134 172 218 267 338 385
#     4  11  23  41  67  98 134 175 220 271 328 393
#     4  11  25  43  64  95 130 170 217 268 326 387
#     4  11  22  48  64  95 136 171 213 277 323 384
#     4  11  22  41  66  98 129 174 217 273 325 392
#     4  11  21  46  67 100 132 174 220 270 327 392
#     4  11  26  43  66  94 128 171 217 266 326 393
#
# _framework density 21.431616000000002
#
# number of rings (size 3 to 8) (size 9 to 14) (size 15 to 20)
#    0.000    1.167    4.167    1.750    5.833    1.333 
#    0.000    6.667    0.000    0.000    0.000    0.000 
#    0.000    0.000    0.000    0.000    0.000    0.000 
#
# Total GULP energy -594717.928660 kJ/mol
# GULP energy per Si atom -12389.956847 kJ/mol
# Density = 2.138284 g / cm^3
# Si number density = 21.431616 Si / 1000 Ang^3
#
#
#
# Elastic Constant Matrix: (Units=GPa)
#
#
# Indices 1 2 3 4 5 6 
#
# 1 106.6668 30.2392 23.0123 0.0000 0.0000 0.0000
# 2 30.2392 85.0970 19.0240 0.0000 0.0000 0.0000
# 3 23.0123 19.0240 115.8360 0.0000 0.0000 0.0000
# 4 0.0000 0.0000 0.0000 -81.6258 0.0000 0.0000
# 5 0.0000 0.0000 0.0000 0.0000 25.7461 0.0000
# 6 0.0000 0.0000 0.0000 0.0000 0.0000 37.5999
#
#
#
# Elastic Compliance Matrix: (Units=1/GPa)
#
#
# Indices 1 2 3 4 5 6 
#
# 1 0.010689 -0.003450 -0.001557 0.000000 0.000000 0.000000
# 2 -0.003450 0.013313 -0.001501 0.000000 0.000000 0.000000
# 3 -0.001557 -0.001501 0.009189 0.000000 0.000000 0.000000
# 4 0.000000 0.000000 0.000000 -0.012251 0.000000 0.000000
# 5 0.000000 0.000000 0.000000 0.000000 0.038841 0.000000
# 6 0.000000 0.000000 0.000000 0.000000 0.000000 0.026596
#
#
# Mechanical properties :
#
#
# Convention : Reuss Voigt Hill
#
# Bulk Modulus (GPa) = 49.56784 50.23898 49.90341
# Shear Modulus (GPa) = 47.11771 12.03234 29.57503
#
# Velocity S-wave (km/s) = 4.69392 2.37202 3.71883
# Velocity P-wave (km/s) = 7.24953 5.56726 6.46336
#
# Compressibility (1/GPa) = 0.02017437
#
# Stress axis : x y z
#
# Youngs Moduli (GPa) = 93.55413 75.11510 108.82945
#
# Poissons Ratio (x) = 0.25917 0.16943
# Poissons Ratio (y) = 0.32279 0.16335
# Poissons Ratio (z) = 0.14565 0.11274
#
# Static dielectric constant tensor:
#      x y z
#    x 4.085110 0.000000 0.000000 
#    y 0.000000 3.871230 0.000000 
#    z 0.000000 0.000000 3.775530 
# 
# 
# High freq. dielectric constant tensor:
#      x y z
#    x 1.849400 0.000000 0.000000 
#    y 0.000000 1.840110 0.000000 
#    z 0.000000 0.000000 1.843300 
# 
# From -- ./inp_files/10807.got.cif
#   From: 2010.06.25/outbox.cif.g09.slc.cpg/sg58_6_cif.got.tgz:10807.got - 2010.06.26 21:38:00.
