data_PCOD8238157
_publ_section_title
;
Structure prediction by ZEFSAII (Michael W. Deem and Ramdas Pophale) SiO2 
 PCOD8238157
Probable space group: P N N M
;
_chemical_formula_sum "Si O2"
_cell_formula_units_Z 64
_cell_length_a 14.670696
_cell_length_b 24.591262
_cell_length_c 8.730570
_cell_angle_alpha 90.000000
_cell_angle_beta 90.000000
_cell_angle_gamma 90.000000
_cell_volume 3149.735850
_symmetry_space_group_name_H-M "P N N M"
_symmetry_group_IT_number 58
_symmetry_cell_setting 'orthorhombic'
loop_
_space_group_symop_operation_xyz
x,y,z
-x,-y,z
1/2+x,1/2-y,1/2-z
1/2-x,1/2+y,1/2-z
-x,-y,-z
x,y,-z
1/2-x,1/2+y,1/2+z
1/2+x,1/2-y,1/2+z
loop_
_atom_site_type_symbol
_atom_site_label
_atom_site_fract_x
_atom_site_fract_y
_atom_site_fract_z
Si Si1 0.495809 0.830195 0.818874
Si Si2 0.746618 0.057221 0.677408
Si Si3 0.940967 0.866312 0.826512
Si Si4 0.861603 0.764188 0.320224
Si Si5 0.094643 0.025838 0.679021
Si Si6 0.165941 0.739284 0.319503
Si Si7 0.944671 0.551407 0.319124
Si Si8 0.644996 0.647336 0.326733
O O1 0.415234 0.789651 0.761175
O O2 0.596167 0.808849 0.769953
O O3 0.480762 0.890873 0.750034
O O4 0.489230 0.832227 0.000000
O O5 0.720859 0.056395 0.500000
O O6 0.659571 0.041906 0.776284
O O7 0.781797 0.117051 0.721162
O O8 0.823766 0.014183 0.720711
O O9 0.924083 0.815967 0.714285
O O10 0.885188 0.918604 0.769486
O O11 0.047460 0.881898 0.817349
O O12 0.911752 0.851649 0.000000
O O13 0.840915 0.760342 0.500000
O O14 0.768454 0.774244 0.228805
O O15 0.090008 0.039226 0.500000
O O16 0.000000 0.000000 0.735351
O O17 0.160584 0.749522 0.500000
O O18 0.131876 0.791964 0.231180
O O19 0.955615 0.552720 0.500000
O O20 0.000000 0.500000 0.250367
O O21 0.682789 0.647770 0.500000
#
# Coordination Sequence:
#
# PCOD8238157 Si02
#       8
#     8   8   8   8   8   8   8   8
#     4   9  20  39  62  87 120 161 203 245 300 366
#     4  11  23  39  63  92 121 161 209 257 306 366
#     4  11  23  37  58  88 122 158 203 255 303 360
#     4  11  22  39  61  88 125 166 204 250 309 368
#     4  10  21  38  59  85 123 164 200 240 303 374
#     4  11  22  38  61  89 121 162 209 254 302 363
#     4  10  22  42  66  90 120 161 205 255 310 364
#     4  11  22  37  59  89 123 158 203 254 307 366
#
# _framework density 20.319164000000001
#
# number of rings (size 3 to 8) (size 9 to 14) (size 15 to 20)
#    0.000    1.500    2.500    2.625    0.000    4.500 
#    0.000    3.125    0.000    0.000    0.000    0.000 
#    0.000    0.000    0.000    0.000    0.000    0.000 
#
# Total GULP energy -793743.806462 kJ/mol
# GULP energy per Si atom -12402.246976 kJ/mol
# Density = 2.027292 g / cm^3
# Si number density = 20.319164 Si / 1000 Ang^3
#
#
#
# Elastic Constant Matrix: (Units=GPa)
#
#
# Indices 1 2 3 4 5 6 
#
# 1 116.4961 54.5802 8.8108 0.0000 0.0000 0.0000
# 2 54.5802 146.1231 20.6597 0.0000 0.0000 0.0000
# 3 8.8108 20.6597 19.4843 0.0000 0.0000 0.0000
# 4 0.0000 0.0000 0.0000 25.7465 0.0000 0.0000
# 5 0.0000 0.0000 0.0000 0.0000 32.1100 0.0000
# 6 0.0000 0.0000 0.0000 0.0000 0.0000 32.4397
#
#
#
# Elastic Compliance Matrix: (Units=1/GPa)
#
#
# Indices 1 2 3 4 5 6 
#
# 1 0.010413 -0.003792 -0.000688 0.000000 0.000000 0.000000
# 2 -0.003792 0.009431 -0.008286 0.000000 0.000000 0.000000
# 3 -0.000688 -0.008286 0.060420 0.000000 0.000000 0.000000
# 4 0.000000 0.000000 0.000000 0.038840 0.000000 0.000000
# 5 0.000000 0.000000 0.000000 0.000000 0.031143 0.000000
# 6 0.000000 0.000000 0.000000 0.000000 0.000000 0.030826
#
#
# Mechanical properties :
#
#
# Convention : Reuss Voigt Hill
#
# Bulk Modulus (GPa) = 18.27049 50.02277 34.14663
# Shear Modulus (GPa) = 22.23715 31.26275 26.74995
#
# Velocity S-wave (km/s) = 3.31175 3.92674 3.63228
# Velocity P-wave (km/s) = 4.86157 6.72540 5.86796
#
# Compressibility (1/GPa) = 0.05473306
#
# Stress axis : x y z
#
# Youngs Moduli (GPa) = 96.03700 106.02817 16.55084
#
# Poissons Ratio (x) = 0.40207 0.01138
# Poissons Ratio (y) = 0.36418 0.13713
# Poissons Ratio (z) = 0.06604 0.87851
#
# Static dielectric constant tensor:
#      x y z
#    x 3.690120 0.000000 0.000000 
#    y 0.000000 3.855140 0.000000 
#    z 0.000000 0.000000 3.498390 
# 
# 
# High freq. dielectric constant tensor:
#      x y z
#    x 1.796240 0.000000 0.000000 
#    y 0.000000 1.799820 0.000000 
#    z 0.000000 0.000000 1.780590 
# 
# From -- ./inp_files/6771.got.cif
#   From: 2010.06.25/outbox.cif.g09.slc.cpg/sg58_4_cif.got.tgz:6771.got - 2010.06.26 21:38:00.
