data_PCOD8238438
_publ_section_title
;
Structure prediction by ZEFSAII (Michael W. Deem and Ramdas Pophale) SiO2 
 PCOD8238438
Probable space group: P N N M
;
_chemical_formula_sum "Si O2"
_cell_formula_units_Z 64
_cell_length_a 12.774096
_cell_length_b 29.089304
_cell_length_c 8.905401
_cell_angle_alpha 90.000000
_cell_angle_beta 90.000000
_cell_angle_gamma 90.000000
_cell_volume 3309.154056
_symmetry_space_group_name_H-M "P N N M"
_symmetry_group_IT_number 58
_symmetry_cell_setting 'orthorhombic'
loop_
_space_group_symop_operation_xyz
x,y,z
-x,-y,z
1/2+x,1/2-y,1/2-z
1/2-x,1/2+y,1/2-z
-x,-y,-z
x,y,-z
1/2-x,1/2+y,1/2+z
1/2+x,1/2-y,1/2+z
loop_
_atom_site_type_symbol
_atom_site_label
_atom_site_fract_x
_atom_site_fract_y
_atom_site_fract_z
Si Si1 0.386613 0.052632 0.322416
Si Si2 0.503688 0.354073 0.676916
Si Si3 0.272491 0.211315 0.835426
Si Si4 0.378955 0.948250 0.677853
Si Si5 0.359513 0.797378 0.668246
Si Si6 0.485143 0.256510 0.172769
Si Si7 0.730458 0.624784 0.676793
Si Si8 0.212134 0.122592 0.323467
O O1 0.385028 0.054228 0.500000
O O2 0.504037 0.068292 0.272223
O O3 0.295608 0.085584 0.258071
O O4 0.363880 0.000768 0.269412
O O5 0.519215 0.350922 0.500000
O O6 0.512848 0.303104 0.741692
O O7 0.392882 0.377924 0.718449
O O8 0.599228 0.384276 0.744417
O O9 0.172822 0.244076 0.834596
O O10 0.363604 0.247495 0.803532
O O11 0.260611 0.172630 0.709638
O O12 0.285277 0.187813 0.000000
O O13 0.364075 0.942715 0.500000
O O14 0.289896 0.919612 0.761438
O O15 0.380159 0.816445 0.500000
O O16 0.465420 0.791341 0.763328
O O17 0.276938 0.829777 0.748793
O O18 0.517885 0.263125 0.000000
O O19 0.746625 0.628195 0.500000
O O20 0.196399 0.116621 0.500000
#
# Coordination Sequence:
#
# PCOD8238438 Si02
#       8
#     8   8   8   8   8   8   8   8
#     4   8  18  38  63  92 116 143 182 231 288 351
#     4  11  23  39  56  77 114 158 195 236 285 337
#     4  10  22  37  53  79 115 151 190 232 281 337
#     4   9  18  39  67  88 115 147 182 230 291 349
#     4  11  22  37  56  80 113 152 194 233 282 339
#     4  11  22  37  55  78 111 150 194 242 282 331
#     4  11  24  39  57  85 117 150 197 241 283 340
#     4  11  22  36  59  87 115 148 194 238 282 341
#
# _framework density 19.340291000000001
#
# number of rings (size 3 to 8) (size 9 to 14) (size 15 to 20)
#    0.000    1.750    2.500    2.625    1.750    3.000 
#    0.000    3.750    0.000    3.750    0.000    0.000 
#    0.000    0.000    0.000    0.000    0.000    0.000 
#
# Total GULP energy -793272.315180 kJ/mol
# GULP energy per Si atom -12394.879925 kJ/mol
# Density = 1.929627 g / cm^3
# Si number density = 19.340291 Si / 1000 Ang^3
#
#
#
# Elastic Constant Matrix: (Units=GPa)
#
#
# Indices 1 2 3 4 5 6 
#
# 1 97.4396 48.1826 30.1177 0.0000 0.0000 0.0000
# 2 48.1826 80.4534 25.5937 0.0000 0.0000 0.0000
# 3 30.1177 25.5937 74.9189 0.0000 0.0000 0.0000
# 4 0.0000 0.0000 0.0000 26.0453 0.0000 0.0000
# 5 0.0000 0.0000 0.0000 0.0000 29.5123 0.0000
# 6 0.0000 0.0000 0.0000 0.0000 0.0000 37.9147
#
#
#
# Elastic Compliance Matrix: (Units=1/GPa)
#
#
# Indices 1 2 3 4 5 6 
#
# 1 0.015312 -0.008091 -0.003391 0.000000 0.000000 0.000000
# 2 -0.008091 0.018221 -0.002972 0.000000 0.000000 0.000000
# 3 -0.003391 -0.002972 0.015726 0.000000 0.000000 0.000000
# 4 0.000000 0.000000 0.000000 0.038395 0.000000 0.000000
# 5 0.000000 0.000000 0.000000 0.000000 0.033884 0.000000
# 6 0.000000 0.000000 0.000000 0.000000 0.000000 0.026375
#
#
# Mechanical properties :
#
#
# Convention : Reuss Voigt Hill
#
# Bulk Modulus (GPa) = 49.13972 51.17776 50.15874
# Shear Modulus (GPa) = 27.23233 28.62234 27.92734
#
# Velocity S-wave (km/s) = 3.75649 3.85116 3.80412
# Velocity P-wave (km/s) = 6.65417 6.80400 6.72951
#
# Compressibility (1/GPa) = 0.02035014
#
# Stress axis : x y z
#
# Youngs Moduli (GPa) = 65.30795 54.88244 63.58769
#
# Poissons Ratio (x) = 0.44407 0.21565
# Poissons Ratio (y) = 0.52843 0.18897
# Poissons Ratio (z) = 0.22148 0.16310
#
# Static dielectric constant tensor:
#      x y z
#    x 3.969040 0.000000 0.000000 
#    y 0.000000 3.432690 0.000000 
#    z 0.000000 0.000000 3.471200 
# 
# 
# High freq. dielectric constant tensor:
#      x y z
#    x 1.769610 0.000000 0.000000 
#    y 0.000000 1.733170 0.000000 
#    z 0.000000 0.000000 1.746070 
# 
# From -- ./inp_files/4685.got.cif
#   From: 2010.06.25/outbox.cif.g09.slc.cpg/sg58_3_cif.got.tgz:4685.got - 2010.06.26 21:38:00.
