data_PCOD8238589
_publ_section_title
;
Structure prediction by ZEFSAII (Michael W. Deem and Ramdas Pophale) SiO2 
 PCOD8238589
Probable space group: P N N M
;
_chemical_formula_sum "Si O2"
_cell_formula_units_Z 56
_cell_length_a 16.299336
_cell_length_b 19.631307
_cell_length_c 8.544300
_cell_angle_alpha 90.000000
_cell_angle_beta 90.000000
_cell_angle_gamma 90.000000
_cell_volume 2733.981779
_symmetry_space_group_name_H-M "P N N M"
_symmetry_group_IT_number 58
_symmetry_cell_setting 'orthorhombic'
loop_
_space_group_symop_operation_xyz
x,y,z
-x,-y,z
1/2+x,1/2-y,1/2-z
1/2-x,1/2+y,1/2-z
-x,-y,-z
x,y,-z
1/2-x,1/2+y,1/2+z
1/2+x,1/2-y,1/2+z
loop_
_atom_site_type_symbol
_atom_site_label
_atom_site_fract_x
_atom_site_fract_y
_atom_site_fract_z
Si Si1 0.800811 0.617667 0.320017
Si Si2 0.809681 0.226272 0.321051
Si Si3 0.136664 0.626579 0.682492
Si Si4 0.562775 0.444356 0.813989
Si Si5 0.966936 0.659197 0.181179
Si Si6 0.004545 0.801256 0.318836
Si Si7 0.243752 0.018558 0.317307
O O1 0.790772 0.597403 0.500000
O O2 0.756848 0.689726 0.287610
O O3 0.896434 0.622562 0.280106
O O4 0.757418 0.561002 0.213117
O O5 0.780526 0.219619 0.500000
O O6 0.813800 0.305313 0.269139
O O7 0.897998 0.191240 0.297313
O O8 0.114364 0.630093 0.500000
O O9 0.189690 0.560720 0.720432
O O10 0.052045 0.622440 0.777082
O O11 0.500000 0.500000 0.743298
O O12 0.537342 0.369682 0.753745
O O13 0.653941 0.461080 0.755123
O O14 0.557891 0.446553 0.000000
O O15 0.969348 0.739249 0.218713
O O16 0.947426 0.648824 0.000000
O O17 0.983012 0.787441 0.500000
O O18 0.253254 0.034839 0.500000
#
# Coordination Sequence:
#
# PCOD8238589 Si02
#       7
#     8   8   8   8   8   8   8
#     4  12  25  40  60  86 120 161 207 252 305 363
#     4   9  19  37  62  89 122 159 198 248 300 356
#     4  10  22  42  64  89 123 159 199 249 309 367
#     4   9  18  34  59  89 123 161 199 241 293 358
#     4  11  23  40  62  89 118 153 202 254 307 361
#     4   9  18  36  61  90 121 156 198 245 301 360
#     4  11  23  39  61  91 123 160 206 251 304 365
#
# _framework density 20.482945999999998
#
# number of rings (size 3 to 8) (size 9 to 14) (size 15 to 20)
#    0.000    1.857    0.000    5.143    2.000    5.714 
#    0.000    3.571    0.000    3.000    0.000    0.000 
#    0.000    0.000    0.000    0.000    0.000    0.000 
#
# Total GULP energy -694721.351475 kJ/mol
# GULP energy per Si atom -12405.738419 kJ/mol
# Density = 2.043633 g / cm^3
# Si number density = 20.482946 Si / 1000 Ang^3
#
#
#
# Elastic Constant Matrix: (Units=GPa)
#
#
# Indices 1 2 3 4 5 6 
#
# 1 93.6351 27.9157 22.9235 0.0000 0.0000 0.0000
# 2 27.9157 56.4190 15.2108 0.0000 0.0000 0.0000
# 3 22.9235 15.2108 55.4488 0.0000 0.0000 0.0000
# 4 0.0000 0.0000 0.0000 31.4276 0.0000 0.0000
# 5 0.0000 0.0000 0.0000 0.0000 24.6271 0.0000
# 6 0.0000 0.0000 0.0000 0.0000 0.0000 38.7292
#
#
#
# Elastic Compliance Matrix: (Units=1/GPa)
#
#
# Indices 1 2 3 4 5 6 
#
# 1 0.013297 -0.005504 -0.003987 0.000000 0.000000 0.000000
# 2 -0.005504 0.021419 -0.003600 0.000000 0.000000 0.000000
# 3 -0.003987 -0.003600 0.020671 0.000000 0.000000 0.000000
# 4 0.000000 0.000000 0.000000 0.031819 0.000000 0.000000
# 5 0.000000 0.000000 0.000000 0.000000 0.040606 0.000000
# 6 0.000000 0.000000 0.000000 0.000000 0.000000 0.025820
#
#
# Mechanical properties :
#
#
# Convention : Reuss Voigt Hill
#
# Bulk Modulus (GPa) = 34.24295 37.51142 35.87719
# Shear Modulus (GPa) = 26.37848 28.25366 27.31607
#
# Velocity S-wave (km/s) = 3.59252 3.71802 3.65581
# Velocity P-wave (km/s) = 5.82772 6.06505 5.94757
#
# Compressibility (1/GPa) = 0.02920309
#
# Stress axis : x y z
#
# Youngs Moduli (GPa) = 75.20559 46.68850 48.37790
#
# Poissons Ratio (x) = 0.25698 0.19289
# Poissons Ratio (y) = 0.41395 0.17416
# Poissons Ratio (z) = 0.29986 0.16808
#
# Static dielectric constant tensor:
#      x y z
#    x 3.723420 0.000000 0.000000 
#    y 0.000000 3.689040 0.000000 
#    z 0.000000 0.000000 3.431580 
# 
# 
# High freq. dielectric constant tensor:
#      x y z
#    x 1.807110 0.000000 0.000000 
#    y 0.000000 1.804660 0.000000 
#    z 0.000000 0.000000 1.784000 
# 
# From -- ./inp_files/6450.got.cif
#   From: 2010.06.25/outbox.cif.g09.slc.cpg/sg58_4_cif.got.tgz:6450.got - 2010.06.26 21:38:00.
