data_PCOD8238503
_publ_section_title
;
Structure prediction by ZEFSAII (Michael W. Deem and Ramdas Pophale) SiO2 
 PCOD8238503
Probable space group: P N N M
;
_chemical_formula_sum "Si O2"
_cell_formula_units_Z 64
_cell_length_a 9.682493
_cell_length_b 14.450517
_cell_length_c 22.271440
_cell_angle_alpha 90.000000
_cell_angle_beta 90.000000
_cell_angle_gamma 90.000000
_cell_volume 3116.153732
_symmetry_space_group_name_H-M "P N N M"
_symmetry_group_IT_number 58
_symmetry_cell_setting 'orthorhombic'
loop_
_space_group_symop_operation_xyz
x,y,z
-x,-y,z
1/2+x,1/2-y,1/2-z
1/2-x,1/2+y,1/2-z
-x,-y,-z
x,y,-z
1/2-x,1/2+y,1/2+z
1/2+x,1/2-y,1/2+z
loop_
_atom_site_type_symbol
_atom_site_label
_atom_site_fract_x
_atom_site_fract_y
_atom_site_fract_z
Si Si1 0.216039 0.402128 0.333096
Si Si2 0.668571 0.097473 0.429456
Si Si3 0.279673 0.603658 0.685023
Si Si4 0.373392 0.270215 0.865085
Si Si5 0.523404 0.903010 0.738778
Si Si6 0.649192 0.234935 0.929388
Si Si7 0.544548 0.702756 0.271068
Si Si8 0.140252 0.612614 0.930406
O O1 0.287867 0.501346 0.343496
O O2 0.071263 0.411020 0.298200
O O3 0.187717 0.362302 0.398994
O O4 0.309505 0.330170 0.296320
O O5 0.686854 0.122983 0.500000
O O6 0.776306 0.147621 0.386732
O O7 0.515338 0.123421 0.405183
O O8 0.698630 0.989455 0.418764
O O9 0.217456 0.676337 0.637184
O O10 0.430950 0.630520 0.707397
O O11 0.183900 0.600464 0.743675
O O12 0.493150 0.261882 0.914039
O O13 0.442171 0.293097 0.800927
O O14 0.498584 0.805611 0.704466
O O15 0.500000 0.000000 0.701076
O O16 0.753696 0.312974 0.902872
O O17 0.664359 0.222554 0.000000
O O18 0.128052 0.631679 0.000000
#
# Coordination Sequence:
#
# PCOD8238503 Si02
#       8
#     8   8   8   8   8   8   8   8
#     4  11  22  42  63  87 123 170 207 259 324 372
#     4   9  18  39  64  91 128 168 208 257 314 380
#     4  10  22  40  61  84 125 163 207 265 319 371
#     4  11  23  38  64  94 128 161 215 262 326 381
#     4   9  18  36  63  87 121 160 200 254 316 378
#     4  11  23  41  64  96 131 169 216 269 325 385
#     4  11  22  40  61  89 124 166 208 262 322 384
#     4   8  18  38  63  89 125 168 205 252 315 374
#
# _framework density 20.538139000000001
#
# number of rings (size 3 to 8) (size 9 to 14) (size 15 to 20)
#    0.000    2.000    2.500    3.000    1.750    0.500 
#    4.500    5.000    2.750    1.500    0.000    0.000 
#    0.000    0.000    0.000    0.000    0.000    0.000 
#
# Total GULP energy -793296.253755 kJ/mol
# GULP energy per Si atom -12395.253965 kJ/mol
# Density = 2.049139 g / cm^3
# Si number density = 20.538139 Si / 1000 Ang^3
#
#
#
# Elastic Constant Matrix: (Units=GPa)
#
#
# Indices 1 2 3 4 5 6 
#
# 1 92.6197 54.8362 27.4974 0.0000 0.0000 0.0000
# 2 54.8362 151.8704 38.7310 0.0000 0.0000 0.0000
# 3 27.4974 38.7310 61.9130 0.0000 0.0000 0.0000
# 4 0.0000 0.0000 0.0000 28.6480 0.0000 0.0000
# 5 0.0000 0.0000 0.0000 0.0000 31.2992 0.0000
# 6 0.0000 0.0000 0.0000 0.0000 0.0000 35.8844
#
#
#
# Elastic Compliance Matrix: (Units=1/GPa)
#
#
# Indices 1 2 3 4 5 6 
#
# 1 0.014428 -0.004254 -0.003747 0.000000 0.000000 0.000000
# 2 -0.004254 0.009089 -0.003796 0.000000 0.000000 0.000000
# 3 -0.003747 -0.003796 0.020191 0.000000 0.000000 0.000000
# 4 0.000000 0.000000 0.000000 0.034907 0.000000 0.000000
# 5 0.000000 0.000000 0.000000 0.000000 0.031950 0.000000
# 6 0.000000 0.000000 0.000000 0.000000 0.000000 0.027867
#
#
# Mechanical properties :
#
#
# Convention : Reuss Voigt Hill
#
# Bulk Modulus (GPa) = 49.71869 60.94806 55.33338
# Shear Modulus (GPa) = 29.63336 31.52220 30.57778
#
# Velocity S-wave (km/s) = 3.80260 3.92192 3.86272
# Velocity P-wave (km/s) = 6.59850 7.08862 6.84795
#
# Compressibility (1/GPa) = 0.02011316
#
# Stress axis : x y z
#
# Youngs Moduli (GPa) = 69.31087 110.02651 49.52813
#
# Poissons Ratio (x) = 0.46805 0.18556
# Poissons Ratio (y) = 0.29485 0.18802
# Poissons Ratio (z) = 0.25968 0.41770
#
# Static dielectric constant tensor:
#      x y z
#    x 3.895140 0.000000 0.000000 
#    y 0.000000 4.181230 0.000000 
#    z 0.000000 0.000000 3.374070 
# 
# 
# High freq. dielectric constant tensor:
#      x y z
#    x 1.812910 0.000000 0.000000 
#    y 0.000000 1.815400 0.000000 
#    z 0.000000 0.000000 1.777810 
# 
# From -- ./inp_files/31633.got.cif
#   From: 2010.06.25/outbox.cif.g09.slc.cpg/sg58_16_cif.got.tgz:31633.got - 2010.06.26 21:38:00.
