data_PCOD8238127
_publ_section_title
;
Structure prediction by ZEFSAII (Michael W. Deem and Ramdas Pophale) SiO2 
 PCOD8238127
Probable space group: P N N M
;
_chemical_formula_sum "Si O2"
_cell_formula_units_Z 48
_cell_length_a 11.853736
_cell_length_b 23.236792
_cell_length_c 8.579150
_cell_angle_alpha 90.000000
_cell_angle_beta 90.000000
_cell_angle_gamma 90.000000
_cell_volume 2363.065079
_symmetry_space_group_name_H-M "P N N M"
_symmetry_group_IT_number 58
_symmetry_cell_setting 'orthorhombic'
loop_
_space_group_symop_operation_xyz
x,y,z
-x,-y,z
1/2+x,1/2-y,1/2-z
1/2-x,1/2+y,1/2-z
-x,-y,-z
x,y,-z
1/2-x,1/2+y,1/2+z
1/2+x,1/2-y,1/2+z
loop_
_atom_site_type_symbol
_atom_site_label
_atom_site_fract_x
_atom_site_fract_y
_atom_site_fract_z
Si Si1 0.768859 0.917296 0.818323
Si Si2 0.909380 0.337320 0.820226
Si Si3 0.147710 0.352655 0.320621
Si Si4 0.682718 0.546653 0.319111
Si Si5 0.494639 0.620197 0.819429
Si Si6 0.836682 0.219423 0.680664
O O1 0.664079 0.893009 0.721560
O O2 0.881379 0.881286 0.781703
O O3 0.784335 0.983050 0.764674
O O4 0.740629 0.912785 0.000000
O O5 0.867311 0.284729 0.715279
O O6 0.038797 0.351658 0.787357
O O7 0.894408 0.321034 0.000000
O O8 0.110729 0.347826 0.500000
O O9 0.211506 0.412193 0.285093
O O10 0.228118 0.298890 0.280692
O O11 0.648029 0.548404 0.500000
O O12 0.574485 0.566246 0.220730
O O13 0.557099 0.679426 0.774351
O O14 0.461778 0.617803 0.000000
O O15 0.806314 0.211761 0.500000
#
# Coordination Sequence:
#
# PCOD8238127 Si02
#       6
#     8   8   8   8   8   8
#     4  11  23  39  60  88 123 160 203 248 297 356
#     4  12  26  41  59  87 121 159 203 248 302 358
#     4  10  21  41  65  88 118 155 199 246 299 359
#     4   9  20  39  63  89 119 160 202 244 298 359
#     4  10  21  37  61  92 123 156 198 248 302 356
#     4  10  22  41  63  87 118 156 199 246 301 358
#
# _framework density 20.3126
#
# number of rings (size 3 to 8) (size 9 to 14) (size 15 to 20)
#    0.000    1.667    0.000    4.000    2.333    6.667 
#    0.000    3.333    0.000    0.000    0.000    0.000 
#    0.000    0.000    0.000    0.000    0.000    0.000 
#
# Total GULP energy -595571.928348 kJ/mol
# GULP energy per Si atom -12407.748507 kJ/mol
# Density = 2.026637 g / cm^3
# Si number density = 20.312600 Si / 1000 Ang^3
#
#
#
# Elastic Constant Matrix: (Units=GPa)
#
#
# Indices 1 2 3 4 5 6 
#
# 1 97.2515 20.2627 19.5356 0.0000 0.0000 0.0000
# 2 20.2627 61.5208 14.0410 0.0000 0.0000 0.0000
# 3 19.5356 14.0410 54.8202 0.0000 0.0000 0.0000
# 4 0.0000 0.0000 0.0000 28.7701 0.0000 0.0000
# 5 0.0000 0.0000 0.0000 0.0000 38.2592 0.0000
# 6 0.0000 0.0000 0.0000 0.0000 0.0000 20.5926
#
#
#
# Elastic Compliance Matrix: (Units=1/GPa)
#
#
# Indices 1 2 3 4 5 6 
#
# 1 0.011591 -0.003054 -0.003349 0.000000 0.000000 0.000000
# 2 -0.003054 0.018068 -0.003540 0.000000 0.000000 0.000000
# 3 -0.003349 -0.003540 0.020341 0.000000 0.000000 0.000000
# 4 0.000000 0.000000 0.000000 0.034758 0.000000 0.000000
# 5 0.000000 0.000000 0.000000 0.000000 0.026138 0.000000
# 6 0.000000 0.000000 0.000000 0.000000 0.000000 0.048561
#
#
# Mechanical properties :
#
#
# Convention : Reuss Voigt Hill
#
# Bulk Modulus (GPa) = 33.20330 35.69679 34.45004
# Shear Modulus (GPa) = 26.40182 28.17459 27.28821
#
# Velocity S-wave (km/s) = 3.60915 3.72835 3.66924
# Velocity P-wave (km/s) = 5.80944 6.01216 5.91167
#
# Compressibility (1/GPa) = 0.03011749
#
# Stress axis : x y z
#
# Youngs Moduli (GPa) = 86.27020 55.34564 49.16095
#
# Poissons Ratio (x) = 0.16900 0.16462
# Poissons Ratio (y) = 0.26343 0.17401
# Poissons Ratio (z) = 0.28888 0.19590
#
# Static dielectric constant tensor:
#      x y z
#    x 3.662410 0.000000 0.000000 
#    y 0.000000 3.700790 0.000000 
#    z 0.000000 0.000000 3.630210 
# 
# 
# High freq. dielectric constant tensor:
#      x y z
#    x 1.795920 0.000000 0.000000 
#    y 0.000000 1.796350 0.000000 
#    z 0.000000 0.000000 1.798630 
# 
# From -- ./inp_files/4203.got.cif
#   From: 2010.06.25/outbox.cif.g09.slc.cpg/sg58_3_cif.got.tgz:4203.got - 2010.06.26 21:38:00.
