data_PCOD8238075
_publ_section_title
;
Structure prediction by ZEFSAII (Michael W. Deem and Ramdas Pophale) SiO2 
 PCOD8238075
Probable space group: P N N M
;
_chemical_formula_sum "Si O2"
_cell_formula_units_Z 40
_cell_length_a 10.166575
_cell_length_b 23.282480
_cell_length_c 9.127147
_cell_angle_alpha 90.000000
_cell_angle_beta 90.000000
_cell_angle_gamma 90.000000
_cell_volume 2160.423798
_symmetry_space_group_name_H-M "P N N M"
_symmetry_group_IT_number 58
_symmetry_cell_setting 'orthorhombic'
loop_
_space_group_symop_operation_xyz
x,y,z
-x,-y,z
1/2+x,1/2-y,1/2-z
1/2-x,1/2+y,1/2-z
-x,-y,-z
x,y,-z
1/2-x,1/2+y,1/2+z
1/2+x,1/2-y,1/2+z
loop_
_atom_site_type_symbol
_atom_site_label
_atom_site_fract_x
_atom_site_fract_y
_atom_site_fract_z
Si Si1 0.262346 0.870617 0.169426
Si Si2 0.979966 0.841212 0.834785
Si Si3 0.485308 0.933139 0.329793
Si Si4 0.805048 0.357019 0.333652
Si Si5 0.184079 0.239064 0.670153
O O1 0.344130 0.914032 0.268644
O O2 0.310464 0.806244 0.202674
O O3 0.108664 0.876426 0.216073
O O4 0.284151 0.886820 0.000000
O O5 0.847209 0.880599 0.831387
O O6 0.955246 0.785343 0.732103
O O7 0.007755 0.818446 0.000000
O O8 0.493414 0.918129 0.500000
O O9 0.603180 0.901454 0.248225
O O10 0.500000 0.000000 0.298905
O O11 0.856428 0.349317 0.500000
O O12 0.803209 0.294561 0.253923
O O13 0.196316 0.225031 0.500000
#
# Coordination Sequence:
#
# PCOD8238075 Si02
#       5
#     8   8   8   8   8
#     4  10  21  37  58  86 118 153 196 241 290 354
#     4   8  18  35  54  82 116 149 187 231 286 346
#     4  11  25  42  59  83 116 158 204 249 297 346
#     4   9  19  36  59  84 114 153 191 235 292 350
#     4   9  18  31  54  87 120 151 185 231 291 348
#
# _framework density 18.514886000000001
#
# number of rings (size 3 to 8) (size 9 to 14) (size 15 to 20)
#    1.200    1.400    0.000    1.200    2.800    4.000 
#    0.000    1.000    0.000    6.000    0.000    0.000 
#    0.000    0.000    0.000    0.000    0.000    0.000 
#
# Total GULP energy -495593.590958 kJ/mol
# GULP energy per Si atom -12389.839774 kJ/mol
# Density = 1.847274 g / cm^3
# Si number density = 18.514886 Si / 1000 Ang^3
#
#
#
# Elastic Constant Matrix: (Units=GPa)
#
#
# Indices 1 2 3 4 5 6 
#
# 1 70.6884 0.5191 18.8606 0.0000 0.0000 0.0000
# 2 0.5191 38.2664 36.0285 0.0000 0.0000 0.0000
# 3 18.8606 36.0285 97.4515 0.0000 0.0000 0.0000
# 4 0.0000 0.0000 0.0000 18.9869 0.0000 0.0000
# 5 0.0000 0.0000 0.0000 0.0000 26.2564 0.0000
# 6 0.0000 0.0000 0.0000 0.0000 0.0000 22.1580
#
#
#
# Elastic Compliance Matrix: (Units=1/GPa)
#
#
# Indices 1 2 3 4 5 6 
#
# 1 0.015298 0.003958 -0.004424 0.000000 0.000000 0.000000
# 2 0.003958 0.041110 -0.015965 0.000000 0.000000 0.000000
# 3 -0.004424 -0.015965 0.017020 0.000000 0.000000 0.000000
# 4 0.000000 0.000000 0.000000 0.052668 0.000000 0.000000
# 5 0.000000 0.000000 0.000000 0.000000 0.038086 0.000000
# 6 0.000000 0.000000 0.000000 0.000000 0.000000 0.045130
#
#
# Mechanical properties :
#
#
# Convention : Reuss Voigt Hill
#
# Bulk Modulus (GPa) = 24.65114 35.24694 29.94904
# Shear Modulus (GPa) = 19.55452 23.54680 21.55066
#
# Velocity S-wave (km/s) = 3.25337 3.57007 3.41539
# Velocity P-wave (km/s) = 5.23982 6.00602 5.63595
#
# Compressibility (1/GPa) = 0.04056607
#
# Stress axis : x y z
#
# Youngs Moduli (GPa) = 65.36852 24.32510 58.75474
#
# Poissons Ratio (x) = -0.09627 0.25993
# Poissons Ratio (y) = -0.25871 0.93799
# Poissons Ratio (z) = 0.28918 0.38834
#
# Static dielectric constant tensor:
#      x y z
#    x 3.562220 0.000000 0.000000 
#    y 0.000000 3.029750 0.000000 
#    z 0.000000 0.000000 3.466000 
# 
# 
# High freq. dielectric constant tensor:
#      x y z
#    x 1.727870 0.000000 0.000000 
#    y 0.000000 1.678300 0.000000 
#    z 0.000000 0.000000 1.727130 
# 
# From -- ./inp_files/4020.got.cif
#   From: 2010.06.25/outbox.cif.g09.slc.cpg/sg58_3_cif.got.tgz:4020.got - 2010.06.26 21:38:00.
