data_PCOD8238606
_publ_section_title
;
Structure prediction by ZEFSAII (Michael W. Deem and Ramdas Pophale) SiO2 
 PCOD8238606
Probable space group: P N N M
;
_chemical_formula_sum "Si O2"
_cell_formula_units_Z 64
_cell_length_a 9.361703
_cell_length_b 11.102012
_cell_length_c 30.667094
_cell_angle_alpha 90.000000
_cell_angle_beta 90.000000
_cell_angle_gamma 90.000000
_cell_volume 3187.345745
_symmetry_space_group_name_H-M "P N N M"
_symmetry_group_IT_number 58
_symmetry_cell_setting 'orthorhombic'
loop_
_space_group_symop_operation_xyz
x,y,z
-x,-y,z
1/2+x,1/2-y,1/2-z
1/2-x,1/2+y,1/2-z
-x,-y,-z
x,y,-z
1/2-x,1/2+y,1/2+z
1/2+x,1/2-y,1/2+z
loop_
_atom_site_type_symbol
_atom_site_label
_atom_site_fract_x
_atom_site_fract_y
_atom_site_fract_z
Si Si1 0.257991 0.718722 0.386695
Si Si2 0.164725 0.988912 0.162591
Si Si3 0.682483 0.661189 0.252578
Si Si4 0.304673 0.768178 0.116577
Si Si5 0.960438 0.130928 0.662890
Si Si6 0.024797 0.640899 0.450436
Si Si7 0.518804 0.866754 0.614624
Si Si8 0.515480 0.134629 0.716418
O O1 0.267385 0.618861 0.347939
O O2 0.174071 0.829517 0.365610
O O3 0.409070 0.768381 0.405310
O O4 0.176924 0.666261 0.428402
O O5 0.184620 0.948581 0.212713
O O6 0.237593 0.893574 0.130850
O O7 0.000000 0.000000 0.150277
O O8 0.579491 0.621862 0.213501
O O9 0.621786 0.784115 0.273023
O O10 0.841283 0.691984 0.236259
O O11 0.405259 0.720500 0.155924
O O12 0.398101 0.786601 0.073317
O O13 0.180885 0.672666 0.106143
O O14 0.000000 0.000000 0.645065
O O15 0.028945 0.686578 0.500000
O O16 0.000000 0.500000 0.447426
O O17 0.473291 0.870489 0.664894
O O18 0.500000 0.000000 0.594044
O O19 0.500000 0.000000 0.735862
#
# Coordination Sequence:
#
# PCOD8238606 Si02
#       8
#     8   8   8   8   8   8   8   8
#     4  11  22  42  67  94 130 171 213 267 331 392
#     4  12  23  38  62  92 127 170 215 270 330 376
#     4  12  25  41  58  88 129 173 227 285 319 369
#     4  11  22  41  67  93 128 167 213 260 333 389
#     4  11  25  40  61  86 125 179 225 265 317 373
#     4  10  22  42  71 104 133 159 201 263 335 419
#     4  11  22  42  64  88 124 174 221 261 312 390
#     4  11  26  41  59  84 125 172 227 276 330 374
#
# _framework density 20.079402999999999
#
# number of rings (size 3 to 8) (size 9 to 14) (size 15 to 20)
#    0.000    0.875    5.000    1.875    3.500    0.000 
#    0.000    0.625    0.000   16.500    0.000    0.000 
#    0.000    0.000    0.000    0.000    0.000    0.000 
#
# Total GULP energy -793767.467599 kJ/mol
# GULP energy per Si atom -12402.616681 kJ/mol
# Density = 2.003370 g / cm^3
# Si number density = 20.079403 Si / 1000 Ang^3
#
#
#
# Elastic Constant Matrix: (Units=GPa)
#
#
# Indices 1 2 3 4 5 6 
#
# 1 129.7159 36.0414 42.8598 0.0000 0.0000 0.0000
# 2 36.0414 100.6404 33.0378 0.0000 0.0000 0.0000
# 3 42.8598 33.0378 107.7750 0.0000 0.0000 0.0000
# 4 0.0000 0.0000 0.0000 12.6784 0.0000 0.0000
# 5 0.0000 0.0000 0.0000 0.0000 14.7604 0.0000
# 6 0.0000 0.0000 0.0000 0.0000 0.0000 39.5851
#
#
#
# Elastic Compliance Matrix: (Units=1/GPa)
#
#
# Indices 1 2 3 4 5 6 
#
# 1 0.009357 -0.002368 -0.002995 0.000000 0.000000 0.000000
# 2 -0.002368 0.011647 -0.002629 0.000000 0.000000 0.000000
# 3 -0.002995 -0.002629 0.011276 0.000000 0.000000 0.000000
# 4 0.000000 0.000000 0.000000 0.078874 0.000000 0.000000
# 5 0.000000 0.000000 0.000000 0.000000 0.067749 0.000000
# 6 0.000000 0.000000 0.000000 0.000000 0.000000 0.025262
#
#
# Mechanical properties :
#
#
# Convention : Reuss Voigt Hill
#
# Bulk Modulus (GPa) = 61.36387 62.44551 61.90469
# Shear Modulus (GPa) = 22.16512 28.48426 25.32469
#
# Velocity S-wave (km/s) = 3.32606 3.77049 3.55523
# Velocity P-wave (km/s) = 6.73626 7.07971 6.91012
#
# Compressibility (1/GPa) = 0.01629623
#
# Stress axis : x y z
#
# Youngs Moduli (GPa) = 106.87618 85.85730 88.68729
#
# Poissons Ratio (x) = 0.20327 0.26563
# Poissons Ratio (y) = 0.25304 0.23315
# Poissons Ratio (z) = 0.32011 0.22571
#
# Static dielectric constant tensor:
#      x y z
#    x 3.865330 0.000000 0.000000 
#    y 0.000000 3.926810 0.000000 
#    z 0.000000 0.000000 3.368270 
# 
# 
# High freq. dielectric constant tensor:
#      x y z
#    x 1.802900 0.000000 0.000000 
#    y 0.000000 1.795610 0.000000 
#    z 0.000000 0.000000 1.741390 
# 
# From -- ./inp_files/34737.got.cif
#   From: 2010.06.25/outbox.cif.g09.slc.cpg/sg58_18_cif.got.tgz:34737.got - 2010.06.26 21:38:00.
