data_PCOD8238946
_publ_section_title
;
Structure prediction by ZEFSAII (Michael W. Deem and Ramdas Pophale) SiO2 
 PCOD8238946
Probable space group: P N N M
;
_chemical_formula_sum "Si O2"
_cell_formula_units_Z 32
_cell_length_a 10.295743
_cell_length_b 9.726481
_cell_length_c 15.110592
_cell_angle_alpha 90.000000
_cell_angle_beta 90.000000
_cell_angle_gamma 90.000000
_cell_volume 1513.195062
_symmetry_space_group_name_H-M "P N N M"
_symmetry_group_IT_number 58
_symmetry_cell_setting 'orthorhombic'
loop_
_space_group_symop_operation_xyz
x,y,z
-x,-y,z
1/2+x,1/2-y,1/2-z
1/2-x,1/2+y,1/2-z
-x,-y,-z
x,y,-z
1/2-x,1/2+y,1/2+z
1/2+x,1/2-y,1/2+z
loop_
_atom_site_type_symbol
_atom_site_label
_atom_site_fract_x
_atom_site_fract_y
_atom_site_fract_z
Si Si1 0.176476 0.926058 0.000000
Si Si2 0.134047 0.426871 0.154102
Si Si3 0.117739 0.082739 0.398685
Si Si4 0.613466 0.110592 0.856355
Si Si5 0.073914 0.227243 0.000000
O O1 0.259645 0.930731 0.910392
O O2 0.085217 0.786733 0.000000
O O3 0.102759 0.067895 0.000000
O O4 0.247150 0.540133 0.146121
O O5 0.143712 0.371022 0.253170
O O6 0.000000 0.500000 0.132991
O O7 0.137772 0.299731 0.085806
O O8 0.132541 0.039868 0.500000
O O9 0.074149 0.240086 0.390787
O O10 0.000000 0.000000 0.353347
O O11 0.500000 0.000000 0.874148
#
# Coordination Sequence:
#
# PCOD8238946 Si02
#       5
#     4   8   8   8   4
#     4  11  25  44  70  98 142 180 228 278 351 412
#     4  11  25  44  71  98 139 178 232 285 344 402
#     4  11  25  42  69 100 132 179 230 281 338 410
#     4  11  26  44  69 100 141 181 223 285 347 408
#     4  11  25  44  70 101 134 185 230 286 334 413
#
# _framework density 21.147306
#
# number of rings (size 3 to 8) (size 9 to 14) (size 15 to 20)
#    0.000    1.000    2.500    2.250    7.000    4.000 
#    0.000    0.000    0.000    0.000    0.000    0.000 
#    0.000    0.000    0.000    0.000    0.000    0.000 
#
# Total GULP energy -396675.105915 kJ/mol
# GULP energy per Si atom -12396.097060 kJ/mol
# Density = 2.109917 g / cm^3
# Si number density = 21.147306 Si / 1000 Ang^3
#
#
#
# Elastic Constant Matrix: (Units=GPa)
#
#
# Indices 1 2 3 4 5 6 
#
# 1 131.3885 53.9377 33.4987 0.0000 0.0000 0.0000
# 2 53.9377 110.4603 13.4268 0.0000 0.0000 0.0000
# 3 33.4987 13.4268 103.7983 0.0000 0.0000 0.0000
# 4 0.0000 0.0000 0.0000 41.2938 0.0000 0.0000
# 5 0.0000 0.0000 0.0000 0.0000 9.4639 0.0000
# 6 0.0000 0.0000 0.0000 0.0000 0.0000 39.9423
#
#
#
# Elastic Compliance Matrix: (Units=1/GPa)
#
#
# Indices 1 2 3 4 5 6 
#
# 1 0.010210 -0.004658 -0.002692 0.000000 0.000000 0.000000
# 2 -0.004658 0.011323 0.000039 0.000000 0.000000 0.000000
# 3 -0.002692 0.000039 0.010498 0.000000 0.000000 0.000000
# 4 0.000000 0.000000 0.000000 0.024217 0.000000 0.000000
# 5 0.000000 0.000000 0.000000 0.000000 0.105664 0.000000
# 6 0.000000 0.000000 0.000000 0.000000 0.000000 0.025036
#
#
# Mechanical properties :
#
#
# Convention : Reuss Voigt Hill
#
# Bulk Modulus (GPa) = 57.44884 60.81927 59.13405
# Shear Modulus (GPa) = 24.11105 34.45894 29.28500
#
# Velocity S-wave (km/s) = 3.38027 4.04105 3.72534
# Velocity P-wave (km/s) = 6.51613 7.11307 6.82113
#
# Compressibility (1/GPa) = 0.01740679
#
# Stress axis : x y z
#
# Youngs Moduli (GPa) = 97.94577 88.31666 95.25635
#
# Poissons Ratio (x) = 0.41139 0.25647
# Poissons Ratio (y) = 0.45624 -0.00368
# Poissons Ratio (z) = 0.26371 -0.00341
#
# Static dielectric constant tensor:
#      x y z
#    x 4.065920 0.000000 0.000000 
#    y 0.000000 3.881800 0.000000 
#    z 0.000000 0.000000 4.082940 
# 
# 
# High freq. dielectric constant tensor:
#      x y z
#    x 1.838840 0.000000 0.000000 
#    y 0.000000 1.839050 0.000000 
#    z 0.000000 0.000000 1.833660 
# 
# From -- ./inp_files/19201.got.cif
#   From: 2010.06.25/outbox.cif.g09.slc.cpg/sg58_10_cif.got.tgz:19201.got - 2010.06.26 21:38:00.
