data_PCOD8238082
_publ_section_title
;
Structure prediction by ZEFSAII (Michael W. Deem and Ramdas Pophale) SiO2 
 PCOD8238082
Probable space group: P N N M
;
_chemical_formula_sum "Si O2"
_cell_formula_units_Z 64
_cell_length_a 30.454594
_cell_length_b 11.940854
_cell_length_c 9.303823
_cell_angle_alpha 90.000000
_cell_angle_beta 90.000000
_cell_angle_gamma 90.000000
_cell_volume 3383.371152
_symmetry_space_group_name_H-M "P N N M"
_symmetry_group_IT_number 58
_symmetry_cell_setting 'orthorhombic'
loop_
_space_group_symop_operation_xyz
x,y,z
-x,-y,z
1/2+x,1/2-y,1/2-z
1/2-x,1/2+y,1/2-z
-x,-y,-z
x,y,-z
1/2-x,1/2+y,1/2+z
1/2+x,1/2-y,1/2+z
loop_
_atom_site_type_symbol
_atom_site_label
_atom_site_fract_x
_atom_site_fract_y
_atom_site_fract_z
Si Si1 0.546199 0.557711 0.165784
Si Si2 0.072060 0.735246 0.162328
Si Si3 0.623475 0.155662 0.830804
Si Si4 0.550512 0.983279 0.167330
Si Si5 0.205504 0.966835 0.168282
Si Si6 0.128547 0.091819 0.329093
Si Si7 0.303898 0.014233 0.829925
Si Si8 0.671956 0.770807 0.660137
O O1 0.500000 0.500000 0.192838
O O2 0.544109 0.671589 0.255633
O O3 0.585215 0.476233 0.218079
O O4 0.552825 0.590063 0.000000
O O5 0.069114 0.616772 0.239289
O O6 0.122361 0.773625 0.165269
O O7 0.054287 0.724572 0.000000
O O8 0.623391 0.281528 0.768504
O O9 0.577674 0.094727 0.790432
O O10 0.664806 0.084801 0.768789
O O11 0.628282 0.164154 0.000000
O O12 0.500000 0.000000 0.206620
O O13 0.556970 0.953909 0.000000
O O14 0.201416 0.835352 0.201959
O O15 0.171629 0.039555 0.258997
O O16 0.254179 0.997519 0.221034
O O17 0.198015 0.991598 0.000000
O O18 0.134350 0.089565 0.500000
O O19 0.320716 0.132346 0.773625
O O20 0.307640 0.017565 0.000000
O O21 0.683659 0.814607 0.500000
#
# Coordination Sequence:
#
# PCOD8238082 Si02
#       8
#     8   8   8   8   8   8   8   8
#     4  10  22  38  60  88 116 148 194 245 283 332
#     4  11  22  38  60  84 116 155 192 234 288 348
#     4   9  19  36  56  82 112 143 185 232 280 331
#     4  10  21  37  62  87 112 149 191 238 286 334
#     4  10  22  39  57  82 115 150 186 230 287 342
#     4  10  21  37  59  84 113 150 189 232 282 337
#     4  10  21  37  59  83 110 147 189 235 284 335
#     4  10  21  38  59  81 113 151 189 235 284 336
#
# _framework density 18.916043999999999
#
# number of rings (size 3 to 8) (size 9 to 14) (size 15 to 20)
#    0.000    2.000    2.500    0.375    3.500    2.000 
#    0.000    1.250    0.000    0.000    0.000    0.000 
#    0.000    0.000    0.000    0.000    0.000    0.000 
#
# Total GULP energy -793704.708712 kJ/mol
# GULP energy per Si atom -12401.636074 kJ/mol
# Density = 1.887299 g / cm^3
# Si number density = 18.916044 Si / 1000 Ang^3
#
#
#
# Elastic Constant Matrix: (Units=GPa)
#
#
# Indices 1 2 3 4 5 6 
#
# 1 111.5192 34.1946 23.2429 0.0000 0.0000 0.0000
# 2 34.1946 102.3283 27.2576 0.0000 0.0000 0.0000
# 3 23.2429 27.2576 36.2810 0.0000 0.0000 0.0000
# 4 0.0000 0.0000 0.0000 24.5973 0.0000 0.0000
# 5 0.0000 0.0000 0.0000 0.0000 24.7264 0.0000
# 6 0.0000 0.0000 0.0000 0.0000 0.0000 27.7395
#
#
#
# Elastic Compliance Matrix: (Units=1/GPa)
#
#
# Indices 1 2 3 4 5 6 
#
# 1 0.010729 -0.002193 -0.005225 0.000000 0.000000 0.000000
# 2 -0.002193 0.012666 -0.008111 0.000000 0.000000 0.000000
# 3 -0.005225 -0.008111 0.037004 0.000000 0.000000 0.000000
# 4 0.000000 0.000000 0.000000 0.040655 0.000000 0.000000
# 5 0.000000 0.000000 0.000000 0.000000 0.040443 0.000000
# 6 0.000000 0.000000 0.000000 0.000000 0.000000 0.036050
#
#
# Mechanical properties :
#
#
# Convention : Reuss Voigt Hill
#
# Bulk Modulus (GPa) = 34.08364 46.61317 40.34840
# Shear Modulus (GPa) = 22.89547 26.44153 24.66850
#
# Velocity S-wave (km/s) = 3.48282 3.74282 3.61516
# Velocity P-wave (km/s) = 5.85071 6.58589 6.22915
#
# Compressibility (1/GPa) = 0.02933959
#
# Stress axis : x y z
#
# Youngs Moduli (GPa) = 93.20840 78.95252 27.02435
#
# Poissons Ratio (x) = 0.17316 0.14121
# Poissons Ratio (y) = 0.20443 0.21919
# Poissons Ratio (z) = 0.48705 0.64036
#
# Static dielectric constant tensor:
#      x y z
#    x 3.708460 0.000000 0.000000 
#    y 0.000000 3.539970 0.000000 
#    z 0.000000 0.000000 3.290660 
# 
# 
# High freq. dielectric constant tensor:
#      x y z
#    x 1.744900 0.000000 0.000000 
#    y 0.000000 1.743280 0.000000 
#    z 0.000000 0.000000 1.713960 
# 
# From -- ./inp_files/4652.got.cif
#   From: 2010.06.25/outbox.cif.g09.slc.cpg/sg58_3_cif.got.tgz:4652.got - 2010.06.26 21:38:00.
