data_PCOD8238889
_publ_section_title
;
Structure prediction by ZEFSAII (Michael W. Deem and Ramdas Pophale) SiO2 
 PCOD8238889
Probable space group: P N N M
;
_chemical_formula_sum "Si O2"
_cell_formula_units_Z 32
_cell_length_a 26.368470
_cell_length_b 5.079378
_cell_length_c 10.789856
_cell_angle_alpha 90.000000
_cell_angle_beta 90.000000
_cell_angle_gamma 90.000000
_cell_volume 1445.143964
_symmetry_space_group_name_H-M "P N N M"
_symmetry_group_IT_number 58
_symmetry_cell_setting 'orthorhombic'
loop_
_space_group_symop_operation_xyz
x,y,z
-x,-y,z
1/2+x,1/2-y,1/2-z
1/2-x,1/2+y,1/2-z
-x,-y,-z
x,y,-z
1/2-x,1/2+y,1/2+z
1/2+x,1/2-y,1/2+z
loop_
_atom_site_type_symbol
_atom_site_label
_atom_site_fract_x
_atom_site_fract_y
_atom_site_fract_z
Si Si1 0.556989 0.962489 0.142343
Si Si2 0.200398 0.689839 0.365154
Si Si3 0.882640 0.972836 0.287851
Si Si4 0.315397 0.836096 0.637969
O O1 0.586111 0.237921 0.150284
O O2 0.500000 0.000000 0.191754
O O3 0.582201 0.731463 0.224471
O O4 0.557219 0.865897 0.000000
O O5 0.192266 0.551580 0.500000
O O6 0.168400 0.962748 0.368729
O O7 0.259799 0.717191 0.342146
O O8 0.175039 0.538255 0.249939
O O9 0.859636 0.883726 0.153594
O O10 0.319519 0.961743 0.500000
#
# Coordination Sequence:
#
# PCOD8238889 Si02
#       4
#     8   8   8   8
#     4  11  24  42  67 101 136 171 225 297 355 398
#     4  11  23  40  65 100 138 181 230 276 327 399
#     4  12  23  41  67 100 134 179 223 273 346 409
#     4  11  25  42  64 100 145 186 227 273 333 410
#
# _framework density 22.143122999999999
#
# number of rings (size 3 to 8) (size 9 to 14) (size 15 to 20)
#    0.000    0.750    5.000    3.000    0.000    6.000 
#    0.000    0.000    0.000    4.500    0.000    0.000 
#    0.000    0.000    0.000    0.000    0.000    0.000 
#
# Total GULP energy -396422.718092 kJ/mol
# GULP energy per Si atom -12388.209940 kJ/mol
# Density = 2.209272 g / cm^3
# Si number density = 22.143123 Si / 1000 Ang^3
#
#
#
# Elastic Constant Matrix: (Units=GPa)
#
#
# Indices 1 2 3 4 5 6 
#
# 1 158.0969 57.9158 45.0707 0.0000 0.0000 0.0000
# 2 57.9158 122.0066 52.6890 0.0000 0.0000 0.0000
# 3 45.0707 52.6890 143.1850 0.0000 0.0000 0.0000
# 4 0.0000 0.0000 0.0000 26.1513 0.0000 0.0000
# 5 0.0000 0.0000 0.0000 0.0000 -12.4835 0.0000
# 6 0.0000 0.0000 0.0000 0.0000 0.0000 36.3220
#
#
#
# Elastic Compliance Matrix: (Units=1/GPa)
#
#
# Indices 1 2 3 4 5 6 
#
# 1 0.007858 -0.003165 -0.001309 0.000000 0.000000 0.000000
# 2 -0.003165 0.011020 -0.003059 0.000000 0.000000 0.000000
# 3 -0.001309 -0.003059 0.008522 0.000000 0.000000 0.000000
# 4 0.000000 0.000000 0.000000 0.038239 0.000000 0.000000
# 5 0.000000 0.000000 0.000000 0.000000 -0.080106 0.000000
# 6 0.000000 0.000000 0.000000 0.000000 0.000000 0.027532
#
#
# Mechanical properties :
#
#
# Convention : Reuss Voigt Hill
#
# Bulk Modulus (GPa) = 81.07661 81.62660 81.35161
# Shear Modulus (GPa) = 155.08909 27.83882 91.46395
#
# Velocity S-wave (km/s) = 8.37803 3.54958 6.43393
# Velocity P-wave (km/s) = 11.41415 7.33093 9.59233
#
# Compressibility (1/GPa) = 0.01233401
#
# Stress axis : x y z
#
# Youngs Moduli (GPa) = 127.26335 90.74804 117.35013
#
# Poissons Ratio (x) = 0.28720 0.15359
# Poissons Ratio (y) = 0.40276 0.35895
# Poissons Ratio (z) = 0.16656 0.27758
#
# Static dielectric constant tensor:
#      x y z
#    x 4.310760 0.000000 0.000000 
#    y 0.000000 3.979550 0.000000 
#    z 0.000000 0.000000 3.906970 
# 
# 
# High freq. dielectric constant tensor:
#      x y z
#    x 1.886780 0.000000 0.000000 
#    y 0.000000 1.866060 0.000000 
#    z 0.000000 0.000000 1.842850 
# 
# From -- ./inp_files/1381.got.cif
#   From: 2010.06.25/outbox.cif.g09.slc.cpg/sg58_1_cif.got.tgz:1381.got - 2010.06.26 21:38:00.
