data_PCOD8238733
_publ_section_title
;
Structure prediction by ZEFSAII (Michael W. Deem and Ramdas Pophale) SiO2 
 PCOD8238733
Probable space group: P N N M
;
_chemical_formula_sum "Si O2"
_cell_formula_units_Z 40
_cell_length_a 9.555552
_cell_length_b 8.162825
_cell_length_c 23.389968
_cell_angle_alpha 90.000000
_cell_angle_beta 90.000000
_cell_angle_gamma 90.000000
_cell_volume 1824.424492
_symmetry_space_group_name_H-M "P N N M"
_symmetry_group_IT_number 58
_symmetry_cell_setting 'orthorhombic'
loop_
_space_group_symop_operation_xyz
x,y,z
-x,-y,z
1/2+x,1/2-y,1/2-z
1/2-x,1/2+y,1/2-z
-x,-y,-z
x,y,-z
1/2-x,1/2+y,1/2+z
1/2+x,1/2-y,1/2+z
loop_
_atom_site_type_symbol
_atom_site_label
_atom_site_fract_x
_atom_site_fract_y
_atom_site_fract_z
Si Si1 0.707692 0.124712 0.935567
Si Si2 0.268095 0.817314 0.664801
Si Si3 0.401804 0.237162 0.064600
Si Si4 0.855506 0.411913 0.752674
Si Si5 0.555205 0.679474 0.345930
O O1 0.564045 0.216106 0.919643
O O2 0.832521 0.188740 0.896366
O O3 0.683993 0.931297 0.929819
O O4 0.751767 0.167339 0.000000
O O5 0.165712 0.858932 0.611475
O O6 0.223458 0.644637 0.695064
O O7 0.424473 0.798376 0.639428
O O8 0.260499 0.966544 0.709497
O O9 0.386423 0.306909 0.000000
O O10 0.877646 0.244616 0.787580
O O11 0.000000 0.500000 0.734660
O O12 0.500000 0.500000 0.334628
#
# Coordination Sequence:
#
# PCOD8238733 Si02
#       5
#     8   8   8   8   8
#     4   9  19  35  59  91 122 158 208 259 312 379
#     4  11  22  39  62  87 124 162 206 260 309 381
#     4   9  19  36  62  89 119 162 207 259 318 374
#     4  10  25  41  60  93 127 166 212 258 319 378
#     4  11  21  37  61  89 121 155 203 256 312 373
#
# _framework density 21.924721999999999
#
# number of rings (size 3 to 8) (size 9 to 14) (size 15 to 20)
#    0.000    2.000    2.000    2.400    2.800    2.800 
#    0.000    6.000    0.000    6.000    0.000    0.000 
#    0.000    0.000    0.000    0.000    0.000    0.000 
#
# Total GULP energy -495953.922577 kJ/mol
# GULP energy per Si atom -12398.848064 kJ/mol
# Density = 2.187482 g / cm^3
# Si number density = 21.924722 Si / 1000 Ang^3
#
#
#
# Elastic Constant Matrix: (Units=GPa)
#
#
# Indices 1 2 3 4 5 6 
#
# 1 118.1082 26.8800 78.3655 0.0000 0.0000 0.0000
# 2 26.8800 42.9509 29.3821 0.0000 0.0000 0.0000
# 3 78.3655 29.3821 116.7889 0.0000 0.0000 0.0000
# 4 0.0000 0.0000 0.0000 7.1244 0.0000 0.0000
# 5 0.0000 0.0000 0.0000 0.0000 47.7604 0.0000
# 6 0.0000 0.0000 0.0000 0.0000 0.0000 23.7929
#
#
#
# Elastic Compliance Matrix: (Units=1/GPa)
#
#
# Indices 1 2 3 4 5 6 
#
# 1 0.015605 -0.003144 -0.009680 0.000000 0.000000 0.000000
# 2 -0.003144 0.028756 -0.005125 0.000000 0.000000 0.000000
# 3 -0.009680 -0.005125 0.016347 0.000000 0.000000 0.000000
# 4 0.000000 0.000000 0.000000 0.140363 0.000000 0.000000
# 5 0.000000 0.000000 0.000000 0.000000 0.020938 0.000000
# 6 0.000000 0.000000 0.000000 0.000000 0.000000 0.042029
#
#
# Mechanical properties :
#
#
# Convention : Reuss Voigt Hill
#
# Bulk Modulus (GPa) = 40.30605 60.78924 50.54765
# Shear Modulus (GPa) = 16.22286 25.28354 20.75320
#
# Velocity S-wave (km/s) = 2.72313 3.39956 3.07997
# Velocity P-wave (km/s) = 5.32080 6.57236 5.97942
#
# Compressibility (1/GPa) = 0.02481017
#
# Stress axis : x y z
#
# Youngs Moduli (GPa) = 64.08132 34.77543 61.17306
#
# Poissons Ratio (x) = 0.10934 0.59216
# Poissons Ratio (y) = 0.20149 0.31349
# Poissons Ratio (z) = 0.62031 0.17821
#
# Static dielectric constant tensor:
#      x y z
#    x 4.071950 0.000000 0.000000 
#    y 0.000000 3.653850 0.000000 
#    z 0.000000 0.000000 3.971490 
# 
# 
# High freq. dielectric constant tensor:
#      x y z
#    x 1.867030 0.000000 0.000000 
#    y 0.000000 1.838890 0.000000 
#    z 0.000000 0.000000 1.863020 
# 
# From -- ./inp_files/31278.got.cif
#   From: 2010.06.25/outbox.cif.g09.slc.cpg/sg58_16_cif.got.tgz:31278.got - 2010.06.26 21:38:00.
