data_PCOD8238050
_publ_section_title
;
Structure prediction by ZEFSAII (Michael W. Deem and Ramdas Pophale) SiO2 
 PCOD8238050
Probable space group: P N N M
;
_chemical_formula_sum "Si O2"
_cell_formula_units_Z 40
_cell_length_a 4.931960
_cell_length_b 12.968477
_cell_length_c 29.966936
_cell_angle_alpha 90.000000
_cell_angle_beta 90.000000
_cell_angle_gamma 90.000000
_cell_volume 1916.685521
_symmetry_space_group_name_H-M "P N N M"
_symmetry_group_IT_number 58
_symmetry_cell_setting 'orthorhombic'
loop_
_space_group_symop_operation_xyz
x,y,z
-x,-y,z
1/2+x,1/2-y,1/2-z
1/2-x,1/2+y,1/2-z
-x,-y,-z
x,y,-z
1/2-x,1/2+y,1/2+z
1/2+x,1/2-y,1/2+z
loop_
_atom_site_type_symbol
_atom_site_label
_atom_site_fract_x
_atom_site_fract_y
_atom_site_fract_z
Si Si1 0.946532 0.794088 0.693965
Si Si2 0.054139 0.382937 0.761231
Si Si3 0.902622 0.221140 0.408192
Si Si4 0.244984 0.068920 0.048873
Si Si5 0.583288 0.882179 0.551053
O O1 0.978365 0.681140 0.715603
O O2 0.148002 0.873586 0.718137
O O3 0.002069 0.785519 0.642167
O O4 0.647941 0.839691 0.701001
O O5 0.000000 0.500000 0.748263
O O6 0.864162 0.340137 0.420790
O O7 0.602286 0.178122 0.414296
O O8 0.107573 0.151521 0.438080
O O9 0.500000 0.000000 0.040371
O O10 0.143674 0.110390 0.000000
O O11 0.000000 0.000000 0.070708
O O12 0.526017 0.850582 0.500000
O O13 0.500000 0.000000 0.558428
#
# Coordination Sequence:
#
# PCOD8238050 Si02
#       5
#     8   8   8   8   8
#     4  10  23  38  59  92 114 146 200 235 285 363
#     4  10  21  41  62  82 119 155 183 236 298 349
#     4  12  23  39  62  88 121 154 197 255 297 343
#     4  10  21  37  57  82 113 153 196 235 286 345
#     4  11  24  40  59  86 121 162 202 241 296 357
#
# _framework density 20.869358999999999
#
# number of rings (size 3 to 8) (size 9 to 14) (size 15 to 20)
#    0.000    1.400    0.000    5.400    0.000    8.800 
#    0.000    4.000    0.000    0.000    0.000    0.000 
#    0.000    0.000    0.000    0.000    0.000    0.000 
#
# Total GULP energy -495843.346089 kJ/mol
# GULP energy per Si atom -12396.083652 kJ/mol
# Density = 2.082186 g / cm^3
# Si number density = 20.869359 Si / 1000 Ang^3
#
#
#
# Elastic Constant Matrix: (Units=GPa)
#
#
# Indices 1 2 3 4 5 6 
#
# 1 72.7128 13.4739 -2.2637 0.0000 0.0000 0.0000
# 2 13.4739 119.9738 22.5182 0.0000 0.0000 0.0000
# 3 -2.2637 22.5182 100.4382 0.0000 0.0000 0.0000
# 4 0.0000 0.0000 0.0000 3.5594 0.0000 0.0000
# 5 0.0000 0.0000 0.0000 0.0000 24.6312 0.0000
# 6 0.0000 0.0000 0.0000 0.0000 0.0000 40.8385
#
#
#
# Elastic Compliance Matrix: (Units=1/GPa)
#
#
# Indices 1 2 3 4 5 6 
#
# 1 0.014092 -0.001714 0.000702 0.000000 0.000000 0.000000
# 2 -0.001714 0.008910 -0.002036 0.000000 0.000000 0.000000
# 3 0.000702 -0.002036 0.010429 0.000000 0.000000 0.000000
# 4 0.000000 0.000000 0.000000 0.280945 0.000000 0.000000
# 5 0.000000 0.000000 0.000000 0.000000 0.040599 0.000000
# 6 0.000000 0.000000 0.000000 0.000000 0.000000 0.024487
#
#
# Mechanical properties :
#
#
# Convention : Reuss Voigt Hill
#
# Bulk Modulus (GPa) = 36.58509 40.06464 38.32487
# Shear Modulus (GPa) = 12.66883 31.09893 21.88388
#
# Velocity S-wave (km/s) = 2.46652 3.86446 3.24174
# Velocity P-wave (km/s) = 5.06756 6.25712 5.69350
#
# Compressibility (1/GPa) = 0.02733354
#
# Stress axis : x y z
#
# Youngs Moduli (GPa) = 70.96080 112.23498 95.88913
#
# Poissons Ratio (x) = 0.19242 -0.06731
# Poissons Ratio (y) = 0.12166 0.19525
# Poissons Ratio (z) = -0.04981 0.22854
#
# Static dielectric constant tensor:
#      x y z
#    x 4.016030 0.000000 0.000000 
#    y 0.000000 3.547970 0.000000 
#    z 0.000000 0.000000 3.565790 
# 
# 
# High freq. dielectric constant tensor:
#      x y z
#    x 1.837220 0.000000 0.000000 
#    y 0.000000 1.822690 0.000000 
#    z 0.000000 0.000000 1.803490 
# 
# From -- ./inp_files/32650.got.cif
#   From: 2010.06.25/outbox.cif.g09.slc.cpg/sg58_17_cif.got.tgz:32650.got - 2010.06.26 21:38:00.
