data_PCOD8238788
_publ_section_title
;
Structure prediction by ZEFSAII (Michael W. Deem and Ramdas Pophale) SiO2 
 PCOD8238788
Probable space group: P N N M
;
_chemical_formula_sum "Si O2"
_cell_formula_units_Z 32
_cell_length_a 11.593566
_cell_length_b 11.186382
_cell_length_c 11.080441
_cell_angle_alpha 90.000000
_cell_angle_beta 90.000000
_cell_angle_gamma 90.000000
_cell_volume 1437.023036
_symmetry_space_group_name_H-M "P N N M"
_symmetry_group_IT_number 58
_symmetry_cell_setting 'orthorhombic'
loop_
_space_group_symop_operation_xyz
x,y,z
-x,-y,z
1/2+x,1/2-y,1/2-z
1/2-x,1/2+y,1/2-z
-x,-y,-z
x,y,-z
1/2-x,1/2+y,1/2+z
1/2+x,1/2-y,1/2+z
loop_
_atom_site_type_symbol
_atom_site_label
_atom_site_fract_x
_atom_site_fract_y
_atom_site_fract_z
Si Si1 0.327837 0.013404 0.500000
Si Si2 0.428366 0.619061 0.287539
Si Si3 0.186274 0.536168 0.732605
Si Si4 0.490072 0.788085 0.500000
Si Si5 0.533146 0.166310 0.860185
O O1 0.392679 0.888110 0.500000
O O2 0.264856 0.016150 0.629854
O O3 0.393688 0.138399 0.500000
O O4 0.500000 0.500000 0.268343
O O5 0.298764 0.588685 0.333401
O O6 0.486485 0.703469 0.385240
O O7 0.434087 0.695839 0.163637
O O8 0.146012 0.410790 0.675409
O O9 0.077118 0.625629 0.720485
O O10 0.502100 0.147035 0.000000
#
# Coordination Sequence:
#
# PCOD8238788 Si02
#       5
#     4   8   8   4   8
#     4  11  20  44  79  94 129 191 232 278 336 416
#     4  12  28  44  68 108 141 177 228 291 346 401
#     4  11  24  46  71 101 134 184 229 280 352 402
#     4  11  21  46  70 101 136 176 236 283 332 412
#     4  11  25  47  70  98 139 184 232 277 344 420
#
# _framework density 22.268259
#
# number of rings (size 3 to 8) (size 9 to 14) (size 15 to 20)
#    0.000    0.750    5.000    3.375    8.750    0.500 
#    0.000    0.000    0.000    0.000    0.000    0.000 
#    0.000    0.000    0.000    0.000    0.000    0.000 
#
# Total GULP energy -396526.610023 kJ/mol
# GULP energy per Si atom -12391.456563 kJ/mol
# Density = 2.221757 g / cm^3
# Si number density = 22.268259 Si / 1000 Ang^3
#
#
#
# Elastic Constant Matrix: (Units=GPa)
#
#
# Indices 1 2 3 4 5 6 
#
# 1 79.2352 53.0432 -2.8514 0.0000 0.0000 0.0000
# 2 53.0432 184.4307 31.4633 0.0000 0.0000 0.0000
# 3 -2.8514 31.4633 115.6814 0.0000 0.0000 0.0000
# 4 0.0000 0.0000 0.0000 25.1638 0.0000 0.0000
# 5 0.0000 0.0000 0.0000 0.0000 6.4245 0.0000
# 6 0.0000 0.0000 0.0000 0.0000 0.0000 18.2244
#
#
#
# Elastic Compliance Matrix: (Units=1/GPa)
#
#
# Indices 1 2 3 4 5 6 
#
# 1 0.015950 -0.004881 0.001721 0.000000 0.000000 0.000000
# 2 -0.004881 0.007179 -0.002073 0.000000 0.000000 0.000000
# 3 0.001721 -0.002073 0.009251 0.000000 0.000000 0.000000
# 4 0.000000 0.000000 0.000000 0.039740 0.000000 0.000000
# 5 0.000000 0.000000 0.000000 0.000000 0.155655 0.000000
# 6 0.000000 0.000000 0.000000 0.000000 0.000000 0.054871
#
#
# Mechanical properties :
#
#
# Convention : Reuss Voigt Hill
#
# Bulk Modulus (GPa) = 45.63341 60.29528 52.96435
# Shear Modulus (GPa) = 16.64350 29.80868 23.22609
#
# Velocity S-wave (km/s) = 2.73684 3.66268 3.23308
# Velocity P-wave (km/s) = 5.52487 6.70988 6.14600
#
# Compressibility (1/GPa) = 0.02191377
#
# Stress axis : x y z
#
# Youngs Moduli (GPa) = 62.69599 139.28572 108.10034
#
# Poissons Ratio (x) = 0.67983 -0.18600
# Poissons Ratio (y) = 0.30601 0.22409
# Poissons Ratio (z) = -0.10788 0.28874
#
# Static dielectric constant tensor:
#      x y z
#    x 3.644710 0.000000 0.000000 
#    y 0.000000 4.191790 0.000000 
#    z 0.000000 0.000000 4.225800 
# 
# 
# High freq. dielectric constant tensor:
#      x y z
#    x 1.845400 0.000000 0.000000 
#    y 0.000000 1.892970 0.000000 
#    z 0.000000 0.000000 1.885730 
# 
# From -- ./inp_files/13787.got.cif
#   From: 2010.06.25/outbox.cif.g09.slc.cpg/sg58_7_cif.got.tgz:13787.got - 2010.06.26 21:38:00.
