data_PCOD8238776
_publ_section_title
;
Structure prediction by ZEFSAII (Michael W. Deem and Ramdas Pophale) SiO2 
 PCOD8238776
Probable space group: P N N M
;
_chemical_formula_sum "Si O2"
_cell_formula_units_Z 48
_cell_length_a 6.401944
_cell_length_b 21.255549
_cell_length_c 18.593708
_cell_angle_alpha 90.000000
_cell_angle_beta 90.000000
_cell_angle_gamma 90.000000
_cell_volume 2530.172924
_symmetry_space_group_name_H-M "P N N M"
_symmetry_group_IT_number 58
_symmetry_cell_setting 'orthorhombic'
loop_
_space_group_symop_operation_xyz
x,y,z
-x,-y,z
1/2+x,1/2-y,1/2-z
1/2-x,1/2+y,1/2-z
-x,-y,-z
x,y,-z
1/2-x,1/2+y,1/2+z
1/2+x,1/2-y,1/2+z
loop_
_atom_site_type_symbol
_atom_site_label
_atom_site_fract_x
_atom_site_fract_y
_atom_site_fract_z
Si Si1 0.347689 0.243777 0.673427
Si Si2 0.050324 0.072750 0.302054
Si Si3 0.960865 0.268478 0.581838
Si Si4 0.389049 0.060432 0.420149
Si Si5 0.806814 0.828056 0.802533
Si Si6 0.696768 0.154400 0.371148
O O1 0.188289 0.245642 0.606853
O O2 0.226664 0.230781 0.747603
O O3 0.462255 0.311398 0.668094
O O4 0.511299 0.186503 0.673376
O O5 0.192091 0.080029 0.372543
O O6 0.179498 0.103350 0.235007
O O7 0.842871 0.113727 0.317208
O O8 0.000000 0.000000 0.284159
O O9 0.971096 0.293802 0.500000
O O10 0.866367 0.323809 0.633702
O O11 0.818038 0.206739 0.583880
O O12 0.302195 0.046268 0.500000
O O13 0.574831 0.110697 0.427109
O O14 0.500000 0.000000 0.384886
#
# Coordination Sequence:
#
# PCOD8238776 Si02
#       6
#     8   8   8   8   8   8
#     4  11  20  36  62  88 119 152 191 253 308 357
#     4  12  24  39  59  86 121 166 212 251 289 353
#     4  11  24  39  62  90 120 155 195 250 316 370
#     4  11  23  37  54  80 121 166 205 245 285 343
#     4  11  21  38  61  88 117 153 204 252 301 358
#     4  11  21  37  58  86 119 155 201 243 294 357
#
# _framework density 18.971036000000002
#
# number of rings (size 3 to 8) (size 9 to 14) (size 15 to 20)
#    0.000    0.833    6.667    1.500    0.000    6.333 
#    0.000    0.000    0.000    0.500    0.000    1.167 
#    0.000    0.000    0.000    0.000    0.000    0.000 
#
# Total GULP energy -594871.099310 kJ/mol
# GULP energy per Si atom -12393.147902 kJ/mol
# Density = 1.892786 g / cm^3
# Si number density = 18.971036 Si / 1000 Ang^3
#
#
#
# Elastic Constant Matrix: (Units=GPa)
#
#
# Indices 1 2 3 4 5 6 
#
# 1 109.6695 42.5365 46.1655 0.0000 0.0000 0.0000
# 2 42.5365 84.8116 38.8849 0.0000 0.0000 0.0000
# 3 46.1655 38.8849 117.0288 0.0000 0.0000 0.0000
# 4 0.0000 0.0000 0.0000 23.6196 0.0000 0.0000
# 5 0.0000 0.0000 0.0000 0.0000 20.6961 0.0000
# 6 0.0000 0.0000 0.0000 0.0000 0.0000 29.9349
#
#
#
# Elastic Compliance Matrix: (Units=1/GPa)
#
#
# Indices 1 2 3 4 5 6 
#
# 1 0.012320 -0.004661 -0.003311 0.000000 0.000000 0.000000
# 2 -0.004661 0.015673 -0.003369 0.000000 0.000000 0.000000
# 3 -0.003311 -0.003369 0.010971 0.000000 0.000000 0.000000
# 4 0.000000 0.000000 0.000000 0.042338 0.000000 0.000000
# 5 0.000000 0.000000 0.000000 0.000000 0.048318 0.000000
# 6 0.000000 0.000000 0.000000 0.000000 0.000000 0.033406
#
#
# Mechanical properties :
#
#
# Convention : Reuss Voigt Hill
#
# Bulk Modulus (GPa) = 61.42035 62.96485 62.19260
# Shear Modulus (GPa) = 26.15954 27.11166 26.63560
#
# Velocity S-wave (km/s) = 3.71741 3.78446 3.75108
# Velocity P-wave (km/s) = 7.13244 7.23590 7.18435
#
# Compressibility (1/GPa) = 0.01628125
#
# Stress axis : x y z
#
# Youngs Moduli (GPa) = 81.16926 63.80369 91.15262
#
# Poissons Ratio (x) = 0.29737 0.30184
# Poissons Ratio (y) = 0.37831 0.30710
# Poissons Ratio (z) = 0.26878 0.21496
#
# Static dielectric constant tensor:
#      x y z
#    x 3.823080 0.000000 0.000000 
#    y 0.000000 3.442050 0.000000 
#    z 0.000000 0.000000 3.229230 
# 
# 
# High freq. dielectric constant tensor:
#      x y z
#    x 1.759740 0.000000 0.000000 
#    y 0.000000 1.712790 0.000000 
#    z 0.000000 0.000000 1.711800 
# 
# From -- ./inp_files/24337.got.cif
#   From: 2010.06.25/outbox.cif.g09.slc.cpg/sg58_13_cif.got.tgz:24337.got - 2010.06.26 21:38:00.
