data_PCOD8238141
_publ_section_title
;
Structure prediction by ZEFSAII (Michael W. Deem and Ramdas Pophale) SiO2 
 PCOD8238141
Probable space group: P N N M
;
_chemical_formula_sum "Si O2"
_cell_formula_units_Z 56
_cell_length_a 13.692265
_cell_length_b 8.971766
_cell_length_c 23.702452
_cell_angle_alpha 90.000000
_cell_angle_beta 90.000000
_cell_angle_gamma 90.000000
_cell_volume 2911.699216
_symmetry_space_group_name_H-M "P N N M"
_symmetry_group_IT_number 58
_symmetry_cell_setting 'orthorhombic'
loop_
_space_group_symop_operation_xyz
x,y,z
-x,-y,z
1/2+x,1/2-y,1/2-z
1/2-x,1/2+y,1/2-z
-x,-y,-z
x,y,-z
1/2-x,1/2+y,1/2+z
1/2+x,1/2-y,1/2+z
loop_
_atom_site_type_symbol
_atom_site_label
_atom_site_fract_x
_atom_site_fract_y
_atom_site_fract_z
Si Si1 0.789239 0.491487 0.134983
Si Si2 0.168426 0.754352 0.664182
Si Si3 0.518316 0.174131 0.225889
Si Si4 0.952740 0.734019 0.148939
Si Si5 0.132366 0.753518 0.065148
Si Si6 0.299911 0.509352 0.635019
Si Si7 0.239579 0.262834 0.283609
O O1 0.694342 0.598549 0.127569
O O2 0.887707 0.587072 0.140812
O O3 0.795675 0.384106 0.080494
O O4 0.777963 0.392912 0.191466
O O5 0.199581 0.605459 0.629691
O O6 0.243619 0.760082 0.717015
O O7 0.056902 0.755968 0.683518
O O8 0.497579 0.229952 0.289352
O O9 0.624871 0.218322 0.204386
O O10 0.500000 0.000000 0.221257
O O11 0.035416 0.735163 0.101837
O O12 0.892743 0.885149 0.142017
O O13 0.187090 0.909092 0.078931
O O14 0.104085 0.748766 0.000000
O O15 0.297103 0.400644 0.688992
#
# Coordination Sequence:
#
# PCOD8238141 Si02
#       7
#     8   8   8   8   8   8   8
#     4  10  22  38  54  82 123 156 196 247 286 354
#     4  11  21  34  54  84 123 158 201 243 287 353
#     4  12  21  33  60  89 124 170 196 233 287 356
#     4  11  22  35  57  86 124 162 197 237 288 354
#     4  11  24  41  62  83 113 159 206 253 307 359
#     4  10  21  38  53  82 122 157 196 248 283 353
#     4  11  20  36  57  83 126 168 202 225 290 360
#
# _framework density 19.232756999999999
#
# number of rings (size 3 to 8) (size 9 to 14) (size 15 to 20)
#    0.000    1.143    4.286    5.143    0.000    2.857 
#    0.000    2.143    0.000    0.000    0.000   16.000 
#    0.000    0.000    0.000    0.000    0.000    0.000 
#
# Total GULP energy -694467.416169 kJ/mol
# GULP energy per Si atom -12401.203860 kJ/mol
# Density = 1.918898 g / cm^3
# Si number density = 19.232757 Si / 1000 Ang^3
#
#
#
# Elastic Constant Matrix: (Units=GPa)
#
#
# Indices 1 2 3 4 5 6 
#
# 1 109.6596 45.5955 41.6964 0.0000 0.0000 0.0000
# 2 45.5955 133.7584 42.2204 0.0000 0.0000 0.0000
# 3 41.6964 42.2204 91.8659 0.0000 0.0000 0.0000
# 4 0.0000 0.0000 0.0000 14.6692 0.0000 0.0000
# 5 0.0000 0.0000 0.0000 0.0000 14.3567 0.0000
# 6 0.0000 0.0000 0.0000 0.0000 0.0000 21.6532
#
#
#
# Elastic Compliance Matrix: (Units=1/GPa)
#
#
# Indices 1 2 3 4 5 6 
#
# 1 0.011817 -0.002731 -0.004108 0.000000 0.000000 0.000000
# 2 -0.002731 0.009376 -0.003069 0.000000 0.000000 0.000000
# 3 -0.004108 -0.003069 0.014161 0.000000 0.000000 0.000000
# 4 0.000000 0.000000 0.000000 0.068170 0.000000 0.000000
# 5 0.000000 0.000000 0.000000 0.000000 0.069654 0.000000
# 6 0.000000 0.000000 0.000000 0.000000 0.000000 0.046183
#
#
# Mechanical properties :
#
#
# Convention : Reuss Voigt Hill
#
# Bulk Modulus (GPa) = 64.36762 66.03427 65.20094
# Shear Modulus (GPa) = 20.46191 23.85393 22.15792
#
# Velocity S-wave (km/s) = 3.26530 3.52558 3.39793
# Velocity P-wave (km/s) = 6.91062 7.14015 7.02632
#
# Compressibility (1/GPa) = 0.01553576
#
# Stress axis : x y z
#
# Youngs Moduli (GPa) = 84.62457 106.65425 70.61786
#
# Poissons Ratio (x) = 0.29132 0.29011
# Poissons Ratio (y) = 0.23114 0.21675
# Poissons Ratio (z) = 0.34765 0.32736
#
# Static dielectric constant tensor:
#      x y z
#    x 3.600330 0.000000 0.000000 
#    y 0.000000 3.969670 0.000000 
#    z 0.000000 0.000000 3.107390 
# 
# 
# High freq. dielectric constant tensor:
#      x y z
#    x 1.745570 0.000000 0.000000 
#    y 0.000000 1.777580 0.000000 
#    z 0.000000 0.000000 1.693670 
# 
# From -- ./inp_files/30036.got.cif
#   From: 2010.06.25/outbox.cif.g09.slc.cpg/sg58_16_cif.got.tgz:30036.got - 2010.06.26 21:38:00.
