data_PCOD8238872
_publ_section_title
;
Structure prediction by ZEFSAII (Michael W. Deem and Ramdas Pophale) SiO2 
 PCOD8238872
Probable space group: P N N M
;
_chemical_formula_sum "Si O2"
_cell_formula_units_Z 32
_cell_length_a 9.426147
_cell_length_b 10.778920
_cell_length_c 13.438472
_cell_angle_alpha 90.000000
_cell_angle_beta 90.000000
_cell_angle_gamma 90.000000
_cell_volume 1365.398268
_symmetry_space_group_name_H-M "P N N M"
_symmetry_group_IT_number 58
_symmetry_cell_setting 'orthorhombic'
loop_
_space_group_symop_operation_xyz
x,y,z
-x,-y,z
1/2+x,1/2-y,1/2-z
1/2-x,1/2+y,1/2-z
-x,-y,-z
x,y,-z
1/2-x,1/2+y,1/2+z
1/2+x,1/2-y,1/2+z
loop_
_atom_site_type_symbol
_atom_site_label
_atom_site_fract_x
_atom_site_fract_y
_atom_site_fract_z
Si Si1 0.919835 0.613686 0.298563
Si Si2 0.407022 0.619547 0.882056
Si Si3 0.873223 0.081256 0.110128
Si Si4 0.412032 0.138263 0.608865
O O1 0.967395 0.750721 0.336381
O O2 0.754864 0.585053 0.312270
O O3 0.000000 0.500000 0.355756
O O4 0.959527 0.598475 0.181607
O O5 0.500000 0.500000 0.849151
O O6 0.243793 0.603351 0.846678
O O7 0.410456 0.638006 0.000000
O O8 0.932183 0.216885 0.096136
O O9 0.828417 0.029949 0.000000
O O10 0.000000 0.000000 0.157325
O O11 0.431872 0.076193 0.500000
#
# Coordination Sequence:
#
# PCOD8238872 Si02
#       4
#     8   8   8   8
#     4  11  23  36  62 100 132 166 215 274 327 383
#     4   9  20  41  67  93 129 177 221 266 326 395
#     4   9  20  41  66  91 126 172 218 268 330 397
#     4   9  20  39  62  92 130 174 223 271 324 389
#
# _framework density 23.436385000000001
#
# number of rings (size 3 to 8) (size 9 to 14) (size 15 to 20)
#    0.000    2.500    0.000    2.250    0.000   11.500 
#    0.000    0.000    0.000   21.750    0.000    0.000 
#    0.000    0.000    0.000    0.000    0.000    0.000 
#
# Total GULP energy -396428.863833 kJ/mol
# GULP energy per Si atom -12388.401995 kJ/mol
# Density = 2.338304 g / cm^3
# Si number density = 23.436385 Si / 1000 Ang^3
#
#
#
# Elastic Constant Matrix: (Units=GPa)
#
#
# Indices 1 2 3 4 5 6 
#
# 1 152.3528 87.8973 64.2728 0.0000 0.0000 0.0000
# 2 87.8973 173.1403 26.0059 0.0000 0.0000 0.0000
# 3 64.2728 26.0059 115.4799 0.0000 0.0000 0.0000
# 4 0.0000 0.0000 0.0000 6.5786 0.0000 0.0000
# 5 0.0000 0.0000 0.0000 0.0000 39.0312 0.0000
# 6 0.0000 0.0000 0.0000 0.0000 0.0000 53.7935
#
#
#
# Elastic Compliance Matrix: (Units=1/GPa)
#
#
# Indices 1 2 3 4 5 6 
#
# 1 0.011855 -0.005203 -0.005426 0.000000 0.000000 0.000000
# 2 -0.005203 0.008262 0.001035 0.000000 0.000000 0.000000
# 3 -0.005426 0.001035 0.011446 0.000000 0.000000 0.000000
# 4 0.000000 0.000000 0.000000 0.152009 0.000000 0.000000
# 5 0.000000 0.000000 0.000000 0.000000 0.025621 0.000000
# 6 0.000000 0.000000 0.000000 0.000000 0.000000 0.018590
#
#
# Mechanical properties :
#
#
# Convention : Reuss Voigt Hill
#
# Bulk Modulus (GPa) = 80.80956 88.59167 84.70062
# Shear Modulus (GPa) = 19.91282 37.40045 28.65663
#
# Velocity S-wave (km/s) = 2.91804 3.99912 3.50057
# Velocity P-wave (km/s) = 6.77558 7.69460 7.24967
#
# Compressibility (1/GPa) = 0.01237477
#
# Stress axis : x y z
#
# Youngs Moduli (GPa) = 84.35396 121.04138 87.36337
#
# Poissons Ratio (x) = 0.62981 0.47406
# Poissons Ratio (y) = 0.43891 -0.09046
# Poissons Ratio (z) = 0.45773 -0.12533
#
# Static dielectric constant tensor:
#      x y z
#    x 4.024310 0.000000 0.000000 
#    y 0.000000 4.709210 0.000000 
#    z 0.000000 0.000000 4.303180 
# 
# 
# High freq. dielectric constant tensor:
#      x y z
#    x 1.908770 0.000000 0.000000 
#    y 0.000000 1.954930 0.000000 
#    z 0.000000 0.000000 1.926130 
# 
# From -- ./inp_files/19087.got.cif
#   From: 2010.06.25/outbox.cif.g09.slc.cpg/sg58_10_cif.got.tgz:19087.got - 2010.06.26 21:38:00.
