data_PCOD8238087
_publ_section_title
;
Structure prediction by ZEFSAII (Michael W. Deem and Ramdas Pophale) SiO2 
 PCOD8238087
Probable space group: P N N M
;
_chemical_formula_sum "Si O2"
_cell_formula_units_Z 40
_cell_length_a 17.885896
_cell_length_b 13.468455
_cell_length_c 8.315135
_cell_angle_alpha 90.000000
_cell_angle_beta 90.000000
_cell_angle_gamma 90.000000
_cell_volume 2003.077651
_symmetry_space_group_name_H-M "P N N M"
_symmetry_group_IT_number 58
_symmetry_cell_setting 'orthorhombic'
loop_
_space_group_symop_operation_xyz
x,y,z
-x,-y,z
1/2+x,1/2-y,1/2-z
1/2-x,1/2+y,1/2-z
-x,-y,-z
x,y,-z
1/2-x,1/2+y,1/2+z
1/2+x,1/2-y,1/2+z
loop_
_atom_site_type_symbol
_atom_site_label
_atom_site_fract_x
_atom_site_fract_y
_atom_site_fract_z
Si Si1 0.328484 0.908271 0.814472
Si Si2 0.180785 0.819838 0.313608
Si Si3 0.969511 0.105660 0.188533
Si Si4 0.519189 0.192455 0.186890
Si Si5 0.367283 0.116278 0.314464
O O1 0.260337 0.871197 0.706614
O O2 0.401721 0.849765 0.754212
O O3 0.339715 0.025151 0.792607
O O4 0.311215 0.885155 0.000000
O O5 0.160246 0.808965 0.500000
O O6 0.118186 0.887782 0.228983
O O7 0.182034 0.711226 0.234129
O O8 0.016383 0.189947 0.281143
O O9 0.982070 0.120640 0.000000
O O10 0.000000 0.000000 0.248033
O O11 0.454687 0.137109 0.285856
O O12 0.506534 0.169445 0.000000
O O13 0.354025 0.090826 0.500000
#
# Coordination Sequence:
#
# PCOD8238087 Si02
#       5
#     8   8   8   8   8
#     4  11  23  39  59  85 117 150 190 237 285 338
#     4  11  23  39  59  84 116 151 189 235 286 337
#     4  10  21  38  60  84 114 152 191 234 283 337
#     4  10  21  37  59  85 113 148 189 234 282 336
#     4  11  22  38  60  84 114 150 188 232 284 340
#
# _framework density 19.969272
#
# number of rings (size 3 to 8) (size 9 to 14) (size 15 to 20)
#    0.000    1.400    0.000    8.400    0.000    8.800 
#    0.000    4.000    0.000    0.000    0.000    0.000 
#    0.000    0.000    0.000    0.000    0.000    0.000 
#
# Total GULP energy -496277.049175 kJ/mol
# GULP energy per Si atom -12406.926229 kJ/mol
# Density = 1.992382 g / cm^3
# Si number density = 19.969272 Si / 1000 Ang^3
#
#
#
# Elastic Constant Matrix: (Units=GPa)
#
#
# Indices 1 2 3 4 5 6 
#
# 1 101.9938 74.6312 -1.6823 0.0000 0.0000 0.0000
# 2 74.6312 121.3593 11.1291 0.0000 0.0000 0.0000
# 3 -1.6823 11.1291 54.4412 0.0000 0.0000 0.0000
# 4 0.0000 0.0000 0.0000 28.9152 0.0000 0.0000
# 5 0.0000 0.0000 0.0000 0.0000 26.9020 0.0000
# 6 0.0000 0.0000 0.0000 0.0000 0.0000 26.0778
#
#
#
# Elastic Compliance Matrix: (Units=1/GPa)
#
#
# Indices 1 2 3 4 5 6 
#
# 1 0.018269 -0.011502 0.002916 0.000000 0.000000 0.000000
# 2 -0.011502 0.015639 -0.003552 0.000000 0.000000 0.000000
# 3 0.002916 -0.003552 0.019185 0.000000 0.000000 0.000000
# 4 0.000000 0.000000 0.000000 0.034584 0.000000 0.000000
# 5 0.000000 0.000000 0.000000 0.000000 0.037172 0.000000
# 6 0.000000 0.000000 0.000000 0.000000 0.000000 0.038347
#
#
# Mechanical properties :
#
#
# Convention : Reuss Voigt Hill
#
# Bulk Modulus (GPa) = 34.70361 49.55003 42.12682
# Shear Modulus (GPa) = 25.37066 29.29341 27.33203
#
# Velocity S-wave (km/s) = 3.56825 3.83420 3.70361
# Velocity P-wave (km/s) = 5.86454 6.66847 6.27938
#
# Compressibility (1/GPa) = 0.02881545
#
# Stress axis : x y z
#
# Youngs Moduli (GPa) = 54.73768 63.94227 52.12468
#
# Poissons Ratio (x) = 0.73547 -0.15199
# Poissons Ratio (y) = 0.62960 0.18517
# Poissons Ratio (z) = -0.15961 0.22715
#
# Static dielectric constant tensor:
#      x y z
#    x 3.550750 0.000000 0.000000 
#    y 0.000000 3.764670 0.000000 
#    z 0.000000 0.000000 3.628660 
# 
# 
# High freq. dielectric constant tensor:
#      x y z
#    x 1.774770 0.000000 0.000000 
#    y 0.000000 1.785040 0.000000 
#    z 0.000000 0.000000 1.791160 
# 
# From -- ./inp_files/5386.got.cif
#   From: 2010.06.25/outbox.cif.g09.slc.cpg/sg58_3_cif.got.tgz:5386.got - 2010.06.26 21:38:00.
