data_PCOD8238384
_publ_section_title
;
Structure prediction by ZEFSAII (Michael W. Deem and Ramdas Pophale) SiO2 
 PCOD8238384
Probable space group: P N N M
;
_chemical_formula_sum "Si O2"
_cell_formula_units_Z 64
_cell_length_a 30.386035
_cell_length_b 11.967469
_cell_length_c 9.073358
_cell_angle_alpha 90.000000
_cell_angle_beta 90.000000
_cell_angle_gamma 90.000000
_cell_volume 3299.471579
_symmetry_space_group_name_H-M "P N N M"
_symmetry_group_IT_number 58
_symmetry_cell_setting 'orthorhombic'
loop_
_space_group_symop_operation_xyz
x,y,z
-x,-y,z
1/2+x,1/2-y,1/2-z
1/2-x,1/2+y,1/2-z
-x,-y,-z
x,y,-z
1/2-x,1/2+y,1/2+z
1/2+x,1/2-y,1/2+z
loop_
_atom_site_type_symbol
_atom_site_label
_atom_site_fract_x
_atom_site_fract_y
_atom_site_fract_z
Si Si1 0.048126 0.548289 0.166904
Si Si2 0.698044 0.501229 0.327169
Si Si3 0.950671 0.010805 0.675081
Si Si4 0.579778 0.749344 0.173204
Si Si5 0.286815 0.031038 0.666743
Si Si6 0.666280 0.745105 0.666413
Si Si7 0.873325 0.610737 0.172761
Si Si8 0.126533 0.150954 0.324421
O O1 0.046217 0.659950 0.263659
O O2 0.084340 0.460321 0.225126
O O3 0.000000 0.500000 0.179978
O O4 0.060435 0.580568 0.000000
O O5 0.693417 0.476837 0.500000
O O6 0.748669 0.493818 0.281690
O O7 0.683968 0.625647 0.283555
O O8 0.668753 0.413152 0.238756
O O9 0.952569 0.012166 0.500000
O O10 0.918517 0.910880 0.727697
O O11 0.931493 0.127003 0.736450
O O12 0.000000 0.000000 0.740286
O O13 0.628165 0.783708 0.224261
O O14 0.576213 0.750973 0.000000
O O15 0.272168 0.000949 0.500000
O O16 0.295665 0.163200 0.678743
O O17 0.329600 0.959137 0.710365
O O18 0.647684 0.741006 0.500000
O O19 0.873615 0.724145 0.264705
O O20 0.876188 0.639435 0.000000
O O21 0.130435 0.152066 0.500000
#
# Coordination Sequence:
#
# PCOD8238384 Si02
#       8
#     8   8   8   8   8   8   8   8
#     4  10  22  41  63  87 122 163 199 242 301 360
#     4  11  24  40  62  91 121 154 199 249 295 355
#     4   9  20  38  58  85 121 158 193 241 300 348
#     4  11  21  36  63  91 118 152 201 253 294 349
#     4  10  22  41  63  86 118 158 196 244 301 354
#     4  10  21  41  64  85 117 157 196 243 300 356
#     4  10  22  41  61  86 121 158 198 245 297 352
#     4  11  23  40  62  86 121 162 199 241 298 359
#
# _framework density 19.397046
#
# number of rings (size 3 to 8) (size 9 to 14) (size 15 to 20)
#    0.000    1.750    2.500    1.125    3.500    2.250 
#    0.000    0.000    0.000    3.000    0.000    0.000 
#    0.000    0.000    0.000    0.000    0.000    0.000 
#
# Total GULP energy -793738.048239 kJ/mol
# GULP energy per Si atom -12402.157004 kJ/mol
# Density = 1.935290 g / cm^3
# Si number density = 19.397046 Si / 1000 Ang^3
#
#
#
# Elastic Constant Matrix: (Units=GPa)
#
#
# Indices 1 2 3 4 5 6 
#
# 1 115.0670 41.3387 33.1019 0.0000 0.0000 0.0000
# 2 41.3387 130.1887 44.9334 0.0000 0.0000 0.0000
# 3 33.1019 44.9334 62.6606 0.0000 0.0000 0.0000
# 4 0.0000 0.0000 0.0000 16.4772 0.0000 0.0000
# 5 0.0000 0.0000 0.0000 0.0000 24.1738 0.0000
# 6 0.0000 0.0000 0.0000 0.0000 0.0000 24.5512
#
#
#
# Elastic Compliance Matrix: (Units=1/GPa)
#
#
# Indices 1 2 3 4 5 6 
#
# 1 0.010591 -0.001903 -0.004230 0.000000 0.000000 0.000000
# 2 -0.001903 0.010549 -0.006560 0.000000 0.000000 0.000000
# 3 -0.004230 -0.006560 0.022898 0.000000 0.000000 0.000000
# 4 0.000000 0.000000 0.000000 0.060690 0.000000 0.000000
# 5 0.000000 0.000000 0.000000 0.000000 0.041367 0.000000
# 6 0.000000 0.000000 0.000000 0.000000 0.000000 0.040731
#
#
# Mechanical properties :
#
#
# Convention : Reuss Voigt Hill
#
# Bulk Modulus (GPa) = 53.61283 60.74049 57.17666
# Shear Modulus (GPa) = 22.89061 25.60991 24.25026
#
# Velocity S-wave (km/s) = 3.43900 3.63753 3.53966
# Velocity P-wave (km/s) = 6.59307 7.00175 6.80048
#
# Compressibility (1/GPa) = 0.01865225
#
# Stress axis : x y z
#
# Youngs Moduli (GPa) = 94.41772 94.79227 43.67253
#
# Poissons Ratio (x) = 0.18038 0.18476
# Poissons Ratio (y) = 0.17967 0.28648
# Poissons Ratio (z) = 0.39943 0.62180
#
# Static dielectric constant tensor:
#      x y z
#    x 3.592510 0.000000 0.000000 
#    y 0.000000 3.705690 0.000000 
#    z 0.000000 0.000000 3.455000 
# 
# 
# High freq. dielectric constant tensor:
#      x y z
#    x 1.760660 0.000000 0.000000 
#    y 0.000000 1.769030 0.000000 
#    z 0.000000 0.000000 1.741700 
# 
# From -- ./inp_files/10974.got.cif
#   From: 2010.06.25/outbox.cif.g09.slc.cpg/sg58_6_cif.got.tgz:10974.got - 2010.06.26 21:38:00.
