data_PCOD8238672
_publ_section_title
;
Structure prediction by ZEFSAII (Michael W. Deem and Ramdas Pophale) SiO2 
 PCOD8238672
Probable space group: P N N M
;
_chemical_formula_sum "Si O2"
_cell_formula_units_Z 48
_cell_length_a 9.350375
_cell_length_b 28.709375
_cell_length_c 8.857826
_cell_angle_alpha 90.000000
_cell_angle_beta 90.000000
_cell_angle_gamma 90.000000
_cell_volume 2377.825125
_symmetry_space_group_name_H-M "P N N M"
_symmetry_group_IT_number 58
_symmetry_cell_setting 'orthorhombic'
loop_
_space_group_symop_operation_xyz
x,y,z
-x,-y,z
1/2+x,1/2-y,1/2-z
1/2-x,1/2+y,1/2-z
-x,-y,-z
x,y,-z
1/2-x,1/2+y,1/2+z
1/2+x,1/2-y,1/2+z
loop_
_atom_site_type_symbol
_atom_site_label
_atom_site_fract_x
_atom_site_fract_y
_atom_site_fract_z
Si Si1 0.701789 0.712976 0.177967
Si Si2 0.009597 0.702506 0.324012
Si Si3 0.340624 0.017432 0.668833
Si Si4 0.886252 0.040734 0.169824
Si Si5 0.004774 0.130291 0.322505
Si Si6 0.299082 0.116013 0.176667
O O1 0.623389 0.759594 0.237016
O O2 0.606430 0.669426 0.230707
O O3 0.858362 0.708902 0.245976
O O4 0.720554 0.713872 0.000000
O O5 0.985313 0.710644 0.500000
O O6 0.071141 0.651257 0.289804
O O7 0.274558 0.019830 0.500000
O O8 0.332221 0.068250 0.740075
O O9 0.500000 0.000000 0.661309
O O10 0.261650 0.979327 0.769718
O O11 0.939525 0.080665 0.280388
O O12 0.864541 0.060117 0.000000
O O13 0.000000 0.000000 0.171114
O O14 0.033959 0.132517 0.500000
O O15 0.153098 0.138947 0.236262
O O16 0.281283 0.105831 0.000000
#
# Coordination Sequence:
#
# PCOD8238672 Si02
#       6
#     8   8   8   8   8   8
#     4  10  23  42  64  93 125 159 202 249 301 364
#     4  10  23  42  64  92 125 160 202 249 303 363
#     4  11  25  42  62  89 123 163 206 254 306 363
#     4  11  23  40  63  91 122 162 207 252 302 362
#     4  11  23  39  63  92 123 161 205 253 304 362
#     4  11  23  40  62  91 123 161 206 252 304 364
#
# _framework density 20.186516000000001
#
# number of rings (size 3 to 8) (size 9 to 14) (size 15 to 20)
#    0.000    1.333    1.667    3.000    2.333    5.333 
#    0.000    0.000    0.000    0.000    0.000    0.000 
#    0.000    0.000    0.000    0.000    0.000    0.000 
#
# Total GULP energy -595413.776686 kJ/mol
# GULP energy per Si atom -12404.453681 kJ/mol
# Density = 2.014057 g / cm^3
# Si number density = 20.186516 Si / 1000 Ang^3
#
#
#
# Elastic Constant Matrix: (Units=GPa)
#
#
# Indices 1 2 3 4 5 6 
#
# 1 134.6769 39.8933 42.7296 0.0000 0.0000 0.0000
# 2 39.8933 77.7073 29.2253 0.0000 0.0000 0.0000
# 3 42.7296 29.2253 64.1288 0.0000 0.0000 0.0000
# 4 0.0000 0.0000 0.0000 32.1962 0.0000 0.0000
# 5 0.0000 0.0000 0.0000 0.0000 37.8260 0.0000
# 6 0.0000 0.0000 0.0000 0.0000 0.0000 34.1628
#
#
#
# Elastic Compliance Matrix: (Units=1/GPa)
#
#
# Indices 1 2 3 4 5 6 
#
# 1 0.010027 -0.003180 -0.005232 0.000000 0.000000 0.000000
# 2 -0.003180 0.016539 -0.005419 0.000000 0.000000 0.000000
# 3 -0.005232 -0.005419 0.021549 0.000000 0.000000 0.000000
# 4 0.000000 0.000000 0.000000 0.031060 0.000000 0.000000
# 5 0.000000 0.000000 0.000000 0.000000 0.026437 0.000000
# 6 0.000000 0.000000 0.000000 0.000000 0.000000 0.029272
#
#
# Mechanical properties :
#
#
# Convention : Reuss Voigt Hill
#
# Bulk Modulus (GPa) = 48.88904 55.57883 52.23393
# Shear Modulus (GPa) = 29.52246 31.81465 30.66855
#
# Velocity S-wave (km/s) = 3.82839 3.97424 3.90200
# Velocity P-wave (km/s) = 6.61917 6.97509 6.79946
#
# Compressibility (1/GPa) = 0.02045448
#
# Stress axis : x y z
#
# Youngs Moduli (GPa) = 99.72967 60.46230 46.40563
#
# Poissons Ratio (x) = 0.19227 0.24279
# Poissons Ratio (y) = 0.31714 0.25145
# Poissons Ratio (z) = 0.52178 0.32762
#
# Static dielectric constant tensor:
#      x y z
#    x 3.754340 0.000000 0.000000 
#    y 0.000000 3.752840 0.000000 
#    z 0.000000 0.000000 3.853060 
# 
# 
# High freq. dielectric constant tensor:
#      x y z
#    x 1.799370 0.000000 0.000000 
#    y 0.000000 1.800040 0.000000 
#    z 0.000000 0.000000 1.794840 
# 
# From -- ./inp_files/2956.got.cif
#   From: 2010.06.25/outbox.cif.g09.slc.cpg/sg58_2_cif.got.tgz:2956.got - 2010.06.26 21:38:00.
