data_PCOD8238706
_publ_section_title
;
Structure prediction by ZEFSAII (Michael W. Deem and Ramdas Pophale) SiO2 
 PCOD8238706
Probable space group: P N N M
;
_chemical_formula_sum "Si O2"
_cell_formula_units_Z 40
_cell_length_a 8.503368
_cell_length_b 11.331474
_cell_length_c 21.374656
_cell_angle_alpha 90.000000
_cell_angle_beta 90.000000
_cell_angle_gamma 90.000000
_cell_volume 2059.569800
_symmetry_space_group_name_H-M "P N N M"
_symmetry_group_IT_number 58
_symmetry_cell_setting 'orthorhombic'
loop_
_space_group_symop_operation_xyz
x,y,z
-x,-y,z
1/2+x,1/2-y,1/2-z
1/2-x,1/2+y,1/2-z
-x,-y,-z
x,y,-z
1/2-x,1/2+y,1/2+z
1/2+x,1/2-y,1/2+z
loop_
_atom_site_type_symbol
_atom_site_label
_atom_site_fract_x
_atom_site_fract_y
_atom_site_fract_z
Si Si1 0.191205 0.764738 0.685888
Si Si2 0.601400 0.110692 0.786472
Si Si3 0.329438 0.535142 0.636849
Si Si4 0.757467 0.468701 0.500000
Si Si5 0.435639 0.809726 0.000000
Si Si6 0.421813 0.379594 0.930819
O O1 0.262770 0.847824 0.739231
O O2 0.298000 0.651039 0.677118
O O3 0.199782 0.841499 0.622277
O O4 0.012163 0.722021 0.699596
O O5 0.500000 0.000000 0.759045
O O6 0.694068 0.062940 0.848455
O O7 0.500000 0.500000 0.660644
O O8 0.336496 0.563778 0.562783
O O9 0.917514 0.397671 0.500000
O O10 0.780395 0.611297 0.500000
O O11 0.446463 0.724779 0.938621
O O12 0.500000 0.500000 0.908189
O O13 0.339695 0.395642 0.000000
#
# Coordination Sequence:
#
# PCOD8238706 Si02
#       6
#     8   8   8   4   4   8
#     4  11  21  40  61  83 122 155 202 249 298 365
#     4  10  24  39  59  89 116 163 203 246 307 364
#     4  11  22  37  58  90 123 154 199 248 308 360
#     4  11  19  32  62  87 123 151 192 253 312 350
#     4   9  17  32  56  89 114 152 191 250 299 357
#     4   9  18  33  56  86 112 150 199 242 290 353
#
# _framework density 19.421531999999999
#
# number of rings (size 3 to 8) (size 9 to 14) (size 15 to 20)
#    0.600    1.200    2.000    2.700    5.600    4.000 
#    0.000    2.000    0.000    0.600    0.000    0.000 
#    0.000    0.000    0.000    0.000    0.000    0.000 
#
# Total GULP energy -495587.328893 kJ/mol
# GULP energy per Si atom -12389.683222 kJ/mol
# Density = 1.937733 g / cm^3
# Si number density = 19.421532 Si / 1000 Ang^3
#
#
#
# Elastic Constant Matrix: (Units=GPa)
#
#
# Indices 1 2 3 4 5 6 
#
# 1 85.6881 33.5105 28.3764 0.0000 0.0000 0.0000
# 2 33.5105 92.1136 23.4001 0.0000 0.0000 0.0000
# 3 28.3764 23.4001 96.1493 0.0000 0.0000 0.0000
# 4 0.0000 0.0000 0.0000 31.4687 0.0000 0.0000
# 5 0.0000 0.0000 0.0000 0.0000 57.2981 0.0000
# 6 0.0000 0.0000 0.0000 0.0000 0.0000 29.9905
#
#
#
# Elastic Compliance Matrix: (Units=1/GPa)
#
#
# Indices 1 2 3 4 5 6 
#
# 1 0.014467 -0.004454 -0.003186 0.000000 0.000000 0.000000
# 2 -0.004454 0.012943 -0.001835 0.000000 0.000000 0.000000
# 3 -0.003186 -0.001835 0.011787 0.000000 0.000000 0.000000
# 4 0.000000 0.000000 0.000000 0.031778 0.000000 0.000000
# 5 0.000000 0.000000 0.000000 0.000000 0.017453 0.000000
# 6 0.000000 0.000000 0.000000 0.000000 0.000000 0.033344
#
#
# Mechanical properties :
#
#
# Convention : Reuss Voigt Hill
#
# Bulk Modulus (GPa) = 49.38949 49.39167 49.39058
# Shear Modulus (GPa) = 33.90520 36.32904 35.11712
#
# Velocity S-wave (km/s) = 4.18275 4.32968 4.25685
# Velocity P-wave (km/s) = 6.98661 7.10503 7.04607
#
# Compressibility (1/GPa) = 0.02024722
#
# Stress axis : x y z
#
# Youngs Moduli (GPa) = 69.12302 77.26367 84.83640
#
# Poissons Ratio (x) = 0.34411 0.27026
# Poissons Ratio (y) = 0.30786 0.15572
# Poissons Ratio (z) = 0.22021 0.14182
#
# Static dielectric constant tensor:
#      x y z
#    x 3.242450 0.000000 0.000000 
#    y 0.000000 3.766600 0.000000 
#    z 0.000000 0.000000 3.461000 
# 
# 
# High freq. dielectric constant tensor:
#      x y z
#    x 1.719740 0.000000 0.000000 
#    y 0.000000 1.765860 0.000000 
#    z 0.000000 0.000000 1.754840 
# 
# From -- ./inp_files/28755.got.cif
#   From: 2010.06.25/outbox.cif.g09.slc.cpg/sg58_15_cif.got.tgz:28755.got - 2010.06.26 21:38:00.
