data_PCOD8238409
_publ_section_title
;
Structure prediction by ZEFSAII (Michael W. Deem and Ramdas Pophale) SiO2 
 PCOD8238409
Probable space group: P N N M
;
_chemical_formula_sum "Si O2"
_cell_formula_units_Z 60
_cell_length_a 12.106246
_cell_length_b 12.506234
_cell_length_c 19.788440
_cell_angle_alpha 90.000000
_cell_angle_beta 90.000000
_cell_angle_gamma 90.000000
_cell_volume 2996.039973
_symmetry_space_group_name_H-M "P N N M"
_symmetry_group_IT_number 58
_symmetry_cell_setting 'orthorhombic'
loop_
_space_group_symop_operation_xyz
x,y,z
-x,-y,z
1/2+x,1/2-y,1/2-z
1/2-x,1/2+y,1/2-z
-x,-y,-z
x,y,-z
1/2-x,1/2+y,1/2+z
1/2+x,1/2-y,1/2+z
loop_
_atom_site_type_symbol
_atom_site_label
_atom_site_fract_x
_atom_site_fract_y
_atom_site_fract_z
Si Si1 0.630976 0.175696 0.349304
Si Si2 0.327882 0.435496 0.920695
Si Si3 0.206234 0.279181 0.642355
Si Si4 0.940342 0.203737 0.080859
Si Si5 0.805759 0.871896 0.231542
Si Si6 0.947741 0.855562 0.422849
Si Si7 0.000000 0.000000 0.831065
Si Si8 0.382332 0.965516 0.778847
O O1 0.714515 0.098001 0.386791
O O2 0.528249 0.205684 0.397596
O O3 0.693272 0.285393 0.329114
O O4 0.587896 0.108717 0.285236
O O5 0.428548 0.361112 0.892334
O O6 0.361212 0.554472 0.896242
O O7 0.307397 0.425550 0.000000
O O8 0.321106 0.256315 0.605477
O O9 0.177284 0.193520 0.700160
O O10 0.107096 0.259752 0.588810
O O11 0.193392 0.399931 0.668188
O O12 0.960578 0.093143 0.119262
O O13 0.943211 0.187358 0.000000
O O14 0.903248 0.958277 0.218742
O O15 0.687714 0.929075 0.237346
O O16 0.967206 0.883203 0.500000
O O17 0.500000 0.000000 0.810498
#
# Coordination Sequence:
#
# PCOD8238409 Si02
#       8
#     8   8   8   8   8   8   4   8
#     4  10  22  36  60  89 116 156 200 245 305 356
#     4   9  18  35  57  84 118 151 192 242 290 351
#     4  11  22  37  61  87 114 161 193 248 308 355
#     4  11  22  40  63  88 121 159 203 250 302 367
#     4  10  22  38  60  85 122 151 204 251 292 363
#     4   9  19  35  56  85 117 153 200 241 287 357
#     4  10  21  42  60  90 117 162 212 246 298 364
#     4  11  23  39  57  83 123 153 192 250 299 360
#
# _framework density 20.026436
#
# number of rings (size 3 to 8) (size 9 to 14) (size 15 to 20)
#    0.000    1.867    1.333    3.400    1.867    2.133 
#    0.000    0.000    0.000    5.600    0.000    0.000 
#    0.000    0.000    0.000    0.000    0.000    0.000 
#
# Total GULP energy -743639.737870 kJ/mol
# GULP energy per Si atom -12393.995631 kJ/mol
# Density = 1.998086 g / cm^3
# Si number density = 20.026436 Si / 1000 Ang^3
#
#
#
# Elastic Constant Matrix: (Units=GPa)
#
#
# Indices 1 2 3 4 5 6 
#
# 1 104.1905 19.3411 32.6641 0.0000 0.0000 0.0000
# 2 19.3411 50.9339 20.4754 0.0000 0.0000 0.0000
# 3 32.6641 20.4754 46.9721 0.0000 0.0000 0.0000
# 4 0.0000 0.0000 0.0000 13.0309 0.0000 0.0000
# 5 0.0000 0.0000 0.0000 0.0000 32.6935 0.0000
# 6 0.0000 0.0000 0.0000 0.0000 0.0000 39.6967
#
#
#
# Elastic Compliance Matrix: (Units=1/GPa)
#
#
# Indices 1 2 3 4 5 6 
#
# 1 0.012368 -0.001502 -0.007946 0.000000 0.000000 0.000000
# 2 -0.001502 0.023987 -0.009411 0.000000 0.000000 0.000000
# 3 -0.007946 -0.009411 0.030917 0.000000 0.000000 0.000000
# 4 0.000000 0.000000 0.000000 0.076741 0.000000 0.000000
# 5 0.000000 0.000000 0.000000 0.000000 0.030587 0.000000
# 6 0.000000 0.000000 0.000000 0.000000 0.000000 0.025191
#
#
# Mechanical properties :
#
#
# Convention : Reuss Voigt Hill
#
# Bulk Modulus (GPa) = 33.83716 38.56195 36.19956
# Shear Modulus (GPa) = 20.21344 25.72527 22.96935
#
# Velocity S-wave (km/s) = 3.18045 3.58797 3.39034
# Velocity P-wave (km/s) = 5.51543 6.03838 5.78282
#
# Compressibility (1/GPa) = 0.02955330
#
# Stress axis : x y z
#
# Youngs Moduli (GPa) = 80.85631 41.68899 32.34467
#
# Poissons Ratio (x) = 0.06263 0.25700
# Poissons Ratio (y) = 0.12147 0.30441
# Poissons Ratio (z) = 0.64245 0.39235
#
# Static dielectric constant tensor:
#      x y z
#    x 3.626010 0.000000 0.000000 
#    y 0.000000 3.652590 0.000000 
#    z 0.000000 0.000000 3.546310 
# 
# 
# High freq. dielectric constant tensor:
#      x y z
#    x 1.790390 0.000000 0.000000 
#    y 0.000000 1.780060 0.000000 
#    z 0.000000 0.000000 1.771950 
# 
# From -- ./inp_files/29647.got.cif
#   From: 2010.06.25/outbox.cif.g09.slc.cpg/sg58_15_cif.got.tgz:29647.got - 2010.06.26 21:38:00.
