data_PCOD8238337
_publ_section_title
;
Structure prediction by ZEFSAII (Michael W. Deem and Ramdas Pophale) SiO2 
 PCOD8238337
Probable space group: P N N M
;
_chemical_formula_sum "Si O2"
_cell_formula_units_Z 48
_cell_length_a 14.156804
_cell_length_b 9.303705
_cell_length_c 18.299069
_cell_angle_alpha 90.000000
_cell_angle_beta 90.000000
_cell_angle_gamma 90.000000
_cell_volume 2410.183703
_symmetry_space_group_name_H-M "P N N M"
_symmetry_group_IT_number 58
_symmetry_cell_setting 'orthorhombic'
loop_
_space_group_symop_operation_xyz
x,y,z
-x,-y,z
1/2+x,1/2-y,1/2-z
1/2-x,1/2+y,1/2-z
-x,-y,-z
x,y,-z
1/2-x,1/2+y,1/2+z
1/2+x,1/2-y,1/2+z
loop_
_atom_site_type_symbol
_atom_site_label
_atom_site_fract_x
_atom_site_fract_y
_atom_site_fract_z
Si Si1 0.264419 0.749801 0.080899
Si Si2 0.075561 0.882242 0.673602
Si Si3 0.421404 0.693123 0.414310
Si Si4 0.523145 0.166748 0.081628
Si Si5 0.397251 0.386448 0.655699
Si Si6 0.740584 0.081239 0.418065
O O1 0.372323 0.779065 0.102606
O O2 0.207524 0.830813 0.143417
O O3 0.224638 0.588386 0.080246
O O4 0.247327 0.816268 0.000000
O O5 0.076403 0.880471 0.760124
O O6 0.179673 0.901561 0.642410
O O7 0.044897 0.729310 0.642779
O O8 0.000000 0.000000 0.644691
O O9 0.417657 0.661426 0.500000
O O10 0.530194 0.717086 0.389438
O O11 0.393310 0.551057 0.369981
O O12 0.353532 0.828730 0.394563
O O13 0.500000 0.000000 0.084637
O O14 0.500239 0.224649 0.000000
O O15 0.771596 0.132330 0.500000
#
# Coordination Sequence:
#
# PCOD8238337 Si02
#       6
#     8   8   8   8   8   8
#     4  10  21  40  63  91 124 161 211 264 309 365
#     4  12  23  41  62  90 131 164 203 256 321 395
#     4  10  21  41  64  88 118 163 220 256 299 371
#     4  10  23  42  65  94 126 166 215 263 315 377
#     4  11  23  39  61  91 126 167 202 258 322 373
#     4  10  23  39  63  92 119 164 212 259 313 372
#
# _framework density 19.915496000000001
#
# number of rings (size 3 to 8) (size 9 to 14) (size 15 to 20)
#    0.000    1.500    3.333    2.500    2.333    4.000 
#    3.000    2.500    0.000    0.000    0.000    0.000 
#    0.000    0.000    0.000    0.000    0.000    0.000 
#
# Total GULP energy -594776.965339 kJ/mol
# GULP energy per Si atom -12391.186778 kJ/mol
# Density = 1.987017 g / cm^3
# Si number density = 19.915496 Si / 1000 Ang^3
#
#
#
# Elastic Constant Matrix: (Units=GPa)
#
#
# Indices 1 2 3 4 5 6 
#
# 1 59.2014 24.4069 24.4067 0.0000 0.0000 0.0000
# 2 24.4069 68.8970 30.9153 0.0000 0.0000 0.0000
# 3 24.4067 30.9153 100.0865 0.0000 0.0000 0.0000
# 4 0.0000 0.0000 0.0000 -28.4127 0.0000 0.0000
# 5 0.0000 0.0000 0.0000 0.0000 38.7478 0.0000
# 6 0.0000 0.0000 0.0000 0.0000 0.0000 43.0195
#
#
#
# Elastic Compliance Matrix: (Units=1/GPa)
#
#
# Indices 1 2 3 4 5 6 
#
# 1 0.020638 -0.005866 -0.003221 0.000000 0.000000 0.000000
# 2 -0.005866 0.018517 -0.004289 0.000000 0.000000 0.000000
# 3 -0.003221 -0.004289 0.012102 0.000000 0.000000 0.000000
# 4 0.000000 0.000000 0.000000 -0.035196 0.000000 0.000000
# 5 0.000000 0.000000 0.000000 0.000000 0.025808 0.000000
# 6 0.000000 0.000000 0.000000 0.000000 0.000000 0.023245
#
#
# Mechanical properties :
#
#
# Convention : Reuss Voigt Hill
#
# Bulk Modulus (GPa) = 40.80832 43.07141 41.93986
# Shear Modulus (GPa) = 49.98322 20.56799 35.27560
#
# Velocity S-wave (km/s) = 5.01519 3.21715 4.21320
# Velocity P-wave (km/s) = 7.35333 5.95601 6.69124
#
# Compressibility (1/GPa) = 0.02450481
#
# Stress axis : x y z
#
# Youngs Moduli (GPa) = 48.45535 54.00435 82.63333
#
# Poissons Ratio (x) = 0.31677 0.26614
# Poissons Ratio (y) = 0.28422 0.35444
# Poissons Ratio (z) = 0.15606 0.23164
#
# Static dielectric constant tensor:
#      x y z
#    x 3.771570 0.000000 0.000000 
#    y 0.000000 3.661390 0.000000 
#    z 0.000000 0.000000 3.684870 
# 
# 
# High freq. dielectric constant tensor:
#      x y z
#    x 1.782490 0.000000 0.000000 
#    y 0.000000 1.771820 0.000000 
#    z 0.000000 0.000000 1.776940 
# 
# From -- ./inp_files/25316.got.cif
#   From: 2010.06.25/outbox.cif.g09.slc.cpg/sg58_13_cif.got.tgz:25316.got - 2010.06.26 21:38:00.
