data_PCOD8238841
_publ_section_title
;
Structure prediction by ZEFSAII (Michael W. Deem and Ramdas Pophale) SiO2 
 PCOD8238841
Probable space group: P N N M
;
_chemical_formula_sum "Si O2"
_cell_formula_units_Z 56
_cell_length_a 9.777737
_cell_length_b 20.334850
_cell_length_c 13.837720
_cell_angle_alpha 90.000000
_cell_angle_beta 90.000000
_cell_angle_gamma 90.000000
_cell_volume 2751.337473
_symmetry_space_group_name_H-M "P N N M"
_symmetry_group_IT_number 58
_symmetry_cell_setting 'orthorhombic'
loop_
_space_group_symop_operation_xyz
x,y,z
-x,-y,z
1/2+x,1/2-y,1/2-z
1/2-x,1/2+y,1/2-z
-x,-y,-z
x,y,-z
1/2-x,1/2+y,1/2+z
1/2+x,1/2-y,1/2+z
loop_
_atom_site_type_symbol
_atom_site_label
_atom_site_fract_x
_atom_site_fract_y
_atom_site_fract_z
Si Si1 0.846494 0.169056 0.106426
Si Si2 0.244470 0.970771 0.890492
Si Si3 0.647591 0.289559 0.394707
Si Si4 0.761523 0.159980 0.313044
Si Si5 0.480257 0.577504 0.887916
Si Si6 0.762488 0.903918 0.764409
Si Si7 0.461090 0.931096 0.256035
O O1 0.866975 0.088937 0.114242
O O2 0.759643 0.187891 0.201899
O O3 0.983191 0.212385 0.110129
O O4 0.775552 0.182361 0.000000
O O5 0.388773 0.944306 0.847912
O O6 0.193697 0.031704 0.825731
O O7 0.266834 0.994875 0.000000
O O8 0.692600 0.315403 0.500000
O O9 0.721473 0.219542 0.382090
O O10 0.691259 0.338055 0.313065
O O11 0.641007 0.106964 0.326630
O O12 0.902315 0.123112 0.339695
O O13 0.500000 0.500000 0.872499
O O14 0.334767 0.594097 0.839687
O O15 0.472671 0.596125 0.000000
O O16 0.600923 0.892007 0.757243
O O17 0.500000 0.000000 0.306948
#
# Coordination Sequence:
#
# PCOD8238841 Si02
#       7
#     8   8   8   8   8   8   8
#     4   9  19  38  62  90 120 158 205 252 304 368
#     4   9  18  35  62  95 130 163 200 252 313 368
#     4  11  24  38  60  91 123 162 208 252 306 378
#     4  11  22  42  65  85 125 170 202 259 319 370
#     4  11  23  41  65  91 120 162 221 275 318 375
#     4  11  22  36  61  93 129 163 202 257 313 371
#     4   9  20  36  60  90 121 157 199 249 312 368
#
# _framework density 20.353736999999999
#
# number of rings (size 3 to 8) (size 9 to 14) (size 15 to 20)
#    0.000    1.857    1.429    3.429    2.000    3.143 
#    0.000    4.286    0.000    7.286    0.000    0.000 
#    0.000    0.000    0.000    0.000    0.000    0.000 
#
# Total GULP energy -693810.387971 kJ/mol
# GULP energy per Si atom -12389.471214 kJ/mol
# Density = 2.030741 g / cm^3
# Si number density = 20.353737 Si / 1000 Ang^3
#
#
#
# Elastic Constant Matrix: (Units=GPa)
#
#
# Indices 1 2 3 4 5 6 
#
# 1 77.1545 24.2915 47.5733 0.0000 0.0000 0.0000
# 2 24.2915 60.4300 38.2370 0.0000 0.0000 0.0000
# 3 47.5733 38.2370 108.2938 0.0000 0.0000 0.0000
# 4 0.0000 0.0000 0.0000 17.5302 0.0000 0.0000
# 5 0.0000 0.0000 0.0000 0.0000 17.2900 0.0000
# 6 0.0000 0.0000 0.0000 0.0000 0.0000 33.0211
#
#
#
# Elastic Compliance Matrix: (Units=1/GPa)
#
#
# Indices 1 2 3 4 5 6 
#
# 1 0.018162 -0.002900 -0.006955 0.000000 0.000000 0.000000
# 2 -0.002900 0.021772 -0.006413 0.000000 0.000000 0.000000
# 3 -0.006955 -0.006413 0.014554 0.000000 0.000000 0.000000
# 4 0.000000 0.000000 0.000000 0.057045 0.000000 0.000000
# 5 0.000000 0.000000 0.000000 0.000000 0.057837 0.000000
# 6 0.000000 0.000000 0.000000 0.000000 0.000000 0.030284
#
#
# Mechanical properties :
#
#
# Convention : Reuss Voigt Hill
#
# Bulk Modulus (GPa) = 45.55479 51.78689 48.67084
# Shear Modulus (GPa) = 20.87623 22.62002 21.74813
#
# Velocity S-wave (km/s) = 3.20608 3.33730 3.27235
# Velocity P-wave (km/s) = 6.01127 6.35207 6.18402
#
# Compressibility (1/GPa) = 0.02195159
#
# Stress axis : x y z
#
# Youngs Moduli (GPa) = 55.05892 45.93071 68.71094
#
# Poissons Ratio (x) = 0.13321 0.47786
# Poissons Ratio (y) = 0.15969 0.44066
# Poissons Ratio (z) = 0.38291 0.29457
#
# Static dielectric constant tensor:
#      x y z
#    x 4.287470 0.000000 0.000000 
#    y 0.000000 3.772910 0.000000 
#    z 0.000000 0.000000 3.811060 
# 
# 
# High freq. dielectric constant tensor:
#      x y z
#    x 1.783650 0.000000 0.000000 
#    y 0.000000 1.788740 0.000000 
#    z 0.000000 0.000000 1.794600 
# 
# From -- ./inp_files/20097.got.cif
#   From: 2010.06.25/outbox.cif.g09.slc.cpg/sg58_11_cif.got.tgz:20097.got - 2010.06.26 21:38:00.
