data_PCOD8238797
_publ_section_title
;
Structure prediction by ZEFSAII (Michael W. Deem and Ramdas Pophale) SiO2 
 PCOD8238797
Probable space group: P N N M
;
_chemical_formula_sum "Si O2"
_cell_formula_units_Z 56
_cell_length_a 16.765259
_cell_length_b 19.966534
_cell_length_c 8.938554
_cell_angle_alpha 90.000000
_cell_angle_beta 90.000000
_cell_angle_gamma 90.000000
_cell_volume 2992.128338
_symmetry_space_group_name_H-M "P N N M"
_symmetry_group_IT_number 58
_symmetry_cell_setting 'orthorhombic'
loop_
_space_group_symop_operation_xyz
x,y,z
-x,-y,z
1/2+x,1/2-y,1/2-z
1/2-x,1/2+y,1/2-z
-x,-y,-z
x,y,-z
1/2-x,1/2+y,1/2+z
1/2+x,1/2-y,1/2+z
loop_
_atom_site_type_symbol
_atom_site_label
_atom_site_fract_x
_atom_site_fract_y
_atom_site_fract_z
Si Si1 0.685780 0.111024 0.824383
Si Si2 0.247847 0.244354 0.669378
Si Si3 0.928397 0.804398 0.671306
Si Si4 0.932718 0.950419 0.678874
Si Si5 0.980496 0.665526 0.677146
Si Si6 0.656624 0.863375 0.175636
Si Si7 0.744391 0.481099 0.176940
O O1 0.735213 0.178242 0.786749
O O2 0.593819 0.119880 0.770577
O O3 0.723055 0.051922 0.729902
O O4 0.689840 0.094143 0.000000
O O5 0.279560 0.238908 0.500000
O O6 0.166260 0.203613 0.685524
O O7 0.311742 0.210142 0.779012
O O8 0.954763 0.807500 0.500000
O O9 0.951192 0.875974 0.744651
O O10 0.972760 0.740801 0.747849
O O11 0.933703 0.949467 0.500000
O O12 0.846117 0.974264 0.735418
O O13 0.000000 0.000000 0.743432
O O14 0.972429 0.674345 0.500000
O O15 0.063593 0.631835 0.723218
O O16 0.702165 0.921613 0.259952
O O17 0.667154 0.873380 0.000000
O O18 0.748645 0.476855 0.000000
#
# Coordination Sequence:
#
# PCOD8238797 Si02
#       7
#     8   8   8   8   8   8   8
#     4   9  19  37  58  78 106 145 186 227 273 322
#     4   9  17  33  56  77 101 140 180 220 273 329
#     4   8  13  28  51  72  98 130 170 215 261 309
#     4   9  17  29  50  79 105 134 174 220 265 316
#     4   8  17  32  52  77 102 139 187 228 260 309
#     4  11  21  33  54  83 111 141 183 228 268 317
#     4  11  22  36  54  80 112 145 181 223 277 330
#
# _framework density 18.715774
#
# number of rings (size 3 to 8) (size 9 to 14) (size 15 to 20)
#    0.000    2.714    1.429    2.571    0.000    2.286 
#    0.000    7.143    0.000    3.429    0.000    0.000 
#    0.000    0.000    0.000    0.000    0.000    0.000 
#
# Total GULP energy -694110.589004 kJ/mol
# GULP energy per Si atom -12394.831947 kJ/mol
# Density = 1.867318 g / cm^3
# Si number density = 18.715774 Si / 1000 Ang^3
#
#
#
# Elastic Constant Matrix: (Units=GPa)
#
#
# Indices 1 2 3 4 5 6 
#
# 1 108.6842 78.5583 26.4809 0.0000 0.0000 0.0000
# 2 78.5583 131.7649 32.7603 0.0000 0.0000 0.0000
# 3 26.4809 32.7603 39.0008 0.0000 0.0000 0.0000
# 4 0.0000 0.0000 0.0000 7.6170 0.0000 0.0000
# 5 0.0000 0.0000 0.0000 0.0000 22.2890 0.0000
# 6 0.0000 0.0000 0.0000 0.0000 0.0000 28.4273
#
#
#
# Elastic Compliance Matrix: (Units=1/GPa)
#
#
# Indices 1 2 3 4 5 6 
#
# 1 0.016589 -0.008961 -0.003736 0.000000 0.000000 0.000000
# 2 -0.008961 0.014434 -0.006040 0.000000 0.000000 0.000000
# 3 -0.003736 -0.006040 0.033250 0.000000 0.000000 0.000000
# 4 0.000000 0.000000 0.000000 0.131286 0.000000 0.000000
# 5 0.000000 0.000000 0.000000 0.000000 0.044865 0.000000
# 6 0.000000 0.000000 0.000000 0.000000 0.000000 0.035177
#
#
# Mechanical properties :
#
#
# Convention : Reuss Voigt Hill
#
# Bulk Modulus (GPa) = 37.31493 61.67208 49.49350
# Shear Modulus (GPa) = 15.52758 21.11000 18.31879
#
# Velocity S-wave (km/s) = 2.88349 3.36210 3.13195
# Velocity P-wave (km/s) = 5.57378 6.93506 6.29135
#
# Compressibility (1/GPa) = 0.02679893
#
# Stress axis : x y z
#
# Youngs Moduli (GPa) = 60.28267 69.28302 30.07491
#
# Poissons Ratio (x) = 0.62086 0.11236
# Poissons Ratio (y) = 0.54021 0.18164
# Poissons Ratio (z) = 0.22521 0.41844
#
# Static dielectric constant tensor:
#      x y z
#    x 3.547090 0.000000 0.000000 
#    y 0.000000 3.659140 0.000000 
#    z 0.000000 0.000000 2.997980 
# 
# 
# High freq. dielectric constant tensor:
#      x y z
#    x 1.725170 0.000000 0.000000 
#    y 0.000000 1.741010 0.000000 
#    z 0.000000 0.000000 1.680090 
# 
# From -- ./inp_files/8184.got.cif
#   From: 2010.06.25/outbox.cif.g09.slc.cpg/sg58_5_cif.got.tgz:8184.got - 2010.06.26 21:38:00.
