data_PCOD8238450
_publ_section_title
;
Structure prediction by ZEFSAII (Michael W. Deem and Ramdas Pophale) SiO2 
 PCOD8238450
Probable space group: P N N M
;
_chemical_formula_sum "Si O2"
_cell_formula_units_Z 64
_cell_length_a 13.299632
_cell_length_b 18.400263
_cell_length_c 13.387240
_cell_angle_alpha 90.000000
_cell_angle_beta 90.000000
_cell_angle_gamma 90.000000
_cell_volume 3276.081551
_symmetry_space_group_name_H-M "P N N M"
_symmetry_group_IT_number 58
_symmetry_cell_setting 'orthorhombic'
loop_
_space_group_symop_operation_xyz
x,y,z
-x,-y,z
1/2+x,1/2-y,1/2-z
1/2-x,1/2+y,1/2-z
-x,-y,-z
x,y,-z
1/2-x,1/2+y,1/2+z
1/2+x,1/2-y,1/2+z
loop_
_atom_site_type_symbol
_atom_site_label
_atom_site_fract_x
_atom_site_fract_y
_atom_site_fract_z
Si Si1 0.730375 0.252492 0.790880
Si Si2 0.164678 0.817585 0.613594
Si Si3 0.926900 0.432615 0.383856
Si Si4 0.959974 0.924746 0.114656
Si Si5 0.768285 0.914644 0.760233
Si Si6 0.004672 0.282280 0.692756
Si Si7 0.574178 0.719779 0.612030
Si Si8 0.885821 0.017390 0.616404
O O1 0.747023 0.213789 0.683485
O O2 0.760132 0.337090 0.785956
O O3 0.618854 0.239389 0.829698
O O4 0.806040 0.218818 0.872169
O O5 0.202347 0.810816 0.500000
O O6 0.138120 0.899627 0.642442
O O7 0.063543 0.771489 0.627951
O O8 0.898368 0.421039 0.500000
O O9 0.826281 0.447371 0.320093
O O10 0.000000 0.500000 0.369187
O O11 0.986665 0.363866 0.341643
O O12 0.857726 0.898715 0.163784
O O13 0.042407 0.863035 0.132175
O O14 0.935169 0.938334 0.000000
O O15 0.000000 0.000000 0.163120
O O16 0.803963 0.969079 0.674004
O O17 0.980670 0.273725 0.810605
O O18 0.546366 0.744824 0.500000
O O19 0.871874 0.000193 0.500000
O O20 0.000000 0.000000 0.649739
#
# Coordination Sequence:
#
# PCOD8238450 Si02
#       8
#     8   8   8   8   8   8   8   8
#     4  11  24  37  61  95 121 167 212 253 314 367
#     4  10  22  41  64  92 125 158 209 263 314 375
#     4  11  26  45  64  90 127 170 215 261 309 374
#     4  10  22  37  61  94 126 160 201 255 320 377
#     4  12  22  39  67  89 128 166 212 255 309 381
#     4  11  22  41  65  91 120 167 208 255 314 369
#     4  10  22  40  59  92 129 158 202 257 311 369
#     4  10  23  40  64  97 128 163 205 262 326 380
#
# _framework density 19.535533000000001
#
# number of rings (size 3 to 8) (size 9 to 14) (size 15 to 20)
#    0.000    1.375    3.750    1.875    7.000    2.500 
#    0.000    2.500    0.000    0.750    0.000    0.000 
#    0.000    0.000    0.000    0.000    0.000    0.000 
#
# Total GULP energy -793775.211778 kJ/mol
# GULP energy per Si atom -12402.737684 kJ/mol
# Density = 1.949107 g / cm^3
# Si number density = 19.535533 Si / 1000 Ang^3
#
#
#
# Elastic Constant Matrix: (Units=GPa)
#
#
# Indices 1 2 3 4 5 6 
#
# 1 80.1677 18.6271 21.5568 0.0000 0.0000 0.0000
# 2 18.6271 125.3692 54.6310 0.0000 0.0000 0.0000
# 3 21.5568 54.6310 89.9023 0.0000 0.0000 0.0000
# 4 0.0000 0.0000 0.0000 23.4268 0.0000 0.0000
# 5 0.0000 0.0000 0.0000 0.0000 26.4573 0.0000
# 6 0.0000 0.0000 0.0000 0.0000 0.0000 32.9300
#
#
#
# Elastic Compliance Matrix: (Units=1/GPa)
#
#
# Indices 1 2 3 4 5 6 
#
# 1 0.013393 -0.000803 -0.002723 0.000000 0.000000 0.000000
# 2 -0.000803 0.010898 -0.006430 0.000000 0.000000 0.000000
# 3 -0.002723 -0.006430 0.015683 0.000000 0.000000 0.000000
# 4 0.000000 0.000000 0.000000 0.042686 0.000000 0.000000
# 5 0.000000 0.000000 0.000000 0.000000 0.037797 0.000000
# 6 0.000000 0.000000 0.000000 0.000000 0.000000 0.030367
#
#
# Mechanical properties :
#
#
# Convention : Reuss Voigt Hill
#
# Bulk Modulus (GPa) = 49.84655 53.89655 51.87155
# Shear Modulus (GPa) = 28.18125 29.93776 29.05951
#
# Velocity S-wave (km/s) = 3.80223 3.91893 3.86102
# Velocity P-wave (km/s) = 6.69680 6.93731 6.81812
#
# Compressibility (1/GPa) = 0.02006157
#
# Stress axis : x y z
#
# Youngs Moduli (GPa) = 74.66730 91.76408 63.76252
#
# Poissons Ratio (x) = 0.07370 0.17364
# Poissons Ratio (y) = 0.05997 0.40996
# Poissons Ratio (z) = 0.20334 0.59000
#
# Static dielectric constant tensor:
#      x y z
#    x 3.545390 0.000000 0.000000 
#    y 0.000000 3.639860 0.000000 
#    z 0.000000 0.000000 3.660210 
# 
# 
# High freq. dielectric constant tensor:
#      x y z
#    x 1.758730 0.000000 0.000000 
#    y 0.000000 1.766980 0.000000 
#    z 0.000000 0.000000 1.769810 
# 
# From -- ./inp_files/21490.got.cif
#   From: 2010.06.25/outbox.cif.g09.slc.cpg/sg58_11_cif.got.tgz:21490.got - 2010.06.26 21:38:00.
