data_PCOD8238066
_publ_section_title
;
Structure prediction by ZEFSAII (Michael W. Deem and Ramdas Pophale) SiO2 
 PCOD8238066
Probable space group: P N N M
;
_chemical_formula_sum "Si O2"
_cell_formula_units_Z 48
_cell_length_a 30.080094
_cell_length_b 9.303325
_cell_length_c 8.684240
_cell_angle_alpha 90.000000
_cell_angle_beta 90.000000
_cell_angle_gamma 90.000000
_cell_volume 2430.240192
_symmetry_space_group_name_H-M "P N N M"
_symmetry_group_IT_number 58
_symmetry_cell_setting 'orthorhombic'
loop_
_space_group_symop_operation_xyz
x,y,z
-x,-y,z
1/2+x,1/2-y,1/2-z
1/2-x,1/2+y,1/2-z
-x,-y,-z
x,y,-z
1/2-x,1/2+y,1/2+z
1/2+x,1/2-y,1/2+z
loop_
_atom_site_type_symbol
_atom_site_label
_atom_site_fract_x
_atom_site_fract_y
_atom_site_fract_z
Si Si1 0.959013 0.898895 0.679658
Si Si2 0.885200 0.091271 0.820028
Si Si3 0.116951 0.601740 0.321081
Si Si4 0.043532 0.410546 0.179625
Si Si5 0.283575 0.410352 0.326897
Si Si6 0.291959 0.080566 0.326659
O O1 0.958861 0.860773 0.500000
O O2 0.964138 0.754221 0.776320
O O3 0.913812 0.979914 0.722554
O O4 0.000000 0.000000 0.724996
O O5 0.895684 0.255136 0.773078
O O6 0.834217 0.052349 0.782840
O O7 0.896027 0.075671 0.000000
O O8 0.112273 0.637205 0.500000
O O9 0.084490 0.472900 0.275721
O O10 0.166885 0.548474 0.285675
O O11 0.000000 0.500000 0.224054
O O12 0.054571 0.422260 0.000000
O O13 0.273435 0.463204 0.500000
O O14 0.275405 0.242189 0.310062
O O15 0.250252 0.483555 0.209506
O O16 0.308255 0.049320 0.500000
#
# Coordination Sequence:
#
# PCOD8238066 Si02
#       6
#     8   8   8   8   8   8
#     4  11  24  40  60  88 120 153 191 236 286 340
#     4  10  21  39  61  85 117 154 194 239 287 343
#     4  11  22  38  61  86 116 152 192 240 291 343
#     4  11  24  41  62  87 116 152 193 237 287 343
#     4   9  20  37  56  82 114 149 190 236 286 338
#     4  10  21  37  58  84 115 151 192 236 285 344
#
# _framework density 19.751134
#
# number of rings (size 3 to 8) (size 9 to 14) (size 15 to 20)
#    0.000    1.667    0.000    5.500    0.000   10.667 
#    0.000    3.333    0.000    0.000    0.000    0.000 
#    0.000    0.000    0.000    0.000    0.000    0.000 
#
# Total GULP energy -595481.344741 kJ/mol
# GULP energy per Si atom -12405.861349 kJ/mol
# Density = 1.970618 g / cm^3
# Si number density = 19.751134 Si / 1000 Ang^3
#
#
#
# Elastic Constant Matrix: (Units=GPa)
#
#
# Indices 1 2 3 4 5 6 
#
# 1 99.1632 57.7265 36.8818 0.0000 0.0000 0.0000
# 2 57.7265 84.8784 21.6630 0.0000 0.0000 0.0000
# 3 36.8818 21.6630 65.9456 0.0000 0.0000 0.0000
# 4 0.0000 0.0000 0.0000 35.9958 0.0000 0.0000
# 5 0.0000 0.0000 0.0000 0.0000 29.3086 0.0000
# 6 0.0000 0.0000 0.0000 0.0000 0.0000 35.7941
#
#
#
# Elastic Compliance Matrix: (Units=1/GPa)
#
#
# Indices 1 2 3 4 5 6 
#
# 1 0.019311 -0.011327 -0.007079 0.000000 0.000000 0.000000
# 2 -0.011327 0.019503 -0.000072 0.000000 0.000000 0.000000
# 3 -0.007079 -0.000072 0.019147 0.000000 0.000000 0.000000
# 4 0.000000 0.000000 0.000000 0.027781 0.000000 0.000000
# 5 0.000000 0.000000 0.000000 0.000000 0.034120 0.000000
# 6 0.000000 0.000000 0.000000 0.000000 0.000000 0.027938
#
#
# Mechanical properties :
#
#
# Convention : Reuss Voigt Hill
#
# Bulk Modulus (GPa) = 47.60756 53.61440 50.61098
# Shear Modulus (GPa) = 26.07449 29.13410 27.60430
#
# Velocity S-wave (km/s) = 3.63733 3.84482 3.74251
# Velocity P-wave (km/s) = 6.46500 6.84938 6.65997
#
# Compressibility (1/GPa) = 0.02100507
#
# Stress axis : x y z
#
# Youngs Moduli (GPa) = 51.78332 51.27301 52.22746
#
# Poissons Ratio (x) = 0.58076 0.36974
# Poissons Ratio (y) = 0.58654 0.00376
# Poissons Ratio (z) = 0.36660 0.00369
#
# Static dielectric constant tensor:
#      x y z
#    x 3.620240 0.000000 0.000000 
#    y 0.000000 3.559340 0.000000 
#    z 0.000000 0.000000 3.625460 
# 
# 
# High freq. dielectric constant tensor:
#      x y z
#    x 1.778620 0.000000 0.000000 
#    y 0.000000 1.768150 0.000000 
#    z 0.000000 0.000000 1.780180 
# 
# From -- ./inp_files/2892.got.cif
#   From: 2010.06.25/outbox.cif.g09.slc.cpg/sg58_2_cif.got.tgz:2892.got - 2010.06.26 21:38:00.
