data_PCOD8238417
_publ_section_title
;
Structure prediction by ZEFSAII (Michael W. Deem and Ramdas Pophale) SiO2 
 PCOD8238417
Probable space group: P N N M
;
_chemical_formula_sum "Si O2"
_cell_formula_units_Z 48
_cell_length_a 14.088885
_cell_length_b 9.083413
_cell_length_c 17.483772
_cell_angle_alpha 90.000000
_cell_angle_beta 90.000000
_cell_angle_gamma 90.000000
_cell_volume 2237.488539
_symmetry_space_group_name_H-M "P N N M"
_symmetry_group_IT_number 58
_symmetry_cell_setting 'orthorhombic'
loop_
_space_group_symop_operation_xyz
x,y,z
-x,-y,z
1/2+x,1/2-y,1/2-z
1/2-x,1/2+y,1/2-z
-x,-y,-z
x,y,-z
1/2-x,1/2+y,1/2+z
1/2+x,1/2-y,1/2+z
loop_
_atom_site_type_symbol
_atom_site_label
_atom_site_fract_x
_atom_site_fract_y
_atom_site_fract_z
Si Si1 0.956884 0.842886 0.415249
Si Si2 0.737903 0.373213 0.174076
Si Si3 0.101960 0.433039 0.089924
Si Si4 0.582482 0.398210 0.411634
Si Si5 0.243664 0.963200 0.170691
Si Si6 0.911718 0.402587 0.416650
O O1 0.932519 0.779749 0.500000
O O2 0.860391 0.850403 0.368986
O O3 0.042824 0.745206 0.378875
O O4 0.000000 0.000000 0.422664
O O5 0.814536 0.473945 0.129968
O O6 0.714208 0.447965 0.254219
O O7 0.775794 0.208194 0.186365
O O8 0.096249 0.266234 0.123174
O O9 0.000000 0.500000 0.109075
O O10 0.124667 0.436130 0.000000
O O11 0.500000 0.500000 0.373119
O O12 0.557592 0.377225 0.500000
O O13 0.678812 0.487073 0.399926
O O14 0.348931 0.009844 0.145077
O O15 0.860745 0.370068 0.500000
O O16 0.000000 0.500000 0.436128
#
# Coordination Sequence:
#
# PCOD8238417 Si02
#       6
#     8   8   8   8   8   8
#     4  10  23  42  69  98 127 167 216 273 330 391
#     4  12  26  43  62  94 134 174 217 266 331 395
#     4  10  22  42  68  95 125 165 214 266 320 383
#     4  10  22  42  68  96 125 165 217 267 318 380
#     4  12  26  42  63  93 132 174 215 267 329 393
#     4  10  21  42  69  96 123 164 220 271 327 391
#
# _framework density 21.452624
#
# number of rings (size 3 to 8) (size 9 to 14) (size 15 to 20)
#    0.000    1.333    1.667    3.000    4.667    4.667 
#    3.000    0.000    0.000    0.000    0.000    0.000 
#    0.000    0.000    0.000    0.000    0.000    0.000 
#
# Total GULP energy -594792.365110 kJ/mol
# GULP energy per Si atom -12391.507606 kJ/mol
# Density = 2.140380 g / cm^3
# Si number density = 21.452624 Si / 1000 Ang^3
#
#
#
# Elastic Constant Matrix: (Units=GPa)
#
#
# Indices 1 2 3 4 5 6 
#
# 1 82.7876 53.2973 23.6994 0.0000 0.0000 0.0000
# 2 53.2973 191.1603 35.2654 0.0000 0.0000 0.0000
# 3 23.6994 35.2654 54.6049 0.0000 0.0000 0.0000
# 4 0.0000 0.0000 0.0000 41.4772 0.0000 0.0000
# 5 0.0000 0.0000 0.0000 0.0000 -59.6532 0.0000
# 6 0.0000 0.0000 0.0000 0.0000 0.0000 46.3706
#
#
#
# Elastic Compliance Matrix: (Units=1/GPa)
#
#
# Indices 1 2 3 4 5 6 
#
# 1 0.015642 -0.003529 -0.004510 0.000000 0.000000 0.000000
# 2 -0.003529 0.006735 -0.002818 0.000000 0.000000 0.000000
# 3 -0.004510 -0.002818 0.022091 0.000000 0.000000 0.000000
# 4 0.000000 0.000000 0.000000 0.024110 0.000000 0.000000
# 5 0.000000 0.000000 0.000000 0.000000 -0.016764 0.000000
# 6 0.000000 0.000000 0.000000 0.000000 0.000000 0.021565
#
#
# Mechanical properties :
#
#
# Convention : Reuss Voigt Hill
#
# Bulk Modulus (GPa) = 43.94821 61.45301 52.70061
# Shear Modulus (GPa) = 48.69612 20.05829 34.37721
#
# Velocity S-wave (km/s) = 4.76956 3.06110 4.00743
# Velocity P-wave (km/s) = 7.13177 6.41887 6.78469
#
# Compressibility (1/GPa) = 0.02275406
#
# Stress axis : x y z
#
# Youngs Moduli (GPa) = 63.92991 148.47696 45.26820
#
# Poissons Ratio (x) = 0.52401 0.20414
# Poissons Ratio (y) = 0.22562 0.12756
# Poissons Ratio (z) = 0.28830 0.41840
#
# Static dielectric constant tensor:
#      x y z
#    x 3.679690 0.000000 0.000000 
#    y 0.000000 -2.864800 0.000000 
#    z 0.000000 0.000000 3.767670 
# 
# 
# High freq. dielectric constant tensor:
#      x y z
#    x 1.843370 0.000000 0.000000 
#    y 0.000000 1.870890 0.000000 
#    z 0.000000 0.000000 1.822630 
# 
# From -- ./inp_files/26810.got.cif
#   From: 2010.06.25/outbox.cif.g09.slc.cpg/sg58_14_cif.got.tgz:26810.got - 2010.06.26 21:38:00.
