data_PCOD8238129
_publ_section_title
;
Structure prediction by ZEFSAII (Michael W. Deem and Ramdas Pophale) SiO2 
 PCOD8238129
Probable space group: P N N M
;
_chemical_formula_sum "Si O2"
_cell_formula_units_Z 48
_cell_length_a 10.063790
_cell_length_b 8.678279
_cell_length_c 28.049314
_cell_angle_alpha 90.000000
_cell_angle_beta 90.000000
_cell_angle_gamma 90.000000
_cell_volume 2449.725474
_symmetry_space_group_name_H-M "P N N M"
_symmetry_group_IT_number 58
_symmetry_cell_setting 'orthorhombic'
loop_
_space_group_symop_operation_xyz
x,y,z
-x,-y,z
1/2+x,1/2-y,1/2-z
1/2-x,1/2+y,1/2-z
-x,-y,-z
x,y,-z
1/2-x,1/2+y,1/2+z
1/2+x,1/2-y,1/2+z
loop_
_atom_site_type_symbol
_atom_site_label
_atom_site_fract_x
_atom_site_fract_y
_atom_site_fract_z
Si Si1 0.741608 0.334943 0.707456
Si Si2 0.406206 0.360362 0.946318
Si Si3 0.518581 0.820037 0.856898
Si Si4 0.511405 0.184429 0.349796
Si Si5 0.750663 0.197892 0.809722
Si Si6 0.398303 0.859788 0.448347
O O1 0.862766 0.263992 0.677315
O O2 0.606034 0.253501 0.690903
O O3 0.765361 0.298443 0.762399
O O4 0.739313 0.518095 0.701960
O O5 0.500000 0.500000 0.931687
O O6 0.444273 0.223583 0.910763
O O7 0.253538 0.415687 0.941581
O O8 0.436418 0.303136 0.000000
O O9 0.382715 0.747913 0.836791
O O10 0.500000 0.000000 0.855679
O O11 0.368042 0.259354 0.345408
O O12 0.564704 0.240707 0.401915
O O13 0.500000 0.000000 0.344995
O O14 0.410379 0.772001 0.500000
O O15 0.500000 0.000000 0.449242
#
# Coordination Sequence:
#
# PCOD8238129 Si02
#       6
#     8   8   8   8   8   8
#     4  11  22  42  60  87 118 158 200 249 296 355
#     4  10  21  37  62  91 117 151 199 245 292 353
#     4  10  23  40  58  85 120 156 193 242 298 351
#     4  11  22  37  60  90 118 159 197 240 297 356
#     4  11  24  38  62  86 120 155 201 248 296 353
#     4   9  19  36  59  87 120 153 192 245 296 347
#
# _framework density 19.594033
#
# number of rings (size 3 to 8) (size 9 to 14) (size 15 to 20)
#    0.000    1.667    1.667    2.500    4.667    3.000 
#    0.000    0.000    0.000    3.000    0.000    0.000 
#    0.000    0.000    0.000    0.000    0.000    0.000 
#
# Total GULP energy -595061.051427 kJ/mol
# GULP energy per Si atom -12397.105238 kJ/mol
# Density = 1.954944 g / cm^3
# Si number density = 19.594033 Si / 1000 Ang^3
#
#
#
# Elastic Constant Matrix: (Units=GPa)
#
#
# Indices 1 2 3 4 5 6 
#
# 1 144.3822 29.9557 48.2328 0.0000 0.0000 0.0000
# 2 29.9557 46.8777 20.3980 0.0000 0.0000 0.0000
# 3 48.2328 20.3980 120.1342 0.0000 0.0000 0.0000
# 4 0.0000 0.0000 0.0000 17.4378 0.0000 0.0000
# 5 0.0000 0.0000 0.0000 0.0000 33.3725 0.0000
# 6 0.0000 0.0000 0.0000 0.0000 0.0000 29.1405
#
#
#
# Elastic Compliance Matrix: (Units=1/GPa)
#
#
# Indices 1 2 3 4 5 6 
#
# 1 0.008764 -0.004394 -0.002773 0.000000 0.000000 0.000000
# 2 -0.004394 0.025237 -0.002521 0.000000 0.000000 0.000000
# 3 -0.002773 -0.002521 0.009865 0.000000 0.000000 0.000000
# 4 0.000000 0.000000 0.000000 0.057347 0.000000 0.000000
# 5 0.000000 0.000000 0.000000 0.000000 0.029965 0.000000
# 6 0.000000 0.000000 0.000000 0.000000 0.000000 0.034316
#
#
# Mechanical properties :
#
#
# Convention : Reuss Voigt Hill
#
# Bulk Modulus (GPa) = 40.83107 56.50747 48.66927
# Shear Modulus (GPa) = 25.90240 30.17734 28.03987
#
# Velocity S-wave (km/s) = 3.63981 3.92871 3.78701
# Velocity P-wave (km/s) = 6.20871 7.03430 6.63436
#
# Compressibility (1/GPa) = 0.02449115
#
# Stress axis : x y z
#
# Youngs Moduli (GPa) = 114.10465 39.62471 101.36616
#
# Poissons Ratio (x) = 0.17410 0.28105
# Poissons Ratio (y) = 0.50136 0.25554
# Poissons Ratio (z) = 0.31636 0.09989
#
# Static dielectric constant tensor:
#      x y z
#    x 3.969130 0.000000 0.000000 
#    y 0.000000 3.234840 0.000000 
#    z 0.000000 0.000000 4.045760 
# 
# 
# High freq. dielectric constant tensor:
#      x y z
#    x 1.787900 0.000000 0.000000 
#    y 0.000000 1.728800 0.000000 
#    z 0.000000 0.000000 1.782690 
# 
# From -- ./inp_files/34528.got.cif
#   From: 2010.06.25/outbox.cif.g09.slc.cpg/sg58_18_cif.got.tgz:34528.got - 2010.06.26 21:38:00.
