data_PCOD8238537
_publ_section_title
;
Structure prediction by ZEFSAII (Michael W. Deem and Ramdas Pophale) SiO2 
 PCOD8238537
Probable space group: P N N M
;
_chemical_formula_sum "Si O2"
_cell_formula_units_Z 48
_cell_length_a 7.753303
_cell_length_b 9.436792
_cell_length_c 28.549530
_cell_angle_alpha 90.000000
_cell_angle_beta 90.000000
_cell_angle_gamma 90.000000
_cell_volume 2088.863697
_symmetry_space_group_name_H-M "P N N M"
_symmetry_group_IT_number 58
_symmetry_cell_setting 'orthorhombic'
loop_
_space_group_symop_operation_xyz
x,y,z
-x,-y,z
1/2+x,1/2-y,1/2-z
1/2-x,1/2+y,1/2-z
-x,-y,-z
x,y,-z
1/2-x,1/2+y,1/2+z
1/2+x,1/2-y,1/2+z
loop_
_atom_site_type_symbol
_atom_site_label
_atom_site_fract_x
_atom_site_fract_y
_atom_site_fract_z
Si Si1 0.560064 0.352958 0.054675
Si Si2 0.871297 0.881884 0.138599
Si Si3 0.601934 0.866844 0.606911
Si Si4 0.641862 0.714011 0.214005
Si Si5 0.835235 0.405284 0.448467
Si Si6 0.265247 0.601299 0.794699
O O1 0.500000 0.500000 0.077894
O O2 0.744112 0.308201 0.075024
O O3 0.404115 0.248692 0.066728
O O4 0.589679 0.366806 0.000000
O O5 0.744129 0.812318 0.176763
O O6 0.775894 0.961739 0.095352
O O7 0.972664 0.760790 0.112200
O O8 0.000000 0.000000 0.162079
O O9 0.674974 0.917556 0.656182
O O10 0.500000 0.000000 0.583912
O O11 0.722006 0.559276 0.224556
O O12 0.445514 0.685515 0.198377
O O13 0.641787 0.803965 0.261876
O O14 0.739986 0.401180 0.500000
O O15 0.000000 0.500000 0.455366
#
# Coordination Sequence:
#
# PCOD8238537 Si02
#       6
#     8   8   8   8   8   8
#     4  10  22  40  66  96 129 173 222 267 323 394
#     4  12  26  42  65 102 136 171 222 276 329 394
#     4  12  24  41  66  95 137 173 217 275 332 391
#     4  11  26  46  72  98 133 173 223 274 334 397
#     4  10  22  44  68  93 130 177 225 271 328 395
#     4  11  26  46  71  98 131 177 219 275 333 398
#
# _framework density 22.979001
#
# number of rings (size 3 to 8) (size 9 to 14) (size 15 to 20)
#    0.000    1.000    1.667    4.000    7.000    1.333 
#    0.000    0.000    0.000    0.000    0.000    0.000 
#    0.000    0.000    0.000    0.000    0.000    0.000 
#
# Total GULP energy -595058.263282 kJ/mol
# GULP energy per Si atom -12397.047152 kJ/mol
# Density = 2.292670 g / cm^3
# Si number density = 22.979001 Si / 1000 Ang^3
#
#
#
# Elastic Constant Matrix: (Units=GPa)
#
#
# Indices 1 2 3 4 5 6 
#
# 1 71.7620 11.8245 22.9559 0.0000 0.0000 0.0000
# 2 11.8245 93.5900 14.2861 0.0000 0.0000 0.0000
# 3 22.9559 14.2861 57.4775 0.0000 0.0000 0.0000
# 4 0.0000 0.0000 0.0000 29.9172 0.0000 0.0000
# 5 0.0000 0.0000 0.0000 0.0000 37.9492 0.0000
# 6 0.0000 0.0000 0.0000 0.0000 0.0000 37.3514
#
#
#
# Elastic Compliance Matrix: (Units=1/GPa)
#
#
# Indices 1 2 3 4 5 6 
#
# 1 0.016083 -0.001093 -0.006152 0.000000 0.000000 0.000000
# 2 -0.001093 0.011181 -0.002342 0.000000 0.000000 0.000000
# 3 -0.006152 -0.002342 0.020437 0.000000 0.000000 0.000000
# 4 0.000000 0.000000 0.000000 0.033426 0.000000 0.000000
# 5 0.000000 0.000000 0.000000 0.000000 0.026351 0.000000
# 6 0.000000 0.000000 0.000000 0.000000 0.000000 0.026773
#
#
# Mechanical properties :
#
#
# Convention : Reuss Voigt Hill
#
# Bulk Modulus (GPa) = 35.05502 35.66249 35.35876
# Shear Modulus (GPa) = 30.68746 32.62775 31.65761
#
# Velocity S-wave (km/s) = 3.65835 3.77224 3.71573
# Velocity P-wave (km/s) = 5.75614 5.87591 5.81633
#
# Compressibility (1/GPa) = 0.02852658
#
# Stress axis : x y z
#
# Youngs Moduli (GPa) = 62.17784 89.44106 48.93035
#
# Poissons Ratio (x) = 0.09775 0.30100
# Poissons Ratio (y) = 0.06796 0.11462
# Poissons Ratio (z) = 0.38250 0.20951
#
# Static dielectric constant tensor:
#      x y z
#    x 4.361030 0.000000 0.000000 
#    y 0.000000 4.302900 0.000000 
#    z 0.000000 0.000000 4.105370 
# 
# 
# High freq. dielectric constant tensor:
#      x y z
#    x 1.908110 0.000000 0.000000 
#    y 0.000000 1.923290 0.000000 
#    z 0.000000 0.000000 1.904090 
# 
# From -- ./inp_files/34609.got.cif
#   From: 2010.06.25/outbox.cif.g09.slc.cpg/sg58_18_cif.got.tgz:34609.got - 2010.06.26 21:38:00.
