data_PCOD8238193
_publ_section_title
;
Structure prediction by ZEFSAII (Michael W. Deem and Ramdas Pophale) SiO2 
 PCOD8238193
Probable space group: P N N M
;
_chemical_formula_sum "Si O2"
_cell_formula_units_Z 64
_cell_length_a 15.223823
_cell_length_b 24.011340
_cell_length_c 8.987654
_cell_angle_alpha 90.000000
_cell_angle_beta 90.000000
_cell_angle_gamma 90.000000
_cell_volume 3285.386500
_symmetry_space_group_name_H-M "P N N M"
_symmetry_group_IT_number 58
_symmetry_cell_setting 'orthorhombic'
loop_
_space_group_symop_operation_xyz
x,y,z
-x,-y,z
1/2+x,1/2-y,1/2-z
1/2-x,1/2+y,1/2-z
-x,-y,-z
x,y,-z
1/2-x,1/2+y,1/2+z
1/2+x,1/2-y,1/2+z
loop_
_atom_site_type_symbol
_atom_site_label
_atom_site_fract_x
_atom_site_fract_y
_atom_site_fract_z
Si Si1 0.902427 0.507356 0.176292
Si Si2 0.898743 0.001814 0.175785
Si Si3 0.157563 0.876239 0.175403
Si Si4 0.264208 0.199343 0.674905
Si Si5 0.746487 0.428428 0.176465
Si Si6 0.099433 0.273256 0.667943
Si Si7 0.092469 0.773866 0.330829
Si Si8 0.337244 0.872956 0.674490
O O1 0.833030 0.461476 0.235273
O O2 0.870667 0.567532 0.229368
O O3 0.000000 0.500000 0.244942
O O4 0.907981 0.503277 0.000000
O O5 0.861806 0.061304 0.228989
O O6 0.842237 0.953669 0.253596
O O7 0.890523 0.993558 0.000000
O O8 0.000000 0.000000 0.226966
O O9 0.090232 0.833019 0.247362
O O10 0.251579 0.856677 0.233314
O O11 0.151609 0.870858 0.000000
O O12 0.282129 0.202210 0.500000
O O13 0.256555 0.135293 0.727736
O O14 0.174355 0.230087 0.719748
O O15 0.346061 0.227852 0.755301
O O16 0.737491 0.434031 0.000000
O O17 0.118401 0.293915 0.500000
O O18 0.093406 0.325627 0.780136
O O19 0.007246 0.243821 0.678186
O O20 0.124371 0.781678 0.500000
O O21 0.317991 0.872565 0.500000
#
# Coordination Sequence:
#
# PCOD8238193 Si02
#       8
#     8   8   8   8   8   8   8   8
#     4   9  19  35  56  86 120 150 190 244 289 339
#     4  10  23  41  60  86 120 158 196 240 296 354
#     4  11  22  39  62  85 118 157 196 249 306 352
#     4  10  22  40  61  85 119 161 197 239 299 355
#     4  10  21  38  61  87 117 156 198 240 290 346
#     4  10  23  41  58  84 123 158 193 243 299 350
#     4  11  24  40  61  89 119 155 201 248 294 352
#     4  11  21  36  63  91 115 151 201 246 293 354
#
# _framework density 19.480204000000001
#
# number of rings (size 3 to 8) (size 9 to 14) (size 15 to 20)
#    0.000    1.750    2.500    1.125    3.500    2.250 
#    0.000    0.000    0.000    1.875    0.000    0.000 
#    0.000    0.000    0.000    0.000    0.000    0.000 
#
# Total GULP energy -793727.475375 kJ/mol
# GULP energy per Si atom -12401.991803 kJ/mol
# Density = 1.943587 g / cm^3
# Si number density = 19.480204 Si / 1000 Ang^3
#
#
#
# Elastic Constant Matrix: (Units=GPa)
#
#
# Indices 1 2 3 4 5 6 
#
# 1 98.0894 32.3116 23.3130 0.0000 0.0000 0.0000
# 2 32.3116 135.3775 41.7318 0.0000 0.0000 0.0000
# 3 23.3130 41.7318 51.0400 0.0000 0.0000 0.0000
# 4 0.0000 0.0000 0.0000 29.5194 0.0000 0.0000
# 5 0.0000 0.0000 0.0000 0.0000 24.5028 0.0000
# 6 0.0000 0.0000 0.0000 0.0000 0.0000 26.3835
#
#
#
# Elastic Compliance Matrix: (Units=1/GPa)
#
#
# Indices 1 2 3 4 5 6 
#
# 1 0.011668 -0.001527 -0.004081 0.000000 0.000000 0.000000
# 2 -0.001527 0.010076 -0.007541 0.000000 0.000000 0.000000
# 3 -0.004081 -0.007541 0.027622 0.000000 0.000000 0.000000
# 4 0.000000 0.000000 0.000000 0.033876 0.000000 0.000000
# 5 0.000000 0.000000 0.000000 0.000000 0.040812 0.000000
# 6 0.000000 0.000000 0.000000 0.000000 0.000000 0.037902
#
#
# Mechanical properties :
#
#
# Convention : Reuss Voigt Hill
#
# Bulk Modulus (GPa) = 43.34952 53.24665 48.29808
# Shear Modulus (GPa) = 25.51775 28.55786 27.03780
#
# Velocity S-wave (km/s) = 3.62323 3.83298 3.72958
# Velocity P-wave (km/s) = 6.30913 6.85435 6.58738
#
# Compressibility (1/GPa) = 0.02306831
#
# Stress axis : x y z
#
# Youngs Moduli (GPa) = 85.70712 99.24849 36.20293
#
# Poissons Ratio (x) = 0.15153 0.14774
# Poissons Ratio (y) = 0.13086 0.27300
# Poissons Ratio (z) = 0.34976 0.74842
#
# Static dielectric constant tensor:
#      x y z
#    x 3.636530 0.000000 0.000000 
#    y 0.000000 3.750750 0.000000 
#    z 0.000000 0.000000 3.435660 
# 
# 
# High freq. dielectric constant tensor:
#      x y z
#    x 1.766030 0.000000 0.000000 
#    y 0.000000 1.773390 0.000000 
#    z 0.000000 0.000000 1.742780 
# 
# From -- ./inp_files/6803.got.cif
#   From: 2010.06.25/outbox.cif.g09.slc.cpg/sg58_4_cif.got.tgz:6803.got - 2010.06.26 21:38:00.
