data_PCOD8238356
_publ_section_title
;
Structure prediction by ZEFSAII (Michael W. Deem and Ramdas Pophale) SiO2 
 PCOD8238356
Probable space group: P N N M
;
_chemical_formula_sum "Si O2"
_cell_formula_units_Z 48
_cell_length_a 16.767898
_cell_length_b 7.402903
_cell_length_c 18.171374
_cell_angle_alpha 90.000000
_cell_angle_beta 90.000000
_cell_angle_gamma 90.000000
_cell_volume 2255.633050
_symmetry_space_group_name_H-M "P N N M"
_symmetry_group_IT_number 58
_symmetry_cell_setting 'orthorhombic'
loop_
_space_group_symop_operation_xyz
x,y,z
-x,-y,z
1/2+x,1/2-y,1/2-z
1/2-x,1/2+y,1/2-z
-x,-y,-z
x,y,-z
1/2-x,1/2+y,1/2+z
1/2+x,1/2-y,1/2+z
loop_
_atom_site_type_symbol
_atom_site_label
_atom_site_fract_x
_atom_site_fract_y
_atom_site_fract_z
Si Si1 0.588201 0.067773 0.651813
Si Si2 0.136890 0.323271 0.693957
Si Si3 0.497778 0.711481 0.918192
Si Si4 0.810818 0.217743 0.819221
Si Si5 0.161079 0.722145 0.661508
Si Si6 0.313941 0.640493 0.415774
O O1 0.592044 0.183271 0.728047
O O2 0.612997 0.218048 0.591638
O O3 0.500000 0.000000 0.635630
O O4 0.642281 0.889363 0.649119
O O5 0.077201 0.274397 0.628826
O O6 0.218751 0.208965 0.686968
O O7 0.173375 0.520307 0.688026
O O8 0.500000 0.500000 0.923078
O O9 0.579345 0.773413 0.882426
O O10 0.489549 0.795482 0.000000
O O11 0.840739 0.159232 0.736590
O O12 0.826484 0.045388 0.871095
O O13 0.237283 0.760002 0.610167
O O14 0.303402 0.583002 0.500000
#
# Coordination Sequence:
#
# PCOD8238356 Si02
#       6
#     8   8   8   8   8   8
#     4  11  24  43  67  98 128 174 226 277 335 400
#     4  10  21  40  65  94 127 175 224 265 330 403
#     4  11  25  37  58  99 141 175 213 275 347 408
#     4  10  23  43  70  99 132 175 227 275 329 405
#     4  10  21  42  66  91 130 178 225 271 331 407
#     4  11  25  42  69 100 130 174 226 283 344 399
#
# _framework density 21.280058
#
# number of rings (size 3 to 8) (size 9 to 14) (size 15 to 20)
#    0.000    1.500    1.667    3.000    4.667    5.667 
#    0.000    0.833    0.000    0.000    0.000    0.000 
#    0.000    0.000    0.000    0.000    0.000    0.000 
#
# Total GULP energy -594923.325248 kJ/mol
# GULP energy per Si atom -12394.235943 kJ/mol
# Density = 2.123162 g / cm^3
# Si number density = 21.280058 Si / 1000 Ang^3
#
#
#
# Elastic Constant Matrix: (Units=GPa)
#
#
# Indices 1 2 3 4 5 6 
#
# 1 142.7712 51.9518 79.0648 0.0000 0.0000 0.0000
# 2 51.9518 123.0526 146.8051 0.0000 0.0000 0.0000
# 3 79.0648 146.8051 380.9073 0.0000 0.0000 0.0000
# 4 0.0000 0.0000 0.0000 27.3056 0.0000 0.0000
# 5 0.0000 0.0000 0.0000 0.0000 29.3999 0.0000
# 6 0.0000 0.0000 0.0000 0.0000 0.0000 35.8222
#
#
#
# Elastic Compliance Matrix: (Units=1/GPa)
#
#
# Indices 1 2 3 4 5 6 
#
# 1 0.008374 -0.002706 -0.000695 0.000000 0.000000 0.000000
# 2 -0.002706 0.015918 -0.005573 0.000000 0.000000 0.000000
# 3 -0.000695 -0.005573 0.004918 0.000000 0.000000 0.000000
# 4 0.000000 0.000000 0.000000 0.036623 0.000000 0.000000
# 5 0.000000 0.000000 0.000000 0.000000 0.034014 0.000000
# 6 0.000000 0.000000 0.000000 0.000000 0.000000 0.027916
#
#
# Mechanical properties :
#
#
# Convention : Reuss Voigt Hill
#
# Bulk Modulus (GPa) = 88.80481 133.59718 111.20099
# Shear Modulus (GPa) = 33.45282 43.09949 38.27616
#
# Velocity S-wave (km/s) = 3.96918 4.50527 4.24569
# Velocity P-wave (km/s) = 7.92641 9.48578 8.74094
#
# Compressibility (1/GPa) = 0.01126065
#
# Stress axis : x y z
#
# Youngs Moduli (GPa) = 119.41896 62.82136 203.34931
#
# Poissons Ratio (x) = 0.16999 0.14139
# Poissons Ratio (y) = 0.32313 1.13333
# Poissons Ratio (z) = 0.08303 0.35012
#
# Static dielectric constant tensor:
#      x y z
#    x 3.867520 0.000000 0.000000 
#    y 0.000000 3.866850 0.000000 
#    z 0.000000 0.000000 4.069060 
# 
# 
# High freq. dielectric constant tensor:
#      x y z
#    x 1.840170 0.000000 0.000000 
#    y 0.000000 1.836950 0.000000 
#    z 0.000000 0.000000 1.829210 
# 
# From -- ./inp_files/26822.got.cif
#   From: 2010.06.25/outbox.cif.g09.slc.cpg/sg58_14_cif.got.tgz:26822.got - 2010.06.26 21:38:00.
