data_PCOD8238900
_publ_section_title
;
Structure prediction by ZEFSAII (Michael W. Deem and Ramdas Pophale) SiO2 
 PCOD8238900
Probable space group: P N N M
;
_chemical_formula_sum "Si O2"
_cell_formula_units_Z 32
_cell_length_a 8.693249
_cell_length_b 15.081280
_cell_length_c 10.986991
_cell_angle_alpha 90.000000
_cell_angle_beta 90.000000
_cell_angle_gamma 90.000000
_cell_volume 1440.452996
_symmetry_space_group_name_H-M "P N N M"
_symmetry_group_IT_number 58
_symmetry_cell_setting 'orthorhombic'
loop_
_space_group_symop_operation_xyz
x,y,z
-x,-y,z
1/2+x,1/2-y,1/2-z
1/2-x,1/2+y,1/2-z
-x,-y,-z
x,y,-z
1/2-x,1/2+y,1/2+z
1/2+x,1/2-y,1/2+z
loop_
_atom_site_type_symbol
_atom_site_label
_atom_site_fract_x
_atom_site_fract_y
_atom_site_fract_z
Si Si1 0.529946 0.634398 0.500000
Si Si2 0.652330 0.682915 0.250799
Si Si3 0.252787 0.031175 0.000000
Si Si4 0.835009 0.833284 0.360244
Si Si5 0.670323 0.001232 0.737551
O O1 0.568328 0.687343 0.379766
O O2 0.627068 0.545239 0.500000
O O3 0.346337 0.620899 0.500000
O O4 0.754755 0.771608 0.257553
O O5 0.519379 0.681131 0.148906
O O6 0.761755 0.599324 0.227104
O O7 0.354413 0.026646 0.121450
O O8 0.790524 0.809883 0.500000
O O9 0.786410 0.934475 0.330940
O O10 0.500000 0.000000 0.677461
#
# Coordination Sequence:
#
# PCOD8238900 Si02
#       5
#     4   8   4   8   8
#     4   9  16  36  66  90 123 171 209 281 329 373
#     4  11  23  45  65  96 137 172 225 278 331 397
#     4   9  17  34  66  96 123 166 221 272 328 379
#     4  12  26  45  70  99 135 178 223 274 336 401
#     4  11  23  41  68  99 134 176 225 275 331 393
#
# _framework density 22.215233999999999
#
# number of rings (size 3 to 8) (size 9 to 14) (size 15 to 20)
#    0.000    1.250    3.750    2.625    0.000    2.500 
#    9.000    0.000    0.000    0.000    0.000    0.000 
#    0.000    0.000    0.000    0.000    0.000    0.000 
#
# Total GULP energy -396634.603634 kJ/mol
# GULP energy per Si atom -12394.831364 kJ/mol
# Density = 2.216467 g / cm^3
# Si number density = 22.215234 Si / 1000 Ang^3
#
#
#
# Elastic Constant Matrix: (Units=GPa)
#
#
# Indices 1 2 3 4 5 6 
#
# 1 112.5645 25.5621 17.1614 0.0000 0.0000 0.0000
# 2 25.5621 97.8528 17.0855 0.0000 0.0000 0.0000
# 3 17.1614 17.0855 68.5076 0.0000 0.0000 0.0000
# 4 0.0000 0.0000 0.0000 22.3391 0.0000 0.0000
# 5 0.0000 0.0000 0.0000 0.0000 27.2781 0.0000
# 6 0.0000 0.0000 0.0000 0.0000 0.0000 35.8620
#
#
#
# Elastic Compliance Matrix: (Units=1/GPa)
#
#
# Indices 1 2 3 4 5 6 
#
# 1 0.009669 -0.002199 -0.001874 0.000000 0.000000 0.000000
# 2 -0.002199 0.011185 -0.002239 0.000000 0.000000 0.000000
# 3 -0.001874 -0.002239 0.015625 0.000000 0.000000 0.000000
# 4 0.000000 0.000000 0.000000 0.044765 0.000000 0.000000
# 5 0.000000 0.000000 0.000000 0.000000 0.036659 0.000000
# 6 0.000000 0.000000 0.000000 0.000000 0.000000 0.027885
#
#
# Mechanical properties :
#
#
# Convention : Reuss Voigt Hill
#
# Bulk Modulus (GPa) = 41.91811 44.28253 43.10032
# Shear Modulus (GPa) = 30.05518 31.70357 30.87937
#
# Velocity S-wave (km/s) = 3.68218 3.78181 3.73233
# Velocity P-wave (km/s) = 6.08178 6.24869 6.16580
#
# Compressibility (1/GPa) = 0.02385604
#
# Stress axis : x y z
#
# Youngs Moduli (GPa) = 103.42610 89.40828 64.00157
#
# Poissons Ratio (x) = 0.19657 0.11992
# Poissons Ratio (y) = 0.22739 0.14328
# Poissons Ratio (z) = 0.19379 0.20015
#
# Static dielectric constant tensor:
#      x y z
#    x 3.941530 0.000000 0.000000 
#    y 0.000000 3.815890 0.000000 
#    z 0.000000 0.000000 4.001110 
# 
# 
# High freq. dielectric constant tensor:
#      x y z
#    x 1.881040 0.000000 0.000000 
#    y 0.000000 1.866650 0.000000 
#    z 0.000000 0.000000 1.859260 
# 
# From -- ./inp_files/12386.got.cif
#   From: 2010.06.25/outbox.cif.g09.slc.cpg/sg58_7_cif.got.tgz:12386.got - 2010.06.26 21:38:00.
