data_PCOD8238216
_publ_section_title
;
Structure prediction by ZEFSAII (Michael W. Deem and Ramdas Pophale) SiO2 
 PCOD8238216
Probable space group: P N N M
;
_chemical_formula_sum "Si O2"
_cell_formula_units_Z 48
_cell_length_a 14.706372
_cell_length_b 18.676856
_cell_length_c 8.829737
_cell_angle_alpha 90.000000
_cell_angle_beta 90.000000
_cell_angle_gamma 90.000000
_cell_volume 2425.253197
_symmetry_space_group_name_H-M "P N N M"
_symmetry_group_IT_number 58
_symmetry_cell_setting 'orthorhombic'
loop_
_space_group_symop_operation_xyz
x,y,z
-x,-y,z
1/2+x,1/2-y,1/2-z
1/2-x,1/2+y,1/2-z
-x,-y,-z
x,y,-z
1/2-x,1/2+y,1/2+z
1/2+x,1/2-y,1/2+z
loop_
_atom_site_type_symbol
_atom_site_label
_atom_site_fract_x
_atom_site_fract_y
_atom_site_fract_z
Si Si1 0.749915 0.415988 0.323713
Si Si2 0.501633 0.214236 0.821631
Si Si3 0.317222 0.741190 0.674070
Si Si4 0.357318 0.326709 0.823570
Si Si5 0.058306 0.568444 0.178634
Si Si6 0.895385 0.016244 0.323220
O O1 0.765024 0.429671 0.500000
O O2 0.733188 0.332770 0.289213
O O3 0.839777 0.441653 0.238264
O O4 0.662989 0.459119 0.267531
O O5 0.599218 0.248042 0.786092
O O6 0.426228 0.268375 0.753160
O O7 0.491296 0.137700 0.744644
O O8 0.489402 0.203768 0.000000
O O9 0.350611 0.743191 0.500000
O O10 0.246257 0.804660 0.707426
O O11 0.373631 0.405311 0.754790
O O12 0.380021 0.330365 0.000000
O O13 0.000000 0.500000 0.229786
O O14 0.061656 0.575947 0.000000
O O15 0.870380 0.010755 0.500000
O O16 0.000000 0.000000 0.293054
#
# Coordination Sequence:
#
# PCOD8238216 Si02
#       6
#     8   8   8   8   8   8
#     4  11  23  41  64  91 126 163 204 258 309 357
#     4  11  22  40  65  93 121 155 203 256 302 356
#     4  10  21  39  60  85 121 163 198 242 305 366
#     4   9  19  38  60  83 120 160 194 240 303 361
#     4  11  25  43  63  88 122 166 209 251 307 373
#     4  10  21  38  62  90 122 162 205 248 301 371
#
# _framework density 19.791748999999999
#
# number of rings (size 3 to 8) (size 9 to 14) (size 15 to 20)
#    0.000    1.667    1.667    2.500    2.333    4.333 
#    0.000    1.667    0.000    0.000    0.000    0.000 
#    0.000    0.000    0.000    0.000    0.000    0.000 
#
# Total GULP energy -595416.608595 kJ/mol
# GULP energy per Si atom -12404.512679 kJ/mol
# Density = 1.974670 g / cm^3
# Si number density = 19.791749 Si / 1000 Ang^3
#
#
#
# Elastic Constant Matrix: (Units=GPa)
#
#
# Indices 1 2 3 4 5 6 
#
# 1 87.9402 23.7996 24.9312 0.0000 0.0000 0.0000
# 2 23.7996 97.8056 33.4507 0.0000 0.0000 0.0000
# 3 24.9312 33.4507 48.6537 0.0000 0.0000 0.0000
# 4 0.0000 0.0000 0.0000 28.4592 0.0000 0.0000
# 5 0.0000 0.0000 0.0000 0.0000 35.7054 0.0000
# 6 0.0000 0.0000 0.0000 0.0000 0.0000 36.5225
#
#
#
# Elastic Compliance Matrix: (Units=1/GPa)
#
#
# Indices 1 2 3 4 5 6 
#
# 1 0.013410 -0.001194 -0.006051 0.000000 0.000000 0.000000
# 2 -0.001194 0.013474 -0.008652 0.000000 0.000000 0.000000
# 3 -0.006051 -0.008652 0.029602 0.000000 0.000000 0.000000
# 4 0.000000 0.000000 0.000000 0.035138 0.000000 0.000000
# 5 0.000000 0.000000 0.000000 0.000000 0.028007 0.000000
# 6 0.000000 0.000000 0.000000 0.000000 0.000000 0.027380
#
#
# Mechanical properties :
#
#
# Convention : Reuss Voigt Hill
#
# Bulk Modulus (GPa) = 40.49689 44.30695 42.40192
# Shear Modulus (GPa) = 26.73287 30.28528 28.50907
#
# Velocity S-wave (km/s) = 3.67918 3.91602 3.79945
# Velocity P-wave (km/s) = 6.20922 6.54844 6.38109
#
# Compressibility (1/GPa) = 0.02469325
#
# Stress axis : x y z
#
# Youngs Moduli (GPa) = 74.57229 74.21748 33.78097
#
# Poissons Ratio (x) = 0.08859 0.20440
# Poissons Ratio (y) = 0.08901 0.29227
# Poissons Ratio (z) = 0.45122 0.64213
#
# Static dielectric constant tensor:
#      x y z
#    x 3.649240 0.000000 0.000000 
#    y 0.000000 3.853170 0.000000 
#    z 0.000000 0.000000 3.425270 
# 
# 
# High freq. dielectric constant tensor:
#      x y z
#    x 1.784520 0.000000 0.000000 
#    y 0.000000 1.787370 0.000000 
#    z 0.000000 0.000000 1.754170 
# 
# From -- ./inp_files/5854.got.cif
#   From: 2010.06.25/outbox.cif.g09.slc.cpg/sg58_3_cif.got.tgz:5854.got - 2010.06.26 21:38:00.
