data_PCOD8238904
_publ_section_title
;
Structure prediction by ZEFSAII (Michael W. Deem and Ramdas Pophale) SiO2 
 PCOD8238904
Probable space group: P N N M
;
_chemical_formula_sum "Si O2"
_cell_formula_units_Z 32
_cell_length_a 12.765868
_cell_length_b 9.449847
_cell_length_c 12.820863
_cell_angle_alpha 90.000000
_cell_angle_beta 90.000000
_cell_angle_gamma 90.000000
_cell_volume 1546.651211
_symmetry_space_group_name_H-M "P N N M"
_symmetry_group_IT_number 58
_symmetry_cell_setting 'orthorhombic'
loop_
_space_group_symop_operation_xyz
x,y,z
-x,-y,z
1/2+x,1/2-y,1/2-z
1/2-x,1/2+y,1/2-z
-x,-y,-z
x,y,-z
1/2-x,1/2+y,1/2+z
1/2+x,1/2-y,1/2+z
loop_
_atom_site_type_symbol
_atom_site_label
_atom_site_fract_x
_atom_site_fract_y
_atom_site_fract_z
Si Si1 0.955091 0.655224 0.612070
Si Si2 0.889852 0.917049 0.000000
Si Si3 0.381580 0.218793 0.276593
Si Si4 0.974190 0.335341 0.000000
Si Si5 0.750665 0.531869 0.681954
O O1 0.975081 0.732483 0.500000
O O2 0.831027 0.642348 0.628912
O O3 0.000000 0.500000 0.604537
O O4 0.012994 0.732316 0.707575
O O5 0.820442 0.948855 0.899697
O O6 0.916215 0.750003 0.000000
O O7 0.000000 0.000000 0.000000
O O8 0.408326 0.209777 0.398657
O O9 0.322397 0.364954 0.249586
O O10 0.312219 0.081104 0.251714
O O11 0.000000 0.500000 0.000000
#
# Coordination Sequence:
#
# PCOD8238904 Si02
#       5
#     8   4   8   4   8
#     4   9  19  40  63  91 127 168 222 279 327 403
#     4  12  24  44  73  95 130 177 233 284 328 416
#     4  11  25  41  67  99 136 177 226 285 340 407
#     4  12  26  46  64  99 141 171 221 295 347 390
#     4  11  23  42  68  99 130 181 226 274 350 402
#
# _framework density 20.689861000000001
#
# number of rings (size 3 to 8) (size 9 to 14) (size 15 to 20)
#    0.000    1.250    3.750    2.250    8.750    0.000 
#    2.250    0.000    0.000    1.500    0.000    0.000 
#    0.000    0.000    0.000    0.000    0.000    0.000 
#
# Total GULP energy -396651.233462 kJ/mol
# GULP energy per Si atom -12395.351046 kJ/mol
# Density = 2.064277 g / cm^3
# Si number density = 20.689861 Si / 1000 Ang^3
#
#
#
# Elastic Constant Matrix: (Units=GPa)
#
#
# Indices 1 2 3 4 5 6 
#
# 1 135.1784 48.0997 63.5699 0.0000 0.0000 0.0000
# 2 48.0997 98.7288 31.5850 0.0000 0.0000 0.0000
# 3 63.5699 31.5850 149.9642 0.0000 0.0000 0.0000
# 4 0.0000 0.0000 0.0000 27.8932 0.0000 0.0000
# 5 0.0000 0.0000 0.0000 0.0000 19.6356 0.0000
# 6 0.0000 0.0000 0.0000 0.0000 0.0000 45.2195
#
#
#
# Elastic Compliance Matrix: (Units=1/GPa)
#
#
# Indices 1 2 3 4 5 6 
#
# 1 0.010510 -0.003962 -0.003621 0.000000 0.000000 0.000000
# 2 -0.003962 0.012354 -0.000922 0.000000 0.000000 0.000000
# 3 -0.003621 -0.000922 0.008397 0.000000 0.000000 0.000000
# 4 0.000000 0.000000 0.000000 0.035851 0.000000 0.000000
# 5 0.000000 0.000000 0.000000 0.000000 0.050928 0.000000
# 6 0.000000 0.000000 0.000000 0.000000 0.000000 0.022114
#
#
# Mechanical properties :
#
#
# Convention : Reuss Voigt Hill
#
# Bulk Modulus (GPa) = 70.17028 74.48672 72.32850
# Shear Modulus (GPa) = 30.88020 34.59077 32.73548
#
# Velocity S-wave (km/s) = 3.86752 4.09329 3.98200
# Velocity P-wave (km/s) = 7.34388 7.64328 7.49507
#
# Compressibility (1/GPa) = 0.01425105
#
# Stress axis : x y z
#
# Youngs Moduli (GPa) = 95.14585 80.94435 119.08451
#
# Poissons Ratio (x) = 0.32071 0.43118
# Poissons Ratio (y) = 0.37698 0.10985
# Poissons Ratio (z) = 0.34450 0.07467
#
# Static dielectric constant tensor:
#      x y z
#    x 4.398570 0.000000 0.000000 
#    y 0.000000 3.687760 0.000000 
#    z 0.000000 0.000000 3.999750 
# 
# 
# High freq. dielectric constant tensor:
#      x y z
#    x 1.825930 0.000000 0.000000 
#    y 0.000000 1.791110 0.000000 
#    z 0.000000 0.000000 1.811330 
# 
# From -- ./inp_files/20622.got.cif
#   From: 2010.06.25/outbox.cif.g09.slc.cpg/sg58_11_cif.got.tgz:20622.got - 2010.06.26 21:38:00.
