data_PCOD8238642
_publ_section_title
;
Structure prediction by ZEFSAII (Michael W. Deem and Ramdas Pophale) SiO2 
 PCOD8238642
Probable space group: P N N M
;
_chemical_formula_sum "Si O2"
_cell_formula_units_Z 20
_cell_length_a 11.514878
_cell_length_b 13.728500
_cell_length_c 7.156928
_cell_angle_alpha 90.000000
_cell_angle_beta 90.000000
_cell_angle_gamma 90.000000
_cell_volume 1131.381511
_symmetry_space_group_name_H-M "P N N M"
_symmetry_group_IT_number 58
_symmetry_cell_setting 'orthorhombic'
loop_
_space_group_symop_operation_xyz
x,y,z
-x,-y,z
1/2+x,1/2-y,1/2-z
1/2-x,1/2+y,1/2-z
-x,-y,-z
x,y,-z
1/2-x,1/2+y,1/2+z
1/2+x,1/2-y,1/2+z
loop_
_atom_site_type_symbol
_atom_site_label
_atom_site_fract_x
_atom_site_fract_y
_atom_site_fract_z
Si Si1 0.218785 0.187260 0.500000
Si Si2 0.137980 0.486796 0.000000
Si Si3 0.967340 0.110159 0.500000
Si Si4 0.725547 0.632842 0.292962
O O1 0.082203 0.172587 0.500000
O O2 0.243923 0.252241 0.314854
O O3 0.295386 0.089880 0.500000
O O4 0.174710 0.425854 0.817169
O O5 0.000000 0.500000 0.000000
O O6 0.895794 0.131062 0.313359
O O7 0.000000 0.000000 0.500000
O O8 0.712444 0.584976 0.500000
#
# Coordination Sequence:
#
# PCOD8238642 Si02
#       4
#     4   4   4   8
#     4  10  23  41  60  93 124 162 203 254 307 362
#     4  11  23  44  61  92 133 156 205 268 293 369
#     4  11  20  44  63  87 128 154 217 264 283 371
#     4   9  23  41  60  94 118 166 211 237 322 362
#
# _framework density 17.677503000000002
#
# number of rings (size 3 to 8) (size 9 to 14) (size 15 to 20)
#    1.200    0.800    4.000    0.000    5.600    1.600 
#   10.800    0.000    0.000    0.000    0.000    0.000 
#    0.000    0.000    0.000    0.000    0.000    0.000 
#
# Total GULP energy -247815.419126 kJ/mol
# GULP energy per Si atom -12390.770956 kJ/mol
# Density = 1.763727 g / cm^3
# Si number density = 17.677503 Si / 1000 Ang^3
#
#
#
# Elastic Constant Matrix: (Units=GPa)
#
#
# Indices 1 2 3 4 5 6 
#
# 1 178.8604 63.0662 70.7222 0.0000 0.0000 0.0000
# 2 63.0662 129.7350 54.5619 0.0000 0.0000 0.0000
# 3 70.7222 54.5619 151.4435 0.0000 0.0000 0.0000
# 4 0.0000 0.0000 0.0000 36.7945 0.0000 0.0000
# 5 0.0000 0.0000 0.0000 0.0000 25.9011 0.0000
# 6 0.0000 0.0000 0.0000 0.0000 0.0000 40.2861
#
#
#
# Elastic Compliance Matrix: (Units=1/GPa)
#
#
# Indices 1 2 3 4 5 6 
#
# 1 0.007519 -0.002567 -0.002586 0.000000 0.000000 0.000000
# 2 -0.002567 0.009961 -0.002390 0.000000 0.000000 0.000000
# 3 -0.002586 -0.002390 0.008672 0.000000 0.000000 0.000000
# 4 0.000000 0.000000 0.000000 0.027178 0.000000 0.000000
# 5 0.000000 0.000000 0.000000 0.000000 0.038608 0.000000
# 6 0.000000 0.000000 0.000000 0.000000 0.000000 0.024822
#
#
# Mechanical properties :
#
#
# Convention : Reuss Voigt Hill
#
# Bulk Modulus (GPa) = 90.37553 92.97108 91.67330
# Shear Modulus (GPa) = 36.89060 38.70890 37.79975
#
# Velocity S-wave (km/s) = 4.57318 4.68453 4.62919
# Velocity P-wave (km/s) = 8.89499 9.05355 8.97462
#
# Compressibility (1/GPa) = 0.01106494
#
# Stress axis : x y z
#
# Youngs Moduli (GPa) = 132.99997 100.39019 115.31523
#
# Poissons Ratio (x) = 0.25773 0.29823
# Poissons Ratio (y) = 0.34145 0.27559
# Poissons Ratio (z) = 0.34397 0.23992
#
# Static dielectric constant tensor:
#      x y z
#    x 3.207560 0.000000 0.000000 
#    y 0.000000 3.331980 0.000000 
#    z 0.000000 0.000000 3.203050 
# 
# 
# High freq. dielectric constant tensor:
#      x y z
#    x 1.691940 0.000000 0.000000 
#    y 0.000000 1.689140 0.000000 
#    z 0.000000 0.000000 1.683100 
# 
# From -- ./inp_files/392.got.cif
#   From: 2010.06.25/outbox.cif.g09.slc.cpg/sg58_1_cif.got.tgz:392.got - 2010.06.26 21:38:00.
