data_PCOD8238047
_publ_section_title
;
Structure prediction by ZEFSAII (Michael W. Deem and Ramdas Pophale) SiO2 
 PCOD8238047
Probable space group: P N N M
;
_chemical_formula_sum "Si O2"
_cell_formula_units_Z 64
_cell_length_a 15.368477
_cell_length_b 24.462901
_cell_length_c 8.966068
_cell_angle_alpha 90.000000
_cell_angle_beta 90.000000
_cell_angle_gamma 90.000000
_cell_volume 3370.860791
_symmetry_space_group_name_H-M "P N N M"
_symmetry_group_IT_number 58
_symmetry_cell_setting 'orthorhombic'
loop_
_space_group_symop_operation_xyz
x,y,z
-x,-y,z
1/2+x,1/2-y,1/2-z
1/2-x,1/2+y,1/2-z
-x,-y,-z
x,y,-z
1/2-x,1/2+y,1/2+z
1/2+x,1/2-y,1/2+z
loop_
_atom_site_type_symbol
_atom_site_label
_atom_site_fract_x
_atom_site_fract_y
_atom_site_fract_z
Si Si1 0.331883 0.067375 0.327194
Si Si2 0.448510 0.222982 0.831829
Si Si3 0.172834 0.439681 0.171836
Si Si4 0.777911 0.256329 0.175489
Si Si5 0.486453 0.345284 0.172503
Si Si6 0.824077 0.857105 0.677196
Si Si7 0.690485 0.636417 0.322976
Si Si8 0.005428 0.393577 0.672293
O O1 0.351270 0.081644 0.500000
O O2 0.244723 0.097611 0.268042
O O3 0.412095 0.085956 0.227005
O O4 0.315053 0.003715 0.305312
O O5 0.369113 0.216109 0.718747
O O6 0.497297 0.280071 0.803790
O O7 0.513913 0.172115 0.806717
O O8 0.411080 0.221079 0.000000
O O9 0.250725 0.411529 0.260174
O O10 0.079374 0.422368 0.232572
O O11 0.178499 0.422667 0.000000
O O12 0.702898 0.296545 0.237204
O O13 0.771917 0.194490 0.239120
O O14 0.773884 0.252583 0.000000
O O15 0.577812 0.371001 0.230885
O O16 0.408631 0.370940 0.268313
O O17 0.468644 0.359487 0.000000
O O18 0.824368 0.855106 0.500000
O O19 0.691811 0.633796 0.500000
O O20 0.017250 0.410038 0.500000
#
# Coordination Sequence:
#
# PCOD8238047 Si02
#       8
#     8   8   8   8   8   8   8   8
#     4  10  21  39  59  81 110 145 194 238 274 329
#     4   9  18  31  50  79 114 145 174 213 266 329
#     4  11  24  39  57  79 107 149 194 237 278 329
#     4   9  17  31  55  80 108 144 180 221 272 325
#     4   9  18  34  57  81 112 147 181 223 275 332
#     4   9  17  32  58  84 106 141 185 231 275 320
#     4  10  21  37  57  82 113 145 183 232 282 332
#     4  11  22  35  55  84 117 149 182 226 282 339
#
# _framework density 18.986249000000001
#
# number of rings (size 3 to 8) (size 9 to 14) (size 15 to 20)
#    0.000    2.250    1.250    1.500    1.750    3.500 
#    0.000    1.875    0.000    3.750    0.000    0.000 
#    0.000    0.000    0.000    0.000    0.000    0.000 
#
# Total GULP energy -793424.074894 kJ/mol
# GULP energy per Si atom -12397.251170 kJ/mol
# Density = 1.894304 g / cm^3
# Si number density = 18.986249 Si / 1000 Ang^3
#
#
#
# Elastic Constant Matrix: (Units=GPa)
#
#
# Indices 1 2 3 4 5 6 
#
# 1 136.9991 55.9779 35.8258 0.0000 0.0000 0.0000
# 2 55.9779 73.6198 30.9958 0.0000 0.0000 0.0000
# 3 35.8258 30.9958 49.2956 0.0000 0.0000 0.0000
# 4 0.0000 0.0000 0.0000 22.5809 0.0000 0.0000
# 5 0.0000 0.0000 0.0000 0.0000 23.4962 0.0000
# 6 0.0000 0.0000 0.0000 0.0000 0.0000 25.2887
#
#
#
# Elastic Compliance Matrix: (Units=1/GPa)
#
#
# Indices 1 2 3 4 5 6 
#
# 1 0.011075 -0.006844 -0.003746 0.000000 0.000000 0.000000
# 2 -0.006844 0.022704 -0.009301 0.000000 0.000000 0.000000
# 3 -0.003746 -0.009301 0.028856 0.000000 0.000000 0.000000
# 4 0.000000 0.000000 0.000000 0.044285 0.000000 0.000000
# 5 0.000000 0.000000 0.000000 0.000000 0.042560 0.000000
# 6 0.000000 0.000000 0.000000 0.000000 0.000000 0.039543
#
#
# Mechanical properties :
#
#
# Convention : Reuss Voigt Hill
#
# Bulk Modulus (GPa) = 43.75807 56.16817 49.96312
# Shear Modulus (GPa) = 21.14845 23.41415 22.28130
#
# Velocity S-wave (km/s) = 3.34111 3.51553 3.42943
# Velocity P-wave (km/s) = 6.16290 6.79164 6.48489
#
# Compressibility (1/GPa) = 0.02285293
#
# Stress axis : x y z
#
# Youngs Moduli (GPa) = 90.29007 44.04588 34.65459
#
# Poissons Ratio (x) = 0.30147 0.12980
# Poissons Ratio (y) = 0.61798 0.32233
# Poissons Ratio (z) = 0.33818 0.40968
#
# Static dielectric constant tensor:
#      x y z
#    x 3.568150 0.000000 0.000000 
#    y 0.000000 3.616910 0.000000 
#    z 0.000000 0.000000 3.382160 
# 
# 
# High freq. dielectric constant tensor:
#      x y z
#    x 1.736560 0.000000 0.000000 
#    y 0.000000 1.735420 0.000000 
#    z 0.000000 0.000000 1.723260 
# 
# From -- ./inp_files/6776.got.cif
#   From: 2010.06.25/outbox.cif.g09.slc.cpg/sg58_4_cif.got.tgz:6776.got - 2010.06.26 21:38:00.
