data_PCOD8238947
_publ_section_title
;
Structure prediction by ZEFSAII (Michael W. Deem and Ramdas Pophale) SiO2 
 PCOD8238947
Probable space group: P N N M
;
_chemical_formula_sum "Si O2"
_cell_formula_units_Z 40
_cell_length_a 4.909962
_cell_length_b 11.351593
_cell_length_c 30.148927
_cell_angle_alpha 90.000000
_cell_angle_beta 90.000000
_cell_angle_gamma 90.000000
_cell_volume 1680.377287
_symmetry_space_group_name_H-M "P N N M"
_symmetry_group_IT_number 58
_symmetry_cell_setting 'orthorhombic'
loop_
_space_group_symop_operation_xyz
x,y,z
-x,-y,z
1/2+x,1/2-y,1/2-z
1/2-x,1/2+y,1/2-z
-x,-y,-z
x,y,-z
1/2-x,1/2+y,1/2+z
1/2+x,1/2-y,1/2+z
loop_
_atom_site_type_symbol
_atom_site_label
_atom_site_fract_x
_atom_site_fract_y
_atom_site_fract_z
Si Si1 0.855467 0.374947 0.092060
Si Si2 0.736395 0.921994 0.119461
Si Si3 0.741021 0.082905 0.245836
Si Si4 0.643208 0.737835 0.051686
Si Si5 0.005739 0.738152 0.180143
O O1 0.554418 0.365874 0.070703
O O2 0.000000 0.500000 0.089543
O O3 0.043398 0.290524 0.062338
O O4 0.824904 0.331866 0.142761
O O5 0.597734 0.862945 0.075925
O O6 0.796129 0.825237 0.156568
O O7 0.500000 0.000000 0.141156
O O8 0.000000 0.000000 0.107609
O O9 0.664307 0.142883 0.292258
O O10 0.789531 0.187387 0.210735
O O11 0.500000 0.000000 0.228255
O O12 0.000000 0.000000 0.253496
O O13 0.592566 0.752731 0.000000
#
# Coordination Sequence:
#
# PCOD8238947 Si02
#       5
#     8   8   8   8   8
#     4  11  25  44  69  97 134 176 217 272 333 395
#     4  11  25  44  69  97 133 178 220 272 336 397
#     4  12  28  46  70 100 136 180 228 283 338 398
#     4  11  25  44  68 101 134 170 221 274 328 399
#     4  11  27  46  68 100 136 175 228 277 331 399
#
# _framework density 23.804178
#
# number of rings (size 3 to 8) (size 9 to 14) (size 15 to 20)
#    0.000    0.800    0.000    6.000    0.000   25.600 
#    0.000    0.000    0.000    0.000    0.000    0.000 
#    0.000    0.000    0.000    0.000    0.000    0.000 
#
# Total GULP energy -496066.891302 kJ/mol
# GULP energy per Si atom -12401.672283 kJ/mol
# Density = 2.375000 g / cm^3
# Si number density = 23.804178 Si / 1000 Ang^3
#
#
#
# Elastic Constant Matrix: (Units=GPa)
#
#
# Indices 1 2 3 4 5 6 
#
# 1 116.0206 24.1276 30.1037 0.0000 0.0000 0.0000
# 2 24.1276 86.6555 24.8388 0.0000 0.0000 0.0000
# 3 30.1037 24.8388 152.2697 0.0000 0.0000 0.0000
# 4 0.0000 0.0000 0.0000 15.0066 0.0000 0.0000
# 5 0.0000 0.0000 0.0000 0.0000 21.9106 0.0000
# 6 0.0000 0.0000 0.0000 0.0000 0.0000 39.5693
#
#
#
# Elastic Compliance Matrix: (Units=1/GPa)
#
#
# Indices 1 2 3 4 5 6 
#
# 1 0.009470 -0.002203 -0.001513 0.000000 0.000000 0.000000
# 2 -0.002203 0.012619 -0.001623 0.000000 0.000000 0.000000
# 3 -0.001513 -0.001623 0.007131 0.000000 0.000000 0.000000
# 4 0.000000 0.000000 0.000000 0.066637 0.000000 0.000000
# 5 0.000000 0.000000 0.000000 0.000000 0.045640 0.000000
# 6 0.000000 0.000000 0.000000 0.000000 0.000000 0.025272
#
#
# Mechanical properties :
#
#
# Convention : Reuss Voigt Hill
#
# Bulk Modulus (GPa) = 53.93155 57.00957 55.47056
# Shear Modulus (GPa) = 27.22911 33.68902 30.45907
#
# Velocity S-wave (km/s) = 3.38580 3.76607 3.58099
# Velocity P-wave (km/s) = 6.16363 6.55076 6.36014
#
# Compressibility (1/GPa) = 0.01854202
#
# Stress axis : x y z
#
# Youngs Moduli (GPa) = 105.59845 79.24859 140.23085
#
# Poissons Ratio (x) = 0.17459 0.21214
# Poissons Ratio (y) = 0.23264 0.22757
# Poissons Ratio (z) = 0.15975 0.12861
#
# Static dielectric constant tensor:
#      x y z
#    x 4.525230 0.000000 0.000000 
#    y 0.000000 4.706820 0.000000 
#    z 0.000000 0.000000 4.350460 
# 
# 
# High freq. dielectric constant tensor:
#      x y z
#    x 1.951210 0.000000 0.000000 
#    y 0.000000 1.956490 0.000000 
#    z 0.000000 0.000000 1.943610 
# 
# From -- ./inp_files/32647.got.cif
#   From: 2010.06.25/outbox.cif.g09.slc.cpg/sg58_17_cif.got.tgz:32647.got - 2010.06.26 21:38:00.
