data_PCOD8238961
_publ_section_title
;
Structure prediction by ZEFSAII (Michael W. Deem and Ramdas Pophale) SiO2 
 PCOD8238961
Probable space group: P N N M
;
_chemical_formula_sum "Si O2"
_cell_formula_units_Z 32
_cell_length_a 12.885307
_cell_length_b 4.900748
_cell_length_c 21.648822
_cell_angle_alpha 90.000000
_cell_angle_beta 90.000000
_cell_angle_gamma 90.000000
_cell_volume 1367.072072
_symmetry_space_group_name_H-M "P N N M"
_symmetry_group_IT_number 58
_symmetry_cell_setting 'orthorhombic'
loop_
_space_group_symop_operation_xyz
x,y,z
-x,-y,z
1/2+x,1/2-y,1/2-z
1/2-x,1/2+y,1/2-z
-x,-y,-z
x,y,-z
1/2-x,1/2+y,1/2+z
1/2+x,1/2-y,1/2+z
loop_
_atom_site_type_symbol
_atom_site_label
_atom_site_fract_x
_atom_site_fract_y
_atom_site_fract_z
Si Si1 0.931959 0.247518 0.128578
Si Si2 0.319539 0.259082 0.250334
Si Si3 0.725456 0.387928 0.929901
Si Si4 0.887470 0.404032 0.377724
O O1 0.881886 0.124986 0.191155
O O2 0.849575 0.376944 0.080197
O O3 0.000000 0.500000 0.150151
O O4 0.000000 0.000000 0.098774
O O5 0.237617 0.483933 0.227714
O O6 0.395762 0.197194 0.192781
O O7 0.669124 0.677671 0.919746
O O8 0.682473 0.172506 0.880574
O O9 0.701755 0.299396 0.000000
O O10 0.000000 0.500000 0.402732
#
# Coordination Sequence:
#
# PCOD8238961 Si02
#       4
#     8   8   8   8
#     4  12  25  43  71 102 136 179 228 282 351 417
#     4  12  22  43  71 100 140 177 218 288 358 417
#     4  12  27  47  69  99 141 186 236 290 339 408
#     4  12  25  45  72 103 137 183 231 287 353 417
#
# _framework density 23.407689999999999
#
# number of rings (size 3 to 8) (size 9 to 14) (size 15 to 20)
#    0.000    0.000    5.000    5.250    0.000    6.000 
#    0.000    0.000    0.000    0.000    0.000    0.000 
#    0.000    0.000    0.000    0.000    0.000    0.000 
#
# Total GULP energy -396861.623795 kJ/mol
# GULP energy per Si atom -12401.925744 kJ/mol
# Density = 2.335441 g / cm^3
# Si number density = 23.407690 Si / 1000 Ang^3
#
#
#
# Elastic Constant Matrix: (Units=GPa)
#
#
# Indices 1 2 3 4 5 6 
#
# 1 125.6116 58.2754 35.1221 0.0000 0.0000 0.0000
# 2 58.2754 130.9388 10.0430 0.0000 0.0000 0.0000
# 3 35.1221 10.0430 76.5273 0.0000 0.0000 0.0000
# 4 0.0000 0.0000 0.0000 11.7405 0.0000 0.0000
# 5 0.0000 0.0000 0.0000 0.0000 6.2624 0.0000
# 6 0.0000 0.0000 0.0000 0.0000 0.0000 54.4235
#
#
#
# Elastic Compliance Matrix: (Units=1/GPa)
#
#
# Indices 1 2 3 4 5 6 
#
# 1 0.011458 -0.004744 -0.004636 0.000000 0.000000 0.000000
# 2 -0.004744 0.009679 0.000907 0.000000 0.000000 0.000000
# 3 -0.004636 0.000907 0.015076 0.000000 0.000000 0.000000
# 4 0.000000 0.000000 0.000000 0.085175 0.000000 0.000000
# 5 0.000000 0.000000 0.000000 0.000000 0.159682 0.000000
# 6 0.000000 0.000000 0.000000 0.000000 0.000000 0.018374
#
#
# Mechanical properties :
#
#
# Convention : Reuss Voigt Hill
#
# Bulk Modulus (GPa) = 51.90248 59.99542 55.94895
# Shear Modulus (GPa) = 15.48879 29.79441 22.64160
#
# Velocity S-wave (km/s) = 2.57514 3.57157 3.11347
# Velocity P-wave (km/s) = 5.57343 6.53410 6.07279
#
# Compressibility (1/GPa) = 0.01926690
#
# Stress axis : x y z
#
# Youngs Moduli (GPa) = 87.27316 103.31703 66.33070
#
# Poissons Ratio (x) = 0.49014 0.30752
# Poissons Ratio (y) = 0.41402 -0.06016
# Poissons Ratio (z) = 0.40461 -0.09371
#
# Static dielectric constant tensor:
#      x y z
#    x 4.611020 0.000000 0.000000 
#    y 0.000000 4.244410 0.000000 
#    z 0.000000 0.000000 3.839780 
# 
# 
# High freq. dielectric constant tensor:
#      x y z
#    x 1.930480 0.000000 0.000000 
#    y 0.000000 1.937820 0.000000 
#    z 0.000000 0.000000 1.913730 
# 
# From -- ./inp_files/27918.got.cif
#   From: 2010.06.25/outbox.cif.g09.slc.cpg/sg58_14_cif.got.tgz:27918.got - 2010.06.26 21:38:00.
