data_PCOD8238456
_publ_section_title
;
Structure prediction by ZEFSAII (Michael W. Deem and Ramdas Pophale) SiO2 
 PCOD8238456
Probable space group: P N N M
;
_chemical_formula_sum "Si O2"
_cell_formula_units_Z 40
_cell_length_a 9.380550
_cell_length_b 20.918975
_cell_length_c 9.930700
_cell_angle_alpha 90.000000
_cell_angle_beta 90.000000
_cell_angle_gamma 90.000000
_cell_volume 1948.716067
_symmetry_space_group_name_H-M "P N N M"
_symmetry_group_IT_number 58
_symmetry_cell_setting 'orthorhombic'
loop_
_space_group_symop_operation_xyz
x,y,z
-x,-y,z
1/2+x,1/2-y,1/2-z
1/2-x,1/2+y,1/2-z
-x,-y,-z
x,y,-z
1/2-x,1/2+y,1/2+z
1/2+x,1/2-y,1/2+z
loop_
_atom_site_type_symbol
_atom_site_label
_atom_site_fract_x
_atom_site_fract_y
_atom_site_fract_z
Si Si1 0.672065 0.194702 0.145972
Si Si2 0.081519 0.439787 0.719255
Si Si3 0.155942 0.004923 0.652420
Si Si4 0.366825 0.239059 0.157634
Si Si5 0.167114 0.625127 0.147916
O O1 0.609368 0.122843 0.129447
O O2 0.538096 0.242568 0.173899
O O3 0.788770 0.201902 0.265252
O O4 0.739166 0.211971 0.000000
O O5 0.236010 0.460473 0.767865
O O6 0.000000 0.500000 0.645318
O O7 0.976690 0.417450 0.839585
O O8 0.151050 0.979166 0.500000
O O9 0.197919 0.078990 0.658309
O O10 0.000000 0.000000 0.719722
O O11 0.311368 0.176012 0.233910
O O12 0.322290 0.238254 0.000000
O O13 0.162570 0.658016 0.000000
#
# Coordination Sequence:
#
# PCOD8238456 Si02
#       5
#     8   8   8   8   8
#     4  10  22  39  59  84 113 148 190 235 286 342
#     4   9  18  33  54  80 110 144 185 227 276 335
#     4   9  17  29  48  77 109 139 175 222 272 321
#     4  10  22  38  56  80 109 143 184 230 281 335
#     4   9  17  32  54  76 103 141 181 222 269 327
#
# _framework density 20.526337000000002
#
# number of rings (size 3 to 8) (size 9 to 14) (size 15 to 20)
#    0.000    2.600    0.000    1.200    0.000    9.200 
#    0.000    7.000    0.000    1.200    0.000    0.000 
#    0.000    0.000    0.000    0.000    0.000    0.000 
#
# Total GULP energy -495545.387398 kJ/mol
# GULP energy per Si atom -12388.634685 kJ/mol
# Density = 2.047962 g / cm^3
# Si number density = 20.526337 Si / 1000 Ang^3
#
#
#
# Elastic Constant Matrix: (Units=GPa)
#
#
# Indices 1 2 3 4 5 6 
#
# 1 112.5811 25.7749 34.4365 0.0000 0.0000 0.0000
# 2 25.7749 75.3143 25.1123 0.0000 0.0000 0.0000
# 3 34.4365 25.1123 122.2279 0.0000 0.0000 0.0000
# 4 0.0000 0.0000 0.0000 14.6899 0.0000 0.0000
# 5 0.0000 0.0000 0.0000 0.0000 6.0784 0.0000
# 6 0.0000 0.0000 0.0000 0.0000 0.0000 31.2738
#
#
#
# Elastic Compliance Matrix: (Units=1/GPa)
#
#
# Indices 1 2 3 4 5 6 
#
# 1 0.010215 -0.002723 -0.002319 0.000000 0.000000 0.000000
# 2 -0.002723 0.014980 -0.002311 0.000000 0.000000 0.000000
# 3 -0.002319 -0.002311 0.009309 0.000000 0.000000 0.000000
# 4 0.000000 0.000000 0.000000 0.068074 0.000000 0.000000
# 5 0.000000 0.000000 0.000000 0.000000 0.164518 0.000000
# 6 0.000000 0.000000 0.000000 0.000000 0.000000 0.031976
#
#
# Mechanical properties :
#
#
# Convention : Reuss Voigt Hill
#
# Bulk Modulus (GPa) = 50.50387 53.41898 51.96143
# Shear Modulus (GPa) = 15.60667 25.39503 20.50085
#
# Velocity S-wave (km/s) = 2.76039 3.52119 3.16374
# Velocity P-wave (km/s) = 5.90064 6.52785 6.22215
#
# Compressibility (1/GPa) = 0.01980046
#
# Stress axis : x y z
#
# Youngs Moduli (GPa) = 97.89450 66.75584 107.41832
#
# Poissons Ratio (x) = 0.18176 0.24906
# Poissons Ratio (y) = 0.26655 0.24820
# Poissons Ratio (z) = 0.22698 0.15424
#
# Static dielectric constant tensor:
#      x y z
#    x 3.794940 0.000000 0.000000 
#    y 0.000000 3.704300 0.000000 
#    z 0.000000 0.000000 3.514300 
# 
# 
# High freq. dielectric constant tensor:
#      x y z
#    x 1.800230 0.000000 0.000000 
#    y 0.000000 1.798890 0.000000 
#    z 0.000000 0.000000 1.783140 
# 
# From -- ./inp_files/2444.got.cif
#   From: 2010.06.25/outbox.cif.g09.slc.cpg/sg58_2_cif.got.tgz:2444.got - 2010.06.26 21:38:00.
