data_PCOD8238996
_publ_section_title
;
Structure prediction by ZEFSAII (Michael W. Deem and Ramdas Pophale) SiO2 
 PCOD8238996
Probable space group: P N N M
;
_chemical_formula_sum "Si O2"
_cell_formula_units_Z 32
_cell_length_a 9.366706
_cell_length_b 16.567169
_cell_length_c 12.170731
_cell_angle_alpha 90.000000
_cell_angle_beta 90.000000
_cell_angle_gamma 90.000000
_cell_volume 1888.651618
_symmetry_space_group_name_H-M "P N N M"
_symmetry_group_IT_number 58
_symmetry_cell_setting 'orthorhombic'
loop_
_space_group_symop_operation_xyz
x,y,z
-x,-y,z
1/2+x,1/2-y,1/2-z
1/2-x,1/2+y,1/2-z
-x,-y,-z
x,y,-z
1/2-x,1/2+y,1/2+z
1/2+x,1/2-y,1/2+z
loop_
_atom_site_type_symbol
_atom_site_label
_atom_site_fract_x
_atom_site_fract_y
_atom_site_fract_z
Si Si1 0.044467 0.591512 0.877188
Si Si2 0.240524 0.657434 0.288937
Si Si3 0.207114 0.563010 0.500000
Si Si4 0.934875 0.704628 0.711048
Si Si5 0.621530 0.113421 0.000000
O O1 0.195198 0.600001 0.813049
O O2 0.000000 0.500000 0.877992
O O3 0.922311 0.642336 0.813395
O O4 0.061071 0.625777 0.000000
O O5 0.282509 0.601496 0.392656
O O6 0.374300 0.709891 0.249948
O O7 0.103658 0.714704 0.319464
O O8 0.224298 0.465502 0.500000
O O9 0.040422 0.583317 0.500000
O O10 0.847994 0.668125 0.607472
#
# Coordination Sequence:
#
# PCOD8238996 Si02
#       5
#     8   8   4   8   4
#     4   9  18  31  49  69  95 129 163 191 230 290
#     4   9  19  29  49  73  97 123 156 201 239 280
#     4   9  16  30  51  71  93 124 168 200 231 283
#     4   9  19  29  49  73  97 123 156 201 239 280
#     4   9  16  30  51  71  93 124 168 200 231 283
#
# _framework density 16.943304999999999
#
# number of rings (size 3 to 8) (size 9 to 14) (size 15 to 20)
#    1.500    1.500    0.000    1.500    3.500    0.000 
#    0.000    0.000    0.000    7.500    0.000    3.500 
#    0.000    0.000    0.000    0.000    0.000    0.000 
#
# Total GULP energy -396433.993245 kJ/mol
# GULP energy per Si atom -12388.562289 kJ/mol
# Density = 1.690474 g / cm^3
# Si number density = 16.943305 Si / 1000 Ang^3
#
#
#
# Elastic Constant Matrix: (Units=GPa)
#
#
# Indices 1 2 3 4 5 6 
#
# 1 13.6506 -7.5933 -5.8461 0.0000 0.0000 0.0000
# 2 -7.5933 23.3808 16.3672 0.0000 0.0000 0.0000
# 3 -5.8461 16.3672 141.1514 0.0000 0.0000 0.0000
# 4 0.0000 0.0000 0.0000 33.7903 0.0000 0.0000
# 5 0.0000 0.0000 0.0000 0.0000 13.3442 0.0000
# 6 0.0000 0.0000 0.0000 0.0000 0.0000 29.2294
#
#
#
# Elastic Compliance Matrix: (Units=1/GPa)
#
#
# Indices 1 2 3 4 5 6 
#
# 1 0.089426 0.028786 0.000366 0.000000 0.000000 0.000000
# 2 0.028786 0.055815 -0.005280 0.000000 0.000000 0.000000
# 3 0.000366 -0.005280 0.007712 0.000000 0.000000 0.000000
# 4 0.000000 0.000000 0.000000 0.029594 0.000000 0.000000
# 5 0.000000 0.000000 0.000000 0.000000 0.074939 0.000000
# 6 0.000000 0.000000 0.000000 0.000000 0.000000 0.034212
#
#
# Mechanical properties :
#
#
# Convention : Reuss Voigt Hill
#
# Bulk Modulus (GPa) = 4.98262 20.44870 12.71566
# Shear Modulus (GPa) = 16.08480 26.95645 21.52063
#
# Velocity S-wave (km/s) = 3.08446 3.99304 3.56779
# Velocity P-wave (km/s) = 3.95378 5.77531 4.94907
#
# Compressibility (1/GPa) = 0.20069770
#
# Stress axis : x y z
#
# Youngs Moduli (GPa) = 11.18244 17.91637 129.66873
#
# Poissons Ratio (x) = -0.51575 -0.04744
# Poissons Ratio (y) = -0.32190 0.68462
# Poissons Ratio (z) = -0.00409 0.09459
#
# Static dielectric constant tensor:
#      x y z
#    x 2.736650 0.000000 0.000000 
#    y 0.000000 2.933880 0.000000 
#    z 0.000000 0.000000 3.564170 
# 
# 
# High freq. dielectric constant tensor:
#      x y z
#    x 1.592950 0.000000 0.000000 
#    y 0.000000 1.641370 0.000000 
#    z 0.000000 0.000000 1.671610 
# 
# From -- ./inp_files/3733.got.cif
#   From: 2010.06.25/outbox.cif.g09.slc.cpg/sg58_2_cif.got.tgz:3733.got - 2010.06.26 21:38:00.
