data_PCOD8238611
_publ_section_title
;
Structure prediction by ZEFSAII (Michael W. Deem and Ramdas Pophale) SiO2 
 PCOD8238611
Probable space group: P N N M
;
_chemical_formula_sum "Si O2"
_cell_formula_units_Z 48
_cell_length_a 11.174084
_cell_length_b 13.684030
_cell_length_c 14.137296
_cell_angle_alpha 90.000000
_cell_angle_beta 90.000000
_cell_angle_gamma 90.000000
_cell_volume 2161.684460
_symmetry_space_group_name_H-M "P N N M"
_symmetry_group_IT_number 58
_symmetry_cell_setting 'orthorhombic'
loop_
_space_group_symop_operation_xyz
x,y,z
-x,-y,z
1/2+x,1/2-y,1/2-z
1/2-x,1/2+y,1/2-z
-x,-y,-z
x,y,-z
1/2-x,1/2+y,1/2+z
1/2+x,1/2-y,1/2+z
loop_
_atom_site_type_symbol
_atom_site_label
_atom_site_fract_x
_atom_site_fract_y
_atom_site_fract_z
Si Si1 0.735753 0.873281 0.610918
Si Si2 0.505211 0.154426 0.105257
Si Si3 0.700892 0.004184 0.895166
Si Si4 0.489317 0.230559 0.699255
Si Si5 0.115737 0.433593 0.897266
Si Si6 0.404679 0.578402 0.736659
O O1 0.761018 0.855635 0.500000
O O2 0.628512 0.801386 0.641708
O O3 0.852070 0.856217 0.675806
O O4 0.715426 0.988710 0.634716
O O5 0.405652 0.072036 0.112400
O O6 0.469836 0.230455 0.187371
O O7 0.638127 0.109385 0.123770
O O8 0.502349 0.202969 0.000000
O O9 0.803990 0.979330 0.821257
O O10 0.757844 0.002999 0.000000
O O11 0.597073 0.154605 0.675619
O O12 0.528414 0.340480 0.670669
O O13 0.000000 0.500000 0.907019
O O14 0.146362 0.387826 0.000000
O O15 0.500000 0.500000 0.774468
#
# Coordination Sequence:
#
# PCOD8238611 Si02
#       6
#     8   8   8   8   8   8
#     4  10  22  43  66  90 126 168 213 263 317 380
#     4   9  18  36  67  96 119 162 213 257 312 372
#     4   9  19  39  64  92 128 164 202 258 315 375
#     4  11  21  36  65  93 124 167 216 262 314 369
#     4   8  16  33  62  94 117 152 208 264 307 359
#     4  12  27  42  60  92 136 171 209 260 323 382
#
# _framework density 22.204906999999999
#
# number of rings (size 3 to 8) (size 9 to 14) (size 15 to 20)
#    0.000    2.167    1.667    3.500    4.667    5.333 
#    0.000    1.667    0.000    0.000    0.000    0.000 
#    0.000    0.000    0.000    0.000    0.000    0.000 
#
# Total GULP energy -594702.451220 kJ/mol
# GULP energy per Si atom -12389.634400 kJ/mol
# Density = 2.215437 g / cm^3
# Si number density = 22.204907 Si / 1000 Ang^3
#
#
#
# Elastic Constant Matrix: (Units=GPa)
#
#
# Indices 1 2 3 4 5 6 
#
# 1 87.7714 22.0653 44.9856 0.0000 0.0000 0.0000
# 2 22.0653 53.0946 11.1171 0.0000 0.0000 0.0000
# 3 44.9856 11.1171 125.1079 0.0000 0.0000 0.0000
# 4 0.0000 0.0000 0.0000 16.2144 0.0000 0.0000
# 5 0.0000 0.0000 0.0000 0.0000 37.0336 0.0000
# 6 0.0000 0.0000 0.0000 0.0000 0.0000 25.8488
#
#
#
# Elastic Compliance Matrix: (Units=1/GPa)
#
#
# Indices 1 2 3 4 5 6 
#
# 1 0.015307 -0.005308 -0.005032 0.000000 0.000000 0.000000
# 2 -0.005308 0.021032 0.000040 0.000000 0.000000 0.000000
# 3 -0.005032 0.000040 0.009799 0.000000 0.000000 0.000000
# 4 0.000000 0.000000 0.000000 0.061674 0.000000 0.000000
# 5 0.000000 0.000000 0.000000 0.000000 0.027003 0.000000
# 6 0.000000 0.000000 0.000000 0.000000 0.000000 0.038687
#
#
# Mechanical properties :
#
#
# Convention : Reuss Voigt Hill
#
# Bulk Modulus (GPa) = 39.15880 46.92331 43.04106
# Shear Modulus (GPa) = 24.67757 28.33974 26.50866
#
# Velocity S-wave (km/s) = 3.33732 3.57639 3.45892
# Velocity P-wave (km/s) = 5.70296 6.18319 5.94793
#
# Compressibility (1/GPa) = 0.02553704
#
# Stress axis : x y z
#
# Youngs Moduli (GPa) = 65.33072 47.54710 102.05060
#
# Poissons Ratio (x) = 0.25236 0.51355
# Poissons Ratio (y) = 0.34675 -0.00404
# Poissons Ratio (z) = 0.32876 -0.00188
#
# Static dielectric constant tensor:
#      x y z
#    x 4.049890 0.000000 0.000000 
#    y 0.000000 4.089740 0.000000 
#    z 0.000000 0.000000 4.185200 
# 
# 
# High freq. dielectric constant tensor:
#      x y z
#    x 1.852610 0.000000 0.000000 
#    y 0.000000 1.851370 0.000000 
#    z 0.000000 0.000000 1.882560 
# 
# From -- ./inp_files/21169.got.cif
#   From: 2010.06.25/outbox.cif.g09.slc.cpg/sg58_11_cif.got.tgz:21169.got - 2010.06.26 21:38:00.
