data_PCOD8238259
_publ_section_title
;
Structure prediction by ZEFSAII (Michael W. Deem and Ramdas Pophale) SiO2 
 PCOD8238259
Probable space group: P N N M
;
_chemical_formula_sum "Si O2"
_cell_formula_units_Z 64
_cell_length_a 24.020530
_cell_length_b 15.239283
_cell_length_c 8.982044
_cell_angle_alpha 90.000000
_cell_angle_beta 90.000000
_cell_angle_gamma 90.000000
_cell_volume 3287.927995
_symmetry_space_group_name_H-M "P N N M"
_symmetry_group_IT_number 58
_symmetry_cell_setting 'orthorhombic'
loop_
_space_group_symop_operation_xyz
x,y,z
-x,-y,z
1/2+x,1/2-y,1/2-z
1/2-x,1/2+y,1/2-z
-x,-y,-z
x,y,-z
1/2-x,1/2+y,1/2+z
1/2+x,1/2-y,1/2+z
loop_
_atom_site_type_symbol
_atom_site_label
_atom_site_fract_x
_atom_site_fract_y
_atom_site_fract_z
Si Si1 0.246603 0.399598 0.823137
Si Si2 0.375431 0.662361 0.825244
Si Si3 0.974751 0.905160 0.168940
Si Si4 0.124945 0.341953 0.175380
Si Si5 0.255940 0.597789 0.823833
Si Si6 0.550487 0.757508 0.325309
Si Si7 0.977631 0.597101 0.668208
Si Si8 0.178493 0.755184 0.176571
O O1 0.187311 0.361774 0.771750
O O2 0.247512 0.499475 0.761772
O O3 0.294842 0.341882 0.749159
O O4 0.254592 0.396211 0.000000
O O5 0.422365 0.592523 0.780851
O O6 0.393418 0.747652 0.734189
O O7 0.315835 0.630025 0.767850
O O8 0.374929 0.681236 0.000000
O O9 0.020297 0.833164 0.217855
O O10 0.954853 0.887060 0.000000
O O11 0.000000 0.000000 0.184631
O O12 0.081241 0.409021 0.246561
O O13 0.119197 0.347460 0.000000
O O14 0.209581 0.666672 0.765447
O O15 0.253212 0.594010 0.000000
O O16 0.547478 0.776220 0.500000
O O17 0.521576 0.838332 0.244238
O O18 0.614557 0.750822 0.272736
O O19 0.967976 0.629783 0.500000
O O20 0.000000 0.500000 0.672966
O O21 0.184657 0.764805 0.000000
#
# Coordination Sequence:
#
# PCOD8238259 Si02
#       8
#     8   8   8   8   8   8   8   8
#     4  10  22  39  60  87 118 154 197 244 293 349
#     4  11  21  37  62  87 117 155 197 245 300 355
#     4  10  22  39  58  86 122 156 198 248 293 346
#     4  11  22  38  63  89 116 153 201 250 297 349
#     4   9  20  38  58  84 118 154 192 238 290 350
#     4  10  22  39  61  87 118 161 201 239 292 351
#     4  11  25  42  61  88 122 157 195 245 301 352
#     4  10  21  39  61  85 118 156 196 239 291 350
#
# _framework density 19.465146000000001
#
# number of rings (size 3 to 8) (size 9 to 14) (size 15 to 20)
#    0.000    1.750    2.500    1.125    3.500    2.250 
#    0.000    1.250    0.000    0.000    0.000    0.000 
#    0.000    0.000    0.000    0.000    0.000    0.000 
#
# Total GULP energy -793718.833136 kJ/mol
# GULP energy per Si atom -12401.856768 kJ/mol
# Density = 1.942084 g / cm^3
# Si number density = 19.465146 Si / 1000 Ang^3
#
#
#
# Elastic Constant Matrix: (Units=GPa)
#
#
# Indices 1 2 3 4 5 6 
#
# 1 147.7725 43.4418 47.5950 0.0000 0.0000 0.0000
# 2 43.4418 109.8879 27.6569 0.0000 0.0000 0.0000
# 3 47.5950 27.6569 54.3167 0.0000 0.0000 0.0000
# 4 0.0000 0.0000 0.0000 26.4625 0.0000 0.0000
# 5 0.0000 0.0000 0.0000 0.0000 29.0650 0.0000
# 6 0.0000 0.0000 0.0000 0.0000 0.0000 26.3286
#
#
#
# Elastic Compliance Matrix: (Units=1/GPa)
#
#
# Indices 1 2 3 4 5 6 
#
# 1 0.009783 -0.001961 -0.007574 0.000000 0.000000 0.000000
# 2 -0.001961 0.010831 -0.003796 0.000000 0.000000 0.000000
# 3 -0.007574 -0.003796 0.026980 0.000000 0.000000 0.000000
# 4 0.000000 0.000000 0.000000 0.037789 0.000000 0.000000
# 5 0.000000 0.000000 0.000000 0.000000 0.034406 0.000000
# 6 0.000000 0.000000 0.000000 0.000000 0.000000 0.037982
#
#
# Mechanical properties :
#
#
# Convention : Reuss Voigt Hill
#
# Bulk Modulus (GPa) = 47.77519 61.04050 54.40785
# Shear Modulus (GPa) = 26.12184 29.25678 27.68931
#
# Velocity S-wave (km/s) = 3.66728 3.88110 3.77571
# Velocity P-wave (km/s) = 6.52144 7.17711 6.85712
#
# Compressibility (1/GPa) = 0.02093137
#
# Stress axis : x y z
#
# Youngs Moduli (GPa) = 102.21658 92.32738 37.06439
#
# Poissons Ratio (x) = 0.18109 0.28072
# Poissons Ratio (y) = 0.20048 0.14071
# Poissons Ratio (z) = 0.77417 0.35050
#
# Static dielectric constant tensor:
#      x y z
#    x 3.764130 0.000000 0.000000 
#    y 0.000000 3.714270 0.000000 
#    z 0.000000 0.000000 3.448280 
# 
# 
# High freq. dielectric constant tensor:
#      x y z
#    x 1.772890 0.000000 0.000000 
#    y 0.000000 1.765530 0.000000 
#    z 0.000000 0.000000 1.742080 
# 
# From -- ./inp_files/10054.got.cif
#   From: 2010.06.25/outbox.cif.g09.slc.cpg/sg58_6_cif.got.tgz:10054.got - 2010.06.26 21:38:00.
