data_PCOD8238868
_publ_section_title
;
Structure prediction by ZEFSAII (Michael W. Deem and Ramdas Pophale) SiO2 
 PCOD8238868
Probable space group: P N N M
;
_chemical_formula_sum "Si O2"
_cell_formula_units_Z 40
_cell_length_a 18.207294
_cell_length_b 9.299791
_cell_length_c 10.861418
_cell_angle_alpha 90.000000
_cell_angle_beta 90.000000
_cell_angle_gamma 90.000000
_cell_volume 1839.099055
_symmetry_space_group_name_H-M "P N N M"
_symmetry_group_IT_number 58
_symmetry_cell_setting 'orthorhombic'
loop_
_space_group_symop_operation_xyz
x,y,z
-x,-y,z
1/2+x,1/2-y,1/2-z
1/2-x,1/2+y,1/2-z
-x,-y,-z
x,y,-z
1/2-x,1/2+y,1/2+z
1/2+x,1/2-y,1/2+z
loop_
_atom_site_type_symbol
_atom_site_label
_atom_site_fract_x
_atom_site_fract_y
_atom_site_fract_z
Si Si1 0.429055 0.187142 0.000000
Si Si2 0.959315 0.636417 0.858036
Si Si3 0.398734 0.864319 0.000000
Si Si4 0.048687 0.872387 0.724406
Si Si5 0.811648 0.012223 0.147167
Si Si6 0.818028 0.703093 0.258941
O O1 0.515189 0.158467 0.000000
O O2 0.408785 0.281049 0.879892
O O3 0.382941 0.037534 0.000000
O O4 0.871707 0.621912 0.837714
O O5 0.000000 0.500000 0.795661
O O6 0.989626 0.779510 0.797802
O O7 0.978599 0.641963 0.000000
O O8 0.364431 0.783296 0.884091
O O9 0.106936 0.933853 0.822012
O O10 0.000000 0.000000 0.664291
O O11 0.755526 0.116415 0.216339
O O12 0.796484 0.855881 0.202685
O O13 0.799660 0.013280 0.000000
#
# Coordination Sequence:
#
# PCOD8238868 Si02
#       6
#     4   8   4   8   8   8
#     4  11  23  40  78 108 140 182 228 306 348 417
#     4  11  24  44  73 106 140 184 240 295 354 424
#     4  11  22  46  72 104 143 177 234 291 358 411
#     4  12  24  44  73 105 142 186 241 290 354 414
#     4  12  29  49  70 102 145 188 232 291 357 419
#     4  12  26  48  71 101 141 187 233 288 353 422
#
# _framework density 21.749780000000001
#
# number of rings (size 3 to 8) (size 9 to 14) (size 15 to 20)
#    0.000    0.400    5.000    2.700    5.600    1.600 
#    5.400    0.000    0.000    0.000    0.000    0.000 
#    0.000    0.000    0.000    0.000    0.000    0.000 
#
# Total GULP energy -496087.679716 kJ/mol
# GULP energy per Si atom -12402.191993 kJ/mol
# Density = 2.170028 g / cm^3
# Si number density = 21.749780 Si / 1000 Ang^3
#
#
#
# Elastic Constant Matrix: (Units=GPa)
#
#
# Indices 1 2 3 4 5 6 
#
# 1 94.5325 48.1558 22.0505 0.0000 0.0000 0.0000
# 2 48.1558 136.8636 58.3461 0.0000 0.0000 0.0000
# 3 22.0505 58.3461 98.9337 0.0000 0.0000 0.0000
# 4 0.0000 0.0000 0.0000 35.6786 0.0000 0.0000
# 5 0.0000 0.0000 0.0000 0.0000 27.2652 0.0000
# 6 0.0000 0.0000 0.0000 0.0000 0.0000 44.2886
#
#
#
# Elastic Compliance Matrix: (Units=1/GPa)
#
#
# Indices 1 2 3 4 5 6 
#
# 1 0.012894 -0.004424 -0.000265 0.000000 0.000000 0.000000
# 2 -0.004424 0.011278 -0.005665 0.000000 0.000000 0.000000
# 3 -0.000265 -0.005665 0.013508 0.000000 0.000000 0.000000
# 4 0.000000 0.000000 0.000000 0.028028 0.000000 0.000000
# 5 0.000000 0.000000 0.000000 0.000000 0.036677 0.000000
# 6 0.000000 0.000000 0.000000 0.000000 0.000000 0.022579
#
#
# Mechanical properties :
#
#
# Convention : Reuss Voigt Hill
#
# Bulk Modulus (GPa) = 58.92089 65.27051 62.09570
# Shear Modulus (GPa) = 33.04057 34.89830 33.96944
#
# Velocity S-wave (km/s) = 3.90182 4.01001 3.95629
# Velocity P-wave (km/s) = 6.88826 7.17740 7.03432
#
# Compressibility (1/GPa) = 0.01697191
#
# Stress axis : x y z
#
# Youngs Moduli (GPa) = 77.55755 88.66625 74.03047
#
# Poissons Ratio (x) = 0.39224 0.01961
# Poissons Ratio (y) = 0.34310 0.41941
# Poissons Ratio (z) = 0.02054 0.50233
#
# Static dielectric constant tensor:
#      x y z
#    x 3.924810 0.000000 0.000000 
#    y 0.000000 4.229640 0.000000 
#    z 0.000000 0.000000 4.087580 
# 
# 
# High freq. dielectric constant tensor:
#      x y z
#    x 1.855460 0.000000 0.000000 
#    y 0.000000 1.865090 0.000000 
#    z 0.000000 0.000000 1.861300 
# 
# From -- ./inp_files/16895.got.cif
#   From: 2010.06.25/outbox.cif.g09.slc.cpg/sg58_9_cif.got.tgz:16895.got - 2010.06.26 21:38:00.
