data_PCOD8238909
_publ_section_title
;
Structure prediction by ZEFSAII (Michael W. Deem and Ramdas Pophale) SiO2 
 PCOD8238909
Probable space group: P N N M
;
_chemical_formula_sum "Si O2"
_cell_formula_units_Z 40
_cell_length_a 10.010088
_cell_length_b 8.699904
_cell_length_c 22.239678
_cell_angle_alpha 90.000000
_cell_angle_beta 90.000000
_cell_angle_gamma 90.000000
_cell_volume 1936.782493
_symmetry_space_group_name_H-M "P N N M"
_symmetry_group_IT_number 58
_symmetry_cell_setting 'orthorhombic'
loop_
_space_group_symop_operation_xyz
x,y,z
-x,-y,z
1/2+x,1/2-y,1/2-z
1/2-x,1/2+y,1/2-z
-x,-y,-z
x,y,-z
1/2-x,1/2+y,1/2+z
1/2+x,1/2-y,1/2+z
loop_
_atom_site_type_symbol
_atom_site_label
_atom_site_fract_x
_atom_site_fract_y
_atom_site_fract_z
Si Si1 0.864866 0.413523 0.310763
Si Si2 0.366424 0.083955 0.328991
Si Si3 0.873744 0.102706 0.624563
Si Si4 0.917440 0.265751 0.500000
Si Si5 0.705603 0.101126 0.000000
Si Si6 0.638900 0.586457 0.619246
O O1 0.836211 0.441473 0.241078
O O2 0.878117 0.234030 0.324823
O O3 0.739159 0.473363 0.347352
O O4 0.000000 0.500000 0.332057
O O5 0.383469 0.264069 0.340424
O O6 0.500000 0.000000 0.348959
O O7 0.252377 0.007857 0.368957
O O8 0.872841 0.171510 0.557988
O O9 0.000000 0.000000 0.637449
O O10 0.839413 0.425126 0.500000
O O11 0.076921 0.288293 0.500000
O O12 0.796923 0.139310 0.943194
O O13 0.500000 0.500000 0.607908
#
# Coordination Sequence:
#
# PCOD8238909 Si02
#       6
#     8   8   8   4   4   8
#     4  11  23  43  68  95 132 179 223 266 327 404
#     4  11  26  43  63  98 137 172 218 277 335 388
#     4  12  24  41  68 102 132 169 223 282 332 383
#     4  11  23  42  72  97 131 172 223 279 328 398
#     4  11  23  44  70  98 129 173 227 269 328 406
#     4  12  25  44  69  95 133 177 222 269 329 404
#
# _framework density 20.652808
#
# number of rings (size 3 to 8) (size 9 to 14) (size 15 to 20)
#    0.000    0.600    2.000    6.600    0.000    7.200 
#    0.000    1.000    0.000    0.000    0.000    0.000 
#    0.000    0.000    0.000    0.000    0.000    0.000 
#
# Total GULP energy -496315.668316 kJ/mol
# GULP energy per Si atom -12407.891708 kJ/mol
# Density = 2.060580 g / cm^3
# Si number density = 20.652808 Si / 1000 Ang^3
#
#
#
# Elastic Constant Matrix: (Units=GPa)
#
#
# Indices 1 2 3 4 5 6 
#
# 1 114.9592 16.1080 56.5107 0.0000 0.0000 0.0000
# 2 16.1080 84.6155 18.2610 0.0000 0.0000 0.0000
# 3 56.5107 18.2610 87.5579 0.0000 0.0000 0.0000
# 4 0.0000 0.0000 0.0000 2476.4847 0.0000 0.0000
# 5 0.0000 0.0000 0.0000 0.0000 25.8836 0.0000
# 6 0.0000 0.0000 0.0000 0.0000 0.0000 47.2905
#
#
#
# Elastic Compliance Matrix: (Units=1/GPa)
#
#
# Indices 1 2 3 4 5 6 
#
# 1 0.012779 -0.000683 -0.008105 0.000000 0.000000 0.000000
# 2 -0.000683 0.012412 -0.002147 0.000000 0.000000 0.000000
# 3 -0.008105 -0.002147 0.017100 0.000000 0.000000 0.000000
# 4 0.000000 0.000000 0.000000 0.000404 0.000000 0.000000
# 5 0.000000 0.000000 0.000000 0.000000 0.038635 0.000000
# 6 0.000000 0.000000 0.000000 0.000000 0.000000 0.021146
#
#
# Mechanical properties :
#
#
# Convention : Reuss Voigt Hill
#
# Bulk Modulus (GPa) = 48.97508 52.09909 50.53709
# Shear Modulus (GPa) = 38.12361 523.01529 280.56945
#
# Velocity S-wave (km/s) = 4.30109 15.93083 11.66814
# Velocity P-wave (km/s) = 6.95923 19.07012 14.35445
#
# Compressibility (1/GPa) = 0.02041855
#
# Stress axis : x y z
#
# Youngs Moduli (GPa) = 78.25553 80.56899 58.48003
#
# Poissons Ratio (x) = 0.05507 0.47397
# Poissons Ratio (y) = 0.05349 0.12558
# Poissons Ratio (z) = 0.63425 0.17302
#
# Static dielectric constant tensor:
#      x y z
#    x 3.883870 0.000000 0.000000 
#    y 0.000000 3.876700 0.000000 
#    z 0.000000 0.000000 3.911080 
# 
# 
# High freq. dielectric constant tensor:
#      x y z
#    x 1.820740 0.000000 0.000000 
#    y 0.000000 1.822720 0.000000 
#    z 0.000000 0.000000 1.818010 
# 
# From -- ./inp_files/31323.got.cif
#   From: 2010.06.25/outbox.cif.g09.slc.cpg/sg58_16_cif.got.tgz:31323.got - 2010.06.26 21:38:00.
