data_PCOD8238871
_publ_section_title
;
Structure prediction by ZEFSAII (Michael W. Deem and Ramdas Pophale) SiO2 
 PCOD8238871
Probable space group: P N N M
;
_chemical_formula_sum "Si O2"
_cell_formula_units_Z 40
_cell_length_a 28.786458
_cell_length_b 9.178129
_cell_length_c 8.900244
_cell_angle_alpha 90.000000
_cell_angle_beta 90.000000
_cell_angle_gamma 90.000000
_cell_volume 2351.496309
_symmetry_space_group_name_H-M "P N N M"
_symmetry_group_IT_number 58
_symmetry_cell_setting 'orthorhombic'
loop_
_space_group_symop_operation_xyz
x,y,z
-x,-y,z
1/2+x,1/2-y,1/2-z
1/2-x,1/2+y,1/2-z
-x,-y,-z
x,y,-z
1/2-x,1/2+y,1/2+z
1/2+x,1/2-y,1/2+z
loop_
_atom_site_type_symbol
_atom_site_label
_atom_site_fract_x
_atom_site_fract_y
_atom_site_fract_z
Si Si1 0.205273 0.161966 0.674253
Si Si2 0.790220 0.177794 0.674558
Si Si3 0.873364 0.666775 0.169799
Si Si4 0.369913 0.154735 0.670229
Si Si5 0.553233 0.999329 0.822381
O O1 0.200067 0.197796 0.500000
O O2 0.249311 0.247044 0.735291
O O3 0.158374 0.211701 0.755269
O O4 0.212312 0.992774 0.705661
O O5 0.784844 0.215684 0.500000
O O6 0.839454 0.235632 0.732642
O O7 0.847169 0.508539 0.170408
O O8 0.921846 0.647581 0.261752
O O9 0.884717 0.715331 0.000000
O O10 0.374498 0.213543 0.500000
O O11 0.421139 0.140637 0.746369
O O12 0.500000 0.000000 0.770952
O O13 0.558495 0.989411 0.000000
#
# Coordination Sequence:
#
# PCOD8238871 Si02
#       5
#     8   8   8   8   8
#     4  11  23  36  52  75 105 141 181 220 264 316
#     4  11  23  36  52  75 105 141 181 220 264 316
#     4   9  19  33  52  78 106 136 175 216 261 313
#     4   9  19  33  52  78 106 136 175 216 261 313
#     4   9  17  31  55  83 109 139 175 217 266 315
#
# _framework density 17.010446999999999
#
# number of rings (size 3 to 8) (size 9 to 14) (size 15 to 20)
#    1.200    1.000    0.000    3.600    0.000    9.600 
#    0.000    0.000    0.000    1.200    0.000    8.400 
#    0.000    0.000    0.000    0.000    0.000    0.000 
#
# Total GULP energy -495765.254969 kJ/mol
# GULP energy per Si atom -12394.131374 kJ/mol
# Density = 1.697173 g / cm^3
# Si number density = 17.010447 Si / 1000 Ang^3
#
#
#
# Elastic Constant Matrix: (Units=GPa)
#
#
# Indices 1 2 3 4 5 6 
#
# 1 95.7179 28.7764 13.2128 0.0000 0.0000 0.0000
# 2 28.7764 50.4421 38.9433 0.0000 0.0000 0.0000
# 3 13.2128 38.9433 59.4400 0.0000 0.0000 0.0000
# 4 0.0000 0.0000 0.0000 26.6909 0.0000 0.0000
# 5 0.0000 0.0000 0.0000 0.0000 32.6947 0.0000
# 6 0.0000 0.0000 0.0000 0.0000 0.0000 27.1723
#
#
#
# Elastic Compliance Matrix: (Units=1/GPa)
#
#
# Indices 1 2 3 4 5 6 
#
# 1 0.013065 -0.010545 0.004005 0.000000 0.000000 0.000000
# 2 -0.010545 0.048627 -0.029515 0.000000 0.000000 0.000000
# 3 0.004005 -0.029515 0.035271 0.000000 0.000000 0.000000
# 4 0.000000 0.000000 0.000000 0.037466 0.000000 0.000000
# 5 0.000000 0.000000 0.000000 0.000000 0.030586 0.000000
# 6 0.000000 0.000000 0.000000 0.000000 0.000000 0.036802
#
#
# Mechanical properties :
#
#
# Convention : Reuss Voigt Hill
#
# Bulk Modulus (GPa) = 40.23815 40.82945 40.53380
# Shear Modulus (GPa) = 17.71714 25.62275 21.66994
#
# Velocity S-wave (km/s) = 3.23080 3.88531 3.57307
# Velocity P-wave (km/s) = 6.13382 6.64697 6.39554
#
# Compressibility (1/GPa) = 0.02485204
#
# Stress axis : x y z
#
# Youngs Moduli (GPa) = 76.54155 20.56451 28.35189
#
# Poissons Ratio (x) = 0.21685 -0.11354
# Poissons Ratio (y) = 0.80713 0.83681
# Poissons Ratio (z) = -0.30652 0.60697
#
# Static dielectric constant tensor:
#      x y z
#    x 3.075800 0.000000 0.000000 
#    y 0.000000 3.023080 0.000000 
#    z 0.000000 0.000000 3.310040 
# 
# 
# High freq. dielectric constant tensor:
#      x y z
#    x 1.646420 0.000000 0.000000 
#    y 0.000000 1.629600 0.000000 
#    z 0.000000 0.000000 1.678990 
# 
# From -- ./inp_files/10275.got.cif
#   From: 2010.06.25/outbox.cif.g09.slc.cpg/sg58_6_cif.got.tgz:10275.got - 2010.06.26 21:38:00.
