data_PCOD8238517
_publ_section_title
;
Structure prediction by ZEFSAII (Michael W. Deem and Ramdas Pophale) SiO2 
 PCOD8238517
Probable space group: P N N M
;
_chemical_formula_sum "Si O2"
_cell_formula_units_Z 64
_cell_length_a 11.292191
_cell_length_b 20.390695
_cell_length_c 14.115017
_cell_angle_alpha 90.000000
_cell_angle_beta 90.000000
_cell_angle_gamma 90.000000
_cell_volume 3250.062027
_symmetry_space_group_name_H-M "P N N M"
_symmetry_group_IT_number 58
_symmetry_cell_setting 'orthorhombic'
loop_
_space_group_symop_operation_xyz
x,y,z
-x,-y,z
1/2+x,1/2-y,1/2-z
1/2-x,1/2+y,1/2-z
-x,-y,-z
x,y,-z
1/2-x,1/2+y,1/2+z
1/2+x,1/2-y,1/2+z
loop_
_atom_site_type_symbol
_atom_site_label
_atom_site_fract_x
_atom_site_fract_y
_atom_site_fract_z
Si Si1 0.071740 0.795146 0.607744
Si Si2 0.116154 0.148931 0.260058
Si Si3 0.746077 0.589830 0.108472
Si Si4 0.369967 0.194987 0.738048
Si Si5 0.864048 0.996948 0.757060
Si Si6 0.463036 0.924075 0.259837
Si Si7 0.569027 0.689663 0.390586
Si Si8 0.727440 0.085573 0.890453
O O1 0.043920 0.776348 0.500000
O O2 0.192118 0.837238 0.616894
O O3 0.082930 0.728289 0.666073
O O4 0.961981 0.837126 0.647301
O O5 0.228177 0.196780 0.258117
O O6 0.038891 0.155990 0.164878
O O7 0.171470 0.076814 0.266821
O O8 0.660376 0.540871 0.164956
O O9 0.877548 0.588919 0.150969
O O10 0.751407 0.566500 0.000000
O O11 0.422237 0.121796 0.729306
O O12 0.410793 0.237076 0.647362
O O13 0.788523 0.020998 0.846953
O O14 0.000000 0.000000 0.786149
O O15 0.396300 0.903181 0.163243
O O16 0.500000 0.000000 0.257198
O O17 0.533220 0.692642 0.500000
O O18 0.688178 0.648026 0.373683
O O19 0.700966 0.072910 0.000000
#
# Coordination Sequence:
#
# PCOD8238517 Si02
#       8
#     8   8   8   8   8   8   8   8
#     4  10  23  40  61  91 121 157 202 251 310 363
#     4  11  22  39  62  92 123 155 198 254 301 355
#     4  10  22  40  63  89 124 165 202 247 307 367
#     4  11  24  39  63  88 120 161 205 253 301 357
#     4  11  18  36  62  92 125 155 194 248 305 357
#     4  11  24  44  63  88 123 167 209 249 303 368
#     4  10  23  40  61  91 121 157 202 251 310 363
#     4  10  22  40  63  89 124 165 202 247 307 367
#
# _framework density 19.691932000000001
#
# number of rings (size 3 to 8) (size 9 to 14) (size 15 to 20)
#    0.000    1.500    2.500    3.750    7.000    4.000 
#    0.000    2.500    0.000    0.000    0.000    0.000 
#    0.000    0.000    0.000    0.000    0.000    0.000 
#
# Total GULP energy -793778.939112 kJ/mol
# GULP energy per Si atom -12402.795924 kJ/mol
# Density = 1.964711 g / cm^3
# Si number density = 19.691932 Si / 1000 Ang^3
#
#
#
# Elastic Constant Matrix: (Units=GPa)
#
#
# Indices 1 2 3 4 5 6 
#
# 1 89.8119 19.6362 23.7833 0.0000 0.0000 0.0000
# 2 19.6362 104.3615 23.0864 0.0000 0.0000 0.0000
# 3 23.7833 23.0864 108.7840 0.0000 0.0000 0.0000
# 4 0.0000 0.0000 0.0000 9.5117 0.0000 0.0000
# 5 0.0000 0.0000 0.0000 0.0000 17.5165 0.0000
# 6 0.0000 0.0000 0.0000 0.0000 0.0000 33.2842
#
#
#
# Elastic Compliance Matrix: (Units=1/GPa)
#
#
# Indices 1 2 3 4 5 6 
#
# 1 0.012125 -0.001779 -0.002274 0.000000 0.000000 0.000000
# 2 -0.001779 0.010315 -0.001800 0.000000 0.000000 0.000000
# 3 -0.002274 -0.001800 0.010072 0.000000 0.000000 0.000000
# 4 0.000000 0.000000 0.000000 0.105134 0.000000 0.000000
# 5 0.000000 0.000000 0.000000 0.000000 0.057089 0.000000
# 6 0.000000 0.000000 0.000000 0.000000 0.000000 0.030044
#
#
# Mechanical properties :
#
#
# Convention : Reuss Voigt Hill
#
# Bulk Modulus (GPa) = 48.05985 48.44104 48.25044
# Shear Modulus (GPa) = 20.54066 27.82589 24.18328
#
# Velocity S-wave (km/s) = 3.23321 3.76315 3.50820
# Velocity P-wave (km/s) = 6.19653 6.59807 6.40045
#
# Compressibility (1/GPa) = 0.02080739
#
# Stress axis : x y z
#
# Youngs Moduli (GPa) = 82.47230 96.94659 99.28876
#
# Poissons Ratio (x) = 0.17242 0.22573
# Poissons Ratio (y) = 0.14668 0.17874
# Poissons Ratio (z) = 0.18750 0.17453
#
# Static dielectric constant tensor:
#      x y z
#    x 3.623730 0.000000 0.000000 
#    y 0.000000 3.612110 0.000000 
#    z 0.000000 0.000000 3.606870 
# 
# 
# High freq. dielectric constant tensor:
#      x y z
#    x 1.771330 0.000000 0.000000 
#    y 0.000000 1.769960 0.000000 
#    z 0.000000 0.000000 1.765470 
# 
# From -- ./inp_files/21506.got.cif
#   From: 2010.06.25/outbox.cif.g09.slc.cpg/sg58_11_cif.got.tgz:21506.got - 2010.06.26 21:38:00.
