data_PCOD8238258
_publ_section_title
;
Structure prediction by ZEFSAII (Michael W. Deem and Ramdas Pophale) SiO2 
 PCOD8238258
Probable space group: P N N M
;
_chemical_formula_sum "Si O2"
_cell_formula_units_Z 64
_cell_length_a 9.617252
_cell_length_b 19.095410
_cell_length_c 18.467185
_cell_angle_alpha 90.000000
_cell_angle_beta 90.000000
_cell_angle_gamma 90.000000
_cell_volume 3391.413022
_symmetry_space_group_name_H-M "P N N M"
_symmetry_group_IT_number 58
_symmetry_cell_setting 'orthorhombic'
loop_
_space_group_symop_operation_xyz
x,y,z
-x,-y,z
1/2+x,1/2-y,1/2-z
1/2-x,1/2+y,1/2-z
-x,-y,-z
x,y,-z
1/2-x,1/2+y,1/2+z
1/2+x,1/2-y,1/2+z
loop_
_atom_site_type_symbol
_atom_site_label
_atom_site_fract_x
_atom_site_fract_y
_atom_site_fract_z
Si Si1 0.656164 0.311416 0.080829
Si Si2 0.257906 0.398400 0.257247
Si Si3 0.960403 0.358973 0.268007
Si Si4 0.441770 0.190837 0.078829
Si Si5 0.864634 0.839386 0.917189
Si Si6 0.507173 0.424404 0.829942
Si Si7 0.700421 0.446491 0.298730
Si Si8 0.887703 0.232835 0.832158
O O1 0.520733 0.263615 0.082692
O O2 0.611629 0.380037 0.122951
O O3 0.792724 0.277706 0.114651
O O4 0.697260 0.332813 0.000000
O O5 0.350465 0.396390 0.183627
O O6 0.274652 0.470235 0.303318
O O7 0.297677 0.332866 0.306966
O O8 0.098009 0.391138 0.231384
O O9 0.992044 0.356420 0.354415
O O10 0.830155 0.410160 0.257275
O O11 0.931684 0.281411 0.235838
O O12 0.276855 0.205970 0.085195
O O13 0.472785 0.154574 0.000000
O O14 0.831339 0.913801 0.877878
O O15 0.977527 0.793706 0.874881
O O16 0.912278 0.854344 0.000000
O O17 0.500000 0.500000 0.868150
O O18 0.565343 0.430130 0.748473
#
# Coordination Sequence:
#
# PCOD8238258 Si02
#       8
#     8   8   8   8   8   8   8   8
#     4  11  22  39  59  87 119 152 195 247 301 350
#     4  11  23  36  60  89 118 150 201 240 290 345
#     4  11  22  36  62  85 117 157 200 240 297 346
#     4   9  20  35  55  83 117 149 191 242 286 342
#     4  10  22  39  58  84 120 159 194 240 297 354
#     4  10  21  39  61  85 115 150 194 246 288 348
#     4  10  21  41  59  84 118 153 196 245 288 352
#     4  12  23  35  60  90 118 154 198 247 295 355
#
# _framework density 18.871189999999999
#
# number of rings (size 3 to 8) (size 9 to 14) (size 15 to 20)
#    0.000    1.500    3.750    1.500    5.250    0.250 
#    0.000    2.500    0.000    3.000    0.000    1.750 
#    0.000    0.000    0.000    0.000    0.000    0.000 
#
# Total GULP energy -793315.920487 kJ/mol
# GULP energy per Si atom -12395.561258 kJ/mol
# Density = 1.882824 g / cm^3
# Si number density = 18.871190 Si / 1000 Ang^3
#
#
#
# Elastic Constant Matrix: (Units=GPa)
#
#
# Indices 1 2 3 4 5 6 
#
# 1 105.4023 41.5050 27.2352 0.0000 0.0000 0.0000
# 2 41.5050 94.7994 43.3652 0.0000 0.0000 0.0000
# 3 27.2352 43.3652 85.1439 0.0000 0.0000 0.0000
# 4 0.0000 0.0000 0.0000 12.4311 0.0000 0.0000
# 5 0.0000 0.0000 0.0000 0.0000 18.4825 0.0000
# 6 0.0000 0.0000 0.0000 0.0000 0.0000 28.0897
#
#
#
# Elastic Compliance Matrix: (Units=1/GPa)
#
#
# Indices 1 2 3 4 5 6 
#
# 1 0.011602 -0.004409 -0.001466 0.000000 0.000000 0.000000
# 2 -0.004409 0.015428 -0.006448 0.000000 0.000000 0.000000
# 3 -0.001466 -0.006448 0.015497 0.000000 0.000000 0.000000
# 4 0.000000 0.000000 0.000000 0.080443 0.000000 0.000000
# 5 0.000000 0.000000 0.000000 0.000000 0.054105 0.000000
# 6 0.000000 0.000000 0.000000 0.000000 0.000000 0.035600
#
#
# Mechanical properties :
#
#
# Convention : Reuss Voigt Hill
#
# Bulk Modulus (GPa) = 55.91758 56.61738 56.26748
# Shear Modulus (GPa) = 20.55219 23.35001 21.95110
#
# Velocity S-wave (km/s) = 3.30370 3.52140 3.41428
# Velocity P-wave (km/s) = 6.65192 6.82648 6.73976
#
# Compressibility (1/GPa) = 0.01788346
#
# Stress axis : x y z
#
# Youngs Moduli (GPa) = 86.18863 64.81528 64.52677
#
# Poissons Ratio (x) = 0.28579 0.09457
# Poissons Ratio (y) = 0.38004 0.41604
# Poissons Ratio (z) = 0.12631 0.41790
#
# Static dielectric constant tensor:
#      x y z
#    x 3.675570 0.000000 0.000000 
#    y 0.000000 3.426420 0.000000 
#    z 0.000000 0.000000 3.492930 
# 
# 
# High freq. dielectric constant tensor:
#      x y z
#    x 1.753100 0.000000 0.000000 
#    y 0.000000 1.722650 0.000000 
#    z 0.000000 0.000000 1.716110 
# 
# From -- ./inp_files/25653.got.cif
#   From: 2010.06.25/outbox.cif.g09.slc.cpg/sg58_13_cif.got.tgz:25653.got - 2010.06.26 21:38:00.
