data_PCOD8238100
_publ_section_title
;
Structure prediction by ZEFSAII (Michael W. Deem and Ramdas Pophale) SiO2 
 PCOD8238100
Probable space group: P N N M
;
_chemical_formula_sum "Si O2"
_cell_formula_units_Z 56
_cell_length_a 16.244428
_cell_length_b 19.826094
_cell_length_c 8.976894
_cell_angle_alpha 90.000000
_cell_angle_beta 90.000000
_cell_angle_gamma 90.000000
_cell_volume 2891.130408
_symmetry_space_group_name_H-M "P N N M"
_symmetry_group_IT_number 58
_symmetry_cell_setting 'orthorhombic'
loop_
_space_group_symop_operation_xyz
x,y,z
-x,-y,z
1/2+x,1/2-y,1/2-z
1/2-x,1/2+y,1/2-z
-x,-y,-z
x,y,-z
1/2-x,1/2+y,1/2+z
1/2+x,1/2-y,1/2+z
loop_
_atom_site_type_symbol
_atom_site_label
_atom_site_fract_x
_atom_site_fract_y
_atom_site_fract_z
Si Si1 0.810663 0.624651 0.326206
Si Si2 0.810635 0.220472 0.669796
Si Si3 0.136906 0.631638 0.672424
Si Si4 0.565805 0.446503 0.823447
Si Si5 0.971865 0.666434 0.176098
Si Si6 0.002795 0.804212 0.326447
Si Si7 0.235285 0.018366 0.826628
O O1 0.830723 0.629365 0.500000
O O2 0.755237 0.688153 0.280044
O O3 0.895659 0.623462 0.236813
O O4 0.762185 0.556831 0.285490
O O5 0.784109 0.205450 0.500000
O O6 0.811669 0.300252 0.701794
O O7 0.899974 0.188927 0.702993
O O8 0.110176 0.627921 0.500000
O O9 0.192018 0.568730 0.721364
O O10 0.054777 0.630133 0.770054
O O11 0.500000 0.500000 0.759363
O O12 0.540224 0.372141 0.768746
O O13 0.655179 0.464138 0.765638
O O14 0.566715 0.449600 0.000000
O O15 0.964465 0.742749 0.234923
O O16 0.969945 0.667509 0.000000
O O17 0.985982 0.790062 0.500000
O O18 0.215015 0.026789 0.000000
#
# Coordination Sequence:
#
# PCOD8238100 Si02
#       7
#     8   8   8   8   8   8   8
#     4  11  23  38  57  83 118 154 194 238 290 349
#     4   9  18  35  60  85 114 150 191 239 286 341
#     4   9  20  41  62  82 114 151 191 239 295 349
#     4  10  21  37  59  87 121 157 192 235 288 346
#     4  11  23  38  59  86 113 147 195 244 292 343
#     4   9  19  37  59  85 116 152 190 233 289 345
#     4  10  23  40  59  85 116 156 197 238 289 347
#
# _framework density 19.369586999999999
#
# number of rings (size 3 to 8) (size 9 to 14) (size 15 to 20)
#    0.000    2.143    0.000    3.429    2.000    6.571 
#    0.000    2.857    0.000    0.000    0.000    0.000 
#    0.000    0.000    0.000    0.000    0.000    0.000 
#
# Total GULP energy -694664.250780 kJ/mol
# GULP energy per Si atom -12404.718764 kJ/mol
# Density = 1.932550 g / cm^3
# Si number density = 19.369587 Si / 1000 Ang^3
#
#
#
# Elastic Constant Matrix: (Units=GPa)
#
#
# Indices 1 2 3 4 5 6 
#
# 1 58.6017 9.6052 23.4066 0.0000 0.0000 0.0000
# 2 9.6052 36.1486 17.5029 0.0000 0.0000 0.0000
# 3 23.4066 17.5029 64.5412 0.0000 0.0000 0.0000
# 4 0.0000 0.0000 0.0000 24.0922 0.0000 0.0000
# 5 0.0000 0.0000 0.0000 0.0000 37.8308 0.0000
# 6 0.0000 0.0000 0.0000 0.0000 0.0000 33.2014
#
#
#
# Elastic Compliance Matrix: (Units=1/GPa)
#
#
# Indices 1 2 3 4 5 6 
#
# 1 0.020090 -0.002084 -0.006721 0.000000 0.000000 0.000000
# 2 -0.002084 0.032061 -0.007939 0.000000 0.000000 0.000000
# 3 -0.006721 -0.007939 0.020084 0.000000 0.000000 0.000000
# 4 0.000000 0.000000 0.000000 0.041507 0.000000 0.000000
# 5 0.000000 0.000000 0.000000 0.000000 0.026433 0.000000
# 6 0.000000 0.000000 0.000000 0.000000 0.000000 0.030119
#
#
# Mechanical properties :
#
#
# Convention : Reuss Voigt Hill
#
# Bulk Modulus (GPa) = 25.80751 28.92453 27.36602
# Shear Modulus (GPa) = 23.07341 26.27667 24.67504
#
# Velocity S-wave (km/s) = 3.45515 3.68719 3.57305
# Velocity P-wave (km/s) = 5.41018 5.75261 5.58402
#
# Compressibility (1/GPa) = 0.03874841
#
# Stress axis : x y z
#
# Youngs Moduli (GPa) = 49.77512 31.19019 49.79018
#
# Poissons Ratio (x) = 0.06500 0.33463
# Poissons Ratio (y) = 0.10374 0.39528
# Poissons Ratio (z) = 0.33453 0.24762
#
# Static dielectric constant tensor:
#      x y z
#    x 3.498320 0.000000 0.000000 
#    y 0.000000 3.701990 0.000000 
#    z 0.000000 0.000000 3.394150 
# 
# 
# High freq. dielectric constant tensor:
#      x y z
#    x 1.759790 0.000000 0.000000 
#    y 0.000000 1.761080 0.000000 
#    z 0.000000 0.000000 1.745220 
# 
# From -- ./inp_files/6452.got.cif
#   From: 2010.06.25/outbox.cif.g09.slc.cpg/sg58_4_cif.got.tgz:6452.got - 2010.06.26 21:38:00.
