data_PCOD8238315
_publ_section_title
;
Structure prediction by ZEFSAII (Michael W. Deem and Ramdas Pophale) SiO2 
 PCOD8238315
Probable space group: P N N M
;
_chemical_formula_sum "Si O2"
_cell_formula_units_Z 32
_cell_length_a 8.705953
_cell_length_b 9.023881
_cell_length_c 17.933810
_cell_angle_alpha 90.000000
_cell_angle_beta 90.000000
_cell_angle_gamma 90.000000
_cell_volume 1408.906725
_symmetry_space_group_name_H-M "P N N M"
_symmetry_group_IT_number 58
_symmetry_cell_setting 'orthorhombic'
loop_
_space_group_symop_operation_xyz
x,y,z
-x,-y,z
1/2+x,1/2-y,1/2-z
1/2-x,1/2+y,1/2-z
-x,-y,-z
x,y,-z
1/2-x,1/2+y,1/2+z
1/2+x,1/2-y,1/2+z
loop_
_atom_site_type_symbol
_atom_site_label
_atom_site_fract_x
_atom_site_fract_y
_atom_site_fract_z
Si Si1 0.164488 0.938454 0.324878
Si Si2 0.862281 0.763588 0.085313
Si Si3 0.334897 0.949739 0.086132
Si Si4 0.162361 0.732225 0.816828
O O1 0.230656 0.856667 0.397869
O O2 0.144697 0.820704 0.259210
O O3 0.282018 0.066459 0.298280
O O4 0.000000 0.000000 0.348236
O O5 0.000411 0.732614 0.141329
O O6 0.796618 0.927708 0.098925
O O7 0.917468 0.745479 0.000000
O O8 0.291261 0.803296 0.130638
O O9 0.500000 0.000000 0.117017
O O10 0.348883 0.906543 0.000000
#
# Coordination Sequence:
#
# PCOD8238315 Si02
#       4
#     8   8   8   8
#     4  12  26  42  65  95 131 173 219 275 332 393
#     4  11  25  45  69  99 134 174 221 272 329 394
#     4  10  21  39  65  95 128 167 212 264 323 388
#     4  12  24  42  67  94 129 171 220 271 328 390
#
# _framework density 22.712644999999998
#
# number of rings (size 3 to 8) (size 9 to 14) (size 15 to 20)
#    0.000    0.750    0.000    8.250    0.000    7.500 
#    0.000    0.000    0.000    0.000    0.000    0.000 
#    0.000    0.000    0.000    0.000    0.000    0.000 
#
# Total GULP energy -397054.797264 kJ/mol
# GULP energy per Si atom -12407.962415 kJ/mol
# Density = 2.266095 g / cm^3
# Si number density = 22.712645 Si / 1000 Ang^3
#
#
#
# Elastic Constant Matrix: (Units=GPa)
#
#
# Indices 1 2 3 4 5 6 
#
# 1 92.5870 -1.5825 30.3237 0.0000 0.0000 0.0000
# 2 -1.5825 79.5850 36.5088 0.0000 0.0000 0.0000
# 3 30.3237 36.5088 73.0777 0.0000 0.0000 0.0000
# 4 0.0000 0.0000 0.0000 30.7402 0.0000 0.0000
# 5 0.0000 0.0000 0.0000 0.0000 66.6823 0.0000
# 6 0.0000 0.0000 0.0000 0.0000 0.0000 42.8447
#
#
#
# Elastic Compliance Matrix: (Units=1/GPa)
#
#
# Indices 1 2 3 4 5 6 
#
# 1 0.013255 0.003615 -0.007307 0.000000 0.000000 0.000000
# 2 0.003615 0.017287 -0.010137 0.000000 0.000000 0.000000
# 3 -0.007307 -0.010137 0.021780 0.000000 0.000000 0.000000
# 4 0.000000 0.000000 0.000000 0.032531 0.000000 0.000000
# 5 0.000000 0.000000 0.000000 0.000000 0.014996 0.000000
# 6 0.000000 0.000000 0.000000 0.000000 0.000000 0.023340
#
#
# Mechanical properties :
#
#
# Convention : Reuss Voigt Hill
#
# Bulk Modulus (GPa) = 40.54001 41.74999 41.14500
# Shear Modulus (GPa) = 31.43308 40.05342 35.74325
#
# Velocity S-wave (km/s) = 3.72418 4.20394 3.97131
# Velocity P-wave (km/s) = 6.03163 6.47965 6.25965
#
# Compressibility (1/GPa) = 0.02466699
#
# Stress axis : x y z
#
# Youngs Moduli (GPa) = 75.44061 57.84632 45.91345
#
# Poissons Ratio (x) = -0.20914 0.33547
# Poissons Ratio (y) = -0.27275 0.46541
# Poissons Ratio (z) = 0.55121 0.58637
#
# Static dielectric constant tensor:
#      x y z
#    x 4.261840 0.000000 0.000000 
#    y 0.000000 4.253040 0.000000 
#    z 0.000000 0.000000 4.008380 
# 
# 
# High freq. dielectric constant tensor:
#      x y z
#    x 1.913110 0.000000 0.000000 
#    y 0.000000 1.902490 0.000000 
#    z 0.000000 0.000000 1.896190 
# 
# From -- ./inp_files/28456.got.cif
#   From: 2010.06.25/outbox.cif.g09.slc.cpg/sg58_15_cif.got.tgz:28456.got - 2010.06.26 21:38:00.
