data_PCOD8238950
_publ_section_title
;
Structure prediction by ZEFSAII (Michael W. Deem and Ramdas Pophale) SiO2 
 PCOD8238950
Probable space group: P N N M
;
_chemical_formula_sum "Si O2"
_cell_formula_units_Z 24
_cell_length_a 4.768795
_cell_length_b 7.991241
_cell_length_c 25.891936
_cell_angle_alpha 90.000000
_cell_angle_beta 90.000000
_cell_angle_gamma 90.000000
_cell_volume 986.705177
_symmetry_space_group_name_H-M "P N N M"
_symmetry_group_IT_number 58
_symmetry_cell_setting 'orthorhombic'
loop_
_space_group_symop_operation_xyz
x,y,z
-x,-y,z
1/2+x,1/2-y,1/2-z
1/2-x,1/2+y,1/2-z
-x,-y,-z
x,y,-z
1/2-x,1/2+y,1/2+z
1/2+x,1/2-y,1/2+z
loop_
_atom_site_type_symbol
_atom_site_label
_atom_site_fract_x
_atom_site_fract_y
_atom_site_fract_z
Si Si1 0.627160 0.182428 0.383816
Si Si2 0.893169 0.312711 0.721018
Si Si3 0.881961 0.684660 0.441314
O O1 0.744573 0.247969 0.330057
O O2 0.385793 0.305224 0.404264
O O3 0.881294 0.181245 0.424860
O O4 0.500000 0.000000 0.377099
O O5 0.661704 0.304332 0.766671
O O6 0.000000 0.500000 0.714205
O O7 0.790264 0.721861 0.500000
O O8 0.000000 0.500000 0.434467
#
# Coordination Sequence:
#
# PCOD8238950 Si02
#       3
#     8   8   8
#     4  12  26  46  72 105 145 187 237 295 356 422
#     4  12  27  49  74 104 143 186 236 292 355 425
#     4  11  25  46  72 104 144 191 241 293 353 421
#
# _framework density 24.323377000000001
#
# number of rings (size 3 to 8) (size 9 to 14) (size 15 to 20)
#    0.000    0.333    0.000    8.000    0.000   12.000 
#    0.000    1.667    0.000    0.000    0.000    0.000 
#    0.000    0.000    0.000    0.000    0.000    0.000 
#
# Total GULP energy -297748.355229 kJ/mol
# GULP energy per Si atom -12406.181468 kJ/mol
# Density = 2.426802 g / cm^3
# Si number density = 24.323377 Si / 1000 Ang^3
#
#
#
# Elastic Constant Matrix: (Units=GPa)
#
#
# Indices 1 2 3 4 5 6 
#
# 1 156.6394 52.5947 57.4775 0.0000 0.0000 0.0000
# 2 52.5947 122.4013 84.4165 0.0000 0.0000 0.0000
# 3 57.4775 84.4165 129.1087 0.0000 0.0000 0.0000
# 4 0.0000 0.0000 0.0000 77.0209 0.0000 0.0000
# 5 0.0000 0.0000 0.0000 0.0000 55.8087 0.0000
# 6 0.0000 0.0000 0.0000 0.0000 0.0000 53.6131
#
#
#
# Elastic Compliance Matrix: (Units=1/GPa)
#
#
# Indices 1 2 3 4 5 6 
#
# 1 0.007831 -0.001749 -0.002342 0.000000 0.000000 0.000000
# 2 -0.001749 0.015270 -0.009206 0.000000 0.000000 0.000000
# 3 -0.002342 -0.009206 0.014807 0.000000 0.000000 0.000000
# 4 0.000000 0.000000 0.000000 0.012983 0.000000 0.000000
# 5 0.000000 0.000000 0.000000 0.000000 0.017918 0.000000
# 6 0.000000 0.000000 0.000000 0.000000 0.000000 0.018652
#
#
# Mechanical properties :
#
#
# Convention : Reuss Voigt Hill
#
# Bulk Modulus (GPa) = 88.38789 88.56965 88.47877
# Shear Modulus (GPa) = 42.43447 51.53257 46.98352
#
# Velocity S-wave (km/s) = 4.18137 4.60787 4.39979
# Velocity P-wave (km/s) = 7.72848 8.04999 7.89087
#
# Compressibility (1/GPa) = 0.01131377
#
# Stress axis : x y z
#
# Youngs Moduli (GPa) = 127.69718 65.48631 67.53462
#
# Poissons Ratio (x) = 0.11456 0.15820
# Poissons Ratio (y) = 0.22339 0.62170
# Poissons Ratio (z) = 0.29912 0.60284
#
# Static dielectric constant tensor:
#      x y z
#    x 5.128540 0.000000 0.000000 
#    y 0.000000 4.417940 0.000000 
#    z 0.000000 0.000000 4.615980 
# 
# 
# High freq. dielectric constant tensor:
#      x y z
#    x 1.997140 0.000000 0.000000 
#    y 0.000000 1.966630 0.000000 
#    z 0.000000 0.000000 1.977240 
# 
# From -- ./inp_files/30681.got.cif
#   From: 2010.06.25/outbox.cif.g09.slc.cpg/sg58_16_cif.got.tgz:30681.got - 2010.06.26 21:38:00.
