data_PCOD8238762
_publ_section_title
;
Structure prediction by ZEFSAII (Michael W. Deem and Ramdas Pophale) SiO2 
 PCOD8238762
Probable space group: P N N M
;
_chemical_formula_sum "Si O2"
_cell_formula_units_Z 48
_cell_length_a 19.161287
_cell_length_b 17.564602
_cell_length_c 8.979859
_cell_angle_alpha 90.000000
_cell_angle_beta 90.000000
_cell_angle_gamma 90.000000
_cell_volume 3022.264757
_symmetry_space_group_name_H-M "P N N M"
_symmetry_group_IT_number 58
_symmetry_cell_setting 'orthorhombic'
loop_
_space_group_symop_operation_xyz
x,y,z
-x,-y,z
1/2+x,1/2-y,1/2-z
1/2-x,1/2+y,1/2-z
-x,-y,-z
x,y,-z
1/2-x,1/2+y,1/2+z
1/2+x,1/2-y,1/2+z
loop_
_atom_site_type_symbol
_atom_site_label
_atom_site_fract_x
_atom_site_fract_y
_atom_site_fract_z
Si Si1 0.127079 0.683650 0.675602
Si Si2 0.708915 0.934647 0.331534
Si Si3 0.944493 0.440818 0.831366
Si Si4 0.661621 0.502868 0.324326
Si Si5 0.955537 0.923762 0.336049
Si Si6 0.093412 0.853702 0.324413
O O1 0.133624 0.674761 0.500000
O O2 0.196511 0.648387 0.754001
O O3 0.058617 0.636748 0.733095
O O4 0.120289 0.771108 0.723915
O O5 0.736305 0.922998 0.500000
O O6 0.633596 0.977818 0.330783
O O7 0.762183 0.985098 0.238356
O O8 0.000000 0.500000 0.761531
O O9 0.967046 0.419720 0.000000
O O10 0.664466 0.506474 0.500000
O O11 0.608726 0.434947 0.276600
O O12 0.638642 0.584470 0.262825
O O13 0.925197 0.904151 0.500000
O O14 0.010698 0.859316 0.282414
O O15 0.000000 0.000000 0.344941
O O16 0.102825 0.868907 0.500000
#
# Coordination Sequence:
#
# PCOD8238762 Si02
#       6
#     8   8   8   8   8   8
#     4   9  17  30  50  74  96 119 156 201 242 284
#     4   9  18  32  50  69  95 131 163 195 244 294
#     4   8  16  31  51  71  92 123 161 195 234 287
#     4  11  20  29  47  73  99 125 164 207 238 280
#     4   8  15  29  47  67  93 127 161 189 233 292
#     4   9  18  32  50  71  98 130 159 192 243 297
#
# _framework density 15.88213
#
# number of rings (size 3 to 8) (size 9 to 14) (size 15 to 20)
#    1.000    2.000    0.000    3.000    0.000    4.667 
#    0.000    0.000    3.667    0.000    0.000    0.000 
#    0.000    0.000    0.000    0.000    0.000    0.000 
#
# Total GULP energy -594635.264876 kJ/mol
# GULP energy per Si atom -12388.234685 kJ/mol
# Density = 1.584598 g / cm^3
# Si number density = 15.882130 Si / 1000 Ang^3
#
#
#
# Elastic Constant Matrix: (Units=GPa)
#
#
# Indices 1 2 3 4 5 6 
#
# 1 83.1945 50.0822 45.8252 0.0000 0.0000 0.0000
# 2 50.0822 94.0437 56.5799 0.0000 0.0000 0.0000
# 3 45.8252 56.5799 97.3419 0.0000 0.0000 0.0000
# 4 0.0000 0.0000 0.0000 21.3926 0.0000 0.0000
# 5 0.0000 0.0000 0.0000 0.0000 24.3002 0.0000
# 6 0.0000 0.0000 0.0000 0.0000 0.0000 23.5748
#
#
#
# Elastic Compliance Matrix: (Units=1/GPa)
#
#
# Indices 1 2 3 4 5 6 
#
# 1 0.019000 -0.007284 -0.004710 0.000000 0.000000 0.000000
# 2 -0.007284 0.019144 -0.007698 0.000000 0.000000 0.000000
# 3 -0.004710 -0.007698 0.016965 0.000000 0.000000 0.000000
# 4 0.000000 0.000000 0.000000 0.046745 0.000000 0.000000
# 5 0.000000 0.000000 0.000000 0.000000 0.041152 0.000000
# 6 0.000000 0.000000 0.000000 0.000000 0.000000 0.042418
#
#
# Mechanical properties :
#
#
# Convention : Reuss Voigt Hill
#
# Bulk Modulus (GPa) = 63.60095 64.39498 63.99797
# Shear Modulus (GPa) = 21.73431 21.99303 21.86367
#
# Velocity S-wave (km/s) = 3.70330 3.72528 3.71431
# Velocity P-wave (km/s) = 7.64320 7.69007 7.66667
#
# Compressibility (1/GPa) = 0.01572303
#
# Stress axis : x y z
#
# Youngs Moduli (GPa) = 52.63262 52.23566 58.94402
#
# Poissons Ratio (x) = 0.38049 0.27766
# Poissons Ratio (y) = 0.38338 0.45377
# Poissons Ratio (z) = 0.24793 0.40213
#
# Static dielectric constant tensor:
#      x y z
#    x 3.021230 0.000000 0.000000 
#    y 0.000000 2.902640 0.000000 
#    z 0.000000 0.000000 3.002800 
# 
# 
# High freq. dielectric constant tensor:
#      x y z
#    x 1.596610 0.000000 0.000000 
#    y 0.000000 1.581610 0.000000 
#    z 0.000000 0.000000 1.615660 
# 
# From -- ./inp_files/9342.got.cif
#   From: 2010.06.25/outbox.cif.g09.slc.cpg/sg58_5_cif.got.tgz:9342.got - 2010.06.26 21:38:00.
