data_PCOD8238985
_publ_section_title
;
Structure prediction by ZEFSAII (Michael W. Deem and Ramdas Pophale) SiO2 
 PCOD8238985
Probable space group: P N N M
;
_chemical_formula_sum "Si O2"
_cell_formula_units_Z 56
_cell_length_a 12.726493
_cell_length_b 25.220425
_cell_length_c 10.012895
_cell_angle_alpha 90.000000
_cell_angle_beta 90.000000
_cell_angle_gamma 90.000000
_cell_volume 3213.814499
_symmetry_space_group_name_H-M "P N N M"
_symmetry_group_IT_number 58
_symmetry_cell_setting 'orthorhombic'
loop_
_space_group_symop_operation_xyz
x,y,z
-x,-y,z
1/2+x,1/2-y,1/2-z
1/2-x,1/2+y,1/2-z
-x,-y,-z
x,y,-z
1/2-x,1/2+y,1/2+z
1/2+x,1/2-y,1/2+z
loop_
_atom_site_type_symbol
_atom_site_label
_atom_site_fract_x
_atom_site_fract_y
_atom_site_fract_z
Si Si1 0.902147 0.233671 0.146081
Si Si2 0.902527 0.964462 0.840361
Si Si3 0.433982 0.825656 0.355153
Si Si4 0.829312 0.491423 0.657519
Si Si5 0.772597 0.758169 0.154863
Si Si6 0.516749 0.082951 0.158088
Si Si7 0.931901 0.846217 0.157428
O O1 0.997439 0.273527 0.128487
O O2 0.831362 0.258883 0.258720
O O3 0.952230 0.177084 0.191428
O O4 0.845996 0.227453 0.000000
O O5 0.789381 0.985763 0.784604
O O6 0.919120 0.905167 0.782385
O O7 0.901684 0.964942 0.000000
O O8 0.000000 0.000000 0.787303
O O9 0.432700 0.855540 0.500000
O O10 0.320408 0.800682 0.322195
O O11 0.473435 0.862569 0.236812
O O12 0.822977 0.490202 0.500000
O O13 0.884230 0.546369 0.701629
O O14 0.906105 0.443445 0.702031
O O15 0.842484 0.806605 0.212838
O O16 0.744741 0.767587 0.000000
O O17 0.518631 0.094157 0.000000
O O18 0.918189 0.849305 0.000000
#
# Coordination Sequence:
#
# PCOD8238985 Si02
#       7
#     8   8   8   8   8   8   8
#     4   9  18  32  48  69  98 126 158 200 237 279
#     4   9  16  26  43  67  94 126 160 192 236 293
#     4   9  19  33  46  68 101 128 156 198 242 288
#     4   8  16  29  43  69 102 121 151 207 248 274
#     4   9  18  32  49  69  95 128 161 193 236 288
#     4   9  17  30  49  72  97 124 156 201 249 284
#     4   8  16  30  45  66  97 128 155 190 239 286
#
# _framework density 17.424776000000001
#
# number of rings (size 3 to 8) (size 9 to 14) (size 15 to 20)
#    0.000    3.286    0.000    2.571    2.000    2.286 
#    0.000    6.429    0.000    0.000    0.000    0.000 
#    0.000    4.571    0.000    0.000    0.000    0.000 
#
# Total GULP energy -693784.225836 kJ/mol
# GULP energy per Si atom -12389.004033 kJ/mol
# Density = 1.738512 g / cm^3
# Si number density = 17.424776 Si / 1000 Ang^3
#
#
#
# Elastic Constant Matrix: (Units=GPa)
#
#
# Indices 1 2 3 4 5 6 
#
# 1 96.6364 48.0819 20.8200 0.0000 0.0000 0.0000
# 2 48.0819 89.1084 22.4926 0.0000 0.0000 0.0000
# 3 20.8200 22.4926 37.4377 0.0000 0.0000 0.0000
# 4 0.0000 0.0000 0.0000 20.5983 0.0000 0.0000
# 5 0.0000 0.0000 0.0000 0.0000 20.4858 0.0000
# 6 0.0000 0.0000 0.0000 0.0000 0.0000 16.7843
#
#
#
# Elastic Compliance Matrix: (Units=1/GPa)
#
#
# Indices 1 2 3 4 5 6 
#
# 1 0.014637 -0.006888 -0.004002 0.000000 0.000000 0.000000
# 2 -0.006888 0.016470 -0.006064 0.000000 0.000000 0.000000
# 3 -0.004002 -0.006064 0.032580 0.000000 0.000000 0.000000
# 4 0.000000 0.000000 0.000000 0.048548 0.000000 0.000000
# 5 0.000000 0.000000 0.000000 0.000000 0.048814 0.000000
# 6 0.000000 0.000000 0.000000 0.000000 0.000000 0.059579
#
#
# Mechanical properties :
#
#
# Convention : Reuss Voigt Hill
#
# Bulk Modulus (GPa) = 33.58120 45.10794 39.34457
# Shear Modulus (GPa) = 18.90618 20.35955 19.63286
#
# Velocity S-wave (km/s) = 3.29753 3.42193 3.36031
# Velocity P-wave (km/s) = 5.81483 6.44641 6.13875
#
# Compressibility (1/GPa) = 0.02977857
#
# Stress axis : x y z
#
# Youngs Moduli (GPa) = 68.31801 60.71726 30.69358
#
# Poissons Ratio (x) = 0.41822 0.12283
# Poissons Ratio (y) = 0.47058 0.18614
# Poissons Ratio (z) = 0.27340 0.36822
#
# Static dielectric constant tensor:
#      x y z
#    x 3.427430 0.000000 0.000000 
#    y 0.000000 3.374400 0.000000 
#    z 0.000000 0.000000 2.775840 
# 
# 
# High freq. dielectric constant tensor:
#      x y z
#    x 1.674200 0.000000 0.000000 
#    y 0.000000 1.673020 0.000000 
#    z 0.000000 0.000000 1.621670 
# 
# From -- ./inp_files/14765.got.cif
#   From: 2010.06.25/outbox.cif.g09.slc.cpg/sg58_8_cif.got.tgz:14765.got - 2010.06.26 21:38:00.
