data_PCOD8238332
_publ_section_title
;
Structure prediction by ZEFSAII (Michael W. Deem and Ramdas Pophale) SiO2 
 PCOD8238332
Probable space group: P N N M
;
_chemical_formula_sum "Si O2"
_cell_formula_units_Z 32
_cell_length_a 13.388515
_cell_length_b 8.731345
_cell_length_c 12.710868
_cell_angle_alpha 90.000000
_cell_angle_beta 90.000000
_cell_angle_gamma 90.000000
_cell_volume 1485.897209
_symmetry_space_group_name_H-M "P N N M"
_symmetry_group_IT_number 58
_symmetry_cell_setting 'orthorhombic'
loop_
_space_group_symop_operation_xyz
x,y,z
-x,-y,z
1/2+x,1/2-y,1/2-z
1/2-x,1/2+y,1/2-z
-x,-y,-z
x,y,-z
1/2-x,1/2+y,1/2+z
1/2+x,1/2-y,1/2+z
loop_
_atom_site_type_symbol
_atom_site_label
_atom_site_fract_x
_atom_site_fract_y
_atom_site_fract_z
Si Si1 0.634733 0.278857 0.500000
Si Si2 0.639995 0.913037 0.500000
Si Si3 0.000000 0.500000 0.332541
Si Si4 0.863736 0.973038 0.500000
Si Si5 0.000000 0.000000 0.679845
Si Si6 0.861235 0.340799 0.500000
Si Si7 0.008605 0.744395 0.826010
O O1 0.741425 0.362329 0.500000
O O2 0.576117 0.329407 0.604546
O O3 0.623072 0.094145 0.500000
O O4 0.593539 0.836660 0.603919
O O5 0.758132 0.889592 0.500000
O O6 0.910663 0.423017 0.399359
O O7 0.045732 0.373439 0.253648
O O8 0.918913 0.914860 0.605264
O O9 0.873443 0.157995 0.500000
O O10 0.943260 0.124107 0.752676
#
# Coordination Sequence:
#
# PCOD8238332 Si02
#       7
#     4   4   4   4   4   4   8
#     4  10  21  40  62  97 126 162 216 276 318 379
#     4  10  21  40  66  93 125 165 220 267 324 387
#     4  11  20  39  66  94 124 177 214 263 324 384
#     4  10  22  42  61  93 132 168 208 271 328 379
#     4  11  24  41  62  92 134 171 206 269 324 382
#     4  10  22  38  63  95 131 161 224 269 308 389
#     4  11  21  41  66  91 130 172 212 266 330 380
#
# _framework density 21.535809
#
# number of rings (size 3 to 8) (size 9 to 14) (size 15 to 20)
#    0.000    1.500    5.000    0.750    0.000    4.000 
#    0.000    2.500    0.000    0.000    0.000    0.000 
#    0.000    0.000    0.000    0.000    0.000    0.000 
#
# Total GULP energy -396444.891237 kJ/mol
# GULP energy per Si atom -12388.902851 kJ/mol
# Density = 2.148679 g / cm^3
# Si number density = 21.535809 Si / 1000 Ang^3
#
#
#
# Elastic Constant Matrix: (Units=GPa)
#
#
# Indices 1 2 3 4 5 6 
#
# 1 163.7832 30.7588 73.1919 0.0000 0.0000 0.0000
# 2 30.7588 71.9097 57.3008 0.0000 0.0000 0.0000
# 3 73.1919 57.3008 169.2398 0.0000 0.0000 0.0000
# 4 0.0000 0.0000 0.0000 39.1664 0.0000 0.0000
# 5 0.0000 0.0000 0.0000 0.0000 9.7843 0.0000
# 6 0.0000 0.0000 0.0000 0.0000 0.0000 34.8334
#
#
#
# Elastic Compliance Matrix: (Units=1/GPa)
#
#
# Indices 1 2 3 4 5 6 
#
# 1 0.007608 -0.000866 -0.002997 0.000000 0.000000 0.000000
# 2 -0.000866 0.019143 -0.006107 0.000000 0.000000 0.000000
# 3 -0.002997 -0.006107 0.009272 0.000000 0.000000 0.000000
# 4 0.000000 0.000000 0.000000 0.025532 0.000000 0.000000
# 5 0.000000 0.000000 0.000000 0.000000 0.102205 0.000000
# 6 0.000000 0.000000 0.000000 0.000000 0.000000 0.028708
#
#
# Mechanical properties :
#
#
# Convention : Reuss Voigt Hill
#
# Bulk Modulus (GPa) = 62.17544 80.82619 71.50081
# Shear Modulus (GPa) = 22.96015 33.00222 27.98119
#
# Velocity S-wave (km/s) = 3.26872 3.91888 3.60847
# Velocity P-wave (km/s) = 6.57111 7.62164 7.11579
#
# Compressibility (1/GPa) = 0.01608352
#
# Stress axis : x y z
#
# Youngs Moduli (GPa) = 131.44912 52.23849 107.84620
#
# Poissons Ratio (x) = 0.04524 0.32320
# Poissons Ratio (y) = 0.11384 0.65860
# Poissons Ratio (z) = 0.39393 0.31901
#
# Static dielectric constant tensor:
#      x y z
#    x 3.718380 0.000000 0.000000 
#    y 0.000000 3.871110 0.000000 
#    z 0.000000 0.000000 4.236850 
# 
# 
# High freq. dielectric constant tensor:
#      x y z
#    x 1.812430 0.000000 0.000000 
#    y 0.000000 1.844120 0.000000 
#    z 0.000000 0.000000 1.873980 
# 
# From -- ./inp_files/12513.got.cif
#   From: 2010.06.25/outbox.cif.g09.slc.cpg/sg58_7_cif.got.tgz:12513.got - 2010.06.26 21:38:00.
