data_PCOD8238870
_publ_section_title
;
Structure prediction by ZEFSAII (Michael W. Deem and Ramdas Pophale) SiO2 
 PCOD8238870
Probable space group: P N N M
;
_chemical_formula_sum "Si O2"
_cell_formula_units_Z 32
_cell_length_a 12.991525
_cell_length_b 8.434884
_cell_length_c 12.794932
_cell_angle_alpha 90.000000
_cell_angle_beta 90.000000
_cell_angle_gamma 90.000000
_cell_volume 1402.094320
_symmetry_space_group_name_H-M "P N N M"
_symmetry_group_IT_number 58
_symmetry_cell_setting 'orthorhombic'
loop_
_space_group_symop_operation_xyz
x,y,z
-x,-y,z
1/2+x,1/2-y,1/2-z
1/2-x,1/2+y,1/2-z
-x,-y,-z
x,y,-z
1/2-x,1/2+y,1/2+z
1/2+x,1/2-y,1/2+z
loop_
_atom_site_type_symbol
_atom_site_label
_atom_site_fract_x
_atom_site_fract_y
_atom_site_fract_z
Si Si1 0.360604 0.921483 0.000000
Si Si2 0.019108 0.239166 0.327170
Si Si3 0.500000 0.500000 0.330413
Si Si4 0.656329 0.027707 0.500000
Si Si5 0.500000 0.000000 0.675656
Si Si6 0.626980 0.706942 0.000000
Si Si7 0.637497 0.657049 0.500000
O O1 0.393980 0.824461 0.896789
O O2 0.238957 0.947816 0.000000
O O3 0.399571 0.102374 0.000000
O O4 0.959292 0.363306 0.252486
O O5 0.932323 0.148499 0.396646
O O6 0.068750 0.110628 0.247290
O O7 0.571835 0.614426 0.398241
O O8 0.591256 0.070973 0.396781
O O9 0.674722 0.839125 0.500000
O O10 0.758320 0.136828 0.500000
#
# Coordination Sequence:
#
# PCOD8238870 Si02
#       7
#     4   8   4   4   4   4   4
#     4  11  25  44  70 101 145 180 234 300 357 424
#     4  11  23  47  71  97 143 190 235 290 356 423
#     4  11  26  45  72  98 144 191 238 293 358 416
#     4  11  26  42  70 103 142 181 243 293 357 424
#     4  11  22  47  70  94 140 193 230 291 358 416
#     4  11  25  44  70 107 139 181 238 296 356 427
#     4  11  26  46  64 105 144 182 237 301 346 428
#
# _framework density 22.823001000000001
#
# number of rings (size 3 to 8) (size 9 to 14) (size 15 to 20)
#    0.000    1.000    5.000    0.750    7.000    3.000 
#    0.000    0.000    0.000    0.000    0.000    0.000 
#    0.000    0.000    0.000    0.000    0.000    0.000 
#
# Total GULP energy -396482.342989 kJ/mol
# GULP energy per Si atom -12390.073218 kJ/mol
# Density = 2.277105 g / cm^3
# Si number density = 22.823001 Si / 1000 Ang^3
#
#
#
# Elastic Constant Matrix: (Units=GPa)
#
#
# Indices 1 2 3 4 5 6 
#
# 1 104.1860 15.9374 51.8731 0.0000 0.0000 0.0000
# 2 15.9374 96.0352 60.5547 0.0000 0.0000 0.0000
# 3 51.8731 60.5547 172.8968 0.0000 0.0000 0.0000
# 4 0.0000 0.0000 0.0000 32.3931 0.0000 0.0000
# 5 0.0000 0.0000 0.0000 0.0000 7.4544 0.0000
# 6 0.0000 0.0000 0.0000 0.0000 0.0000 43.0356
#
#
#
# Elastic Compliance Matrix: (Units=1/GPa)
#
#
# Indices 1 2 3 4 5 6 
#
# 1 0.011292 0.000337 -0.003506 0.000000 0.000000 0.000000
# 2 0.000337 0.013374 -0.004785 0.000000 0.000000 0.000000
# 3 -0.003506 -0.004785 0.008512 0.000000 0.000000 0.000000
# 4 0.000000 0.000000 0.000000 0.030871 0.000000 0.000000
# 5 0.000000 0.000000 0.000000 0.000000 0.134149 0.000000
# 6 0.000000 0.000000 0.000000 0.000000 0.000000 0.023237
#
#
# Mechanical properties :
#
#
# Convention : Reuss Voigt Hill
#
# Bulk Modulus (GPa) = 57.90616 69.98316 63.94466
# Shear Modulus (GPa) = 20.56769 32.89346 26.73058
#
# Velocity S-wave (km/s) = 3.00523 3.80049 3.42601
# Velocity P-wave (km/s) = 6.12117 7.07024 6.61275
#
# Compressibility (1/GPa) = 0.01726932
#
# Stress axis : x y z
#
# Youngs Moduli (GPa) = 88.55640 74.77056 117.48736
#
# Poissons Ratio (x) = -0.02517 0.41189
# Poissons Ratio (y) = -0.02981 0.56219
# Poissons Ratio (z) = 0.31046 0.35779
#
# Static dielectric constant tensor:
#      x y z
#    x 3.638710 0.000000 0.000000 
#    y 0.000000 4.284240 0.000000 
#    z 0.000000 0.000000 4.484400 
# 
# 
# High freq. dielectric constant tensor:
#      x y z
#    x 1.855570 0.000000 0.000000 
#    y 0.000000 1.921020 0.000000 
#    z 0.000000 0.000000 1.932070 
# 
# From -- ./inp_files/15228.got.cif
#   From: 2010.06.25/outbox.cif.g09.slc.cpg/sg58_8_cif.got.tgz:15228.got - 2010.06.26 21:38:00.
