data_PCOD8238646
_publ_section_title
;
Structure prediction by ZEFSAII (Michael W. Deem and Ramdas Pophale) SiO2 
 PCOD8238646
Probable space group: P N N M
;
_chemical_formula_sum "Si O2"
_cell_formula_units_Z 56
_cell_length_a 21.463464
_cell_length_b 14.543012
_cell_length_c 8.882018
_cell_angle_alpha 90.000000
_cell_angle_beta 90.000000
_cell_angle_gamma 90.000000
_cell_volume 2772.463426
_symmetry_space_group_name_H-M "P N N M"
_symmetry_group_IT_number 58
_symmetry_cell_setting 'orthorhombic'
loop_
_space_group_symop_operation_xyz
x,y,z
-x,-y,z
1/2+x,1/2-y,1/2-z
1/2-x,1/2+y,1/2-z
-x,-y,-z
x,y,-z
1/2-x,1/2+y,1/2+z
1/2+x,1/2-y,1/2+z
loop_
_atom_site_type_symbol
_atom_site_label
_atom_site_fract_x
_atom_site_fract_y
_atom_site_fract_z
Si Si1 0.720285 0.185294 0.325671
Si Si2 0.744313 0.888973 0.172243
Si Si3 0.599632 0.102325 0.177264
Si Si4 0.385792 0.086717 0.676702
Si Si5 0.678799 0.568477 0.674230
Si Si6 0.019568 0.715552 0.673570
Si Si7 0.451484 0.422031 0.826762
O O1 0.709626 0.162268 0.500000
O O2 0.720599 0.293824 0.294696
O O3 0.665848 0.139072 0.231130
O O4 0.786177 0.144612 0.273225
O O5 0.686025 0.901338 0.280882
O O6 0.793638 0.968150 0.207523
O O7 0.720358 0.892829 0.000000
O O8 0.545790 0.172561 0.227726
O O9 0.584548 0.003536 0.247948
O O10 0.602920 0.090313 0.000000
O O11 0.391463 0.076052 0.500000
O O12 0.423721 0.175750 0.729674
O O13 0.685388 0.595414 0.500000
O O14 0.607195 0.567627 0.719272
O O15 0.032452 0.691181 0.500000
O O16 0.015440 0.824269 0.700144
O O17 0.500000 0.500000 0.779273
O O18 0.430396 0.433329 0.000000
#
# Coordination Sequence:
#
# PCOD8238646 Si02
#       7
#     8   8   8   8   8   8   8
#     4  11  23  40  63  93 125 163 207 258 312 367
#     4  10  23  41  62  88 126 166 201 248 313 372
#     4  11  23  40  63  91 124 163 206 255 313 377
#     4  12  24  39  63  95 125 161 209 257 309 369
#     4  11  23  41  64  92 125 166 206 252 310 370
#     4  10  23  42  63  88 123 168 207 251 315 373
#     4  10  23  43  66  92 125 165 211 262 310 365
#
# _framework density 20.198643000000001
#
# number of rings (size 3 to 8) (size 9 to 14) (size 15 to 20)
#    0.000    1.286    1.429    3.857    2.000    8.857 
#    0.000    0.000    0.000    0.000    0.000    0.000 
#    0.000    0.000    0.000    0.000    0.000    0.000 
#
# Total GULP energy -694845.880054 kJ/mol
# GULP energy per Si atom -12407.962144 kJ/mol
# Density = 2.015267 g / cm^3
# Si number density = 20.198643 Si / 1000 Ang^3
#
#
#
# Elastic Constant Matrix: (Units=GPa)
#
#
# Indices 1 2 3 4 5 6 
#
# 1 85.8278 28.4677 23.8615 0.0000 0.0000 0.0000
# 2 28.4677 112.5584 37.5600 0.0000 0.0000 0.0000
# 3 23.8615 37.5600 81.6127 0.0000 0.0000 0.0000
# 4 0.0000 0.0000 0.0000 23.5131 0.0000 0.0000
# 5 0.0000 0.0000 0.0000 0.0000 33.5488 0.0000
# 6 0.0000 0.0000 0.0000 0.0000 0.0000 33.7549
#
#
#
# Elastic Compliance Matrix: (Units=1/GPa)
#
#
# Indices 1 2 3 4 5 6 
#
# 1 0.013220 -0.002426 -0.002749 0.000000 0.000000 0.000000
# 2 -0.002426 0.010942 -0.004326 0.000000 0.000000 0.000000
# 3 -0.002749 -0.004326 0.015048 0.000000 0.000000 0.000000
# 4 0.000000 0.000000 0.000000 0.042529 0.000000 0.000000
# 5 0.000000 0.000000 0.000000 0.000000 0.029807 0.000000
# 6 0.000000 0.000000 0.000000 0.000000 0.000000 0.029625
#
#
# Mechanical properties :
#
#
# Convention : Reuss Voigt Hill
#
# Bulk Modulus (GPa) = 49.48750 51.08638 50.28694
# Shear Modulus (GPa) = 29.95637 30.83733 30.39685
#
# Velocity S-wave (km/s) = 3.85527 3.91154 3.88351
# Velocity P-wave (km/s) = 6.66116 6.76366 6.71261
#
# Compressibility (1/GPa) = 0.02020712
#
# Stress axis : x y z
#
# Youngs Moduli (GPa) = 75.64194 91.39470 66.45585
#
# Poissons Ratio (x) = 0.22176 0.18266
# Poissons Ratio (y) = 0.18354 0.28750
# Poissons Ratio (z) = 0.20791 0.39539
#
# Static dielectric constant tensor:
#      x y z
#    x 3.610070 0.000000 0.000000 
#    y 0.000000 3.926480 0.000000 
#    z 0.000000 0.000000 3.645600 
# 
# 
# High freq. dielectric constant tensor:
#      x y z
#    x 1.791080 0.000000 0.000000 
#    y 0.000000 1.805830 0.000000 
#    z 0.000000 0.000000 1.789870 
# 
# From -- ./inp_files/8972.got.cif
#   From: 2010.06.25/outbox.cif.g09.slc.cpg/sg58_5_cif.got.tgz:8972.got - 2010.06.26 21:38:00.
