data_PCOD8238300
_publ_section_title
;
Structure prediction by ZEFSAII (Michael W. Deem and Ramdas Pophale) SiO2 
 PCOD8238300
Probable space group: P N N M
;
_chemical_formula_sum "Si O2"
_cell_formula_units_Z 56
_cell_length_a 21.639483
_cell_length_b 14.558029
_cell_length_c 8.959690
_cell_angle_alpha 90.000000
_cell_angle_beta 90.000000
_cell_angle_gamma 90.000000
_cell_volume 2822.555202
_symmetry_space_group_name_H-M "P N N M"
_symmetry_group_IT_number 58
_symmetry_cell_setting 'orthorhombic'
loop_
_space_group_symop_operation_xyz
x,y,z
-x,-y,z
1/2+x,1/2-y,1/2-z
1/2-x,1/2+y,1/2-z
-x,-y,-z
x,y,-z
1/2-x,1/2+y,1/2+z
1/2+x,1/2-y,1/2+z
loop_
_atom_site_type_symbol
_atom_site_label
_atom_site_fract_x
_atom_site_fract_y
_atom_site_fract_z
Si Si1 0.172473 0.965302 0.330871
Si Si2 0.760133 0.373086 0.827304
Si Si3 0.884664 0.422153 0.676580
Si Si4 0.473534 0.218896 0.325179
Si Si5 0.773695 0.687610 0.827401
Si Si6 0.094922 0.392237 0.173605
Si Si7 0.953138 0.075237 0.823848
O O1 0.148998 0.953773 0.500000
O O2 0.198475 0.067232 0.302359
O O3 0.227062 0.894658 0.296284
O O4 0.116259 0.947885 0.221374
O O5 0.814679 0.418602 0.732928
O O6 0.746638 0.270715 0.775924
O O7 0.780189 0.373614 0.000000
O O8 0.885715 0.421160 0.500000
O O9 0.920781 0.333842 0.735856
O O10 0.916992 0.514847 0.734817
O O11 0.458218 0.211575 0.500000
O O12 0.540512 0.178221 0.287850
O O13 0.472846 0.323811 0.268015
O O14 0.841511 0.655475 0.777741
O O15 0.773112 0.718590 0.000000
O O16 0.096155 0.419103 0.000000
O O17 0.956804 0.071247 0.000000
O O18 0.000000 0.000000 0.754098
#
# Coordination Sequence:
#
# PCOD8238300 Si02
#       7
#     8   8   8   8   8   8   8
#     4  10  22  41  62  87 122 160 197 243 303 362
#     4  11  23  40  62  89 122 160 203 247 304 370
#     4  12  24  39  61  92 125 160 206 256 306 358
#     4  10  22  40  63  89 121 166 206 246 308 368
#     4  10  21  39  63  92 124 158 201 252 305 361
#     4  10  21  40  64  89 124 164 201 247 309 374
#     4  10  23  41  63  91 121 156 206 255 295 356
#
# _framework density 19.840178999999999
#
# number of rings (size 3 to 8) (size 9 to 14) (size 15 to 20)
#    0.000    1.571    1.429    3.000    2.000    7.714 
#    0.000    0.000    0.000    0.000    0.000    0.000 
#    0.000    0.000    0.000    0.000    0.000    0.000 
#
# Total GULP energy -694732.626295 kJ/mol
# GULP energy per Si atom -12405.939755 kJ/mol
# Density = 1.979502 g / cm^3
# Si number density = 19.840179 Si / 1000 Ang^3
#
#
#
# Elastic Constant Matrix: (Units=GPa)
#
#
# Indices 1 2 3 4 5 6 
#
# 1 96.9506 25.3801 23.8732 0.0000 0.0000 0.0000
# 2 25.3801 81.9531 32.9914 0.0000 0.0000 0.0000
# 3 23.8732 32.9914 55.0600 0.0000 0.0000 0.0000
# 4 0.0000 0.0000 0.0000 22.3009 0.0000 0.0000
# 5 0.0000 0.0000 0.0000 0.0000 31.4124 0.0000
# 6 0.0000 0.0000 0.0000 0.0000 0.0000 30.9648
#
#
#
# Elastic Compliance Matrix: (Units=1/GPa)
#
#
# Indices 1 2 3 4 5 6 
#
# 1 0.011817 -0.002105 -0.003862 0.000000 0.000000 0.000000
# 2 -0.002105 0.016456 -0.008948 0.000000 0.000000 0.000000
# 3 -0.003862 -0.008948 0.025198 0.000000 0.000000 0.000000
# 4 0.000000 0.000000 0.000000 0.044841 0.000000 0.000000
# 5 0.000000 0.000000 0.000000 0.000000 0.031835 0.000000
# 6 0.000000 0.000000 0.000000 0.000000 0.000000 0.032295
#
#
# Mechanical properties :
#
#
# Convention : Reuss Voigt Hill
#
# Bulk Modulus (GPa) = 42.29922 44.27257 43.28590
# Shear Modulus (GPa) = 24.98114 27.05021 26.01567
#
# Velocity S-wave (km/s) = 3.55226 3.69644 3.62506
# Velocity P-wave (km/s) = 6.17988 6.37034 6.27583
#
# Compressibility (1/GPa) = 0.02364110
#
# Stress axis : x y z
#
# Youngs Moduli (GPa) = 84.62694 60.76851 39.68556
#
# Poissons Ratio (x) = 0.12789 0.15328
# Poissons Ratio (y) = 0.17811 0.35509
# Poissons Ratio (z) = 0.32687 0.54374
#
# Static dielectric constant tensor:
#      x y z
#    x 3.656000 0.000000 0.000000 
#    y 0.000000 3.823210 0.000000 
#    z 0.000000 0.000000 3.485910 
# 
# 
# High freq. dielectric constant tensor:
#      x y z
#    x 1.782070 0.000000 0.000000 
#    y 0.000000 1.788360 0.000000 
#    z 0.000000 0.000000 1.762270 
# 
# From -- ./inp_files/6416.got.cif
#   From: 2010.06.25/outbox.cif.g09.slc.cpg/sg58_4_cif.got.tgz:6416.got - 2010.06.26 21:38:00.
