data_PCOD8238927
_publ_section_title
;
Structure prediction by ZEFSAII (Michael W. Deem and Ramdas Pophale) SiO2 
 PCOD8238927
Probable space group: P N N M
;
_chemical_formula_sum "Si O2"
_cell_formula_units_Z 64
_cell_length_a 9.505141
_cell_length_b 11.642088
_cell_length_c 26.827884
_cell_angle_alpha 90.000000
_cell_angle_beta 90.000000
_cell_angle_gamma 90.000000
_cell_volume 2968.765272
_symmetry_space_group_name_H-M "P N N M"
_symmetry_group_IT_number 58
_symmetry_cell_setting 'orthorhombic'
loop_
_space_group_symop_operation_xyz
x,y,z
-x,-y,z
1/2+x,1/2-y,1/2-z
1/2-x,1/2+y,1/2-z
-x,-y,-z
x,y,-z
1/2-x,1/2+y,1/2+z
1/2+x,1/2-y,1/2+z
loop_
_atom_site_type_symbol
_atom_site_label
_atom_site_fract_x
_atom_site_fract_y
_atom_site_fract_z
Si Si1 0.672295 0.704644 0.643814
Si Si2 0.430886 0.739783 0.200241
Si Si3 0.654855 0.965003 0.337090
Si Si4 0.291434 0.930767 0.057394
Si Si5 0.369592 0.071623 0.779590
Si Si6 0.420474 0.608882 0.295453
Si Si7 0.596440 0.826319 0.056868
Si Si8 0.412136 0.398060 0.121238
O O1 0.808507 0.674766 0.678770
O O2 0.684263 0.841718 0.637641
O O3 0.679008 0.634708 0.592080
O O4 0.518714 0.674129 0.665469
O O5 0.575798 0.798796 0.216291
O O6 0.367052 0.689334 0.250892
O O7 0.474567 0.637841 0.163285
O O8 0.665836 0.962643 0.277168
O O9 0.500000 0.000000 0.354417
O O10 0.764373 0.058606 0.357114
O O11 0.437453 0.865313 0.065388
O O12 0.304444 0.065685 0.072080
O O13 0.242339 0.920091 0.000000
O O14 0.231370 0.062528 0.815908
O O15 0.500000 0.000000 0.801867
O O16 0.500000 0.500000 0.273077
O O17 0.627433 0.712121 0.088088
O O18 0.624535 0.793541 0.000000
O O19 0.500000 0.500000 0.092673
#
# Coordination Sequence:
#
# PCOD8238927 Si02
#       8
#     8   8   8   8   8   8   8   8
#     4  12  23  43  65 100 135 177 229 281 358 405
#     4  12  22  38  62  92 131 179 233 275 334 402
#     4  11  24  42  61  90 134 182 228 276 339 407
#     4   9  19  41  70 103 139 172 220 294 354 414
#     4  11  24  41  61  87 128 185 234 281 331 395
#     4  12  24  40  58  91 134 178 228 287 331 406
#     4   9  19  38  69 105 135 171 226 288 353 415
#     4  12  22  38  64  96 137 179 223 283 338 409
#
# _framework density 21.557784999999999
#
# number of rings (size 3 to 8) (size 9 to 14) (size 15 to 20)
#    0.000    1.000    5.000    2.625    1.750    3.250 
#    0.000    0.625    0.000    1.875    0.000    0.875 
#    0.000    0.500    0.000    0.000    0.000    0.000 
#
# Total GULP energy -793118.823433 kJ/mol
# GULP energy per Si atom -12392.481616 kJ/mol
# Density = 2.150872 g / cm^3
# Si number density = 21.557785 Si / 1000 Ang^3
#
#
#
# Elastic Constant Matrix: (Units=GPa)
#
#
# Indices 1 2 3 4 5 6 
#
# 1 156.6894 60.0342 43.9339 0.0000 0.0000 0.0000
# 2 60.0342 115.6830 50.9196 0.0000 0.0000 0.0000
# 3 43.9339 50.9196 88.5936 0.0000 0.0000 0.0000
# 4 0.0000 0.0000 0.0000 34.5269 0.0000 0.0000
# 5 0.0000 0.0000 0.0000 0.0000 16.0268 0.0000
# 6 0.0000 0.0000 0.0000 0.0000 0.0000 45.2751
#
#
#
# Elastic Compliance Matrix: (Units=1/GPa)
#
#
# Indices 1 2 3 4 5 6 
#
# 1 0.008271 -0.003329 -0.002188 0.000000 0.000000 0.000000
# 2 -0.003329 0.012912 -0.005770 0.000000 0.000000 0.000000
# 3 -0.002188 -0.005770 0.015689 0.000000 0.000000 0.000000
# 4 0.000000 0.000000 0.000000 0.028963 0.000000 0.000000
# 5 0.000000 0.000000 0.000000 0.000000 0.062396 0.000000
# 6 0.000000 0.000000 0.000000 0.000000 0.000000 0.022087
#
#
# Mechanical properties :
#
#
# Convention : Reuss Voigt Hill
#
# Bulk Modulus (GPa) = 69.94531 74.52684 72.23607
# Shear Modulus (GPa) = 28.14385 32.90430 30.52408
#
# Velocity S-wave (km/s) = 3.61710 3.91107 3.76695
# Velocity P-wave (km/s) = 7.06827 7.41896 7.24574
#
# Compressibility (1/GPa) = 0.01429688
#
# Stress axis : x y z
#
# Youngs Moduli (GPa) = 120.90219 77.44827 63.73847
#
# Poissons Ratio (x) = 0.25784 0.13948
# Poissons Ratio (y) = 0.40250 0.36778
# Poissons Ratio (z) = 0.26456 0.44689
#
# Static dielectric constant tensor:
#      x y z
#    x 4.290850 0.000000 0.000000 
#    y 0.000000 4.287090 0.000000 
#    z 0.000000 0.000000 3.594910 
# 
# 
# High freq. dielectric constant tensor:
#      x y z
#    x 1.854470 0.000000 0.000000 
#    y 0.000000 1.866590 0.000000 
#    z 0.000000 0.000000 1.804670 
# 
# From -- ./inp_files/34744.got.cif
#   From: 2010.06.25/outbox.cif.g09.slc.cpg/sg58_18_cif.got.tgz:34744.got - 2010.06.26 21:38:00.
