data_PCOD8238673
_publ_section_title
;
Structure prediction by ZEFSAII (Michael W. Deem and Ramdas Pophale) SiO2 
 PCOD8238673
Probable space group: P N N M
;
_chemical_formula_sum "Si O2"
_cell_formula_units_Z 56
_cell_length_a 21.648305
_cell_length_b 14.539425
_cell_length_c 8.589764
_cell_angle_alpha 90.000000
_cell_angle_beta 90.000000
_cell_angle_gamma 90.000000
_cell_volume 2703.661779
_symmetry_space_group_name_H-M "P N N M"
_symmetry_group_IT_number 58
_symmetry_cell_setting 'orthorhombic'
loop_
_space_group_symop_operation_xyz
x,y,z
-x,-y,z
1/2+x,1/2-y,1/2-z
1/2-x,1/2+y,1/2-z
-x,-y,-z
x,y,-z
1/2-x,1/2+y,1/2+z
1/2+x,1/2-y,1/2+z
loop_
_atom_site_type_symbol
_atom_site_label
_atom_site_fract_x
_atom_site_fract_y
_atom_site_fract_z
Si Si1 0.774411 0.207859 0.321529
Si Si2 0.456327 0.920598 0.817081
Si Si3 0.606136 0.410965 0.320552
Si Si4 0.824494 0.557035 0.179291
Si Si5 0.738296 0.390840 0.180835
Si Si6 0.391860 0.378927 0.679938
Si Si7 0.507352 0.280237 0.182479
O O1 0.779610 0.239420 0.500000
O O2 0.711594 0.151827 0.292952
O O3 0.774621 0.296168 0.210243
O O4 0.832303 0.143671 0.282507
O O5 0.385818 0.942552 0.780070
O O6 0.476065 0.820921 0.751819
O O7 0.500000 0.000000 0.743876
O O8 0.464695 0.918888 0.000000
O O9 0.593045 0.386336 0.500000
O O10 0.677429 0.392201 0.285150
O O11 0.588565 0.516395 0.284940
O O12 0.564815 0.347167 0.211668
O O13 0.782189 0.473094 0.236617
O O14 0.842760 0.544176 0.000000
O O15 0.720739 0.401278 0.000000
O O16 0.374718 0.365679 0.500000
O O17 0.447802 0.312779 0.723686
O O18 0.492167 0.279397 0.000000
#
# Coordination Sequence:
#
# PCOD8238673 Si02
#       7
#     8   8   8   8   8   8   8
#     4  11  23  41  64  93 128 166 210 260 316 380
#     4  10  24  44  64  90 124 164 211 259 310 372
#     4  11  23  41  64  94 128 167 211 257 317 380
#     4  10  23  42  64  92 125 162 205 255 311 370
#     4  11  23  40  63  94 128 163 208 258 314 376
#     4  11  24  41  63  93 128 165 209 262 317 379
#     4  11  24  41  64  92 125 169 212 263 321 374
#
# _framework density 20.71265
#
# number of rings (size 3 to 8) (size 9 to 14) (size 15 to 20)
#    0.000    1.286    1.429    3.429    2.000    9.429 
#    0.000    0.000    0.000    0.000    0.000    0.000 
#    0.000    0.000    0.000    0.000    0.000    0.000 
#
# Total GULP energy -694809.513024 kJ/mol
# GULP energy per Si atom -12407.312733 kJ/mol
# Density = 2.066551 g / cm^3
# Si number density = 20.712650 Si / 1000 Ang^3
#
#
#
# Elastic Constant Matrix: (Units=GPa)
#
#
# Indices 1 2 3 4 5 6 
#
# 1 107.4094 35.7559 18.1115 0.0000 0.0000 0.0000
# 2 35.7559 99.3593 32.5876 0.0000 0.0000 0.0000
# 3 18.1115 32.5876 39.4655 0.0000 0.0000 0.0000
# 4 0.0000 0.0000 0.0000 29.3517 0.0000 0.0000
# 5 0.0000 0.0000 0.0000 0.0000 37.3276 0.0000
# 6 0.0000 0.0000 0.0000 0.0000 0.0000 30.7643
#
#
#
# Elastic Compliance Matrix: (Units=1/GPa)
#
#
# Indices 1 2 3 4 5 6 
#
# 1 0.010738 -0.003083 -0.002382 0.000000 0.000000 0.000000
# 2 -0.003083 0.014688 -0.010713 0.000000 0.000000 0.000000
# 3 -0.002382 -0.010713 0.035278 0.000000 0.000000 0.000000
# 4 0.000000 0.000000 0.000000 0.034070 0.000000 0.000000
# 5 0.000000 0.000000 0.000000 0.000000 0.026790 0.000000
# 6 0.000000 0.000000 0.000000 0.000000 0.000000 0.032505
#
#
# Mechanical properties :
#
#
# Convention : Reuss Voigt Hill
#
# Bulk Modulus (GPa) = 35.27701 46.57158 40.92429
# Shear Modulus (GPa) = 25.52662 30.14066 27.83364
#
# Velocity S-wave (km/s) = 3.51439 3.81882 3.66976
# Velocity P-wave (km/s) = 5.79107 6.47904 6.14469
#
# Compressibility (1/GPa) = 0.02834707
#
# Stress axis : x y z
#
# Youngs Moduli (GPa) = 93.12576 68.08479 28.34634
#
# Poissons Ratio (x) = 0.20990 0.06753
# Poissons Ratio (y) = 0.28710 0.30368
# Poissons Ratio (z) = 0.22185 0.72940
#
# Static dielectric constant tensor:
#      x y z
#    x 3.680130 0.000000 0.000000 
#    y 0.000000 4.056260 0.000000 
#    z 0.000000 0.000000 3.612400 
# 
# 
# High freq. dielectric constant tensor:
#      x y z
#    x 1.815930 0.000000 0.000000 
#    y 0.000000 1.826230 0.000000 
#    z 0.000000 0.000000 1.807900 
# 
# From -- ./inp_files/9039.got.cif
#   From: 2010.06.25/outbox.cif.g09.slc.cpg/sg58_5_cif.got.tgz:9039.got - 2010.06.26 21:38:00.
