data_PCOD8238828
_publ_section_title
;
Structure prediction by ZEFSAII (Michael W. Deem and Ramdas Pophale) SiO2 
 PCOD8238828
Probable space group: P N N M
;
_chemical_formula_sum "Si O2"
_cell_formula_units_Z 24
_cell_length_a 18.770806
_cell_length_b 8.589846
_cell_length_c 7.702457
_cell_angle_alpha 90.000000
_cell_angle_beta 90.000000
_cell_angle_gamma 90.000000
_cell_volume 1241.931325
_symmetry_space_group_name_H-M "P N N M"
_symmetry_group_IT_number 58
_symmetry_cell_setting 'orthorhombic'
loop_
_space_group_symop_operation_xyz
x,y,z
-x,-y,z
1/2+x,1/2-y,1/2-z
1/2-x,1/2+y,1/2-z
-x,-y,-z
x,y,-z
1/2-x,1/2+y,1/2+z
1/2+x,1/2-y,1/2+z
loop_
_atom_site_type_symbol
_atom_site_label
_atom_site_fract_x
_atom_site_fract_y
_atom_site_fract_z
Si Si1 0.906541 0.655318 0.500000
Si Si2 0.301330 0.654284 0.808439
Si Si3 0.929142 0.294302 0.500000
Si Si4 0.338807 0.328558 0.695664
O O1 0.865790 0.719457 0.672285
O O2 0.902187 0.470350 0.500000
O O3 0.986261 0.718746 0.500000
O O4 0.323900 0.513273 0.685379
O O5 0.231603 0.740463 0.734591
O O6 0.284325 0.584671 0.000000
O O7 0.902801 0.207816 0.673388
O O8 0.359182 0.276102 0.500000
#
# Coordination Sequence:
#
# PCOD8238828 Si02
#       4
#     4   8   4   8
#     4   9  21  41  63  83 120 171 194 237 319 345
#     4   9  20  37  57  86 117 154 196 240 295 358
#     4  11  21  41  65  83 124 161 198 253 293 363
#     4  11  22  36  62  91 118 154 202 248 300 351
#
# _framework density 19.324738
#
# number of rings (size 3 to 8) (size 9 to 14) (size 15 to 20)
#    1.000    1.000    1.667    2.000    2.333    2.667 
#    0.000    8.333    0.000    0.000    0.000    0.000 
#    0.000    0.000    0.000    0.000    0.000    0.000 
#
# Total GULP energy -297491.121109 kJ/mol
# GULP energy per Si atom -12395.463380 kJ/mol
# Density = 1.928075 g / cm^3
# Si number density = 19.324738 Si / 1000 Ang^3
#
#
#
# Elastic Constant Matrix: (Units=GPa)
#
#
# Indices 1 2 3 4 5 6 
#
# 1 74.7108 5.7280 23.0204 0.0000 0.0000 0.0000
# 2 5.7280 62.0163 10.1329 0.0000 0.0000 0.0000
# 3 23.0204 10.1329 78.3426 0.0000 0.0000 0.0000
# 4 0.0000 0.0000 0.0000 24.9691 0.0000 0.0000
# 5 0.0000 0.0000 0.0000 0.0000 15.8837 0.0000
# 6 0.0000 0.0000 0.0000 0.0000 0.0000 35.1890
#
#
#
# Elastic Compliance Matrix: (Units=1/GPa)
#
#
# Indices 1 2 3 4 5 6 
#
# 1 0.014745 -0.000668 -0.004246 0.000000 0.000000 0.000000
# 2 -0.000668 0.016503 -0.001938 0.000000 0.000000 0.000000
# 3 -0.004246 -0.001938 0.014263 0.000000 0.000000 0.000000
# 4 0.000000 0.000000 0.000000 0.040050 0.000000 0.000000
# 5 0.000000 0.000000 0.000000 0.000000 0.062958 0.000000
# 6 0.000000 0.000000 0.000000 0.000000 0.000000 0.028418
#
#
# Mechanical properties :
#
#
# Convention : Reuss Voigt Hill
#
# Bulk Modulus (GPa) = 31.44094 32.53690 31.98892
# Shear Modulus (GPa) = 24.84564 26.95424 25.89994
#
# Velocity S-wave (km/s) = 3.58954 3.73876 3.66491
# Velocity P-wave (km/s) = 5.78661 5.95913 5.87350
#
# Compressibility (1/GPa) = 0.03180566
#
# Stress axis : x y z
#
# Youngs Moduli (GPa) = 67.82176 60.59436 70.11222
#
# Poissons Ratio (x) = 0.04048 0.29771
# Poissons Ratio (y) = 0.04531 0.13589
# Poissons Ratio (z) = 0.28798 0.11745
#
# Static dielectric constant tensor:
#      x y z
#    x 3.394860 0.000000 0.000000 
#    y 0.000000 3.435940 0.000000 
#    z 0.000000 0.000000 3.234810 
# 
# 
# High freq. dielectric constant tensor:
#      x y z
#    x 1.743630 0.000000 0.000000 
#    y 0.000000 1.758350 0.000000 
#    z 0.000000 0.000000 1.731320 
# 
# From -- ./inp_files/1911.got.cif
#   From: 2010.06.25/outbox.cif.g09.slc.cpg/sg58_1_cif.got.tgz:1911.got - 2010.06.26 21:38:00.
