data_PCOD8238140
_publ_section_title
;
Structure prediction by ZEFSAII (Michael W. Deem and Ramdas Pophale) SiO2 
 PCOD8238140
Probable space group: P N N M
;
_chemical_formula_sum "Si O2"
_cell_formula_units_Z 64
_cell_length_a 34.087047
_cell_length_b 4.942772
_cell_length_c 17.942597
_cell_angle_alpha 90.000000
_cell_angle_beta 90.000000
_cell_angle_gamma 90.000000
_cell_volume 3023.049511
_symmetry_space_group_name_H-M "P N N M"
_symmetry_group_IT_number 58
_symmetry_cell_setting 'orthorhombic'
loop_
_space_group_symop_operation_xyz
x,y,z
-x,-y,z
1/2+x,1/2-y,1/2-z
1/2-x,1/2+y,1/2-z
-x,-y,-z
x,y,-z
1/2-x,1/2+y,1/2+z
1/2+x,1/2-y,1/2+z
loop_
_atom_site_type_symbol
_atom_site_label
_atom_site_fract_x
_atom_site_fract_y
_atom_site_fract_z
Si Si1 0.538788 0.667657 0.759215
Si Si2 0.625849 0.464841 0.915790
Si Si3 0.353314 0.027296 0.821623
Si Si4 0.274478 0.128626 0.731136
Si Si5 0.541931 0.635339 0.078939
Si Si6 0.313423 0.308526 0.584664
Si Si7 0.134559 0.300240 0.917305
Si Si8 0.080852 0.347486 0.786265
O O1 0.500000 0.500000 0.737784
O O2 0.539866 0.797915 0.843172
O O3 0.572372 0.439722 0.752344
O O4 0.544667 0.935599 0.708345
O O5 0.634987 0.761157 0.884717
O O6 0.578317 0.422523 0.914896
O O7 0.649621 0.256746 0.864432
O O8 0.641932 0.442889 0.000000
O O9 0.313724 0.102760 0.779298
O O10 0.386263 0.010907 0.758542
O O11 0.246770 0.340988 0.773076
O O12 0.281207 0.224356 0.645700
O O13 0.500000 0.500000 0.071843
O O14 0.548201 0.802481 0.000000
O O15 0.295398 0.317213 0.500000
O O16 0.330642 0.599684 0.609138
O O17 0.349620 0.103086 0.586565
O O18 0.095634 0.275815 0.868392
O O19 0.121509 0.216437 0.000000
#
# Coordination Sequence:
#
# PCOD8238140 Si02
#       8
#     8   8   8   8   8   8   8   8
#     4  11  23  38  57  89 127 165 208 254 315 368
#     4  11  23  41  61  88 127 173 216 257 308 367
#     4  12  23  41  64  92 118 159 211 265 306 365
#     4  12  26  43  66  95 127 164 201 255 313 387
#     4   9  18  34  55  83 121 162 210 262 307 347
#     4  10  21  40  64  94 126 155 195 258 313 357
#     4  10  21  37  65  97 122 150 198 259 312 362
#     4  12  21  38  64  91 120 158 204 257 311 361
#
# _framework density 21.170676
#
# number of rings (size 3 to 8) (size 9 to 14) (size 15 to 20)
#    0.000    1.125    3.750    3.000    1.750    0.000 
#    0.000    5.000    0.000    8.250    0.000    0.000 
#    0.000    0.000    0.000    0.000    0.000    0.000 
#
# Total GULP energy -793128.247056 kJ/mol
# GULP energy per Si atom -12392.628860 kJ/mol
# Density = 2.112249 g / cm^3
# Si number density = 21.170676 Si / 1000 Ang^3
#
#
#
# Elastic Constant Matrix: (Units=GPa)
#
#
# Indices 1 2 3 4 5 6 
#
# 1 67.6424 6.8506 37.6760 0.0000 0.0000 0.0000
# 2 6.8506 73.8904 11.9978 0.0000 0.0000 0.0000
# 3 37.6760 11.9978 107.8058 0.0000 0.0000 0.0000
# 4 0.0000 0.0000 0.0000 24.0326 0.0000 0.0000
# 5 0.0000 0.0000 0.0000 0.0000 27.3715 0.0000
# 6 0.0000 0.0000 0.0000 0.0000 0.0000 29.7337
#
#
#
# Elastic Compliance Matrix: (Units=1/GPa)
#
#
# Indices 1 2 3 4 5 6 
#
# 1 0.018390 -0.000674 -0.006352 0.000000 0.000000 0.000000
# 2 -0.000674 0.013807 -0.001301 0.000000 0.000000 0.000000
# 3 -0.006352 -0.001301 0.011641 0.000000 0.000000 0.000000
# 4 0.000000 0.000000 0.000000 0.041610 0.000000 0.000000
# 5 0.000000 0.000000 0.000000 0.000000 0.036534 0.000000
# 6 0.000000 0.000000 0.000000 0.000000 0.000000 0.033632
#
#
# Mechanical properties :
#
#
# Convention : Reuss Voigt Hill
#
# Bulk Modulus (GPa) = 36.78599 40.26526 38.52563
# Shear Modulus (GPa) = 27.57420 29.08184 28.32802
#
# Velocity S-wave (km/s) = 3.61289 3.71035 3.66194
# Velocity P-wave (km/s) = 5.90065 6.11688 6.00974
#
# Compressibility (1/GPa) = 0.02718426
#
# Stress axis : x y z
#
# Youngs Moduli (GPa) = 54.37799 72.42551 85.90611
#
# Poissons Ratio (x) = 0.04879 0.54567
# Poissons Ratio (y) = 0.03663 0.11178
# Poissons Ratio (z) = 0.34540 0.09424
#
# Static dielectric constant tensor:
#      x y z
#    x 3.751480 0.000000 0.000000 
#    y 0.000000 3.794450 0.000000 
#    z 0.000000 0.000000 4.215430 
# 
# 
# High freq. dielectric constant tensor:
#      x y z
#    x 1.810000 0.000000 0.000000 
#    y 0.000000 1.830130 0.000000 
#    z 0.000000 0.000000 1.835370 
# 
# From -- ./inp_files/27783.got.cif
#   From: 2010.06.25/outbox.cif.g09.slc.cpg/sg58_14_cif.got.tgz:27783.got - 2010.06.26 21:38:00.
