data_PCOD8238239
_publ_section_title
;
Structure prediction by ZEFSAII (Michael W. Deem and Ramdas Pophale) SiO2 
 PCOD8238239
Probable space group: P N N M
;
_chemical_formula_sum "Si O2"
_cell_formula_units_Z 64
_cell_length_a 8.953709
_cell_length_b 14.865871
_cell_length_c 23.757659
_cell_angle_alpha 90.000000
_cell_angle_beta 90.000000
_cell_angle_gamma 90.000000
_cell_volume 3162.255669
_symmetry_space_group_name_H-M "P N N M"
_symmetry_group_IT_number 58
_symmetry_cell_setting 'orthorhombic'
loop_
_space_group_symop_operation_xyz
x,y,z
-x,-y,z
1/2+x,1/2-y,1/2-z
1/2-x,1/2+y,1/2-z
-x,-y,-z
x,y,-z
1/2-x,1/2+y,1/2+z
1/2+x,1/2-y,1/2+z
loop_
_atom_site_type_symbol
_atom_site_label
_atom_site_fract_x
_atom_site_fract_y
_atom_site_fract_z
Si Si1 0.710637 0.659193 0.656931
Si Si2 0.263281 0.606202 0.063248
Si Si3 0.827276 0.013698 0.934770
Si Si4 0.714646 0.819492 0.937114
Si Si5 0.111888 0.921340 0.272156
Si Si6 0.651345 0.043355 0.359608
Si Si7 0.019422 0.215472 0.360119
Si Si8 0.011496 0.281622 0.900659
O O1 0.735832 0.593208 0.603973
O O2 0.686868 0.608299 0.714630
O O3 0.861360 0.715246 0.663988
O O4 0.567253 0.723202 0.647917
O O5 0.215629 0.508640 0.086088
O O6 0.402380 0.645195 0.097804
O O7 0.119198 0.671584 0.063319
O O8 0.319214 0.593317 0.000000
O O9 0.729953 0.924743 0.921609
O O10 0.809402 0.042240 0.000000
O O11 0.000000 0.000000 0.919251
O O12 0.611254 0.769077 0.892196
O O13 0.884136 0.781272 0.938715
O O14 0.647341 0.808483 0.000000
O O15 0.235951 0.969680 0.309162
O O16 0.042985 0.837819 0.306360
O O17 0.000000 0.000000 0.255836
O O18 0.625296 0.147149 0.373537
O O19 0.500000 0.000000 0.337774
#
# Coordination Sequence:
#
# PCOD8238239 Si02
#       8
#     8   8   8   8   8   8   8   8
#     4  11  26  44  68  93 124 177 218 267 333 384
#     4  10  21  40  64  94 137 177 210 257 327 392
#     4  10  21  41  67  99 130 164 213 269 321 385
#     4  11  22  38  66  98 133 168 210 266 325 383
#     4  12  25  46  67  92 131 171 219 273 322 380
#     4  10  22  42  63  96 132 168 213 272 317 380
#     4  11  25  44  63  98 131 169 219 269 322 384
#     4  10  21  38  64  95 128 165 224 260 312 387
#
# _framework density 20.238717999999999
#
# number of rings (size 3 to 8) (size 9 to 14) (size 15 to 20)
#    0.000    1.375    3.750    1.125    1.750    5.750 
#    2.250    1.875    0.000    0.000    0.000    0.000 
#    0.000    0.000    0.000    0.000    0.000    0.000 
#
# Total GULP energy -793705.546004 kJ/mol
# GULP energy per Si atom -12401.649156 kJ/mol
# Density = 2.019265 g / cm^3
# Si number density = 20.238718 Si / 1000 Ang^3
#
#
#
# Elastic Constant Matrix: (Units=GPa)
#
#
# Indices 1 2 3 4 5 6 
#
# 1 80.9018 31.1389 33.1132 0.0000 0.0000 0.0000
# 2 31.1389 103.9138 41.3424 0.0000 0.0000 0.0000
# 3 33.1132 41.3424 99.6680 0.0000 0.0000 0.0000
# 4 0.0000 0.0000 0.0000 28.6186 0.0000 0.0000
# 5 0.0000 0.0000 0.0000 0.0000 21.0933 0.0000
# 6 0.0000 0.0000 0.0000 0.0000 0.0000 37.8989
#
#
#
# Elastic Compliance Matrix: (Units=1/GPa)
#
#
# Indices 1 2 3 4 5 6 
#
# 1 0.015058 -0.003020 -0.003750 0.000000 0.000000 0.000000
# 2 -0.003020 0.012131 -0.004029 0.000000 0.000000 0.000000
# 3 -0.003750 -0.004029 0.012950 0.000000 0.000000 0.000000
# 4 0.000000 0.000000 0.000000 0.034942 0.000000 0.000000
# 5 0.000000 0.000000 0.000000 0.000000 0.047409 0.000000
# 6 0.000000 0.000000 0.000000 0.000000 0.000000 0.026386
#
#
# Mechanical properties :
#
#
# Convention : Reuss Voigt Hill
#
# Bulk Modulus (GPa) = 53.93247 55.07473 54.50360
# Shear Modulus (GPa) = 28.30380 29.44810 28.87595
#
# Velocity S-wave (km/s) = 3.74371 3.81863 3.78136
# Velocity P-wave (km/s) = 6.73744 6.83478 6.78629
#
# Compressibility (1/GPa) = 0.01854171
#
# Stress axis : x y z
#
# Youngs Moduli (GPa) = 66.40965 82.43182 77.21863
#
# Poissons Ratio (x) = 0.24897 0.28957
# Poissons Ratio (y) = 0.20058 0.31108
# Poissons Ratio (z) = 0.24903 0.33208
#
# Static dielectric constant tensor:
#      x y z
#    x 3.692290 0.000000 0.000000 
#    y 0.000000 3.870840 0.000000 
#    z 0.000000 0.000000 3.447110 
# 
# 
# High freq. dielectric constant tensor:
#      x y z
#    x 1.796110 0.000000 0.000000 
#    y 0.000000 1.804690 0.000000 
#    z 0.000000 0.000000 1.778970 
# 
# From -- ./inp_files/31640.got.cif
#   From: 2010.06.25/outbox.cif.g09.slc.cpg/sg58_16_cif.got.tgz:31640.got - 2010.06.26 21:38:00.
