data_PCOD8238474
_publ_section_title
;
Structure prediction by ZEFSAII (Michael W. Deem and Ramdas Pophale) SiO2 
 PCOD8238474
Probable space group: P N N M
;
_chemical_formula_sum "Si O2"
_cell_formula_units_Z 64
_cell_length_a 15.915898
_cell_length_b 8.762126
_cell_length_c 22.830685
_cell_angle_alpha 90.000000
_cell_angle_beta 90.000000
_cell_angle_gamma 90.000000
_cell_volume 3183.901205
_symmetry_space_group_name_H-M "P N N M"
_symmetry_group_IT_number 58
_symmetry_cell_setting 'orthorhombic'
loop_
_space_group_symop_operation_xyz
x,y,z
-x,-y,z
1/2+x,1/2-y,1/2-z
1/2-x,1/2+y,1/2-z
-x,-y,-z
x,y,-z
1/2-x,1/2+y,1/2+z
1/2+x,1/2-y,1/2+z
loop_
_atom_site_type_symbol
_atom_site_label
_atom_site_fract_x
_atom_site_fract_y
_atom_site_fract_z
Si Si1 0.263380 0.003498 0.066801
Si Si2 0.830295 0.367086 0.729010
Si Si3 0.211255 0.262766 0.144308
Si Si4 0.486404 0.318752 0.784901
Si Si5 0.132165 0.341734 0.340354
Si Si6 0.518337 0.180610 0.341839
Si Si7 0.379094 0.266292 0.432173
Si Si8 0.230839 0.596464 0.851176
O O1 0.249108 0.174787 0.088579
O O2 0.343050 0.924699 0.099005
O O3 0.173582 0.921338 0.077860
O O4 0.290118 0.003225 0.000000
O O5 0.737137 0.332429 0.702958
O O6 0.855960 0.538721 0.712197
O O7 0.836148 0.368484 0.799287
O O8 0.891021 0.234777 0.703874
O O9 0.113032 0.291268 0.137212
O O10 0.259963 0.422864 0.147073
O O11 0.500000 0.500000 0.791383
O O12 0.538545 0.226082 0.834767
O O13 0.510634 0.264356 0.720002
O O14 0.189753 0.194769 0.333568
O O15 0.461334 0.263016 0.391433
O O16 0.500000 0.000000 0.337869
O O17 0.404916 0.243157 0.500000
O O18 0.314281 0.133768 0.412672
#
# Coordination Sequence:
#
# PCOD8238474 Si02
#       8
#     8   8   8   8   8   8   8   8
#     4   9  22  43  64  88 119 163 210 256 310 369
#     4  11  21  38  58  87 125 160 200 255 315 379
#     4  11  23  35  61  87 120 161 206 258 308 367
#     4  12  24  36  61  93 126 159 201 257 315 373
#     4  10  22  38  64  87 120 163 202 252 313 376
#     4  12  23  40  56  87 128 170 209 253 305 363
#     4  10  22  39  59  83 119 168 210 248 295 356
#     4  11  19  37  57  86 120 159 208 253 302 363
#
# _framework density 20.101126000000001
#
# number of rings (size 3 to 8) (size 9 to 14) (size 15 to 20)
#    0.000    1.250    2.500    4.125    1.750    2.250 
#    0.000    1.250    0.000    6.375    0.000    0.000 
#    0.000    0.000    0.000    0.000    0.000    0.000 
#
# Total GULP energy -793279.191257 kJ/mol
# GULP energy per Si atom -12394.987363 kJ/mol
# Density = 2.005538 g / cm^3
# Si number density = 20.101126 Si / 1000 Ang^3
#
#
#
# Elastic Constant Matrix: (Units=GPa)
#
#
# Indices 1 2 3 4 5 6 
#
# 1 83.1843 38.1783 46.4000 0.0000 0.0000 0.0000
# 2 38.1783 120.0024 37.4578 0.0000 0.0000 0.0000
# 3 46.4000 37.4578 103.9911 0.0000 0.0000 0.0000
# 4 0.0000 0.0000 0.0000 21.6015 0.0000 0.0000
# 5 0.0000 0.0000 0.0000 0.0000 25.0629 0.0000
# 6 0.0000 0.0000 0.0000 0.0000 0.0000 31.3205
#
#
#
# Elastic Compliance Matrix: (Units=1/GPa)
#
#
# Indices 1 2 3 4 5 6 
#
# 1 0.017195 -0.003465 -0.006424 0.000000 0.000000 0.000000
# 2 -0.003465 0.010087 -0.002087 0.000000 0.000000 0.000000
# 3 -0.006424 -0.002087 0.013234 0.000000 0.000000 0.000000
# 4 0.000000 0.000000 0.000000 0.046293 0.000000 0.000000
# 5 0.000000 0.000000 0.000000 0.000000 0.039900 0.000000
# 6 0.000000 0.000000 0.000000 0.000000 0.000000 0.031928
#
#
# Mechanical properties :
#
#
# Convention : Reuss Voigt Hill
#
# Bulk Modulus (GPa) = 60.37395 61.25001 60.81198
# Shear Modulus (GPa) = 26.57986 27.93975 27.25981
#
# Velocity S-wave (km/s) = 3.64030 3.73226 3.68657
# Velocity P-wave (km/s) = 6.91154 7.00786 6.95987
#
# Compressibility (1/GPa) = 0.01656344
#
# Stress axis : x y z
#
# Youngs Moduli (GPa) = 58.15523 99.13588 75.56040
#
# Poissons Ratio (x) = 0.34354 0.48541
# Poissons Ratio (y) = 0.20153 0.15771
# Poissons Ratio (z) = 0.37360 0.20692
#
# Static dielectric constant tensor:
#      x y z
#    x 3.721490 0.000000 0.000000 
#    y 0.000000 3.844130 0.000000 
#    z 0.000000 0.000000 3.493950 
# 
# 
# High freq. dielectric constant tensor:
#      x y z
#    x 1.781350 0.000000 0.000000 
#    y 0.000000 1.798170 0.000000 
#    z 0.000000 0.000000 1.765880 
# 
# From -- ./inp_files/32240.got.cif
#   From: 2010.06.25/outbox.cif.g09.slc.cpg/sg58_17_cif.got.tgz:32240.got - 2010.06.26 21:38:00.
