data_PCOD8238410
_publ_section_title
;
Structure prediction by ZEFSAII (Michael W. Deem and Ramdas Pophale) SiO2 
 PCOD8238410
Probable space group: P N N M
;
_chemical_formula_sum "Si O2"
_cell_formula_units_Z 28
_cell_length_a 10.677325
_cell_length_b 18.648902
_cell_length_c 7.520653
_cell_angle_alpha 90.000000
_cell_angle_beta 90.000000
_cell_angle_gamma 90.000000
_cell_volume 1497.515340
_symmetry_space_group_name_H-M "P N N M"
_symmetry_group_IT_number 58
_symmetry_cell_setting 'orthorhombic'
loop_
_space_group_symop_operation_xyz
x,y,z
-x,-y,z
1/2+x,1/2-y,1/2-z
1/2-x,1/2+y,1/2-z
-x,-y,-z
x,y,-z
1/2-x,1/2+y,1/2+z
1/2+x,1/2-y,1/2+z
loop_
_atom_site_type_symbol
_atom_site_label
_atom_site_fract_x
_atom_site_fract_y
_atom_site_fract_z
Si Si1 0.860443 0.521558 0.297427
Si Si2 0.754056 0.618476 0.000000
Si Si3 0.483491 0.653524 0.000000
Si Si4 0.251155 0.125182 0.696354
Si Si5 0.828419 0.270067 0.500000
O O1 0.857041 0.548678 0.500000
O O2 0.816098 0.586961 0.176455
O O3 0.769198 0.453998 0.273829
O O4 0.000000 0.500000 0.240115
O O5 0.604292 0.600821 0.000000
O O6 0.772697 0.704852 0.000000
O O7 0.398584 0.639207 0.176000
O O8 0.531605 0.736251 0.000000
O O9 0.314848 0.131265 0.500000
O O10 0.313930 0.182793 0.824301
#
# Coordination Sequence:
#
# PCOD8238410 Si02
#       5
#     8   4   4   8   4
#     4  11  23  40  64  95 123 163 213 255 307 365
#     4  10  22  43  59  94 124 160 204 254 314 360
#     4   8  23  42  58  93 129 151 215 250 304 373
#     4  10  21  42  64  87 127 162 205 258 310 363
#     4  10  22  43  60  94 125 164 204 252 319 362
#
# _framework density 18.697638999999999
#
# number of rings (size 3 to 8) (size 9 to 14) (size 15 to 20)
#    1.714    0.286    2.857    0.429    0.000    5.714 
#    5.143    1.429    0.000    0.000    0.000    0.000 
#    0.000    0.000    0.000    0.000    0.000    0.000 
#
# Total GULP energy -346995.537072 kJ/mol
# GULP energy per Si atom -12392.697753 kJ/mol
# Density = 1.865508 g / cm^3
# Si number density = 18.697639 Si / 1000 Ang^3
#
#
#
# Elastic Constant Matrix: (Units=GPa)
#
#
# Indices 1 2 3 4 5 6 
#
# 1 47.6230 -25.1246 16.2888 0.0000 0.0000 0.0000
# 2 -25.1246 66.8210 26.8640 0.0000 0.0000 0.0000
# 3 16.2888 26.8640 97.6510 0.0000 0.0000 0.0000
# 4 0.0000 0.0000 0.0000 10.6850 0.0000 0.0000
# 5 0.0000 0.0000 0.0000 0.0000 31.2118 0.0000
# 6 0.0000 0.0000 0.0000 0.0000 0.0000 38.6358
#
#
#
# Elastic Compliance Matrix: (Units=1/GPa)
#
#
# Indices 1 2 3 4 5 6 
#
# 1 0.033159 0.016518 -0.010075 0.000000 0.000000 0.000000
# 2 0.016518 0.025055 -0.009648 0.000000 0.000000 0.000000
# 3 -0.010075 -0.009648 0.014575 0.000000 0.000000 0.000000
# 4 0.000000 0.000000 0.000000 0.093589 0.000000 0.000000
# 5 0.000000 0.000000 0.000000 0.000000 0.032039 0.000000
# 6 0.000000 0.000000 0.000000 0.000000 0.000000 0.025883
#
#
# Mechanical properties :
#
#
# Convention : Reuss Voigt Hill
#
# Bulk Modulus (GPa) = 15.06495 27.57240 21.31867
# Shear Modulus (GPa) = 19.77558 29.04430 24.40994
#
# Velocity S-wave (km/s) = 3.25568 3.94555 3.61710
# Velocity P-wave (km/s) = 4.71246 5.96112 5.37319
#
# Compressibility (1/GPa) = 0.06637925
#
# Stress axis : x y z
#
# Youngs Moduli (GPa) = 30.15770 39.91213 68.60880
#
# Poissons Ratio (x) = -0.65928 0.69126
# Poissons Ratio (y) = -0.49816 0.66194
# Poissons Ratio (z) = 0.30385 0.38507
#
# Static dielectric constant tensor:
#      x y z
#    x 3.334660 0.000000 0.000000 
#    y 0.000000 3.304770 0.000000 
#    z 0.000000 0.000000 3.374450 
# 
# 
# High freq. dielectric constant tensor:
#      x y z
#    x 1.716100 0.000000 0.000000 
#    y 0.000000 1.722590 0.000000 
#    z 0.000000 0.000000 1.728430 
# 
# From -- ./inp_files/3684.got.cif
#   From: 2010.06.25/outbox.cif.g09.slc.cpg/sg58_2_cif.got.tgz:3684.got - 2010.06.26 21:38:00.
