data_PCOD8238105
_publ_section_title
;
Structure prediction by ZEFSAII (Michael W. Deem and Ramdas Pophale) SiO2 
 PCOD8238105
Probable space group: P N N M
;
_chemical_formula_sum "Si O2"
_cell_formula_units_Z 56
_cell_length_a 14.427161
_cell_length_b 21.417000
_cell_length_c 8.999558
_cell_angle_alpha 90.000000
_cell_angle_beta 90.000000
_cell_angle_gamma 90.000000
_cell_volume 2780.741992
_symmetry_space_group_name_H-M "P N N M"
_symmetry_group_IT_number 58
_symmetry_cell_setting 'orthorhombic'
loop_
_space_group_symop_operation_xyz
x,y,z
-x,-y,z
1/2+x,1/2-y,1/2-z
1/2-x,1/2+y,1/2-z
-x,-y,-z
x,y,-z
1/2-x,1/2+y,1/2+z
1/2+x,1/2-y,1/2+z
loop_
_atom_site_type_symbol
_atom_site_label
_atom_site_fract_x
_atom_site_fract_y
_atom_site_fract_z
Si Si1 0.396013 0.617610 0.828286
Si Si2 0.093301 0.536085 0.174549
Si Si3 0.053293 0.674821 0.828074
Si Si4 0.605680 0.592220 0.170807
Si Si5 0.280529 0.514716 0.324071
Si Si6 0.889150 0.741804 0.327444
Si Si7 0.819610 0.210466 0.829417
O O1 0.495504 0.584884 0.810364
O O2 0.320464 0.579897 0.735366
O O3 0.398809 0.687935 0.763895
O O4 0.363799 0.617930 0.000000
O O5 0.084317 0.607271 0.230456
O O6 0.177606 0.503742 0.261478
O O7 0.000000 0.500000 0.217159
O O8 0.114342 0.531979 0.000000
O O9 0.136866 0.722113 0.795696
O O10 0.960072 0.695379 0.748402
O O11 0.028303 0.670595 0.000000
O O12 0.654871 0.541874 0.273198
O O13 0.634337 0.661372 0.219307
O O14 0.634598 0.581665 0.000000
O O15 0.277542 0.515827 0.500000
O O16 0.912717 0.743851 0.500000
O O17 0.788485 0.714280 0.294501
O O18 0.837934 0.190628 0.000000
#
# Coordination Sequence:
#
# PCOD8238105 Si02
#       7
#     8   8   8   8   8   8   8
#     4  10  21  41  65  91 124 165 209 250 305 371
#     4  10  23  44  67  91 124 167 214 256 302 366
#     4  10  21  39  63  91 124 162 204 254 305 360
#     4  11  23  40  64  90 121 162 209 256 307 374
#     4  12  26  41  62  92 126 163 204 258 315 367
#     4  10  21  38  62  91 124 162 202 251 305 364
#     4  10  21  37  59  89 127 163 200 255 316 362
#
# _framework density 20.13851
#
# number of rings (size 3 to 8) (size 9 to 14) (size 15 to 20)
#    0.000    1.571    1.429    3.000    2.000    7.143 
#    0.000    1.429    0.000    0.000    0.000    0.000 
#    0.000    0.000    0.000    0.000    0.000    0.000 
#
# Total GULP energy -694752.257276 kJ/mol
# GULP energy per Si atom -12406.290309 kJ/mol
# Density = 2.009267 g / cm^3
# Si number density = 20.138510 Si / 1000 Ang^3
#
#
#
# Elastic Constant Matrix: (Units=GPa)
#
#
# Indices 1 2 3 4 5 6 
#
# 1 86.8076 7.9587 40.8862 0.0000 0.0000 0.0000
# 2 7.9587 66.8282 23.0393 0.0000 0.0000 0.0000
# 3 40.8862 23.0393 78.6164 0.0000 0.0000 0.0000
# 4 0.0000 0.0000 0.0000 32.1228 0.0000 0.0000
# 5 0.0000 0.0000 0.0000 0.0000 31.2899 0.0000
# 6 0.0000 0.0000 0.0000 0.0000 0.0000 31.1393
#
#
#
# Elastic Compliance Matrix: (Units=1/GPa)
#
#
# Indices 1 2 3 4 5 6 
#
# 1 0.015320 0.001026 -0.008268 0.000000 0.000000 0.000000
# 2 0.001026 0.016714 -0.005432 0.000000 0.000000 0.000000
# 3 -0.008268 -0.005432 0.018612 0.000000 0.000000 0.000000
# 4 0.000000 0.000000 0.000000 0.031131 0.000000 0.000000
# 5 0.000000 0.000000 0.000000 0.000000 0.031959 0.000000
# 6 0.000000 0.000000 0.000000 0.000000 0.000000 0.032114
#
#
# Mechanical properties :
#
#
# Convention : Reuss Voigt Hill
#
# Bulk Modulus (GPa) = 39.52878 41.78006 40.65442
# Shear Modulus (GPa) = 27.83494 29.60159 28.71826
#
# Velocity S-wave (km/s) = 3.72179 3.83809 3.78039
# Velocity P-wave (km/s) = 6.17576 6.35866 6.26788
#
# Compressibility (1/GPa) = 0.02529802
#
# Stress axis : x y z
#
# Youngs Moduli (GPa) = 65.27439 59.82928 53.72905
#
# Poissons Ratio (x) = -0.06138 0.44424
# Poissons Ratio (y) = -0.06697 0.29185
# Poissons Ratio (z) = 0.53970 0.32498
#
# Static dielectric constant tensor:
#      x y z
#    x 3.714460 0.000000 0.000000 
#    y 0.000000 3.782240 0.000000 
#    z 0.000000 0.000000 3.533670 
# 
# 
# High freq. dielectric constant tensor:
#      x y z
#    x 1.799160 0.000000 0.000000 
#    y 0.000000 1.795990 0.000000 
#    z 0.000000 0.000000 1.773560 
# 
# From -- ./inp_files/6441.got.cif
#   From: 2010.06.25/outbox.cif.g09.slc.cpg/sg58_4_cif.got.tgz:6441.got - 2010.06.26 21:38:00.
