data_PCOD8238842
_publ_section_title
;
Structure prediction by ZEFSAII (Michael W. Deem and Ramdas Pophale) SiO2 
 PCOD8238842
Probable space group: P N N M
;
_chemical_formula_sum "Si O2"
_cell_formula_units_Z 48
_cell_length_a 12.371420
_cell_length_b 21.929135
_cell_length_c 8.482139
_cell_angle_alpha 90.000000
_cell_angle_beta 90.000000
_cell_angle_gamma 90.000000
_cell_volume 2301.157992
_symmetry_space_group_name_H-M "P N N M"
_symmetry_group_IT_number 58
_symmetry_cell_setting 'orthorhombic'
loop_
_space_group_symop_operation_xyz
x,y,z
-x,-y,z
1/2+x,1/2-y,1/2-z
1/2-x,1/2+y,1/2-z
-x,-y,-z
x,y,-z
1/2-x,1/2+y,1/2+z
1/2+x,1/2-y,1/2+z
loop_
_atom_site_type_symbol
_atom_site_label
_atom_site_fract_x
_atom_site_fract_y
_atom_site_fract_z
Si Si1 0.366813 0.174822 0.315836
Si Si2 0.375250 0.504762 0.319646
Si Si3 0.862720 0.868198 0.317736
Si Si4 0.255004 0.395655 0.182116
Si Si5 0.018183 0.431486 0.187690
Si Si6 0.425702 0.306779 0.685255
O O1 0.390120 0.174321 0.500000
O O2 0.238742 0.175472 0.281532
O O3 0.426749 0.114949 0.244895
O O4 0.413599 0.238139 0.247816
O O5 0.500000 0.500000 0.277215
O O6 0.352158 0.486083 0.500000
O O7 0.338956 0.573369 0.288983
O O8 0.312267 0.460577 0.202807
O O9 0.866489 0.887812 0.500000
O O10 0.973928 0.835883 0.275087
O O11 0.132550 0.403512 0.243352
O O12 0.315841 0.343894 0.281906
O O13 0.258287 0.376598 0.000000
O O14 0.000000 0.500000 0.257250
O O15 0.014254 0.435855 0.000000
O O16 0.449177 0.308598 0.500000
#
# Coordination Sequence:
#
# PCOD8238842 Si02
#       6
#     8   8   8   8   8   8
#     4   9  21  39  60  87 121 161 198 244 302 357
#     4  11  22  37  58  86 122 159 192 238 306 361
#     4  11  22  39  64  90 116 152 206 252 289 348
#     4  11  22  36  62  92 119 155 203 251 292 355
#     4   9  18  36  62  91 118 150 198 251 302 354
#     4  11  23  39  58  85 125 164 196 242 307 359
#
# _framework density 20.859064
#
# number of rings (size 3 to 8) (size 9 to 14) (size 15 to 20)
#    0.000    1.667    1.667    3.000    2.333    3.333 
#    0.000    2.500    0.000   11.000    0.000    0.000 
#    0.000    0.000    0.000    0.000    0.000    0.000 
#
# Total GULP energy -595226.547660 kJ/mol
# GULP energy per Si atom -12400.553076 kJ/mol
# Density = 2.081159 g / cm^3
# Si number density = 20.859064 Si / 1000 Ang^3
#
#
#
# Elastic Constant Matrix: (Units=GPa)
#
#
# Indices 1 2 3 4 5 6 
#
# 1 125.2131 50.8487 21.1950 0.0000 0.0000 0.0000
# 2 50.8487 149.4058 -1.3906 0.0000 0.0000 0.0000
# 3 21.1950 -1.3906 23.4872 0.0000 0.0000 0.0000
# 4 0.0000 0.0000 0.0000 61.1306 0.0000 0.0000
# 5 0.0000 0.0000 0.0000 0.0000 12.3164 0.0000
# 6 0.0000 0.0000 0.0000 0.0000 0.0000 22.5891
#
#
#
# Elastic Compliance Matrix: (Units=1/GPa)
#
#
# Indices 1 2 3 4 5 6 
#
# 1 0.011376 -0.003969 -0.010501 0.000000 0.000000 0.000000
# 2 -0.003969 0.008082 0.004060 0.000000 0.000000 0.000000
# 3 -0.010501 0.004060 0.052293 0.000000 0.000000 0.000000
# 4 0.000000 0.000000 0.000000 0.016358 0.000000 0.000000
# 5 0.000000 0.000000 0.000000 0.000000 0.081192 0.000000
# 6 0.000000 0.000000 0.000000 0.000000 0.000000 0.044269
#
#
# Mechanical properties :
#
#
# Convention : Reuss Voigt Hill
#
# Bulk Modulus (GPa) = 19.63425 48.82359 34.22892
# Shear Modulus (GPa) = 19.89128 34.37076 27.13102
#
# Velocity S-wave (km/s) = 3.09140 4.06367 3.61041
# Velocity P-wave (km/s) = 4.70909 6.74352 5.81595
#
# Compressibility (1/GPa) = 0.05093142
#
# Stress axis : x y z
#
# Youngs Moduli (GPa) = 87.90601 123.73326 19.12311
#
# Poissons Ratio (x) = 0.49114 0.20080
# Poissons Ratio (y) = 0.34893 -0.07765
# Poissons Ratio (z) = 0.92307 -0.50242
#
# Static dielectric constant tensor:
#      x y z
#    x 3.897220 0.000000 0.000000 
#    y 0.000000 4.009950 0.000000 
#    z 0.000000 0.000000 3.420740 
# 
# 
# High freq. dielectric constant tensor:
#      x y z
#    x 1.827790 0.000000 0.000000 
#    y 0.000000 1.825740 0.000000 
#    z 0.000000 0.000000 1.785460 
# 
# From -- ./inp_files/4196.got.cif
#   From: 2010.06.25/outbox.cif.g09.slc.cpg/sg58_3_cif.got.tgz:4196.got - 2010.06.26 21:38:00.
