data_PCOD8238485
_publ_section_title
;
Structure prediction by ZEFSAII (Michael W. Deem and Ramdas Pophale) SiO2 
 PCOD8238485
Probable space group: P N N M
;
_chemical_formula_sum "Si O2"
_cell_formula_units_Z 40
_cell_length_a 27.138159
_cell_length_b 9.360547
_cell_length_c 7.551607
_cell_angle_alpha 90.000000
_cell_angle_beta 90.000000
_cell_angle_gamma 90.000000
_cell_volume 1918.319720
_symmetry_space_group_name_H-M "P N N M"
_symmetry_group_IT_number 58
_symmetry_cell_setting 'orthorhombic'
loop_
_space_group_symop_operation_xyz
x,y,z
-x,-y,z
1/2+x,1/2-y,1/2-z
1/2-x,1/2+y,1/2-z
-x,-y,-z
x,y,-z
1/2-x,1/2+y,1/2+z
1/2+x,1/2-y,1/2+z
loop_
_atom_site_type_symbol
_atom_site_label
_atom_site_fract_x
_atom_site_fract_y
_atom_site_fract_z
Si Si1 0.699005 0.025603 0.792182
Si Si2 0.789895 0.209243 0.700610
Si Si3 0.621158 0.519594 0.794139
Si Si4 0.603719 0.196185 0.796425
Si Si5 0.453853 0.399139 0.500000
Si Si6 0.024083 0.349073 0.000000
O O1 0.736297 0.139868 0.709683
O O2 0.643848 0.076186 0.744816
O O3 0.707873 0.867049 0.708912
O O4 0.708689 0.028581 0.000000
O O5 0.805107 0.236446 0.500000
O O6 0.830087 0.099539 0.780129
O O7 0.628625 0.350632 0.765095
O O8 0.575972 0.575445 0.679535
O O9 0.610332 0.553549 0.000000
O O10 0.556060 0.178633 0.675143
O O11 0.586812 0.179000 0.000000
O O12 0.500000 0.500000 0.500000
O O13 0.474352 0.241132 0.500000
O O14 0.000000 0.500000 0.000000
#
# Coordination Sequence:
#
# PCOD8238485 Si02
#       6
#     8   8   8   8   4   4
#     4  10  22  39  61  91 126 165 207 254 315 379
#     4  10  22  39  61  93 125 165 207 254 316 380
#     4  10  22  41  67  93 127 165 209 263 321 378
#     4  10  22  43  66  91 128 167 209 264 320 376
#     4  12  24  44  66  98 126 166 220 266 314 380
#     4  12  28  44  64  98 128 168 222 264 322 374
#
# _framework density 20.851582000000001
#
# number of rings (size 3 to 8) (size 9 to 14) (size 15 to 20)
#    0.000    1.600    2.000    1.200    5.600    4.000 
#    0.000    0.000    0.000    0.000    0.000    0.000 
#    0.000    0.000    0.000    0.000    0.000    0.000 
#
# Total GULP energy -495978.079352 kJ/mol
# GULP energy per Si atom -12399.451984 kJ/mol
# Density = 2.080412 g / cm^3
# Si number density = 20.851582 Si / 1000 Ang^3
#
#
#
# Elastic Constant Matrix: (Units=GPa)
#
#
# Indices 1 2 3 4 5 6 
#
# 1 88.8787 40.9736 40.3051 0.0000 0.0000 0.0000
# 2 40.9736 156.6013 33.3693 0.0000 0.0000 0.0000
# 3 40.3051 33.3693 79.3378 0.0000 0.0000 0.0000
# 4 0.0000 0.0000 0.0000 21.0693 0.0000 0.0000
# 5 0.0000 0.0000 0.0000 0.0000 35.2361 0.0000
# 6 0.0000 0.0000 0.0000 0.0000 0.0000 51.1917
#
#
#
# Elastic Compliance Matrix: (Units=1/GPa)
#
#
# Indices 1 2 3 4 5 6 
#
# 1 0.015539 -0.002618 -0.006793 0.000000 0.000000 0.000000
# 2 -0.002618 0.007455 -0.001806 0.000000 0.000000 0.000000
# 3 -0.006793 -0.001806 0.016815 0.000000 0.000000 0.000000
# 4 0.000000 0.000000 0.000000 0.047463 0.000000 0.000000
# 5 0.000000 0.000000 0.000000 0.000000 0.028380 0.000000
# 6 0.000000 0.000000 0.000000 0.000000 0.000000 0.019534
#
#
# Mechanical properties :
#
#
# Convention : Reuss Voigt Hill
#
# Bulk Modulus (GPa) = 57.55197 61.56820 59.56008
# Shear Modulus (GPa) = 30.59775 35.51073 33.05424
#
# Velocity S-wave (km/s) = 3.83483 4.13125 3.98580
# Velocity P-wave (km/s) = 6.87522 7.23514 7.05747
#
# Compressibility (1/GPa) = 0.01737560
#
# Stress axis : x y z
#
# Youngs Moduli (GPa) = 64.35548 134.13051 59.47193
#
# Poissons Ratio (x) = 0.35117 0.40398
# Poissons Ratio (y) = 0.16849 0.10739
# Poissons Ratio (z) = 0.43715 0.24219
#
# Static dielectric constant tensor:
#      x y z
#    x 3.392630 0.000000 0.000000 
#    y 0.000000 4.142040 0.000000 
#    z 0.000000 0.000000 4.336910 
# 
# 
# High freq. dielectric constant tensor:
#      x y z
#    x 1.811840 0.000000 0.000000 
#    y 0.000000 1.832920 0.000000 
#    z 0.000000 0.000000 1.814960 
# 
# From -- ./inp_files/9609.got.cif
#   From: 2010.06.25/outbox.cif.g09.slc.cpg/sg58_5_cif.got.tgz:9609.got - 2010.06.26 21:38:00.
