data_PCOD8238269
_publ_section_title
;
Structure prediction by ZEFSAII (Michael W. Deem and Ramdas Pophale) SiO2 
 PCOD8238269
Probable space group: P N N M
;
_chemical_formula_sum "Si O2"
_cell_formula_units_Z 64
_cell_length_a 32.986819
_cell_length_b 10.820081
_cell_length_c 8.883876
_cell_angle_alpha 90.000000
_cell_angle_beta 90.000000
_cell_angle_gamma 90.000000
_cell_volume 3170.833497
_symmetry_space_group_name_H-M "P N N M"
_symmetry_group_IT_number 58
_symmetry_cell_setting 'orthorhombic'
loop_
_space_group_symop_operation_xyz
x,y,z
-x,-y,z
1/2+x,1/2-y,1/2-z
1/2-x,1/2+y,1/2-z
-x,-y,-z
x,y,-z
1/2-x,1/2+y,1/2+z
1/2+x,1/2-y,1/2+z
loop_
_atom_site_type_symbol
_atom_site_label
_atom_site_fract_x
_atom_site_fract_y
_atom_site_fract_z
Si Si1 0.660806 0.270806 0.178073
Si Si2 0.661387 0.749606 0.176549
Si Si3 0.420067 0.223166 0.328051
Si Si4 0.578015 0.231579 0.322494
Si Si5 0.500335 0.368831 0.327620
Si Si6 0.786811 0.008323 0.324072
Si Si7 0.300122 0.987839 0.822470
Si Si8 0.546306 0.003768 0.174543
O O1 0.616840 0.296200 0.248934
O O2 0.688184 0.387192 0.229610
O O3 0.678071 0.138016 0.237339
O O4 0.656228 0.267870 0.000000
O O5 0.622200 0.718187 0.276650
O O6 0.692069 0.638710 0.215977
O O7 0.677478 0.885272 0.227183
O O8 0.650833 0.748659 0.000000
O O9 0.417589 0.172347 0.500000
O O10 0.454833 0.323659 0.315338
O O11 0.432288 0.125142 0.202207
O O12 0.582326 0.241474 0.500000
O O13 0.535830 0.286381 0.254582
O O14 0.575248 0.090571 0.272150
O O15 0.500000 0.500000 0.243912
O O16 0.513936 0.383623 0.500000
O O17 0.778300 0.998889 0.500000
O O18 0.744788 0.006870 0.239167
O O19 0.297609 0.981588 0.000000
O O20 0.500000 0.000000 0.234747
O O21 0.547709 0.040552 0.000000
#
# Coordination Sequence:
#
# PCOD8238269 Si02
#       8
#     8   8   8   8   8   8   8   8
#     4  10  22  39  58  86 122 157 192 243 301 356
#     4  10  22  39  58  86 122 157 192 243 301 356
#     4  11  22  37  61  88 117 154 200 249 290 345
#     4  11  22  37  61  88 117 154 200 249 290 345
#     4   9  20  37  55  80 118 157 194 245 300 339
#     4  10  22  39  61  87 120 154 192 245 300 356
#     4  10  21  39  62  84 113 152 194 240 298 361
#     4  11  22  37  58  82 114 153 193 240 299 354
#
# _framework density 20.183969000000001
#
# number of rings (size 3 to 8) (size 9 to 14) (size 15 to 20)
#    0.000    1.750    1.250    2.625    1.750    3.500 
#    0.000    0.000    0.000    3.000    0.000    0.000 
#    0.000    0.000    0.000    0.000    0.000    0.000 
#
# Total GULP energy -793368.735575 kJ/mol
# GULP energy per Si atom -12396.386493 kJ/mol
# Density = 2.013803 g / cm^3
# Si number density = 20.183969 Si / 1000 Ang^3
#
#
#
# Elastic Constant Matrix: (Units=GPa)
#
#
# Indices 1 2 3 4 5 6 
#
# 1 134.2383 39.8138 41.8513 0.0000 0.0000 0.0000
# 2 39.8138 123.2736 26.5935 0.0000 0.0000 0.0000
# 3 41.8513 26.5935 29.3995 0.0000 0.0000 0.0000
# 4 0.0000 0.0000 0.0000 9.8029 0.0000 0.0000
# 5 0.0000 0.0000 0.0000 0.0000 35.5192 0.0000
# 6 0.0000 0.0000 0.0000 0.0000 0.0000 20.3168
#
#
#
# Elastic Compliance Matrix: (Units=1/GPa)
#
#
# Indices 1 2 3 4 5 6 
#
# 1 0.013401 -0.000264 -0.018837 0.000000 0.000000 0.000000
# 2 -0.000264 0.010084 -0.008745 0.000000 0.000000 0.000000
# 3 -0.018837 -0.008745 0.068741 0.000000 0.000000 0.000000
# 4 0.000000 0.000000 0.000000 0.102010 0.000000 0.000000
# 5 0.000000 0.000000 0.000000 0.000000 0.028154 0.000000
# 6 0.000000 0.000000 0.000000 0.000000 0.000000 0.049220
#
#
# Mechanical properties :
#
#
# Convention : Reuss Voigt Hill
#
# Bulk Modulus (GPa) = 27.37377 55.93654 41.65515
# Shear Modulus (GPa) = 14.72837 25.03798 19.88318
#
# Velocity S-wave (km/s) = 2.70424 3.52588 3.14203
# Velocity P-wave (km/s) = 4.83137 6.65952 5.81771
#
# Compressibility (1/GPa) = 0.03653132
#
# Stress axis : x y z
#
# Youngs Moduli (GPa) = 74.62274 99.16698 14.54744
#
# Poissons Ratio (x) = 0.02621 0.27404
# Poissons Ratio (y) = 0.01972 0.12722
# Poissons Ratio (z) = 1.40570 0.86725
#
# Static dielectric constant tensor:
#      x y z
#    x 6.968840 0.000000 0.000000 
#    y 0.000000 9.796980 0.000000 
#    z 0.000000 0.000000 3.446310 
# 
# 
# High freq. dielectric constant tensor:
#      x y z
#    x 1.801310 0.000000 0.000000 
#    y 0.000000 1.797340 0.000000 
#    z 0.000000 0.000000 1.768720 
# 
# From -- ./inp_files/11030.got.cif
#   From: 2010.06.25/outbox.cif.g09.slc.cpg/sg58_6_cif.got.tgz:11030.got - 2010.06.26 21:38:00.
