data_PCOD8238376
_publ_section_title
;
Structure prediction by ZEFSAII (Michael W. Deem and Ramdas Pophale) SiO2 
 PCOD8238376
Probable space group: P N N M
;
_chemical_formula_sum "Si O2"
_cell_formula_units_Z 40
_cell_length_a 9.908414
_cell_length_b 9.892783
_cell_length_c 18.990495
_cell_angle_alpha 90.000000
_cell_angle_beta 90.000000
_cell_angle_gamma 90.000000
_cell_volume 1861.482305
_symmetry_space_group_name_H-M "P N N M"
_symmetry_group_IT_number 58
_symmetry_cell_setting 'orthorhombic'
loop_
_space_group_symop_operation_xyz
x,y,z
-x,-y,z
1/2+x,1/2-y,1/2-z
1/2-x,1/2+y,1/2-z
-x,-y,-z
x,y,-z
1/2-x,1/2+y,1/2+z
1/2+x,1/2-y,1/2+z
loop_
_atom_site_type_symbol
_atom_site_label
_atom_site_fract_x
_atom_site_fract_y
_atom_site_fract_z
Si Si1 0.682059 0.273963 0.578462
Si Si2 0.767978 0.775830 0.320702
Si Si3 0.490054 0.662135 0.706175
Si Si4 0.855376 0.540064 0.579722
Si Si5 0.342537 0.492549 0.081472
O O1 0.623130 0.251764 0.500000
O O2 0.556516 0.278979 0.630922
O O3 0.757661 0.414352 0.584184
O O4 0.789984 0.157745 0.596461
O O5 0.631532 0.737797 0.278615
O O6 0.886242 0.790222 0.264826
O O7 0.793396 0.655490 0.373774
O O8 0.755956 0.910950 0.367555
O O9 0.500000 0.500000 0.705941
O O10 0.871816 0.593959 0.500000
O O11 0.000000 0.500000 0.610847
O O12 0.500000 0.500000 0.102622
O O13 0.322990 0.535017 0.000000
#
# Coordination Sequence:
#
# PCOD8238376 Si02
#       5
#     8   8   8   8   8
#     4  10  23  44  70 101 140 180 228 285 345 411
#     4  12  27  44  71  97 142 182 233 282 345 412
#     4  12  29  48  67 103 138 187 229 287 351 404
#     4  10  21  40  71 106 136 178 231 281 337 409
#     4  10  22  43  73 107 141 180 227 287 348 406
#
# _framework density 21.488253
#
# number of rings (size 3 to 8) (size 9 to 14) (size 15 to 20)
#    0.000    1.200    2.000    2.400    8.400    6.000 
#    0.000    2.000    0.000    0.000    0.000    0.000 
#    0.000    0.000    0.000    0.000    0.000    0.000 
#
# Total GULP energy -496132.971498 kJ/mol
# GULP energy per Si atom -12403.324287 kJ/mol
# Density = 2.143934 g / cm^3
# Si number density = 21.488253 Si / 1000 Ang^3
#
#
#
# Elastic Constant Matrix: (Units=GPa)
#
#
# Indices 1 2 3 4 5 6 
#
# 1 101.9334 31.3732 51.1291 0.0000 0.0000 0.0000
# 2 31.3732 119.7520 60.6112 0.0000 0.0000 0.0000
# 3 51.1291 60.6112 101.8460 0.0000 0.0000 0.0000
# 4 0.0000 0.0000 0.0000 50.6320 0.0000 0.0000
# 5 0.0000 0.0000 0.0000 0.0000 53.7458 0.0000
# 6 0.0000 0.0000 0.0000 0.0000 0.0000 32.6248
#
#
#
# Elastic Compliance Matrix: (Units=1/GPa)
#
#
# Indices 1 2 3 4 5 6 
#
# 1 0.013114 -0.000148 -0.006495 0.000000 0.000000 0.000000
# 2 -0.000148 0.011952 -0.007039 0.000000 0.000000 0.000000
# 3 -0.006495 -0.007039 0.017268 0.000000 0.000000 0.000000
# 4 0.000000 0.000000 0.000000 0.019750 0.000000 0.000000
# 5 0.000000 0.000000 0.000000 0.000000 0.018606 0.000000
# 6 0.000000 0.000000 0.000000 0.000000 0.000000 0.030651
#
#
# Mechanical properties :
#
#
# Convention : Reuss Voigt Hill
#
# Bulk Modulus (GPa) = 66.79929 67.75093 67.27511
# Shear Modulus (GPa) = 34.79562 39.42837 37.11199
#
# Velocity S-wave (km/s) = 4.02840 4.28820 4.16033
# Velocity P-wave (km/s) = 7.26576 7.49106 7.37927
#
# Compressibility (1/GPa) = 0.01497022
#
# Stress axis : x y z
#
# Youngs Moduli (GPa) = 76.25471 83.66896 57.90926
#
# Poissons Ratio (x) = 0.01239 0.37614
# Poissons Ratio (y) = 0.01129 0.40760
# Poissons Ratio (z) = 0.49530 0.58891
#
# Static dielectric constant tensor:
#      x y z
#    x 3.881450 0.000000 0.000000 
#    y 0.000000 3.885170 0.000000 
#    z 0.000000 0.000000 4.217930 
# 
# 
# High freq. dielectric constant tensor:
#      x y z
#    x 1.840320 0.000000 0.000000 
#    y 0.000000 1.853520 0.000000 
#    z 0.000000 0.000000 1.855760 
# 
# From -- ./inp_files/24925.got.cif
#   From: 2010.06.25/outbox.cif.g09.slc.cpg/sg58_13_cif.got.tgz:24925.got - 2010.06.26 21:38:00.
