data_PCOD8238036
_publ_section_title
;
Structure prediction by ZEFSAII (Michael W. Deem and Ramdas Pophale) SiO2 
 PCOD8238036
Probable space group: P N N M
;
_chemical_formula_sum "Si O2"
_cell_formula_units_Z 40
_cell_length_a 13.419000
_cell_length_b 18.049049
_cell_length_c 8.456460
_cell_angle_alpha 90.000000
_cell_angle_beta 90.000000
_cell_angle_gamma 90.000000
_cell_volume 2048.156206
_symmetry_space_group_name_H-M "P N N M"
_symmetry_group_IT_number 58
_symmetry_cell_setting 'orthorhombic'
loop_
_space_group_symop_operation_xyz
x,y,z
-x,-y,z
1/2+x,1/2-y,1/2-z
1/2-x,1/2+y,1/2-z
-x,-y,-z
x,y,-z
1/2-x,1/2+y,1/2+z
1/2+x,1/2-y,1/2+z
loop_
_atom_site_type_symbol
_atom_site_label
_atom_site_fract_x
_atom_site_fract_y
_atom_site_fract_z
Si Si1 0.600090 0.465475 0.186651
Si Si2 0.579999 0.165753 0.316889
Si Si3 0.324134 0.692002 0.816589
Si Si4 0.126502 0.631917 0.317290
Si Si5 0.688419 0.017434 0.687029
O O1 0.500000 0.500000 0.264598
O O2 0.609649 0.379193 0.233101
O O3 0.697319 0.510104 0.247405
O O4 0.594400 0.473908 0.000000
O O5 0.552078 0.157317 0.500000
O O6 0.642299 0.239920 0.290342
O O7 0.479777 0.169198 0.215078
O O8 0.647775 0.097001 0.260435
O O9 0.208574 0.674736 0.785682
O O10 0.338558 0.711710 0.000000
O O11 0.154123 0.640527 0.500000
O O12 0.121262 0.545632 0.268774
O O13 0.681938 0.004857 0.500000
#
# Coordination Sequence:
#
# PCOD8238036 Si02
#       5
#     8   8   8   8   8
#     4   8  15  31  55  79 104 139 181 221 265 324
#     4  11  22  36  56  82 113 147 185 230 282 337
#     4  10  21  37  56  81 113 145 182 230 282 335
#     4  11  22  37  57  79 108 146 187 232 282 332
#     4   9  19  35  55  80 110 145 184 227 277 334
#
# _framework density 19.529758999999999
#
# number of rings (size 3 to 8) (size 9 to 14) (size 15 to 20)
#    0.000    2.200    0.000    4.800    0.000    5.600 
#    0.000    4.000    0.000   15.000    0.000    0.000 
#    0.000    0.000    0.000    0.000    0.000    0.000 
#
# Total GULP energy -496104.848219 kJ/mol
# GULP energy per Si atom -12402.621205 kJ/mol
# Density = 1.948531 g / cm^3
# Si number density = 19.529759 Si / 1000 Ang^3
#
#
#
# Elastic Constant Matrix: (Units=GPa)
#
#
# Indices 1 2 3 4 5 6 
#
# 1 99.9329 57.5466 12.7779 0.0000 0.0000 0.0000
# 2 57.5466 117.3595 15.2324 0.0000 0.0000 0.0000
# 3 12.7779 15.2324 42.1144 0.0000 0.0000 0.0000
# 4 0.0000 0.0000 0.0000 27.7617 0.0000 0.0000
# 5 0.0000 0.0000 0.0000 0.0000 23.9723 0.0000
# 6 0.0000 0.0000 0.0000 0.0000 0.0000 28.2216
#
#
#
# Elastic Compliance Matrix: (Units=1/GPa)
#
#
# Indices 1 2 3 4 5 6 
#
# 1 0.014082 -0.006663 -0.001863 0.000000 0.000000 0.000000
# 2 -0.006663 0.012093 -0.002352 0.000000 0.000000 0.000000
# 3 -0.001863 -0.002352 0.025161 0.000000 0.000000 0.000000
# 4 0.000000 0.000000 0.000000 0.036021 0.000000 0.000000
# 5 0.000000 0.000000 0.000000 0.000000 0.041715 0.000000
# 6 0.000000 0.000000 0.000000 0.000000 0.000000 0.035434
#
#
# Mechanical properties :
#
#
# Convention : Reuss Voigt Hill
#
# Bulk Modulus (GPa) = 33.80689 47.83562 40.82126
# Shear Modulus (GPa) = 25.49433 27.58110 26.53772
#
# Velocity S-wave (km/s) = 3.61696 3.76208 3.69024
# Velocity P-wave (km/s) = 5.89841 6.58923 6.25337
#
# Compressibility (1/GPa) = 0.02957977
#
# Stress axis : x y z
#
# Youngs Moduli (GPa) = 71.01303 82.68951 39.74437
#
# Poissons Ratio (x) = 0.55098 0.07403
# Poissons Ratio (y) = 0.47318 0.09349
# Poissons Ratio (z) = 0.13227 0.19452
#
# Static dielectric constant tensor:
#      x y z
#    x 3.779040 0.000000 0.000000 
#    y 0.000000 3.548990 0.000000 
#    z 0.000000 0.000000 3.300810 
# 
# 
# High freq. dielectric constant tensor:
#      x y z
#    x 1.766270 0.000000 0.000000 
#    y 0.000000 1.758430 0.000000 
#    z 0.000000 0.000000 1.742940 
# 
# From -- ./inp_files/3778.got.cif
#   From: 2010.06.25/outbox.cif.g09.slc.cpg/sg58_2_cif.got.tgz:3778.got - 2010.06.26 21:38:00.
