data_PCOD8238060
_publ_section_title
;
Structure prediction by ZEFSAII (Michael W. Deem and Ramdas Pophale) SiO2 
 PCOD8238060
Probable space group: P N N M
;
_chemical_formula_sum "Si O2"
_cell_formula_units_Z 40
_cell_length_a 8.763452
_cell_length_b 25.346489
_cell_length_c 9.253085
_cell_angle_alpha 90.000000
_cell_angle_beta 90.000000
_cell_angle_gamma 90.000000
_cell_volume 2055.320591
_symmetry_space_group_name_H-M "P N N M"
_symmetry_group_IT_number 58
_symmetry_cell_setting 'orthorhombic'
loop_
_space_group_symop_operation_xyz
x,y,z
-x,-y,z
1/2+x,1/2-y,1/2-z
1/2-x,1/2+y,1/2-z
-x,-y,-z
x,y,-z
1/2-x,1/2+y,1/2+z
1/2+x,1/2-y,1/2+z
loop_
_atom_site_type_symbol
_atom_site_label
_atom_site_fract_x
_atom_site_fract_y
_atom_site_fract_z
Si Si1 0.353801 0.108004 0.335045
Si Si2 0.326845 0.503269 0.166184
Si Si3 0.344930 0.707913 0.831630
Si Si4 0.339909 0.912437 0.170558
Si Si5 0.657882 0.690987 0.330610
O O1 0.413992 0.108302 0.500000
O O2 0.227564 0.062962 0.313564
O O3 0.277427 0.163158 0.292876
O O4 0.492258 0.099023 0.227720
O O5 0.500000 0.500000 0.222315
O O6 0.220414 0.466173 0.261267
O O7 0.315406 0.484746 0.000000
O O8 0.498539 0.697784 0.746823
O O9 0.275087 0.763579 0.781649
O O10 0.385376 0.707295 0.000000
O O11 0.228578 0.864876 0.215025
O O12 0.349406 0.919479 0.000000
O O13 0.627378 0.694795 0.500000
#
# Coordination Sequence:
#
# PCOD8238060 Si02
#       5
#     8   8   8   8   8
#     4  10  21  37  58  83 109 142 187 231 270 320
#     4  10  21  38  59  82 109 143 185 231 274 320
#     4  10  21  38  60  84 110 145 187 227 272 326
#     4  11  23  37  55  82 115 148 181 222 276 332
#     4  10  22  38  56  83 115 144 180 226 274 326
#
# _framework density 19.461684000000002
#
# number of rings (size 3 to 8) (size 9 to 14) (size 15 to 20)
#    0.000    1.800    0.000    3.600    0.000    8.400 
#    0.000    0.000    0.000    0.000    0.000    0.000 
#    0.000    0.000    0.000    0.000    0.000    0.000 
#
# Total GULP energy -496250.567061 kJ/mol
# GULP energy per Si atom -12406.264177 kJ/mol
# Density = 1.941739 g / cm^3
# Si number density = 19.461684 Si / 1000 Ang^3
#
#
#
# Elastic Constant Matrix: (Units=GPa)
#
#
# Indices 1 2 3 4 5 6 
#
# 1 79.3203 -5.8057 31.2042 0.0000 0.0000 0.0000
# 2 -5.8057 67.4171 21.3967 0.0000 0.0000 0.0000
# 3 31.2042 21.3967 50.2764 0.0000 0.0000 0.0000
# 4 0.0000 0.0000 0.0000 11.2265 0.0000 0.0000
# 5 0.0000 0.0000 0.0000 0.0000 39.2477 0.0000
# 6 0.0000 0.0000 0.0000 0.0000 0.0000 25.7807
#
#
#
# Elastic Compliance Matrix: (Units=1/GPa)
#
#
# Indices 1 2 3 4 5 6 
#
# 1 0.018620 0.006094 -0.014150 0.000000 0.000000 0.000000
# 2 0.006094 0.019144 -0.011930 0.000000 0.000000 0.000000
# 3 -0.014150 -0.011930 0.033749 0.000000 0.000000 0.000000
# 4 0.000000 0.000000 0.000000 0.089075 0.000000 0.000000
# 5 0.000000 0.000000 0.000000 0.000000 0.025479 0.000000
# 6 0.000000 0.000000 0.000000 0.000000 0.000000 0.038789
#
#
# Mechanical properties :
#
#
# Convention : Reuss Voigt Hill
#
# Bulk Modulus (GPa) = 31.70356 32.28937 31.99647
# Shear Modulus (GPa) = 18.15930 25.26557 21.71243
#
# Velocity S-wave (km/s) = 3.05795 3.60699 3.34376
# Velocity P-wave (km/s) = 5.36597 5.82876 5.60215
#
# Compressibility (1/GPa) = 0.03154220
#
# Stress axis : x y z
#
# Youngs Moduli (GPa) = 53.70644 52.23530 29.63012
#
# Poissons Ratio (x) = -0.31834 0.41927
# Poissons Ratio (y) = -0.32731 0.35348
# Poissons Ratio (z) = 0.75995 0.62316
#
# Static dielectric constant tensor:
#      x y z
#    x 3.529810 0.000000 0.000000 
#    y 0.000000 3.907510 0.000000 
#    z 0.000000 0.000000 3.524160 
# 
# 
# High freq. dielectric constant tensor:
#      x y z
#    x 1.767740 0.000000 0.000000 
#    y 0.000000 1.776710 0.000000 
#    z 0.000000 0.000000 1.751850 
# 
# From -- ./inp_files/2397.got.cif
#   From: 2010.06.25/outbox.cif.g09.slc.cpg/sg58_2_cif.got.tgz:2397.got - 2010.06.26 21:38:00.
