data_PCOD8238723
_publ_section_title
;
Structure prediction by ZEFSAII (Michael W. Deem and Ramdas Pophale) SiO2 
 PCOD8238723
Probable space group: P N N M
;
_chemical_formula_sum "Si O2"
_cell_formula_units_Z 32
_cell_length_a 5.972528
_cell_length_b 10.748721
_cell_length_c 22.887251
_cell_angle_alpha 90.000000
_cell_angle_beta 90.000000
_cell_angle_gamma 90.000000
_cell_volume 1469.293702
_symmetry_space_group_name_H-M "P N N M"
_symmetry_group_IT_number 58
_symmetry_cell_setting 'orthorhombic'
loop_
_space_group_symop_operation_xyz
x,y,z
-x,-y,z
1/2+x,1/2-y,1/2-z
1/2-x,1/2+y,1/2-z
-x,-y,-z
x,y,-z
1/2-x,1/2+y,1/2+z
1/2+x,1/2-y,1/2+z
loop_
_atom_site_type_symbol
_atom_site_label
_atom_site_fract_x
_atom_site_fract_y
_atom_site_fract_z
Si Si1 0.856551 0.167678 0.673723
Si Si2 0.250081 0.428743 0.500000
Si Si3 0.500000 0.000000 0.377233
Si Si4 0.753293 0.768654 0.397558
Si Si5 0.493190 0.639019 0.698092
O O1 0.740514 0.301432 0.678983
O O2 0.002002 0.174970 0.614255
O O3 0.991712 0.141214 0.732376
O O4 0.691473 0.051020 0.665865
O O5 0.500000 0.500000 0.500000
O O6 0.251050 0.340594 0.444074
O O7 0.000000 0.500000 0.500000
O O8 0.408781 0.115845 0.416393
O O9 0.688754 0.715513 0.333763
O O10 0.500000 0.500000 0.673575
#
# Coordination Sequence:
#
# PCOD8238723 Si02
#       5
#     8   4   4   8   8
#     4  11  23  41  64 110 141 190 232 313 364 463
#     4  12  32  55  79 111 151 198 266 315 360 450
#     4  10  24  43  72 102 146 177 256 294 386 458
#     4  11  25  46  72 102 146 192 241 309 374 433
#     4  11  23  37  66 100 146 187 243 287 383 444
#
# _framework density 21.779171000000002
#
# number of rings (size 3 to 8) (size 9 to 14) (size 15 to 20)
#    0.000    1.000    2.500    3.000   14.000    0.500 
#    0.000    2.500    0.000    0.000    0.000    0.000 
#    0.000    0.000    0.000    0.000    0.000    0.000 
#
# Total GULP energy -396455.238469 kJ/mol
# GULP energy per Si atom -12389.226202 kJ/mol
# Density = 2.172960 g / cm^3
# Si number density = 21.779171 Si / 1000 Ang^3
#
#
#
# Elastic Constant Matrix: (Units=GPa)
#
#
# Indices 1 2 3 4 5 6 
#
# 1 127.1782 63.0183 46.8239 0.0000 0.0000 0.0000
# 2 63.0183 169.1129 41.5202 0.0000 0.0000 0.0000
# 3 46.8239 41.5202 94.9530 0.0000 0.0000 0.0000
# 4 0.0000 0.0000 0.0000 39.8221 0.0000 0.0000
# 5 0.0000 0.0000 0.0000 0.0000 22.5926 0.0000
# 6 0.0000 0.0000 0.0000 0.0000 0.0000 47.7541
#
#
#
# Elastic Compliance Matrix: (Units=1/GPa)
#
#
# Indices 1 2 3 4 5 6 
#
# 1 0.010858 -0.003060 -0.004016 0.000000 0.000000 0.000000
# 2 -0.003060 0.007487 -0.001765 0.000000 0.000000 0.000000
# 3 -0.004016 -0.001765 0.013284 0.000000 0.000000 0.000000
# 4 0.000000 0.000000 0.000000 0.025112 0.000000 0.000000
# 5 0.000000 0.000000 0.000000 0.000000 0.044262 0.000000
# 6 0.000000 0.000000 0.000000 0.000000 0.000000 0.020941
#
#
# Mechanical properties :
#
#
# Convention : Reuss Voigt Hill
#
# Bulk Modulus (GPa) = 71.70358 77.10766 74.40562
# Shear Modulus (GPa) = 34.65625 38.02587 36.34106
#
# Velocity S-wave (km/s) = 3.99338 4.18302 4.08930
# Velocity P-wave (km/s) = 7.36596 7.66886 7.51893
#
# Compressibility (1/GPa) = 0.01394630
#
# Stress axis : x y z
#
# Youngs Moduli (GPa) = 92.09821 133.56868 75.27998
#
# Poissons Ratio (x) = 0.40873 0.30235
# Poissons Ratio (y) = 0.28183 0.13285
# Poissons Ratio (z) = 0.36989 0.23572
#
# Static dielectric constant tensor:
#      x y z
#    x 4.526820 0.000000 0.000000 
#    y 0.000000 4.324660 0.000000 
#    z 0.000000 0.000000 3.531130 
# 
# 
# High freq. dielectric constant tensor:
#      x y z
#    x 1.868620 0.000000 0.000000 
#    y 0.000000 1.880920 0.000000 
#    z 0.000000 0.000000 1.822920 
# 
# From -- ./inp_files/27944.got.cif
#   From: 2010.06.25/outbox.cif.g09.slc.cpg/sg58_14_cif.got.tgz:27944.got - 2010.06.26 21:38:00.
