data_PCOD8238191
_publ_section_title
;
Structure prediction by ZEFSAII (Michael W. Deem and Ramdas Pophale) SiO2 
 PCOD8238191
Probable space group: P N N M
;
_chemical_formula_sum "Si O2"
_cell_formula_units_Z 40
_cell_length_a 15.587089
_cell_length_b 8.715118
_cell_length_c 13.791243
_cell_angle_alpha 90.000000
_cell_angle_beta 90.000000
_cell_angle_gamma 90.000000
_cell_volume 1873.448235
_symmetry_space_group_name_H-M "P N N M"
_symmetry_group_IT_number 58
_symmetry_cell_setting 'orthorhombic'
loop_
_space_group_symop_operation_xyz
x,y,z
-x,-y,z
1/2+x,1/2-y,1/2-z
1/2-x,1/2+y,1/2-z
-x,-y,-z
x,y,-z
1/2-x,1/2+y,1/2+z
1/2+x,1/2-y,1/2+z
loop_
_atom_site_type_symbol
_atom_site_label
_atom_site_fract_x
_atom_site_fract_y
_atom_site_fract_z
Si Si1 0.354920 0.127802 0.221073
Si Si2 0.400506 0.293122 0.389381
Si Si3 0.188280 0.105044 0.889462
Si Si4 0.427753 0.817602 0.717403
Si Si5 0.493265 0.318086 0.890514
O O1 0.327646 0.217334 0.320159
O O2 0.274188 0.053676 0.167029
O O3 0.404161 0.248044 0.150814
O O4 0.420832 0.998505 0.261042
O O5 0.391420 0.235926 0.500000
O O6 0.386350 0.476532 0.383329
O O7 0.491628 0.238962 0.346930
O O8 0.155860 0.261989 0.840864
O O9 0.213315 0.138213 0.000000
O O10 0.429282 0.740527 0.823569
O O11 0.500000 0.500000 0.887025
O O12 0.505415 0.257927 0.000000
#
# Coordination Sequence:
#
# PCOD8238191 Si02
#       5
#     8   8   8   8   8
#     4  11  23  39  60  91 127 158 200 258 312 365
#     4  10  21  39  62  88 120 161 207 254 310 375
#     4  11  23  40  62  88 124 166 206 255 316 375
#     4  11  22  37  62  90 121 160 207 260 308 364
#     4  10  21  38  61  86 116 159 204 245 294 358
#
# _framework density 21.351004
#
# number of rings (size 3 to 8) (size 9 to 14) (size 15 to 20)
#    0.000    1.400    0.000    7.800    0.000    6.400 
#    0.000    1.000    0.000    1.200    0.000    0.000 
#    0.000    0.000    0.000    0.000    0.000    0.000 
#
# Total GULP energy -495651.798017 kJ/mol
# GULP energy per Si atom -12391.294950 kJ/mol
# Density = 2.130241 g / cm^3
# Si number density = 21.351004 Si / 1000 Ang^3
#
#
#
# Elastic Constant Matrix: (Units=GPa)
#
#
# Indices 1 2 3 4 5 6 
#
# 1 91.0401 27.6135 43.2597 0.0000 0.0000 0.0000
# 2 27.6135 95.2967 57.8759 0.0000 0.0000 0.0000
# 3 43.2597 57.8759 206.8617 0.0000 0.0000 0.0000
# 4 0.0000 0.0000 0.0000 24.3811 0.0000 0.0000
# 5 0.0000 0.0000 0.0000 0.0000 28.2219 0.0000
# 6 0.0000 0.0000 0.0000 0.0000 0.0000 30.1649
#
#
#
# Elastic Compliance Matrix: (Units=1/GPa)
#
#
# Indices 1 2 3 4 5 6 
#
# 1 0.012666 -0.002483 -0.001954 0.000000 0.000000 0.000000
# 2 -0.002483 0.013129 -0.003154 0.000000 0.000000 0.000000
# 3 -0.001954 -0.003154 0.006125 0.000000 0.000000 0.000000
# 4 0.000000 0.000000 0.000000 0.041015 0.000000 0.000000
# 5 0.000000 0.000000 0.000000 0.000000 0.035433 0.000000
# 6 0.000000 0.000000 0.000000 0.000000 0.000000 0.033151
#
#
# Mechanical properties :
#
#
# Convention : Reuss Voigt Hill
#
# Bulk Modulus (GPa) = 59.74695 72.29965 66.02330
# Shear Modulus (GPa) = 30.81082 34.18356 32.49719
#
# Velocity S-wave (km/s) = 3.80289 4.00563 3.90557
# Velocity P-wave (km/s) = 6.87943 7.43837 7.16435
#
# Compressibility (1/GPa) = 0.01673726
#
# Stress axis : x y z
#
# Youngs Moduli (GPa) = 78.95235 76.17014 163.26219
#
# Poissons Ratio (x) = 0.18916 0.31900
# Poissons Ratio (y) = 0.19607 0.51489
# Poissons Ratio (z) = 0.15427 0.24022
#
# Static dielectric constant tensor:
#      x y z
#    x 3.601010 0.000000 0.000000 
#    y 0.000000 3.888600 0.000000 
#    z 0.000000 0.000000 4.313950 
# 
# 
# High freq. dielectric constant tensor:
#      x y z
#    x 1.816020 0.000000 0.000000 
#    y 0.000000 1.842440 0.000000 
#    z 0.000000 0.000000 1.858040 
# 
# From -- ./inp_files/21875.got.cif
#   From: 2010.06.25/outbox.cif.g09.slc.cpg/sg58_11_cif.got.tgz:21875.got - 2010.06.26 21:38:00.
