data_PCOD8238038
_publ_section_title
;
Structure prediction by ZEFSAII (Michael W. Deem and Ramdas Pophale) SiO2 
 PCOD8238038
Probable space group: P N N M
;
_chemical_formula_sum "Si O2"
_cell_formula_units_Z 56
_cell_length_a 8.695731
_cell_length_b 21.155882
_cell_length_c 13.270750
_cell_angle_alpha 90.000000
_cell_angle_beta 90.000000
_cell_angle_gamma 90.000000
_cell_volume 2441.364923
_symmetry_space_group_name_H-M "P N N M"
_symmetry_group_IT_number 58
_symmetry_cell_setting 'orthorhombic'
loop_
_space_group_symop_operation_xyz
x,y,z
-x,-y,z
1/2+x,1/2-y,1/2-z
1/2-x,1/2+y,1/2-z
-x,-y,-z
x,y,-z
1/2-x,1/2+y,1/2+z
1/2+x,1/2-y,1/2+z
loop_
_atom_site_type_symbol
_atom_site_label
_atom_site_fract_x
_atom_site_fract_y
_atom_site_fract_z
Si Si1 0.487170 0.117359 0.704439
Si Si2 0.220464 0.037027 0.759369
Si Si3 0.417636 0.746380 0.297809
Si Si4 0.650088 0.067914 0.885711
Si Si5 0.400952 0.290621 0.881243
Si Si6 0.788109 0.070053 0.613532
Si Si7 0.490183 0.382728 0.387175
O O1 0.317501 0.087754 0.693307
O O2 0.488851 0.190422 0.671927
O O3 0.533342 0.111204 0.822415
O O4 0.606710 0.079106 0.634946
O O5 0.082557 0.071560 0.814094
O O6 0.334771 0.003040 0.840142
O O7 0.147073 0.984994 0.684752
O O8 0.444696 0.730514 0.178458
O O9 0.238548 0.754138 0.325288
O O10 0.486710 0.690685 0.364628
O O11 0.812400 0.102501 0.874377
O O12 0.591861 0.063770 0.000000
O O13 0.380700 0.365520 0.864941
O O14 0.410173 0.273140 0.000000
O O15 0.811091 0.047760 0.500000
O O16 0.546411 0.397354 0.500000
#
# Coordination Sequence:
#
# PCOD8238038 Si02
#       7
#     8   8   8   8   8   8   8
#     4  10  22  35  57  87 113 148 194 243 292 350
#     4  11  21  35  58  89 115 145 195 251 299 348
#     4  11  21  40  62  86 123 163 205 253 308 369
#     4  10  21  37  56  81 116 154 189 233 297 362
#     4  10  22  40  63  90 123 165 210 258 311 369
#     4   9  19  38  60  83 117 158 196 241 302 361
#     4  11  23  38  59  86 118 157 198 244 302 367
#
# _framework density 22.937989000000002
#
# number of rings (size 3 to 8) (size 9 to 14) (size 15 to 20)
#    0.000    1.714    0.000    6.429    0.000    5.143 
#    0.000    2.143    0.000   12.000    0.000    0.000 
#    0.000    0.000    0.000    0.000    0.000    0.000 
#
# Total GULP energy -694450.519271 kJ/mol
# GULP energy per Si atom -12400.902130 kJ/mol
# Density = 2.288578 g / cm^3
# Si number density = 22.937989 Si / 1000 Ang^3
#
#
#
# Elastic Constant Matrix: (Units=GPa)
#
#
# Indices 1 2 3 4 5 6 
#
# 1 50.0975 26.7253 37.1070 0.0000 0.0000 0.0000
# 2 26.7253 122.4934 49.6130 0.0000 0.0000 0.0000
# 3 37.1070 49.6130 108.0344 0.0000 0.0000 0.0000
# 4 0.0000 0.0000 0.0000 27.5549 0.0000 0.0000
# 5 0.0000 0.0000 0.0000 0.0000 32.6119 0.0000
# 6 0.0000 0.0000 0.0000 0.0000 0.0000 23.2755
#
#
#
# Elastic Compliance Matrix: (Units=1/GPa)
#
#
# Indices 1 2 3 4 5 6 
#
# 1 0.027464 -0.002667 -0.008208 0.000000 0.000000 0.000000
# 2 -0.002667 0.010288 -0.003808 0.000000 0.000000 0.000000
# 3 -0.008208 -0.003808 0.013825 0.000000 0.000000 0.000000
# 4 0.000000 0.000000 0.000000 0.036291 0.000000 0.000000
# 5 0.000000 0.000000 0.000000 0.000000 0.030664 0.000000
# 6 0.000000 0.000000 0.000000 0.000000 0.000000 0.042964
#
#
# Mechanical properties :
#
#
# Convention : Reuss Voigt Hill
#
# Bulk Modulus (GPa) = 45.02794 56.39064 50.70929
# Shear Modulus (GPa) = 25.21865 27.83380 26.52623
#
# Velocity S-wave (km/s) = 3.31936 3.48722 3.40432
# Velocity P-wave (km/s) = 5.86206 6.39153 6.13251
#
# Compressibility (1/GPa) = 0.02220844
#
# Stress axis : x y z
#
# Youngs Moduli (GPa) = 36.41164 97.19855 72.33508
#
# Poissons Ratio (x) = 0.25928 0.59373
# Poissons Ratio (y) = 0.09713 0.27549
# Poissons Ratio (z) = 0.29887 0.37018
#
# Static dielectric constant tensor:
#      x y z
#    x 3.859960 0.000000 0.000000 
#    y 0.000000 4.381600 0.000000 
#    z 0.000000 0.000000 4.361680 
# 
# 
# High freq. dielectric constant tensor:
#      x y z
#    x 1.892650 0.000000 0.000000 
#    y 0.000000 1.916390 0.000000 
#    z 0.000000 0.000000 1.901200 
# 
# From -- ./inp_files/20152.got.cif
#   From: 2010.06.25/outbox.cif.g09.slc.cpg/sg58_11_cif.got.tgz:20152.got - 2010.06.26 21:38:00.
