data_PCOD8238257
_publ_section_title
;
Structure prediction by ZEFSAII (Michael W. Deem and Ramdas Pophale) SiO2 
 PCOD8238257
Probable space group: P N N M
;
_chemical_formula_sum "Si O2"
_cell_formula_units_Z 64
_cell_length_a 24.032153
_cell_length_b 15.563649
_cell_length_c 8.473106
_cell_angle_alpha 90.000000
_cell_angle_beta 90.000000
_cell_angle_gamma 90.000000
_cell_volume 3169.178840
_symmetry_space_group_name_H-M "P N N M"
_symmetry_group_IT_number 58
_symmetry_cell_setting 'orthorhombic'
loop_
_space_group_symop_operation_xyz
x,y,z
-x,-y,z
1/2+x,1/2-y,1/2-z
1/2-x,1/2+y,1/2-z
-x,-y,-z
x,y,-z
1/2-x,1/2+y,1/2+z
1/2+x,1/2-y,1/2+z
loop_
_atom_site_type_symbol
_atom_site_label
_atom_site_fract_x
_atom_site_fract_y
_atom_site_fract_z
Si Si1 0.366081 0.163072 0.185348
Si Si2 0.438468 0.008530 0.814497
Si Si3 0.360520 0.353893 0.816461
Si Si4 0.368179 0.855240 0.316560
Si Si5 0.935967 0.997630 0.186199
Si Si6 0.367469 0.664728 0.687007
Si Si7 0.754283 0.593592 0.316137
Si Si8 0.750877 0.897575 0.187227
O O1 0.408620 0.093107 0.259601
O O2 0.386182 0.259752 0.222732
O O3 0.304035 0.148965 0.255776
O O4 0.362920 0.145309 0.000000
O O5 0.500000 0.000000 0.738459
O O6 0.402442 0.923988 0.782768
O O7 0.444179 0.020460 0.000000
O O8 0.405858 0.423874 0.770939
O O9 0.304420 0.361888 0.716587
O O10 0.345309 0.361585 0.000000
O O11 0.379825 0.870985 0.500000
O O12 0.387842 0.759713 0.262933
O O13 0.302466 0.860816 0.283640
O O14 0.910716 0.907344 0.247461
O O15 0.927585 0.008768 0.000000
O O16 0.000000 0.000000 0.235894
O O17 0.363292 0.659454 0.500000
O O18 0.306275 0.645978 0.759743
O O19 0.769129 0.600004 0.500000
O O20 0.750233 0.495906 0.258371
O O21 0.752947 0.890964 0.000000
#
# Coordination Sequence:
#
# PCOD8238257 Si02
#       8
#     8   8   8   8   8   8   8   8
#     4   9  18  34  56  82 111 150 186 222 284 348
#     4  10  21  39  61  82 109 152 201 237 273 334
#     4  11  22  36  58  86 116 147 184 232 288 340
#     4  11  22  36  58  86 116 147 184 232 288 340
#     4  10  21  39  61  82 109 152 201 237 273 334
#     4   9  18  34  56  82 111 150 186 222 284 348
#     4  11  20  35  61  86 113 149 188 228 275 338
#     4   9  15  29  57  80 103 143 186 218 265 340
#
# _framework density 20.194506000000001
#
# number of rings (size 3 to 8) (size 9 to 14) (size 15 to 20)
#    0.000    2.000    2.500    1.875    0.000    3.500 
#    0.000    2.500    0.000    0.000    0.000    0.000 
#    0.000    0.000    0.000    0.000    0.000    0.000 
#
# Total GULP energy -793550.407542 kJ/mol
# GULP energy per Si atom -12399.225118 kJ/mol
# Density = 2.014854 g / cm^3
# Si number density = 20.194506 Si / 1000 Ang^3
#
#
#
# Elastic Constant Matrix: (Units=GPa)
#
#
# Indices 1 2 3 4 5 6 
#
# 1 127.0065 63.3458 2.8201 0.0000 0.0000 0.0000
# 2 63.3458 163.0154 12.8820 0.0000 0.0000 0.0000
# 3 2.8201 12.8820 18.2816 0.0000 0.0000 0.0000
# 4 0.0000 0.0000 0.0000 23.3899 0.0000 0.0000
# 5 0.0000 0.0000 0.0000 0.0000 16.3230 0.0000
# 6 0.0000 0.0000 0.0000 0.0000 0.0000 14.4743
#
#
#
# Elastic Compliance Matrix: (Units=1/GPa)
#
#
# Indices 1 2 3 4 5 6 
#
# 1 0.009793 -0.003903 0.001240 0.000000 0.000000 0.000000
# 2 -0.003903 0.008052 -0.005072 0.000000 0.000000 0.000000
# 3 0.001240 -0.005072 0.058082 0.000000 0.000000 0.000000
# 4 0.000000 0.000000 0.000000 0.042753 0.000000 0.000000
# 5 0.000000 0.000000 0.000000 0.000000 0.061263 0.000000
# 6 0.000000 0.000000 0.000000 0.000000 0.000000 0.069088
#
#
# Mechanical properties :
#
#
# Convention : Reuss Voigt Hill
#
# Bulk Modulus (GPa) = 16.54070 51.82213 34.18142
# Shear Modulus (GPa) = 17.56515 26.12115 21.84315
#
# Velocity S-wave (km/s) = 2.95243 3.60040 3.29239
# Velocity P-wave (km/s) = 4.45320 6.55752 5.60500
#
# Compressibility (1/GPa) = 0.06045694
#
# Stress axis : x y z
#
# Youngs Moduli (GPa) = 102.11439 124.19309 17.21692
#
# Poissons Ratio (x) = 0.48477 -0.02135
# Poissons Ratio (y) = 0.39859 0.08732
# Poissons Ratio (z) = -0.12661 0.62986
#
# Static dielectric constant tensor:
#      x y z
#    x 3.831210 0.000000 0.000000 
#    y 0.000000 3.896360 0.000000 
#    z 0.000000 0.000000 3.225110 
# 
# 
# High freq. dielectric constant tensor:
#      x y z
#    x 1.787310 0.000000 0.000000 
#    y 0.000000 1.805460 0.000000 
#    z 0.000000 0.000000 1.746150 
# 
# From -- ./inp_files/6902.got.cif
#   From: 2010.06.25/outbox.cif.g09.slc.cpg/sg58_4_cif.got.tgz:6902.got - 2010.06.26 21:38:00.
