data_PCOD8238849
_publ_section_title
;
Structure prediction by ZEFSAII (Michael W. Deem and Ramdas Pophale) SiO2 
 PCOD8238849
Probable space group: P N N M
;
_chemical_formula_sum "Si O2"
_cell_formula_units_Z 48
_cell_length_a 20.088710
_cell_length_b 14.275136
_cell_length_c 8.386471
_cell_angle_alpha 90.000000
_cell_angle_beta 90.000000
_cell_angle_gamma 90.000000
_cell_volume 2404.980467
_symmetry_space_group_name_H-M "P N N M"
_symmetry_group_IT_number 58
_symmetry_cell_setting 'orthorhombic'
loop_
_space_group_symop_operation_xyz
x,y,z
-x,-y,z
1/2+x,1/2-y,1/2-z
1/2-x,1/2+y,1/2-z
-x,-y,-z
x,y,-z
1/2-x,1/2+y,1/2+z
1/2+x,1/2-y,1/2+z
loop_
_atom_site_type_symbol
_atom_site_label
_atom_site_fract_x
_atom_site_fract_y
_atom_site_fract_z
Si Si1 0.179565 0.167985 0.683787
Si Si2 0.797805 0.210918 0.311759
Si Si3 0.068414 0.289578 0.814869
Si Si4 0.233655 0.984011 0.814530
Si Si5 0.879642 0.509519 0.186117
Si Si6 0.928835 0.321339 0.685086
O O1 0.185791 0.140012 0.500000
O O2 0.233721 0.246287 0.726604
O O3 0.106720 0.209444 0.717819
O O4 0.188570 0.075421 0.789952
O O5 0.786734 0.216909 0.500000
O O6 0.863020 0.267067 0.257496
O O7 0.806117 0.104262 0.255497
O O8 0.093393 0.390746 0.754188
O O9 0.990135 0.279024 0.783482
O O10 0.084681 0.276751 0.000000
O O11 0.301748 0.998994 0.719587
O O12 0.249423 0.970004 0.000000
O O13 0.920336 0.431198 0.281397
O O14 0.893504 0.494630 0.000000
O O15 0.942640 0.304853 0.500000
#
# Coordination Sequence:
#
# PCOD8238849 Si02
#       6
#     8   8   8   8   8   8
#     4  12  24  40  65  92 124 164 208 256 310 369
#     4  11  23  41  63  91 126 163 207 257 308 366
#     4  11  24  41  62  90 129 167 208 257 310 372
#     4  12  24  39  63  94 125 161 208 259 309 365
#     4  11  22  37  61  91 127 165 204 254 312 368
#     4  11  24  40  62  91 128 166 208 257 311 373
#
# _framework density 19.958580999999999
#
# number of rings (size 3 to 8) (size 9 to 14) (size 15 to 20)
#    0.000    0.667    3.333    5.500    0.000    6.000 
#    0.000    0.833    0.000    5.000    0.000    0.000 
#    0.000    0.000    0.000    0.000    0.000    0.000 
#
# Total GULP energy -595643.811813 kJ/mol
# GULP energy per Si atom -12409.246079 kJ/mol
# Density = 1.991315 g / cm^3
# Si number density = 19.958581 Si / 1000 Ang^3
#
#
#
# Elastic Constant Matrix: (Units=GPa)
#
#
# Indices 1 2 3 4 5 6 
#
# 1 73.6701 18.0337 21.7597 0.0000 0.0000 0.0000
# 2 18.0337 71.6747 13.8649 0.0000 0.0000 0.0000
# 3 21.7597 13.8649 55.8006 0.0000 0.0000 0.0000
# 4 0.0000 0.0000 0.0000 33.9578 0.0000 0.0000
# 5 0.0000 0.0000 0.0000 0.0000 32.0888 0.0000
# 6 0.0000 0.0000 0.0000 0.0000 0.0000 21.3443
#
#
#
# Elastic Compliance Matrix: (Units=1/GPa)
#
#
# Indices 1 2 3 4 5 6 
#
# 1 0.015911 -0.002945 -0.005473 0.000000 0.000000 0.000000
# 2 -0.002945 0.015201 -0.002629 0.000000 0.000000 0.000000
# 3 -0.005473 -0.002629 0.020708 0.000000 0.000000 0.000000
# 4 0.000000 0.000000 0.000000 0.029448 0.000000 0.000000
# 5 0.000000 0.000000 0.000000 0.000000 0.031164 0.000000
# 6 0.000000 0.000000 0.000000 0.000000 0.000000 0.046851
#
#
# Mechanical properties :
#
#
# Convention : Reuss Voigt Hill
#
# Bulk Modulus (GPa) = 33.63828 34.27356 33.95592
# Shear Modulus (GPa) = 26.13881 27.31064 26.72472
#
# Velocity S-wave (km/s) = 3.62284 3.70316 3.66322
# Velocity P-wave (km/s) = 5.86435 5.95769 5.91120
#
# Compressibility (1/GPa) = 0.02972804
#
# Stress axis : x y z
#
# Youngs Moduli (GPa) = 62.84795 65.78366 48.28958
#
# Poissons Ratio (x) = 0.19371 0.26429
# Poissons Ratio (y) = 0.18507 0.12694
# Poissons Ratio (z) = 0.34397 0.17293
#
# Static dielectric constant tensor:
#      x y z
#    x 3.575880 0.000000 0.000000 
#    y 0.000000 3.748730 0.000000 
#    z 0.000000 0.000000 3.648100 
# 
# 
# High freq. dielectric constant tensor:
#      x y z
#    x 1.773810 0.000000 0.000000 
#    y 0.000000 1.779850 0.000000 
#    z 0.000000 0.000000 1.789710 
# 
# From -- ./inp_files/5882.got.cif
#   From: 2010.06.25/outbox.cif.g09.slc.cpg/sg58_3_cif.got.tgz:5882.got - 2010.06.26 21:38:00.
