data_PCOD8238725
_publ_section_title
;
Structure prediction by ZEFSAII (Michael W. Deem and Ramdas Pophale) SiO2 
 PCOD8238725
Probable space group: P N N M
;
_chemical_formula_sum "Si O2"
_cell_formula_units_Z 48
_cell_length_a 9.904338
_cell_length_b 27.253191
_cell_length_c 8.485979
_cell_angle_alpha 90.000000
_cell_angle_beta 90.000000
_cell_angle_gamma 90.000000
_cell_volume 2290.576314
_symmetry_space_group_name_H-M "P N N M"
_symmetry_group_IT_number 58
_symmetry_cell_setting 'orthorhombic'
loop_
_space_group_symop_operation_xyz
x,y,z
-x,-y,z
1/2+x,1/2-y,1/2-z
1/2-x,1/2+y,1/2-z
-x,-y,-z
x,y,-z
1/2-x,1/2+y,1/2+z
1/2+x,1/2-y,1/2+z
loop_
_atom_site_type_symbol
_atom_site_label
_atom_site_fract_x
_atom_site_fract_y
_atom_site_fract_z
Si Si1 0.735557 0.959098 0.682948
Si Si2 0.911047 0.296036 0.183242
Si Si3 0.770247 0.071009 0.682560
Si Si4 0.370669 0.716048 0.684553
Si Si5 0.496649 0.103116 0.818728
Si Si6 0.460464 0.607898 0.682405
O O1 0.696790 0.955949 0.500000
O O2 0.609633 0.939689 0.782589
O O3 0.870502 0.928366 0.713457
O O4 0.761713 0.014635 0.736211
O O5 0.765277 0.272950 0.219492
O O6 0.022781 0.257075 0.236587
O O7 0.925833 0.345227 0.284192
O O8 0.923286 0.308982 0.000000
O O9 0.808994 0.075537 0.500000
O O10 0.628718 0.097872 0.711852
O O11 0.882983 0.097735 0.785927
O O12 0.339610 0.718715 0.500000
O O13 0.430286 0.663436 0.732762
O O14 0.539103 0.099918 0.000000
O O15 0.426254 0.598959 0.500000
#
# Coordination Sequence:
#
# PCOD8238725 Si02
#       6
#     8   8   8   8   8   8
#     4  11  23  42  66  93 127 168 214 262 318 380
#     4  11  24  43  68  96 128 167 210 256 317 380
#     4  11  25  42  63  94 130 169 214 262 314 380
#     4  10  24  44  65  96 129 163 209 259 312 375
#     4  12  25  42  65  94 129 167 214 266 318 376
#     4  11  23  41  65  95 131 167 208 261 315 374
#
# _framework density 20.955424000000001
#
# number of rings (size 3 to 8) (size 9 to 14) (size 15 to 20)
#    0.000    1.000    1.667    4.500    2.333    8.667 
#    0.000    0.000    0.000    0.000    0.000    0.000 
#    0.000    0.000    0.000    0.000    0.000    0.000 
#
# Total GULP energy -595669.246947 kJ/mol
# GULP energy per Si atom -12409.775978 kJ/mol
# Density = 2.090773 g / cm^3
# Si number density = 20.955424 Si / 1000 Ang^3
#
#
#
# Elastic Constant Matrix: (Units=GPa)
#
#
# Indices 1 2 3 4 5 6 
#
# 1 103.8628 16.8432 10.2846 0.0000 0.0000 0.0000
# 2 16.8432 69.5947 28.4598 0.0000 0.0000 0.0000
# 3 10.2846 28.4598 58.2710 0.0000 0.0000 0.0000
# 4 0.0000 0.0000 0.0000 20.3871 0.0000 0.0000
# 5 0.0000 0.0000 0.0000 0.0000 40.3722 0.0000
# 6 0.0000 0.0000 0.0000 0.0000 0.0000 41.2375
#
#
#
# Elastic Compliance Matrix: (Units=1/GPa)
#
#
# Indices 1 2 3 4 5 6 
#
# 1 0.010046 -0.002132 -0.000732 0.000000 0.000000 0.000000
# 2 -0.002132 0.018407 -0.008614 0.000000 0.000000 0.000000
# 3 -0.000732 -0.008614 0.021497 0.000000 0.000000 0.000000
# 4 0.000000 0.000000 0.000000 0.049051 0.000000 0.000000
# 5 0.000000 0.000000 0.000000 0.000000 0.024769 0.000000
# 6 0.000000 0.000000 0.000000 0.000000 0.000000 0.024250
#
#
# Mechanical properties :
#
#
# Convention : Reuss Voigt Hill
#
# Bulk Modulus (GPa) = 37.04331 38.10044 37.57188
# Shear Modulus (GPa) = 27.78157 32.14210 29.96184
#
# Velocity S-wave (km/s) = 3.64503 3.92067 3.78536
# Velocity P-wave (km/s) = 5.95236 6.22227 6.08881
#
# Compressibility (1/GPa) = 0.02699543
#
# Stress axis : x y z
#
# Youngs Moduli (GPa) = 99.53902 54.32569 46.51715
#
# Poissons Ratio (x) = 0.11583 0.03404
# Poissons Ratio (y) = 0.21223 0.40070
# Poissons Ratio (z) = 0.07284 0.46796
#
# Static dielectric constant tensor:
#      x y z
#    x 3.800740 0.000000 0.000000 
#    y 0.000000 3.864060 0.000000 
#    z 0.000000 0.000000 3.683200 
# 
# 
# High freq. dielectric constant tensor:
#      x y z
#    x 1.834440 0.000000 0.000000 
#    y 0.000000 1.827610 0.000000 
#    z 0.000000 0.000000 1.822660 
# 
# From -- ./inp_files/2949.got.cif
#   From: 2010.06.25/outbox.cif.g09.slc.cpg/sg58_2_cif.got.tgz:2949.got - 2010.06.26 21:38:00.
