data_PCOD8238853
_publ_section_title
;
Structure prediction by ZEFSAII (Michael W. Deem and Ramdas Pophale) SiO2 
 PCOD8238853
Probable space group: P N N M
;
_chemical_formula_sum "Si O2"
_cell_formula_units_Z 64
_cell_length_a 7.648312
_cell_length_b 12.906718
_cell_length_c 31.883407
_cell_angle_alpha 90.000000
_cell_angle_beta 90.000000
_cell_angle_gamma 90.000000
_cell_volume 3147.357965
_symmetry_space_group_name_H-M "P N N M"
_symmetry_group_IT_number 58
_symmetry_cell_setting 'orthorhombic'
loop_
_space_group_symop_operation_xyz
x,y,z
-x,-y,z
1/2+x,1/2-y,1/2-z
1/2-x,1/2+y,1/2-z
-x,-y,-z
x,y,-z
1/2-x,1/2+y,1/2+z
1/2+x,1/2-y,1/2+z
loop_
_atom_site_type_symbol
_atom_site_label
_atom_site_fract_x
_atom_site_fract_y
_atom_site_fract_z
Si Si1 0.318757 0.624085 0.952663
Si Si2 0.332287 0.866957 0.295764
Si Si3 0.235950 0.734723 0.872011
Si Si4 0.230222 0.893125 0.547355
Si Si5 0.342259 0.755483 0.621687
Si Si6 0.829043 0.929825 0.304317
Si Si7 0.045663 0.617259 0.346930
Si Si8 0.850129 0.308810 0.257161
O O1 0.250092 0.711085 0.921278
O O2 0.524963 0.618176 0.946512
O O3 0.225451 0.513511 0.943098
O O4 0.273097 0.658601 0.000000
O O5 0.285522 0.838669 0.343508
O O6 0.179707 0.811460 0.268312
O O7 0.515932 0.819859 0.281292
O O8 0.326694 0.990299 0.292100
O O9 0.278700 0.628874 0.847000
O O10 0.370476 0.820181 0.856541
O O11 0.039682 0.779346 0.866920
O O12 0.286515 0.865029 0.500000
O O13 0.332860 0.813402 0.577149
O O14 0.208931 0.657878 0.624804
O O15 0.831804 0.852160 0.264021
O O16 0.000000 0.000000 0.310670
O O17 0.093407 0.625768 0.297791
O O18 0.000000 0.500000 0.358746
#
# Coordination Sequence:
#
# PCOD8238853 Si02
#       8
#     8   8   8   8   8   8   8   8
#     4   9  19  35  62  95 134 175 208 245 308 390
#     4  11  22  38  57  86 125 158 210 251 308 367
#     4  12  24  40  66  96 127 165 213 262 324 383
#     4   9  18  36  61  95 135 173 207 248 308 379
#     4  11  23  39  63  94 124 162 208 264 314 382
#     4  12  24  38  61  91 125 168 207 263 315 369
#     4  11  25  46  65  86 121 166 213 272 329 382
#     4  11  23  41  60  85 122 168 214 260 313 375
#
# _framework density 20.334513999999999
#
# number of rings (size 3 to 8) (size 9 to 14) (size 15 to 20)
#    0.000    1.250    2.500    5.625    1.750    2.500 
#    4.500    1.250    0.000    1.500    0.000    1.750 
#    0.000    0.000    0.000    0.000    0.000    0.000 
#
# Total GULP energy -793317.006605 kJ/mol
# GULP energy per Si atom -12395.578228 kJ/mol
# Density = 2.028823 g / cm^3
# Si number density = 20.334514 Si / 1000 Ang^3
#
#
#
# Elastic Constant Matrix: (Units=GPa)
#
#
# Indices 1 2 3 4 5 6 
#
# 1 102.0413 25.3969 26.0187 0.0000 0.0000 0.0000
# 2 25.3969 91.0812 40.5930 0.0000 0.0000 0.0000
# 3 26.0187 40.5930 113.8290 0.0000 0.0000 0.0000
# 4 0.0000 0.0000 0.0000 24.4649 0.0000 0.0000
# 5 0.0000 0.0000 0.0000 0.0000 28.5815 0.0000
# 6 0.0000 0.0000 0.0000 0.0000 0.0000 18.8739
#
#
#
# Elastic Compliance Matrix: (Units=1/GPa)
#
#
# Indices 1 2 3 4 5 6 
#
# 1 0.010787 -0.002270 -0.001656 0.000000 0.000000 0.000000
# 2 -0.002270 0.013532 -0.004307 0.000000 0.000000 0.000000
# 3 -0.001656 -0.004307 0.010700 0.000000 0.000000 0.000000
# 4 0.000000 0.000000 0.000000 0.040875 0.000000 0.000000
# 5 0.000000 0.000000 0.000000 0.000000 0.034988 0.000000
# 6 0.000000 0.000000 0.000000 0.000000 0.000000 0.052983
#
#
# Mechanical properties :
#
#
# Convention : Reuss Voigt Hill
#
# Bulk Modulus (GPa) = 53.90023 54.55206 54.22614
# Shear Modulus (GPa) = 26.80769 28.71360 27.76064
#
# Velocity S-wave (km/s) = 3.63483 3.76182 3.69887
# Velocity P-wave (km/s) = 6.64682 6.76417 6.70575
#
# Compressibility (1/GPa) = 0.01855280
#
# Stress axis : x y z
#
# Youngs Moduli (GPa) = 92.70262 73.90153 93.46202
#
# Poissons Ratio (x) = 0.16773 0.15480
# Poissons Ratio (y) = 0.21041 0.40252
# Poissons Ratio (z) = 0.15354 0.31827
#
# Static dielectric constant tensor:
#      x y z
#    x 3.857910 0.000000 0.000000 
#    y 0.000000 3.640530 0.000000 
#    z 0.000000 0.000000 3.755880 
# 
# 
# High freq. dielectric constant tensor:
#      x y z
#    x 1.810030 0.000000 0.000000 
#    y 0.000000 1.766950 0.000000 
#    z 0.000000 0.000000 1.793680 
# 
# From -- ./inp_files/34748.got.cif
#   From: 2010.06.25/outbox.cif.g09.slc.cpg/sg58_18_cif.got.tgz:34748.got - 2010.06.26 21:38:00.
