data_PCOD8238896
_publ_section_title
;
Structure prediction by ZEFSAII (Michael W. Deem and Ramdas Pophale) SiO2 
 PCOD8238896
Probable space group: P N N M
;
_chemical_formula_sum "Si O2"
_cell_formula_units_Z 48
_cell_length_a 27.649921
_cell_length_b 9.583343
_cell_length_c 8.366853
_cell_angle_alpha 90.000000
_cell_angle_beta 90.000000
_cell_angle_gamma 90.000000
_cell_volume 2217.037637
_symmetry_space_group_name_H-M "P N N M"
_symmetry_group_IT_number 58
_symmetry_cell_setting 'orthorhombic'
loop_
_space_group_symop_operation_xyz
x,y,z
-x,-y,z
1/2+x,1/2-y,1/2-z
1/2-x,1/2+y,1/2-z
-x,-y,-z
x,y,-z
1/2-x,1/2+y,1/2+z
1/2+x,1/2-y,1/2+z
loop_
_atom_site_type_symbol
_atom_site_label
_atom_site_fract_x
_atom_site_fract_y
_atom_site_fract_z
Si Si1 0.054427 0.030917 0.312136
Si Si2 0.288600 0.842879 0.813477
Si Si3 0.553866 0.974538 0.816079
Si Si4 0.202674 0.664103 0.685479
Si Si5 0.395585 0.273631 0.316497
Si Si6 0.390063 0.783505 0.685028
O O1 0.057873 0.008525 0.500000
O O2 0.069004 0.187242 0.264877
O O3 0.093947 0.934020 0.225155
O O4 0.000000 0.000000 0.250964
O O5 0.249664 0.757685 0.712234
O O6 0.339559 0.769048 0.777277
O O7 0.288535 0.004667 0.757156
O O8 0.276346 0.830284 0.000000
O O9 0.567463 0.813315 0.794174
O O10 0.500000 0.000000 0.754199
O O11 0.591204 0.059120 0.706369
O O12 0.559476 0.020156 0.000000
O O13 0.188190 0.663050 0.500000
O O14 0.159763 0.735130 0.783778
O O15 0.407380 0.244697 0.500000
O O16 0.382546 0.747584 0.500000
#
# Coordination Sequence:
#
# PCOD8238896 Si02
#       6
#     8   8   8   8   8   8
#     4  11  25  45  68  95 132 179 225 271 329 393
#     4  11  25  45  70  98 133 174 219 269 328 395
#     4  11  23  41  66  95 130 173 219 267 325 391
#     4  11  25  45  70  98 133 174 219 269 328 395
#     4  12  25  42  67  98 134 172 218 273 328 389
#     4  12  25  42  67  98 134 172 218 273 328 389
#
# _framework density 21.650511999999999
#
# number of rings (size 3 to 8) (size 9 to 14) (size 15 to 20)
#    0.000    0.667    1.667    6.000    2.333    8.667 
#    0.000    0.000    0.000    0.000    0.000    0.000 
#    0.000    0.000    0.000    0.000    0.000    0.000 
#
# Total GULP energy -595600.906834 kJ/mol
# GULP energy per Si atom -12408.352226 kJ/mol
# Density = 2.160123 g / cm^3
# Si number density = 21.650512 Si / 1000 Ang^3
#
#
#
# Elastic Constant Matrix: (Units=GPa)
#
#
# Indices 1 2 3 4 5 6 
#
# 1 95.0533 25.5067 27.6983 0.0000 0.0000 0.0000
# 2 25.5067 83.2494 24.9694 0.0000 0.0000 0.0000
# 3 27.6983 24.9694 70.8250 0.0000 0.0000 0.0000
# 4 0.0000 0.0000 0.0000 34.8150 0.0000 0.0000
# 5 0.0000 0.0000 0.0000 0.0000 32.0642 0.0000
# 6 0.0000 0.0000 0.0000 0.0000 0.0000 45.2734
#
#
#
# Elastic Compliance Matrix: (Units=1/GPa)
#
#
# Indices 1 2 3 4 5 6 
#
# 1 0.012362 -0.002614 -0.003913 0.000000 0.000000 0.000000
# 2 -0.002614 0.013985 -0.003908 0.000000 0.000000 0.000000
# 3 -0.003913 -0.003908 0.017027 0.000000 0.000000 0.000000
# 4 0.000000 0.000000 0.000000 0.028723 0.000000 0.000000
# 5 0.000000 0.000000 0.000000 0.000000 0.031187 0.000000
# 6 0.000000 0.000000 0.000000 0.000000 0.000000 0.022088
#
#
# Mechanical properties :
#
#
# Convention : Reuss Voigt Hill
#
# Bulk Modulus (GPa) = 44.43587 45.05295 44.74441
# Shear Modulus (GPa) = 32.52130 33.82739 33.17434
#
# Velocity S-wave (km/s) = 3.87990 3.95705 3.91866
# Velocity P-wave (km/s) = 6.37497 6.46003 6.41764
#
# Compressibility (1/GPa) = 0.02250434
#
# Stress axis : x y z
#
# Youngs Moduli (GPa) = 80.89247 71.50417 58.72860
#
# Poissons Ratio (x) = 0.18691 0.22981
# Poissons Ratio (y) = 0.21145 0.22953
# Poissons Ratio (z) = 0.31653 0.27946
#
# Static dielectric constant tensor:
#      x y z
#    x 3.908790 0.000000 0.000000 
#    y 0.000000 3.912190 0.000000 
#    z 0.000000 0.000000 3.745240 
# 
# 
# High freq. dielectric constant tensor:
#      x y z
#    x 1.859380 0.000000 0.000000 
#    y 0.000000 1.858540 0.000000 
#    z 0.000000 0.000000 1.853570 
# 
# From -- ./inp_files/10756.got.cif
#   From: 2010.06.25/outbox.cif.g09.slc.cpg/sg58_6_cif.got.tgz:10756.got - 2010.06.26 21:38:00.
