data_PCOD8238057
_publ_section_title
;
Structure prediction by ZEFSAII (Michael W. Deem and Ramdas Pophale) SiO2 
 PCOD8238057
Probable space group: P N N M
;
_chemical_formula_sum "Si O2"
_cell_formula_units_Z 44
_cell_length_a 16.124046
_cell_length_b 11.009124
_cell_length_c 13.315808
_cell_angle_alpha 90.000000
_cell_angle_beta 90.000000
_cell_angle_gamma 90.000000
_cell_volume 2363.710674
_symmetry_space_group_name_H-M "P N N M"
_symmetry_group_IT_number 58
_symmetry_cell_setting 'orthorhombic'
loop_
_space_group_symop_operation_xyz
x,y,z
-x,-y,z
1/2+x,1/2-y,1/2-z
1/2-x,1/2+y,1/2-z
-x,-y,-z
x,y,-z
1/2-x,1/2+y,1/2+z
1/2+x,1/2-y,1/2+z
loop_
_atom_site_type_symbol
_atom_site_label
_atom_site_fract_x
_atom_site_fract_y
_atom_site_fract_z
Si Si1 0.651107 0.518667 0.615553
Si Si2 0.885703 0.370523 0.615413
Si Si3 0.000000 0.000000 0.750767
Si Si4 0.545668 0.279566 0.884720
Si Si5 0.716334 0.250504 0.612841
Si Si6 0.820049 0.611036 0.695031
O O1 0.632007 0.546661 0.500000
O O2 0.571338 0.558052 0.679691
O O3 0.669368 0.376720 0.632710
O O4 0.728652 0.599841 0.649223
O O5 0.885217 0.417759 0.500000
O O6 0.814570 0.269543 0.629484
O O7 0.869774 0.484917 0.687382
O O8 0.972969 0.313338 0.646071
O O9 0.041456 0.101221 0.681922
O O10 0.633673 0.215707 0.867217
O O11 0.536522 0.318855 0.000000
O O12 0.698852 0.204010 0.500000
O O13 0.683799 0.147339 0.687875
#
# Coordination Sequence:
#
# PCOD8238057 Si02
#       6
#     8   8   4   8   8   8
#     4  10  21  37  58  82 109 150 196 232 274 338
#     4   9  19  35  58  83 110 147 189 236 284 338
#     4  12  22  38  58  86 118 158 184 240 290 338
#     4  11  22  36  56  88 119 148 188 236 291 344
#     4   9  18  35  56  80 112 148 188 232 285 339
#     4  11  19  35  61  84 112 147 193 238 283 337
#
# _framework density 18.614799000000001
#
# number of rings (size 3 to 8) (size 9 to 14) (size 15 to 20)
#    0.000    1.818    1.818    4.909    0.000    1.455 
#    0.000    0.909    0.000    4.364    0.000    0.000 
#    0.000    0.000    0.000    0.000    0.000    0.000 
#
# Total GULP energy -545758.410393 kJ/mol
# GULP energy per Si atom -12403.600236 kJ/mol
# Density = 1.857243 g / cm^3
# Si number density = 18.614799 Si / 1000 Ang^3
#
#
#
# Elastic Constant Matrix: (Units=GPa)
#
#
# Indices 1 2 3 4 5 6 
#
# 1 98.2995 27.6255 36.7910 0.0000 0.0000 0.0000
# 2 27.6255 65.9886 47.9327 0.0000 0.0000 0.0000
# 3 36.7910 47.9327 113.3684 0.0000 0.0000 0.0000
# 4 0.0000 0.0000 0.0000 35.9774 0.0000 0.0000
# 5 0.0000 0.0000 0.0000 0.0000 30.1135 0.0000
# 6 0.0000 0.0000 0.0000 0.0000 0.0000 25.3630
#
#
#
# Elastic Compliance Matrix: (Units=1/GPa)
#
#
# Indices 1 2 3 4 5 6 
#
# 1 0.012023 -0.003174 -0.002560 0.000000 0.000000 0.000000
# 2 -0.003174 0.022709 -0.008571 0.000000 0.000000 0.000000
# 3 -0.002560 -0.008571 0.013276 0.000000 0.000000 0.000000
# 4 0.000000 0.000000 0.000000 0.027795 0.000000 0.000000
# 5 0.000000 0.000000 0.000000 0.000000 0.033208 0.000000
# 6 0.000000 0.000000 0.000000 0.000000 0.000000 0.039428
#
#
# Mechanical properties :
#
#
# Convention : Reuss Voigt Hill
#
# Bulk Modulus (GPa) = 51.55385 55.81721 53.68553
# Shear Modulus (GPa) = 27.24586 29.31128 28.27857
#
# Velocity S-wave (km/s) = 3.82994 3.97246 3.90185
# Velocity P-wave (km/s) = 6.87845 7.14780 7.01442
#
# Compressibility (1/GPa) = 0.01939719
#
# Stress axis : x y z
#
# Youngs Moduli (GPa) = 83.17358 44.03551 75.32635
#
# Poissons Ratio (x) = 0.13976 0.19282
# Poissons Ratio (y) = 0.26399 0.64565
# Poissons Ratio (z) = 0.21291 0.37745
#
# Static dielectric constant tensor:
#      x y z
#    x 3.522250 0.000000 0.000000 
#    y 0.000000 3.188530 0.000000 
#    z 0.000000 0.000000 3.431430 
# 
# 
# High freq. dielectric constant tensor:
#      x y z
#    x 1.731050 0.000000 0.000000 
#    y 0.000000 1.701850 0.000000 
#    z 0.000000 0.000000 1.722520 
# 
# From -- ./inp_files/16356.got.cif
#   From: 2010.06.25/outbox.cif.g09.slc.cpg/sg58_9_cif.got.tgz:16356.got - 2010.06.26 21:38:00.
