data_PCOD8238543
_publ_section_title
;
Structure prediction by ZEFSAII (Michael W. Deem and Ramdas Pophale) SiO2 
 PCOD8238543
Probable space group: P N N M
;
_chemical_formula_sum "Si O2"
_cell_formula_units_Z 48
_cell_length_a 9.094782
_cell_length_b 8.915324
_cell_length_c 28.500675
_cell_angle_alpha 90.000000
_cell_angle_beta 90.000000
_cell_angle_gamma 90.000000
_cell_volume 2310.918186
_symmetry_space_group_name_H-M "P N N M"
_symmetry_group_IT_number 58
_symmetry_cell_setting 'orthorhombic'
loop_
_space_group_symop_operation_xyz
x,y,z
-x,-y,z
1/2+x,1/2-y,1/2-z
1/2-x,1/2+y,1/2-z
-x,-y,-z
x,y,-z
1/2-x,1/2+y,1/2+z
1/2+x,1/2-y,1/2+z
loop_
_atom_site_type_symbol
_atom_site_label
_atom_site_fract_x
_atom_site_fract_y
_atom_site_fract_z
Si Si1 0.905611 0.359848 0.328206
Si Si2 0.303859 0.639449 0.916692
Si Si3 0.360519 0.301285 0.079968
Si Si4 0.636177 0.707127 0.500000
Si Si5 0.834552 0.027265 0.769828
Si Si6 0.804378 0.859727 0.000000
Si Si7 0.316131 0.690653 0.192305
O O1 0.832244 0.265193 0.369140
O O2 0.772177 0.415779 0.297310
O O3 0.000000 0.500000 0.348365
O O4 0.017601 0.251908 0.299710
O O5 0.467023 0.687679 0.931408
O O6 0.283474 0.462358 0.922943
O O7 0.272494 0.685331 0.862583
O O8 0.191377 0.716980 0.952073
O O9 0.286238 0.186940 0.045068
O O10 0.461243 0.721220 0.500000
O O11 0.686143 0.536981 0.500000
O O12 0.813620 0.976051 0.715170
O O13 0.793628 0.199896 0.779152
O O14 0.000000 0.000000 0.787422
#
# Coordination Sequence:
#
# PCOD8238543 Si02
#       7
#     8   8   8   4   8   4   8
#     4   9  21  40  61  93 128 165 213 262 311 370
#     4  10  23  42  67  94 126 164 216 258 312 370
#     4  10  22  40  68  94 119 167 216 257 306 377
#     4  11  26  45  62  94 137 160 200 263 318 390
#     4  11  23  38  63  90 128 167 211 263 313 367
#     4  11  26  41  66  94 128 165 200 259 332 372
#     4  10  23  40  65  93 126 171 209 263 312 366
#
# _framework density 20.770966999999999
#
# number of rings (size 3 to 8) (size 9 to 14) (size 15 to 20)
#    0.000    1.833    0.000    2.000   14.000    4.667 
#    0.000    0.000    3.667    0.000    0.000    0.000 
#    0.000    0.000    0.000    0.000    0.000    0.000 
#
# Total GULP energy -595193.504980 kJ/mol
# GULP energy per Si atom -12399.864687 kJ/mol
# Density = 2.072369 g / cm^3
# Si number density = 20.770967 Si / 1000 Ang^3
#
#
#
# Elastic Constant Matrix: (Units=GPa)
#
#
# Indices 1 2 3 4 5 6 
#
# 1 85.9285 32.1640 60.0849 0.0000 0.0000 0.0000
# 2 32.1640 72.1097 46.1941 0.0000 0.0000 0.0000
# 3 60.0849 46.1941 106.6718 0.0000 0.0000 0.0000
# 4 0.0000 0.0000 0.0000 32.9148 0.0000 0.0000
# 5 0.0000 0.0000 0.0000 0.0000 17.8047 0.0000
# 6 0.0000 0.0000 0.0000 0.0000 0.0000 27.7482
#
#
#
# Elastic Compliance Matrix: (Units=1/GPa)
#
#
# Indices 1 2 3 4 5 6 
#
# 1 0.019470 -0.002296 -0.009973 0.000000 0.000000 0.000000
# 2 -0.002296 0.019463 -0.007135 0.000000 0.000000 0.000000
# 3 -0.009973 -0.007135 0.018082 0.000000 0.000000 0.000000
# 4 0.000000 0.000000 0.000000 0.030382 0.000000 0.000000
# 5 0.000000 0.000000 0.000000 0.000000 0.056165 0.000000
# 6 0.000000 0.000000 0.000000 0.000000 0.000000 0.036038
#
#
# Mechanical properties :
#
#
# Convention : Reuss Voigt Hill
#
# Bulk Modulus (GPa) = 54.92341 60.17733 57.55037
# Shear Modulus (GPa) = 22.27408 24.11133 23.19271
#
# Velocity S-wave (km/s) = 3.27825 3.41078 3.34517
# Velocity P-wave (km/s) = 6.38976 6.67427 6.53357
#
# Compressibility (1/GPa) = 0.01820717
#
# Stress axis : x y z
#
# Youngs Moduli (GPa) = 51.36008 51.38059 55.30446
#
# Poissons Ratio (x) = 0.11797 0.55154
# Poissons Ratio (y) = 0.11792 0.39460
# Poissons Ratio (z) = 0.51220 0.36660
#
# Static dielectric constant tensor:
#      x y z
#    x 3.745650 0.000000 0.000000 
#    y 0.000000 3.961850 0.000000 
#    z 0.000000 0.000000 3.889460 
# 
# 
# High freq. dielectric constant tensor:
#      x y z
#    x 1.806530 0.000000 0.000000 
#    y 0.000000 1.831180 0.000000 
#    z 0.000000 0.000000 1.813680 
# 
# From -- ./inp_files/34617.got.cif
#   From: 2010.06.25/outbox.cif.g09.slc.cpg/sg58_18_cif.got.tgz:34617.got - 2010.06.26 21:38:00.
