data_PCOD8238843
_publ_section_title
;
Structure prediction by ZEFSAII (Michael W. Deem and Ramdas Pophale) SiO2 
 PCOD8238843
Probable space group: P N N M
;
_chemical_formula_sum "Si O2"
_cell_formula_units_Z 64
_cell_length_a 9.278275
_cell_length_b 16.613933
_cell_length_c 22.355969
_cell_angle_alpha 90.000000
_cell_angle_beta 90.000000
_cell_angle_gamma 90.000000
_cell_volume 3446.142199
_symmetry_space_group_name_H-M "P N N M"
_symmetry_group_IT_number 58
_symmetry_cell_setting 'orthorhombic'
loop_
_space_group_symop_operation_xyz
x,y,z
-x,-y,z
1/2+x,1/2-y,1/2-z
1/2-x,1/2+y,1/2-z
-x,-y,-z
x,y,-z
1/2-x,1/2+y,1/2+z
1/2+x,1/2-y,1/2+z
loop_
_atom_site_type_symbol
_atom_site_label
_atom_site_fract_x
_atom_site_fract_y
_atom_site_fract_z
Si Si1 0.351321 0.963839 0.271686
Si Si2 0.075604 0.203452 0.067460
Si Si3 0.692978 0.592739 0.570065
Si Si4 0.961559 0.235142 0.280845
Si Si5 0.944128 0.616891 0.650707
Si Si6 0.351590 0.798020 0.680088
Si Si7 0.102380 0.074052 0.754839
Si Si8 0.238289 0.075056 0.123328
O O1 0.356538 0.929825 0.203303
O O2 0.317579 0.892766 0.317959
O O3 0.500000 0.000000 0.292339
O O4 0.238142 0.036246 0.279897
O O5 0.115035 0.276560 0.111437
O O6 0.206729 0.139369 0.071157
O O7 0.929042 0.157542 0.087078
O O8 0.064160 0.237025 0.000000
O O9 0.695864 0.575781 0.500000
O O10 0.848036 0.624569 0.591434
O O11 0.666890 0.508996 0.604350
O O12 0.029187 0.290224 0.332565
O O13 0.005727 0.274857 0.217693
O O14 0.022372 0.143454 0.283516
O O15 0.789740 0.242556 0.289731
O O16 0.090918 0.567887 0.636010
O O17 0.157026 0.110412 0.817927
O O18 0.000000 0.000000 0.768835
#
# Coordination Sequence:
#
# PCOD8238843 Si02
#       8
#     8   8   8   8   8   8   8   8
#     4  11  22  37  57  87 120 149 190 243 305 359
#     4  11  24  41  59  83 118 161 208 243 285 346
#     4  11  24  38  56  84 119 165 207 237 274 342
#     4  11  23  37  57  88 117 156 196 243 300 357
#     4  11  22  37  55  82 124 156 196 244 292 345
#     4  11  24  39  59  87 118 155 198 244 301 352
#     4  12  21  34  57  84 118 155 187 238 300 359
#     4  12  21  36  57  85 121 161 198 235 286 344
#
# _framework density 18.571491000000002
#
# number of rings (size 3 to 8) (size 9 to 14) (size 15 to 20)
#    0.000    0.750    6.250    1.875    5.250    2.500 
#    0.000    0.000    0.000    0.375    0.000    2.625 
#    0.000    0.000    0.000    0.000    0.000    0.000 
#
# Total GULP energy -793440.548290 kJ/mol
# GULP energy per Si atom -12397.508567 kJ/mol
# Density = 1.852922 g / cm^3
# Si number density = 18.571491 Si / 1000 Ang^3
#
#
#
# Elastic Constant Matrix: (Units=GPa)
#
#
# Indices 1 2 3 4 5 6 
#
# 1 84.0450 16.6826 40.0583 0.0000 0.0000 0.0000
# 2 16.6826 71.9878 36.7587 0.0000 0.0000 0.0000
# 3 40.0583 36.7587 79.3501 0.0000 0.0000 0.0000
# 4 0.0000 0.0000 0.0000 28.8896 0.0000 0.0000
# 5 0.0000 0.0000 0.0000 0.0000 4.3015 0.0000
# 6 0.0000 0.0000 0.0000 0.0000 0.0000 31.5660
#
#
#
# Elastic Compliance Matrix: (Units=1/GPa)
#
#
# Indices 1 2 3 4 5 6 
#
# 1 0.015684 0.000535 -0.008166 0.000000 0.000000 0.000000
# 2 0.000535 0.018214 -0.008707 0.000000 0.000000 0.000000
# 3 -0.008166 -0.008707 0.020758 0.000000 0.000000 0.000000
# 4 0.000000 0.000000 0.000000 0.034615 0.000000 0.000000
# 5 0.000000 0.000000 0.000000 0.000000 0.232477 0.000000
# 6 0.000000 0.000000 0.000000 0.000000 0.000000 0.031680
#
#
# Mechanical properties :
#
#
# Convention : Reuss Voigt Hill
#
# Bulk Modulus (GPa) = 45.49646 46.93135 46.21391
# Shear Modulus (GPa) = 12.70874 22.41030 17.55952
#
# Velocity S-wave (km/s) = 2.61878 3.47753 3.07825
# Velocity P-wave (km/s) = 5.80476 6.43815 6.12964
#
# Compressibility (1/GPa) = 0.02197973
#
# Stress axis : x y z
#
# Youngs Moduli (GPa) = 63.75844 54.90432 48.17344
#
# Poissons Ratio (x) = -0.02937 0.39337
# Poissons Ratio (y) = -0.03410 0.41946
# Poissons Ratio (z) = 0.52063 0.47807
#
# Static dielectric constant tensor:
#      x y z
#    x 2.873220 0.000000 0.000000 
#    y 0.000000 5.805850 0.000000 
#    z 0.000000 0.000000 3.160570 
# 
# 
# High freq. dielectric constant tensor:
#      x y z
#    x 1.737060 0.000000 0.000000 
#    y 0.000000 1.721110 0.000000 
#    z 0.000000 0.000000 1.678410 
# 
# From -- ./inp_files/31693.got.cif
#   From: 2010.06.25/outbox.cif.g09.slc.cpg/sg58_16_cif.got.tgz:31693.got - 2010.06.26 21:38:00.
