data_PCOD8238354
_publ_section_title
;
Structure prediction by ZEFSAII (Michael W. Deem and Ramdas Pophale) SiO2 
 PCOD8238354
Probable space group: P N N M
;
_chemical_formula_sum "Si O2"
_cell_formula_units_Z 56
_cell_length_a 20.899436
_cell_length_b 15.098779
_cell_length_c 8.616629
_cell_angle_alpha 90.000000
_cell_angle_beta 90.000000
_cell_angle_gamma 90.000000
_cell_volume 2719.028682
_symmetry_space_group_name_H-M "P N N M"
_symmetry_group_IT_number 58
_symmetry_cell_setting 'orthorhombic'
loop_
_space_group_symop_operation_xyz
x,y,z
-x,-y,z
1/2+x,1/2-y,1/2-z
1/2-x,1/2+y,1/2-z
-x,-y,-z
x,y,-z
1/2-x,1/2+y,1/2+z
1/2+x,1/2-y,1/2+z
loop_
_atom_site_type_symbol
_atom_site_label
_atom_site_fract_x
_atom_site_fract_y
_atom_site_fract_z
Si Si1 0.839553 0.186885 0.316182
Si Si2 0.263467 0.677713 0.185031
Si Si3 0.629003 0.065163 0.325236
Si Si4 0.399071 0.754867 0.181301
Si Si5 0.229823 0.980695 0.326200
Si Si6 0.947087 0.425147 0.325323
Si Si7 0.528963 0.742589 0.319643
O O1 0.830862 0.187839 0.500000
O O2 0.796377 0.266985 0.250350
O O3 0.818796 0.090065 0.247854
O O4 0.913511 0.196334 0.271988
O O5 0.331498 0.717104 0.240791
O O6 0.263365 0.577101 0.254395
O O7 0.256413 0.679502 0.000000
O O8 0.601207 0.072732 0.500000
O O9 0.598257 0.141004 0.219028
O O10 0.704776 0.074315 0.326530
O O11 0.615373 0.968936 0.251302
O O12 0.459315 0.706349 0.264491
O O13 0.408116 0.740715 0.000000
O O14 0.206154 0.001264 0.500000
O O15 0.932444 0.390807 0.500000
O O16 0.969512 0.346524 0.215916
O O17 0.000000 0.500000 0.325588
O O18 0.537904 0.723779 0.500000
#
# Coordination Sequence:
#
# PCOD8238354 Si02
#       7
#     8   8   8   8   8   8   8
#     4  11  22  40  64  91 124 160 202 253 309 363
#     4  10  21  40  65  92 123 161 207 253 304 364
#     4  11  20  34  58  86 120 158 196 241 300 365
#     4  11  22  37  59  87 120 158 203 252 301 357
#     4   9  20  38  61  89 119 155 200 248 300 362
#     4  11  22  35  54  84 119 152 194 244 298 362
#     4  12  25  40  59  84 120 163 205 250 309 369
#
# _framework density 20.595589
#
# number of rings (size 3 to 8) (size 9 to 14) (size 15 to 20)
#    0.000    1.286    2.857    3.857    0.000    2.286 
#    0.000    2.857    0.000    4.286    0.000    0.000 
#    0.000    0.000    0.000    0.000    0.000    0.000 
#
# Total GULP energy -694212.520316 kJ/mol
# GULP energy per Si atom -12396.652149 kJ/mol
# Density = 2.054871 g / cm^3
# Si number density = 20.595589 Si / 1000 Ang^3
#
#
#
# Elastic Constant Matrix: (Units=GPa)
#
#
# Indices 1 2 3 4 5 6 
#
# 1 99.8007 14.7017 19.3997 0.0000 0.0000 0.0000
# 2 14.7017 73.4666 10.8773 0.0000 0.0000 0.0000
# 3 19.3997 10.8773 61.4995 0.0000 0.0000 0.0000
# 4 0.0000 0.0000 0.0000 23.0757 0.0000 0.0000
# 5 0.0000 0.0000 0.0000 0.0000 30.0295 0.0000
# 6 0.0000 0.0000 0.0000 0.0000 0.0000 30.7390
#
#
#
# Elastic Compliance Matrix: (Units=1/GPa)
#
#
# Indices 1 2 3 4 5 6 
#
# 1 0.010881 -0.001714 -0.003129 0.000000 0.000000 0.000000
# 2 -0.001714 0.014248 -0.001979 0.000000 0.000000 0.000000
# 3 -0.003129 -0.001979 0.017597 0.000000 0.000000 0.000000
# 4 0.000000 0.000000 0.000000 0.043336 0.000000 0.000000
# 5 0.000000 0.000000 0.000000 0.000000 0.033301 0.000000
# 6 0.000000 0.000000 0.000000 0.000000 0.000000 0.032532
#
#
# Mechanical properties :
#
#
# Convention : Reuss Voigt Hill
#
# Bulk Modulus (GPa) = 34.38679 36.08045 35.23362
# Shear Modulus (GPa) = 28.53350 29.42138 28.97744
#
# Velocity S-wave (km/s) = 3.72616 3.78369 3.75503
# Velocity P-wave (km/s) = 5.93673 6.05351 5.99540
#
# Compressibility (1/GPa) = 0.02908094
#
# Stress axis : x y z
#
# Youngs Moduli (GPa) = 91.90565 70.18687 56.82647
#
# Poissons Ratio (x) = 0.12031 0.17782
# Poissons Ratio (y) = 0.15754 0.11247
# Poissons Ratio (z) = 0.28758 0.13892
#
# Static dielectric constant tensor:
#      x y z
#    x 3.928530 0.000000 0.000000 
#    y 0.000000 3.811140 0.000000 
#    z 0.000000 0.000000 3.663820 
# 
# 
# High freq. dielectric constant tensor:
#      x y z
#    x 1.817380 0.000000 0.000000 
#    y 0.000000 1.790820 0.000000 
#    z 0.000000 0.000000 1.792180 
# 
# From -- ./inp_files/6330.got.cif
#   From: 2010.06.25/outbox.cif.g09.slc.cpg/sg58_4_cif.got.tgz:6330.got - 2010.06.26 21:38:00.
