data_PCOD8238510
_publ_section_title
;
Structure prediction by ZEFSAII (Michael W. Deem and Ramdas Pophale) SiO2 
 PCOD8238510
Probable space group: P N N M
;
_chemical_formula_sum "Si O2"
_cell_formula_units_Z 32
_cell_length_a 8.429700
_cell_length_b 12.786332
_cell_length_c 12.995315
_cell_angle_alpha 90.000000
_cell_angle_beta 90.000000
_cell_angle_gamma 90.000000
_cell_volume 1400.699285
_symmetry_space_group_name_H-M "P N N M"
_symmetry_group_IT_number 58
_symmetry_cell_setting 'orthorhombic'
loop_
_space_group_symop_operation_xyz
x,y,z
-x,-y,z
1/2+x,1/2-y,1/2-z
1/2-x,1/2+y,1/2-z
-x,-y,-z
x,y,-z
1/2-x,1/2+y,1/2+z
1/2+x,1/2-y,1/2+z
loop_
_atom_site_type_symbol
_atom_site_label
_atom_site_fract_x
_atom_site_fract_y
_atom_site_fract_z
Si Si1 0.686334 0.475831 0.175710
Si Si2 0.686867 0.184770 0.383638
Si Si3 0.321832 0.459807 0.609390
Si Si4 0.341624 0.232649 0.311401
O O1 0.500000 0.500000 0.172171
O O2 0.773036 0.561506 0.105439
O O3 0.757913 0.485467 0.292204
O O4 0.725905 0.357695 0.142281
O O5 0.685646 0.232061 0.500000
O O6 0.520927 0.195972 0.325556
O O7 0.813897 0.243979 0.310515
O O8 0.500000 0.500000 0.604847
O O9 0.238143 0.488092 0.500000
O O10 0.313085 0.335167 0.621684
#
# Coordination Sequence:
#
# PCOD8238510 Si02
#       4
#     8   8   8   8
#     4  10  22  40  61  93 137 176 222 280 332 403
#     4  11  24  42  66  94 129 175 222 275 339 402
#     4   9  18  35  61  89 119 163 216 269 325 382
#     4  11  22  40  66  96 132 173 224 281 338 402
#
# _framework density 22.845732000000002
#
# number of rings (size 3 to 8) (size 9 to 14) (size 15 to 20)
#    0.000    1.750    0.000    6.000    0.000    6.500 
#    0.000   13.750    0.000    7.500    0.000    0.000 
#    0.000    0.000    0.000    0.000    0.000    0.000 
#
# Total GULP energy -396507.416635 kJ/mol
# GULP energy per Si atom -12390.856770 kJ/mol
# Density = 2.279373 g / cm^3
# Si number density = 22.845732 Si / 1000 Ang^3
#
#
#
# Elastic Constant Matrix: (Units=GPa)
#
#
# Indices 1 2 3 4 5 6 
#
# 1 78.3403 32.2854 55.1608 0.0000 0.0000 0.0000
# 2 32.2854 132.5499 7.8654 0.0000 0.0000 0.0000
# 3 55.1608 7.8654 135.6444 0.0000 0.0000 0.0000
# 4 0.0000 0.0000 0.0000 16.4709 0.0000 0.0000
# 5 0.0000 0.0000 0.0000 0.0000 48.3970 0.0000
# 6 0.0000 0.0000 0.0000 0.0000 0.0000 42.0844
#
#
#
# Elastic Compliance Matrix: (Units=1/GPa)
#
#
# Indices 1 2 3 4 5 6 
#
# 1 0.020200 -0.004448 -0.007957 0.000000 0.000000 0.000000
# 2 -0.004448 0.008550 0.001313 0.000000 0.000000 0.000000
# 3 -0.007957 0.001313 0.010532 0.000000 0.000000 0.000000
# 4 0.000000 0.000000 0.000000 0.060713 0.000000 0.000000
# 5 0.000000 0.000000 0.000000 0.000000 0.020662 0.000000
# 6 0.000000 0.000000 0.000000 0.000000 0.000000 0.023762
#
#
# Mechanical properties :
#
#
# Convention : Reuss Voigt Hill
#
# Bulk Modulus (GPa) = 58.48461 59.68422 59.08442
# Shear Modulus (GPa) = 29.01875 38.13866 33.57870
#
# Velocity S-wave (km/s) = 3.56786 4.09026 3.83796
# Velocity P-wave (km/s) = 6.52903 6.96337 6.74970
#
# Compressibility (1/GPa) = 0.01709851
#
# Stress axis : x y z
#
# Youngs Moduli (GPa) = 49.50385 116.96118 94.95101
#
# Poissons Ratio (x) = 0.52026 0.75550
# Poissons Ratio (y) = 0.22020 -0.12468
# Poissons Ratio (z) = 0.39389 -0.15358
#
# Static dielectric constant tensor:
#      x y z
#    x 3.997450 0.000000 0.000000 
#    y 0.000000 4.451350 0.000000 
#    z 0.000000 0.000000 4.556410 
# 
# 
# High freq. dielectric constant tensor:
#      x y z
#    x 1.866780 0.000000 0.000000 
#    y 0.000000 1.915400 0.000000 
#    z 0.000000 0.000000 1.904930 
# 
# From -- ./inp_files/12339.got.cif
#   From: 2010.06.25/outbox.cif.g09.slc.cpg/sg58_7_cif.got.tgz:12339.got - 2010.06.26 21:38:00.
