data_PCOD8238716
_publ_section_title
;
Structure prediction by ZEFSAII (Michael W. Deem and Ramdas Pophale) SiO2 
 PCOD8238716
Probable space group: P N N M
;
_chemical_formula_sum "Si O2"
_cell_formula_units_Z 64
_cell_length_a 8.628054
_cell_length_b 15.183322
_cell_length_c 22.908169
_cell_angle_alpha 90.000000
_cell_angle_beta 90.000000
_cell_angle_gamma 90.000000
_cell_volume 3001.027916
_symmetry_space_group_name_H-M "P N N M"
_symmetry_group_IT_number 58
_symmetry_cell_setting 'orthorhombic'
loop_
_space_group_symop_operation_xyz
x,y,z
-x,-y,z
1/2+x,1/2-y,1/2-z
1/2-x,1/2+y,1/2-z
-x,-y,-z
x,y,-z
1/2-x,1/2+y,1/2+z
1/2+x,1/2-y,1/2+z
loop_
_atom_site_type_symbol
_atom_site_label
_atom_site_fract_x
_atom_site_fract_y
_atom_site_fract_z
Si Si1 0.332128 0.990629 0.934103
Si Si2 0.321096 0.484845 0.861438
Si Si3 0.280912 0.658957 0.617784
Si Si4 0.142399 0.854046 0.865100
Si Si5 0.748056 0.633355 0.245069
Si Si6 0.591172 0.812691 0.770910
Si Si7 0.671837 0.158023 0.568700
Si Si8 0.355635 0.157073 0.640499
O O1 0.244535 0.082747 0.929041
O O2 0.500000 0.000000 0.901869
O O3 0.220720 0.912530 0.913836
O O4 0.364680 0.965554 0.000000
O O5 0.500000 0.500000 0.848101
O O6 0.238359 0.442698 0.803662
O O7 0.292140 0.419884 0.916134
O O8 0.252999 0.578677 0.881486
O O9 0.459425 0.656350 0.634191
O O10 0.172072 0.639276 0.674085
O O11 0.243343 0.751216 0.586337
O O12 0.174931 0.904317 0.804271
O O13 0.211771 0.754892 0.872126
O O14 0.636444 0.710340 0.221190
O O15 0.907198 0.676819 0.267884
O O16 0.645524 0.854939 0.710282
O O17 0.629392 0.156878 0.500000
O O18 0.520656 0.144357 0.608942
#
# Coordination Sequence:
#
# PCOD8238716 Si02
#       8
#     8   8   8   8   8   8   8   8
#     4  11  25  44  66  99 140 183 233 289 353 430
#     4  12  27  41  66 102 144 183 239 293 354 407
#     4  11  23  43  71 105 134 183 228 297 360 429
#     4  10  24  41  66  99 135 182 235 279 359 425
#     4  11  23  40  64 100 136 180 219 287 348 429
#     4  11  21  40  68  94 143 170 227 278 358 423
#     4  11  24  48  72  98 138 189 245 291 351 424
#     4  10  24  43  66 101 136 188 229 290 347 423
#
# _framework density 21.326024
#
# number of rings (size 3 to 8) (size 9 to 14) (size 15 to 20)
#    0.000    1.125    2.500    3.375    7.000    5.250 
#    0.000    0.000    0.000    0.000    0.000    0.000 
#    0.000    0.000    0.000    0.000    0.000    0.000 
#
# Total GULP energy -793218.190154 kJ/mol
# GULP energy per Si atom -12394.034221 kJ/mol
# Density = 2.127749 g / cm^3
# Si number density = 21.326024 Si / 1000 Ang^3
#
#
#
# Elastic Constant Matrix: (Units=GPa)
#
#
# Indices 1 2 3 4 5 6 
#
# 1 97.5416 53.5961 30.5817 0.0000 0.0000 0.0000
# 2 53.5961 133.3333 40.6577 0.0000 0.0000 0.0000
# 3 30.5817 40.6577 103.5900 0.0000 0.0000 0.0000
# 4 0.0000 0.0000 0.0000 11.0480 0.0000 0.0000
# 5 0.0000 0.0000 0.0000 0.0000 -55.8222 0.0000
# 6 0.0000 0.0000 0.0000 0.0000 0.0000 31.5646
#
#
#
# Elastic Compliance Matrix: (Units=1/GPa)
#
#
# Indices 1 2 3 4 5 6 
#
# 1 0.013555 -0.004803 -0.002116 0.000000 0.000000 0.000000
# 2 -0.004803 0.010222 -0.002594 0.000000 0.000000 0.000000
# 3 -0.002116 -0.002594 0.011296 0.000000 0.000000 0.000000
# 4 0.000000 0.000000 0.000000 0.090514 0.000000 0.000000
# 5 0.000000 0.000000 0.000000 0.000000 -0.017914 0.000000
# 6 0.000000 0.000000 0.000000 0.000000 0.000000 0.031681
#
#
# Mechanical properties :
#
#
# Convention : Reuss Voigt Hill
#
# Bulk Modulus (GPa) = 62.32184 64.90397 63.61290
# Shear Modulus (GPa) = 30.53808 11.33336 20.93572
#
# Velocity S-wave (km/s) = 3.78823 2.30778 3.13661
# Velocity P-wave (km/s) = 6.95853 6.13200 6.55830
#
# Compressibility (1/GPa) = 0.01604574
#
# Stress axis : x y z
#
# Youngs Moduli (GPa) = 73.77442 97.83073 88.52447
#
# Poissons Ratio (x) = 0.46991 0.18735
# Poissons Ratio (y) = 0.35436 0.22962
# Poissons Ratio (z) = 0.15614 0.25376
#
# Static dielectric constant tensor:
#      x y z
#    x 3.840980 0.000000 0.000000 
#    y 0.000000 3.993920 0.000000 
#    z 0.000000 0.000000 3.806370 
# 
# 
# High freq. dielectric constant tensor:
#      x y z
#    x 1.834780 0.000000 0.000000 
#    y 0.000000 1.843430 0.000000 
#    z 0.000000 0.000000 1.829390 
# 
# From -- ./inp_files/31644.got.cif
#   From: 2010.06.25/outbox.cif.g09.slc.cpg/sg58_16_cif.got.tgz:31644.got - 2010.06.26 21:38:00.
