data_PCOD8238183
_publ_section_title
;
Structure prediction by ZEFSAII (Michael W. Deem and Ramdas Pophale) SiO2 
 PCOD8238183
Probable space group: P N N M
;
_chemical_formula_sum "Si O2"
_cell_formula_units_Z 64
_cell_length_a 26.133648
_cell_length_b 9.400653
_cell_length_c 13.947603
_cell_angle_alpha 90.000000
_cell_angle_beta 90.000000
_cell_angle_gamma 90.000000
_cell_volume 3426.554444
_symmetry_space_group_name_H-M "P N N M"
_symmetry_group_IT_number 58
_symmetry_cell_setting 'orthorhombic'
loop_
_space_group_symop_operation_xyz
x,y,z
-x,-y,z
1/2+x,1/2-y,1/2-z
1/2-x,1/2+y,1/2-z
-x,-y,-z
x,y,-z
1/2-x,1/2+y,1/2+z
1/2+x,1/2-y,1/2+z
loop_
_atom_site_type_symbol
_atom_site_label
_atom_site_fract_x
_atom_site_fract_y
_atom_site_fract_z
Si Si1 0.874419 0.796545 0.106909
Si Si2 0.042806 0.112075 0.759246
Si Si3 0.529086 0.865707 0.236492
Si Si4 0.306180 0.060067 0.754634
Si Si5 0.105804 0.527862 0.891214
Si Si6 0.377945 0.230589 0.888329
Si Si7 0.703451 0.270000 0.765181
Si Si8 0.624595 0.442911 0.111284
O O1 0.913305 0.902586 0.160102
O O2 0.899806 0.641512 0.108135
O O3 0.819908 0.796888 0.159962
O O4 0.864741 0.852822 0.000000
O O5 0.068772 0.085933 0.656136
O O6 0.017261 0.264351 0.763057
O O7 0.000000 0.000000 0.784308
O O8 0.558196 0.905534 0.334650
O O9 0.567002 0.795569 0.159809
O O10 0.500000 0.000000 0.190009
O O11 0.341371 0.069354 0.660499
O O12 0.335513 0.125800 0.845446
O O13 0.257587 0.154389 0.728722
O O14 0.290775 0.899049 0.782338
O O15 0.106445 0.587598 0.000000
O O16 0.360045 0.392817 0.870354
O O17 0.383494 0.196915 0.000000
O O18 0.666602 0.337016 0.845247
O O19 0.620060 0.408113 0.000000
#
# Coordination Sequence:
#
# PCOD8238183 Si02
#       8
#     8   8   8   8   8   8   8   8
#     4   9  19  36  57  82 110 144 187 229 276 332
#     4  11  21  36  57  82 115 150 187 233 279 333
#     4  11  21  36  57  84 113 150 191 231 282 335
#     4  10  21  38  61  86 114 147 185 233 287 337
#     4   9  19  36  58  82 108 145 191 228 267 335
#     4  10  22  39  58  83 114 149 191 237 283 335
#     4  10  21  38  61  85 114 149 184 233 285 342
#     4  10  22  39  59  82 112 152 193 232 281 340
#
# _framework density 18.677654
#
# number of rings (size 3 to 8) (size 9 to 14) (size 15 to 20)
#    0.000    2.000    2.500    0.750    1.750    3.500 
#    0.000    2.500    0.000    0.000    0.000    0.000 
#    0.000    0.000    0.000    0.000    0.000    0.000 
#
# Total GULP energy -793657.985431 kJ/mol
# GULP energy per Si atom -12400.906022 kJ/mol
# Density = 1.863514 g / cm^3
# Si number density = 18.677654 Si / 1000 Ang^3
#
#
#
# Elastic Constant Matrix: (Units=GPa)
#
#
# Indices 1 2 3 4 5 6 
#
# 1 85.6139 37.5032 35.2673 0.0000 0.0000 0.0000
# 2 37.5032 93.0044 38.2450 0.0000 0.0000 0.0000
# 3 35.2673 38.2450 134.1104 0.0000 0.0000 0.0000
# 4 0.0000 0.0000 0.0000 26.0597 0.0000 0.0000
# 5 0.0000 0.0000 0.0000 0.0000 13.9703 0.0000
# 6 0.0000 0.0000 0.0000 0.0000 0.0000 37.8357
#
#
#
# Elastic Compliance Matrix: (Units=1/GPa)
#
#
# Indices 1 2 3 4 5 6 
#
# 1 0.014889 -0.004977 -0.002496 0.000000 0.000000 0.000000
# 2 -0.004977 0.013845 -0.002639 0.000000 0.000000 0.000000
# 3 -0.002496 -0.002639 0.008866 0.000000 0.000000 0.000000
# 4 0.000000 0.000000 0.000000 0.038373 0.000000 0.000000
# 5 0.000000 0.000000 0.000000 0.000000 0.071580 0.000000
# 6 0.000000 0.000000 0.000000 0.000000 0.000000 0.026430
#
#
# Mechanical properties :
#
#
# Convention : Reuss Voigt Hill
#
# Bulk Modulus (GPa) = 57.55773 59.41774 58.48774
# Shear Modulus (GPa) = 25.00011 29.02069 27.01040
#
# Velocity S-wave (km/s) = 3.66253 3.94606 3.80693
# Velocity P-wave (km/s) = 6.98346 7.25556 7.12081
#
# Compressibility (1/GPa) = 0.01737386
#
# Stress axis : x y z
#
# Youngs Moduli (GPa) = 67.16425 72.23043 112.79634
#
# Poissons Ratio (x) = 0.35952 0.28153
# Poissons Ratio (y) = 0.33431 0.29769
# Poissons Ratio (z) = 0.16764 0.19063
#
# Static dielectric constant tensor:
#      x y z
#    x 3.405420 0.000000 0.000000 
#    y 0.000000 3.448400 0.000000 
#    z 0.000000 0.000000 3.440510 
# 
# 
# High freq. dielectric constant tensor:
#      x y z
#    x 1.730970 0.000000 0.000000 
#    y 0.000000 1.728790 0.000000 
#    z 0.000000 0.000000 1.720580 
# 
# From -- ./inp_files/23548.got.cif
#   From: 2010.06.25/outbox.cif.g09.slc.cpg/sg58_12_cif.got.tgz:23548.got - 2010.06.26 21:38:00.
