data_PCOD8238299
_publ_section_title
;
Structure prediction by ZEFSAII (Michael W. Deem and Ramdas Pophale) SiO2 
 PCOD8238299
Probable space group: P N N M
;
_chemical_formula_sum "Si O2"
_cell_formula_units_Z 64
_cell_length_a 11.847492
_cell_length_b 30.334927
_cell_length_c 8.809813
_cell_angle_alpha 90.000000
_cell_angle_beta 90.000000
_cell_angle_gamma 90.000000
_cell_volume 3166.183405
_symmetry_space_group_name_H-M "P N N M"
_symmetry_group_IT_number 58
_symmetry_cell_setting 'orthorhombic'
loop_
_space_group_symop_operation_xyz
x,y,z
-x,-y,z
1/2+x,1/2-y,1/2-z
1/2-x,1/2+y,1/2-z
-x,-y,-z
x,y,-z
1/2-x,1/2+y,1/2+z
1/2+x,1/2-y,1/2+z
loop_
_atom_site_type_symbol
_atom_site_label
_atom_site_fract_x
_atom_site_fract_y
_atom_site_fract_z
Si Si1 0.220116 0.204753 0.322943
Si Si2 0.250299 0.448198 0.673671
Si Si3 0.144393 0.626958 0.320946
Si Si4 0.742664 0.695319 0.323366
Si Si5 0.600305 0.123997 0.678697
Si Si6 0.981201 0.169132 0.670724
Si Si7 0.015705 0.931875 0.327937
Si Si8 0.793974 0.954607 0.825332
O O1 0.244351 0.195898 0.500000
O O2 0.296905 0.172402 0.224984
O O3 0.250372 0.254046 0.273001
O O4 0.088460 0.198531 0.284785
O O5 0.235379 0.433012 0.500000
O O6 0.164846 0.420515 0.775447
O O7 0.378284 0.439454 0.720883
O O8 0.223459 0.500120 0.693004
O O9 0.128748 0.625470 0.500000
O O10 0.218206 0.585480 0.263358
O O11 0.023367 0.623447 0.246102
O O12 0.768565 0.689573 0.500000
O O13 0.834211 0.667270 0.232999
O O14 0.617668 0.678245 0.288883
O O15 0.592114 0.125737 0.500000
O O16 0.938741 0.179999 0.500000
O O17 0.020909 0.118886 0.681772
O O18 0.045211 0.945860 0.500000
O O19 0.908934 0.959899 0.270473
O O20 0.827684 0.946420 0.000000
#
# Coordination Sequence:
#
# PCOD8238299 Si02
#       8
#     8   8   8   8   8   8   8   8
#     4  10  23  43  64  93 128 163 205 253 305 362
#     4  11  23  41  64  90 124 163 206 256 309 367
#     4  11  24  43  66  91 122 162 208 254 307 368
#     4  11  24  41  65  95 125 163 209 254 306 367
#     4  12  26  44  64  89 124 163 207 257 312 369
#     4  10  21  39  63  91 129 167 202 254 309 360
#     4  11  21  36  62  94 128 164 202 250 308 367
#     4  10  23  41  63  92 124 162 206 254 308 369
#
# _framework density 20.213612000000001
#
# number of rings (size 3 to 8) (size 9 to 14) (size 15 to 20)
#    0.000    1.250    2.500    3.000    1.750    5.500 
#    0.000    2.500    0.000    0.000    0.000    0.000 
#    0.000    0.000    0.000    0.000    0.000    0.000 
#
# Total GULP energy -793981.927583 kJ/mol
# GULP energy per Si atom -12405.967618 kJ/mol
# Density = 2.016760 g / cm^3
# Si number density = 20.213612 Si / 1000 Ang^3
#
#
#
# Elastic Constant Matrix: (Units=GPa)
#
#
# Indices 1 2 3 4 5 6 
#
# 1 117.2082 39.6009 44.5661 0.0000 0.0000 0.0000
# 2 39.6009 97.0389 28.8135 0.0000 0.0000 0.0000
# 3 44.5661 28.8135 69.9095 0.0000 0.0000 0.0000
# 4 0.0000 0.0000 0.0000 30.8836 0.0000 0.0000
# 5 0.0000 0.0000 0.0000 0.0000 35.1736 0.0000
# 6 0.0000 0.0000 0.0000 0.0000 0.0000 23.8175
#
#
#
# Elastic Compliance Matrix: (Units=1/GPa)
#
#
# Indices 1 2 3 4 5 6 
#
# 1 0.011975 -0.002986 -0.006404 0.000000 0.000000 0.000000
# 2 -0.002986 0.012487 -0.003243 0.000000 0.000000 0.000000
# 3 -0.006404 -0.003243 0.019723 0.000000 0.000000 0.000000
# 4 0.000000 0.000000 0.000000 0.032380 0.000000 0.000000
# 5 0.000000 0.000000 0.000000 0.000000 0.028430 0.000000
# 6 0.000000 0.000000 0.000000 0.000000 0.000000 0.041986
#
#
# Mechanical properties :
#
#
# Convention : Reuss Voigt Hill
#
# Bulk Modulus (GPa) = 52.85315 56.67974 54.76645
# Shear Modulus (GPa) = 28.00300 29.38668 28.69484
#
# Velocity S-wave (km/s) = 3.72607 3.81702 3.77182
# Velocity P-wave (km/s) = 6.68697 6.89401 6.79128
#
# Compressibility (1/GPa) = 0.01892035
#
# Stress axis : x y z
#
# Youngs Moduli (GPa) = 83.50441 80.08621 50.70224
#
# Poissons Ratio (x) = 0.23911 0.32467
# Poissons Ratio (y) = 0.24932 0.16443
# Poissons Ratio (z) = 0.53472 0.25972
#
# Static dielectric constant tensor:
#      x y z
#    x 3.626440 0.000000 0.000000 
#    y 0.000000 3.996880 0.000000 
#    z 0.000000 0.000000 3.726250 
# 
# 
# High freq. dielectric constant tensor:
#      x y z
#    x 1.788490 0.000000 0.000000 
#    y 0.000000 1.804580 0.000000 
#    z 0.000000 0.000000 1.793520 
# 
# From -- ./inp_files/4667.got.cif
#   From: 2010.06.25/outbox.cif.g09.slc.cpg/sg58_3_cif.got.tgz:4667.got - 2010.06.26 21:38:00.
