data_PCOD8238614
_publ_section_title
;
Structure prediction by ZEFSAII (Michael W. Deem and Ramdas Pophale) SiO2 
 PCOD8238614
Probable space group: P N N M
;
_chemical_formula_sum "Si O2"
_cell_formula_units_Z 48
_cell_length_a 9.414454
_cell_length_b 14.897759
_cell_length_c 16.953394
_cell_angle_alpha 90.000000
_cell_angle_beta 90.000000
_cell_angle_gamma 90.000000
_cell_volume 2377.785845
_symmetry_space_group_name_H-M "P N N M"
_symmetry_group_IT_number 58
_symmetry_cell_setting 'orthorhombic'
loop_
_space_group_symop_operation_xyz
x,y,z
-x,-y,z
1/2+x,1/2-y,1/2-z
1/2-x,1/2+y,1/2-z
-x,-y,-z
x,y,-z
1/2-x,1/2+y,1/2+z
1/2+x,1/2-y,1/2+z
loop_
_atom_site_type_symbol
_atom_site_label
_atom_site_fract_x
_atom_site_fract_y
_atom_site_fract_z
Si Si1 0.016579 0.743664 0.660792
Si Si2 0.046499 0.850688 0.500000
Si Si3 0.368173 0.443305 0.407984
Si Si4 0.320119 0.265492 0.686149
Si Si5 0.139195 0.553132 0.674673
Si Si6 0.367775 0.067160 0.344987
Si Si7 0.295221 0.515272 0.000000
O O1 0.027485 0.793740 0.578329
O O2 0.114501 0.789685 0.727953
O O3 0.088721 0.648478 0.642300
O O4 0.852076 0.740283 0.689030
O O5 0.939948 0.932211 0.500000
O O6 0.194681 0.906179 0.500000
O O7 0.500000 0.500000 0.374799
O O8 0.380237 0.426939 0.500000
O O9 0.364809 0.345857 0.370281
O O10 0.229940 0.502456 0.390491
O O11 0.398009 0.175095 0.653339
O O12 0.216866 0.556627 0.761020
O O13 0.000000 0.500000 0.694476
O O14 0.278508 0.044513 0.420388
O O15 0.500000 0.000000 0.348365
#
# Coordination Sequence:
#
# PCOD8238614 Si02
#       7
#     8   4   8   8   8   8   4
#     4  11  25  44  68 103 132 182 223 279 338 408
#     4  11  26  40  65  98 138 169 223 276 337 399
#     4  11  27  45  66  99 137 180 223 282 347 397
#     4  11  25  45  72  95 138 176 227 277 344 398
#     4  10  22  43  69  96 128 172 229 279 327 403
#     4  10  23  43  67  97 131 174 224 271 333 399
#     4  11  23  42  64 100 130 175 219 272 337 394
#
# _framework density 20.186847
#
# number of rings (size 3 to 8) (size 9 to 14) (size 15 to 20)
#    0.000    1.333    3.333    0.250   10.500    0.333 
#    0.000    0.000    0.000    0.000    0.000    0.000 
#    0.000    0.000    0.000    0.000    0.000    0.000 
#
# Total GULP energy -594658.948779 kJ/mol
# GULP energy per Si atom -12388.728100 kJ/mol
# Density = 2.014090 g / cm^3
# Si number density = 20.186847 Si / 1000 Ang^3
#
#
#
# Elastic Constant Matrix: (Units=GPa)
#
#
# Indices 1 2 3 4 5 6 
#
# 1 69.4172 57.7444 62.2650 0.0000 0.0000 0.0000
# 2 57.7444 141.4239 57.9982 0.0000 0.0000 0.0000
# 3 62.2650 57.9982 132.5613 0.0000 0.0000 0.0000
# 4 0.0000 0.0000 0.0000 -1.8920 0.0000 0.0000
# 5 0.0000 0.0000 0.0000 0.0000 37.6849 0.0000
# 6 0.0000 0.0000 0.0000 0.0000 0.0000 33.6737
#
#
#
# Elastic Compliance Matrix: (Units=1/GPa)
#
#
# Indices 1 2 3 4 5 6 
#
# 1 0.031101 -0.008174 -0.011032 0.000000 0.000000 0.000000
# 2 -0.008174 0.010766 -0.000871 0.000000 0.000000 0.000000
# 3 -0.011032 -0.000871 0.013106 0.000000 0.000000 0.000000
# 4 0.000000 0.000000 0.000000 -0.528546 0.000000 0.000000
# 5 0.000000 0.000000 0.000000 0.000000 0.026536 0.000000
# 6 0.000000 0.000000 0.000000 0.000000 0.000000 0.029697
#
#
# Mechanical properties :
#
#
# Convention : Reuss Voigt Hill
#
# Bulk Modulus (GPa) = 67.48083 77.71305 72.59694
# Shear Modulus (GPa) = -13.43192 24.91965 5.74386
#
# Velocity S-wave (km/s) = -2.58229 3.51729 1.68865
# Velocity P-wave (km/s) = 4.96082 7.42129 6.31210
#
# Compressibility (1/GPa) = 0.01481902
#
# Stress axis : x y z
#
# Youngs Moduli (GPa) = 32.15370 92.88785 76.29958
#
# Poissons Ratio (x) = 0.75931 0.84171
# Poissons Ratio (y) = 0.26284 0.06642
# Poissons Ratio (z) = 0.35471 0.08087
#
# Static dielectric constant tensor:
#      x y z
#    x 3.820580 0.000000 0.000000 
#    y 0.000000 3.972210 0.000000 
#    z 0.000000 0.000000 3.430030 
# 
# 
# High freq. dielectric constant tensor:
#      x y z
#    x 1.776520 0.000000 0.000000 
#    y 0.000000 1.809160 0.000000 
#    z 0.000000 0.000000 1.800960 
# 
# From -- ./inp_files/25349.got.cif
#   From: 2010.06.25/outbox.cif.g09.slc.cpg/sg58_13_cif.got.tgz:25349.got - 2010.06.26 21:38:00.
