data_PCOD8238278
_publ_section_title
;
Structure prediction by ZEFSAII (Michael W. Deem and Ramdas Pophale) SiO2 
 PCOD8238278
Probable space group: P N N M
;
_chemical_formula_sum "Si O2"
_cell_formula_units_Z 48
_cell_length_a 10.567941
_cell_length_b 24.111296
_cell_length_c 8.990917
_cell_angle_alpha 90.000000
_cell_angle_beta 90.000000
_cell_angle_gamma 90.000000
_cell_volume 2290.946372
_symmetry_space_group_name_H-M "P N N M"
_symmetry_group_IT_number 58
_symmetry_cell_setting 'orthorhombic'
loop_
_space_group_symop_operation_xyz
x,y,z
-x,-y,z
1/2+x,1/2-y,1/2-z
1/2-x,1/2+y,1/2-z
-x,-y,-z
x,y,-z
1/2-x,1/2+y,1/2+z
1/2+x,1/2-y,1/2+z
loop_
_atom_site_type_symbol
_atom_site_label
_atom_site_fract_x
_atom_site_fract_y
_atom_site_fract_z
Si Si1 0.507047 0.126251 0.831154
Si Si2 0.376022 0.034381 0.675156
Si Si3 0.376942 0.534070 0.675742
Si Si4 0.744089 0.150312 0.326864
Si Si5 0.968766 0.859673 0.674116
Si Si6 0.611755 0.238788 0.830548
O O1 0.396535 0.097070 0.736254
O O2 0.645117 0.110437 0.760218
O O3 0.495319 0.193673 0.822584
O O4 0.500825 0.104488 0.000000
O O5 0.356385 0.035159 0.500000
O O6 0.249474 0.008798 0.749080
O O7 0.500000 0.000000 0.723536
O O8 0.500000 0.500000 0.729652
O O9 0.361925 0.532166 0.500000
O O10 0.388501 0.597312 0.730400
O O11 0.712715 0.147242 0.500000
O O12 0.884262 0.129717 0.291634
O O13 0.725934 0.214261 0.270452
O O14 0.939374 0.867497 0.500000
O O15 0.933262 0.798042 0.729198
O O16 0.659961 0.243545 0.000000
#
# Coordination Sequence:
#
# PCOD8238278 Si02
#       6
#     8   8   8   8   8   8
#     4   9  19  37  61  90 126 162 203 256 311 369
#     4  11  25  44  69  98 126 164 215 266 318 377
#     4  11  27  46  64  93 129 167 213 263 321 383
#     4   9  18  33  57  89 122 161 206 255 311 370
#     4  10  21  39  62  88 124 167 211 259 317 379
#     4   8  18  35  55  86 123 163 205 255 311 370
#
# _framework density 20.95204
#
# number of rings (size 3 to 8) (size 9 to 14) (size 15 to 20)
#    1.000    1.333    0.000    1.500    2.333    6.000 
#    0.000    1.667    0.000    0.000    0.000    0.000 
#    0.000    0.000    0.000    0.000    0.000    0.000 
#
# Total GULP energy -594875.951426 kJ/mol
# GULP energy per Si atom -12393.248988 kJ/mol
# Density = 2.090435 g / cm^3
# Si number density = 20.952040 Si / 1000 Ang^3
#
#
#
# Elastic Constant Matrix: (Units=GPa)
#
#
# Indices 1 2 3 4 5 6 
#
# 1 121.5594 37.5638 53.8763 0.0000 0.0000 0.0000
# 2 37.5638 76.1436 28.7981 0.0000 0.0000 0.0000
# 3 53.8763 28.7981 84.9600 0.0000 0.0000 0.0000
# 4 0.0000 0.0000 0.0000 20.0372 0.0000 0.0000
# 5 0.0000 0.0000 0.0000 0.0000 34.4695 0.0000
# 6 0.0000 0.0000 0.0000 0.0000 0.0000 33.3339
#
#
#
# Elastic Compliance Matrix: (Units=1/GPa)
#
#
# Indices 1 2 3 4 5 6 
#
# 1 0.012228 -0.003555 -0.006549 0.000000 0.000000 0.000000
# 2 -0.003555 0.016098 -0.003202 0.000000 0.000000 0.000000
# 3 -0.006549 -0.003202 0.017008 0.000000 0.000000 0.000000
# 4 0.000000 0.000000 0.000000 0.049907 0.000000 0.000000
# 5 0.000000 0.000000 0.000000 0.000000 0.029011 0.000000
# 6 0.000000 0.000000 0.000000 0.000000 0.000000 0.029999
#
#
# Mechanical properties :
#
#
# Convention : Reuss Voigt Hill
#
# Bulk Modulus (GPa) = 53.41405 58.12657 55.77031
# Shear Modulus (GPa) = 26.72294 28.39642 27.55968
#
# Velocity S-wave (km/s) = 3.57520 3.68544 3.63074
# Velocity P-wave (km/s) = 6.52622 6.77590 6.65223
#
# Compressibility (1/GPa) = 0.01872167
#
# Stress axis : x y z
#
# Youngs Moduli (GPa) = 81.78206 62.11920 58.79424
#
# Poissons Ratio (x) = 0.22086 0.38503
# Poissons Ratio (y) = 0.29077 0.18826
# Poissons Ratio (z) = 0.53558 0.19891
#
# Static dielectric constant tensor:
#      x y z
#    x 3.685190 0.000000 0.000000 
#    y 0.000000 3.709870 0.000000 
#    z 0.000000 0.000000 3.661990 
# 
# 
# High freq. dielectric constant tensor:
#      x y z
#    x 1.808890 0.000000 0.000000 
#    y 0.000000 1.813770 0.000000 
#    z 0.000000 0.000000 1.820040 
# 
# From -- ./inp_files/4255.got.cif
#   From: 2010.06.25/outbox.cif.g09.slc.cpg/sg58_3_cif.got.tgz:4255.got - 2010.06.26 21:38:00.
