data_PCOD8238461
_publ_section_title
;
Structure prediction by ZEFSAII (Michael W. Deem and Ramdas Pophale) SiO2 
 PCOD8238461
Probable space group: P N N M
;
_chemical_formula_sum "Si O2"
_cell_formula_units_Z 40
_cell_length_a 8.710964
_cell_length_b 29.074448
_cell_length_c 7.620669
_cell_angle_alpha 90.000000
_cell_angle_beta 90.000000
_cell_angle_gamma 90.000000
_cell_volume 1930.059936
_symmetry_space_group_name_H-M "P N N M"
_symmetry_group_IT_number 58
_symmetry_cell_setting 'orthorhombic'
loop_
_space_group_symop_operation_xyz
x,y,z
-x,-y,z
1/2+x,1/2-y,1/2-z
1/2-x,1/2+y,1/2-z
-x,-y,-z
x,y,-z
1/2-x,1/2+y,1/2+z
1/2+x,1/2-y,1/2+z
loop_
_atom_site_type_symbol
_atom_site_label
_atom_site_fract_x
_atom_site_fract_y
_atom_site_fract_z
Si Si1 0.439153 0.298991 0.301817
Si Si2 0.930457 0.050191 0.000000
Si Si3 0.594925 0.206172 0.705580
Si Si4 0.925059 0.891466 0.304568
Si Si5 0.070506 0.612443 0.204800
Si Si6 0.431746 0.949646 0.000000
O O1 0.495480 0.306969 0.500000
O O2 0.506050 0.251326 0.226121
O O3 0.503247 0.340625 0.186946
O O4 0.255745 0.297760 0.303147
O O5 0.982009 0.076433 0.826014
O O6 0.749537 0.046866 0.000000
O O7 0.000000 0.000000 0.000000
O O8 0.626302 0.208703 0.500000
O O9 0.490291 0.162790 0.754558
O O10 0.938702 0.912487 0.500000
O O11 0.748944 0.888796 0.245602
O O12 0.983458 0.575405 0.322419
O O13 0.041187 0.600999 0.000000
O O14 0.500000 0.000000 0.000000
#
# Coordination Sequence:
#
# PCOD8238461 Si02
#       6
#     8   4   8   8   8   4
#     4  11  22  37  59  91 129 172 221 270 323 385
#     4  12  26  46  70 100 132 168 224 272 329 398
#     4  10  22  38  57  88 128 171 221 267 320 387
#     4  11  23  43  68  95 133 173 215 271 329 390
#     4  10  23  43  66  94 130 171 215 266 326 390
#     4  12  26  44  70  98 128 170 214 274 329 388
#
# _framework density 20.724744999999999
#
# number of rings (size 3 to 8) (size 9 to 14) (size 15 to 20)
#    0.000    1.200    1.000    4.800    1.400    6.400 
#    0.000    0.000    0.000    0.000    0.000    0.000 
#    0.000    0.000    0.000    0.000    0.000    0.000 
#
# Total GULP energy -496225.833609 kJ/mol
# GULP energy per Si atom -12405.645840 kJ/mol
# Density = 2.067757 g / cm^3
# Si number density = 20.724745 Si / 1000 Ang^3
#
#
#
# Elastic Constant Matrix: (Units=GPa)
#
#
# Indices 1 2 3 4 5 6 
#
# 1 183.3797 73.5528 52.2779 0.0000 0.0000 0.0000
# 2 73.5528 167.8082 61.2075 0.0000 0.0000 0.0000
# 3 52.2779 61.2075 90.7484 0.0000 0.0000 0.0000
# 4 0.0000 0.0000 0.0000 -10.4619 0.0000 0.0000
# 5 0.0000 0.0000 0.0000 0.0000 38.4746 0.0000
# 6 0.0000 0.0000 0.0000 0.0000 0.0000 43.5036
#
#
#
# Elastic Compliance Matrix: (Units=1/GPa)
#
#
# Indices 1 2 3 4 5 6 
#
# 1 0.007058 -0.002136 -0.002625 0.000000 0.000000 0.000000
# 2 -0.002136 0.008550 -0.004536 0.000000 0.000000 0.000000
# 3 -0.002625 -0.004536 0.015591 0.000000 0.000000 0.000000
# 4 0.000000 0.000000 0.000000 -0.095585 0.000000 0.000000
# 5 0.000000 0.000000 0.000000 0.000000 0.025991 0.000000
# 6 0.000000 0.000000 0.000000 0.000000 0.000000 0.022987
#
#
# Mechanical properties :
#
#
# Convention : Reuss Voigt Hill
#
# Bulk Modulus (GPa) = 79.33739 90.66807 85.00273
# Shear Modulus (GPa) = 676.59237 31.29648 353.94443
#
# Velocity S-wave (km/s) = 18.08797 3.89022 13.08259
# Velocity P-wave (km/s) = 21.78526 8.00138 16.41066
#
# Compressibility (1/GPa) = 0.01260440
#
# Stress axis : x y z
#
# Youngs Moduli (GPa) = 141.67454 116.95797 64.13786
#
# Poissons Ratio (x) = 0.24985 0.16838
# Poissons Ratio (y) = 0.30265 0.29094
# Poissons Ratio (z) = 0.37195 0.53054
#
# Static dielectric constant tensor:
#      x y z
#    x 3.813480 0.000000 0.000000 
#    y 0.000000 3.817870 0.000000 
#    z 0.000000 0.000000 3.755420 
# 
# 
# High freq. dielectric constant tensor:
#      x y z
#    x 1.826350 0.000000 0.000000 
#    y 0.000000 1.811450 0.000000 
#    z 0.000000 0.000000 1.820610 
# 
# From -- ./inp_files/2658.got.cif
#   From: 2010.06.25/outbox.cif.g09.slc.cpg/sg58_2_cif.got.tgz:2658.got - 2010.06.26 21:38:00.
