data_PCOD8238929
_publ_section_title
;
Structure prediction by ZEFSAII (Michael W. Deem and Ramdas Pophale) SiO2 
 PCOD8238929
Probable space group: P N N M
;
_chemical_formula_sum "Si O2"
_cell_formula_units_Z 40
_cell_length_a 9.194341
_cell_length_b 8.295148
_cell_length_c 22.717266
_cell_angle_alpha 90.000000
_cell_angle_beta 90.000000
_cell_angle_gamma 90.000000
_cell_volume 1732.609970
_symmetry_space_group_name_H-M "P N N M"
_symmetry_group_IT_number 58
_symmetry_cell_setting 'orthorhombic'
loop_
_space_group_symop_operation_xyz
x,y,z
-x,-y,z
1/2+x,1/2-y,1/2-z
1/2-x,1/2+y,1/2-z
-x,-y,-z
x,y,-z
1/2-x,1/2+y,1/2+z
1/2+x,1/2-y,1/2+z
loop_
_atom_site_type_symbol
_atom_site_label
_atom_site_fract_x
_atom_site_fract_y
_atom_site_fract_z
Si Si1 0.945249 0.664813 0.564995
Si Si2 0.739747 0.225886 0.435359
Si Si3 0.165841 0.058220 0.632259
Si Si4 0.152608 0.089089 0.175981
Si Si5 0.838756 0.563496 0.764863
O O1 0.875845 0.628614 0.500000
O O2 0.830290 0.760471 0.605652
O O3 0.000000 0.500000 0.595610
O O4 0.087275 0.772116 0.556646
O O5 0.664501 0.239471 0.500000
O O6 0.680112 0.367396 0.392781
O O7 0.721558 0.049067 0.406911
O O8 0.232966 0.052448 0.697002
O O9 0.000000 0.000000 0.636849
O O10 0.164454 0.251884 0.214660
O O11 0.276292 0.963779 0.198734
O O12 0.000000 0.000000 0.182722
O O13 0.000000 0.500000 0.768896
#
# Coordination Sequence:
#
# PCOD8238929 Si02
#       5
#     8   8   8   8   8
#     4   9  17  29  51  86 122 157 202 253 303 358
#     4   9  19  36  59  88 121 162 208 253 307 370
#     4   9  18  35  60  86 121 165 207 253 308 371
#     4  11  24  42  64  91 124 162 206 258 315 379
#     4  11  24  41  62  90 123 161 207 259 317 378
#
# _framework density 23.086556000000002
#
# number of rings (size 3 to 8) (size 9 to 14) (size 15 to 20)
#    0.000    2.200    0.000    2.400    0.000   10.000 
#    0.000    0.000    0.000   15.000    0.000    0.000 
#    0.000    0.800    0.000    0.000    0.000    0.000 
#
# Total GULP energy -495589.157247 kJ/mol
# GULP energy per Si atom -12389.728931 kJ/mol
# Density = 2.303401 g / cm^3
# Si number density = 23.086556 Si / 1000 Ang^3
#
#
#
# Elastic Constant Matrix: (Units=GPa)
#
#
# Indices 1 2 3 4 5 6 
#
# 1 87.6621 30.8912 44.2072 0.0000 0.0000 0.0000
# 2 30.8912 102.7795 70.9160 0.0000 0.0000 0.0000
# 3 44.2072 70.9160 138.9915 0.0000 0.0000 0.0000
# 4 0.0000 0.0000 0.0000 38.4193 0.0000 0.0000
# 5 0.0000 0.0000 0.0000 0.0000 17.2025 0.0000
# 6 0.0000 0.0000 0.0000 0.0000 0.0000 36.2703
#
#
#
# Elastic Compliance Matrix: (Units=1/GPa)
#
#
# Indices 1 2 3 4 5 6 
#
# 1 0.013782 -0.001725 -0.003503 0.000000 0.000000 0.000000
# 2 -0.001725 0.015232 -0.007223 0.000000 0.000000 0.000000
# 3 -0.003503 -0.007223 0.011994 0.000000 0.000000 0.000000
# 4 0.000000 0.000000 0.000000 0.026029 0.000000 0.000000
# 5 0.000000 0.000000 0.000000 0.000000 0.058131 0.000000
# 6 0.000000 0.000000 0.000000 0.000000 0.000000 0.027571
#
#
# Mechanical properties :
#
#
# Convention : Reuss Voigt Hill
#
# Bulk Modulus (GPa) = 62.09075 69.05133 65.57104
# Shear Modulus (GPa) = 27.32106 30.60634 28.96370
#
# Velocity S-wave (km/s) = 3.44382 3.64500 3.54583
# Velocity P-wave (km/s) = 6.53960 6.90575 6.72516
#
# Compressibility (1/GPa) = 0.01610546
#
# Stress axis : x y z
#
# Youngs Moduli (GPa) = 72.55830 65.65274 83.37405
#
# Poissons Ratio (x) = 0.11326 0.29208
# Poissons Ratio (y) = 0.12517 0.60219
# Poissons Ratio (z) = 0.25419 0.47420
#
# Static dielectric constant tensor:
#      x y z
#    x 3.708430 0.000000 0.000000 
#    y 0.000000 4.324840 0.000000 
#    z 0.000000 0.000000 4.513360 
# 
# 
# High freq. dielectric constant tensor:
#      x y z
#    x 1.869630 0.000000 0.000000 
#    y 0.000000 1.920150 0.000000 
#    z 0.000000 0.000000 1.923870 
# 
# From -- ./inp_files/31246.got.cif
#   From: 2010.06.25/outbox.cif.g09.slc.cpg/sg58_16_cif.got.tgz:31246.got - 2010.06.26 21:38:00.
