data_PCOD8238926
_publ_section_title
;
Structure prediction by ZEFSAII (Michael W. Deem and Ramdas Pophale) SiO2 
 PCOD8238926
Probable space group: P N N M
;
_chemical_formula_sum "Si O2"
_cell_formula_units_Z 40
_cell_length_a 7.591999
_cell_length_b 23.718202
_cell_length_c 10.812992
_cell_angle_alpha 90.000000
_cell_angle_beta 90.000000
_cell_angle_gamma 90.000000
_cell_volume 1947.079962
_symmetry_space_group_name_H-M "P N N M"
_symmetry_group_IT_number 58
_symmetry_cell_setting 'orthorhombic'
loop_
_space_group_symop_operation_xyz
x,y,z
-x,-y,z
1/2+x,1/2-y,1/2-z
1/2-x,1/2+y,1/2-z
-x,-y,-z
x,y,-z
1/2-x,1/2+y,1/2+z
1/2+x,1/2-y,1/2+z
loop_
_atom_site_type_symbol
_atom_site_label
_atom_site_fract_x
_atom_site_fract_y
_atom_site_fract_z
Si Si1 0.685703 0.931736 0.139863
Si Si2 0.009886 0.278984 0.861596
Si Si3 0.278832 0.940333 0.143675
Si Si4 0.321995 0.361889 0.859849
Si Si5 0.657646 0.324648 0.754897
O O1 0.482105 0.930720 0.178263
O O2 0.798415 0.888200 0.217816
O O3 0.767280 0.993760 0.157482
O O4 0.702315 0.911925 0.000000
O O5 0.834536 0.291704 0.786432
O O6 0.169700 0.318829 0.818839
O O7 0.065105 0.213538 0.850091
O O8 0.959055 0.292700 0.000000
O O9 0.167910 0.908218 0.249438
O O10 0.238781 0.921346 0.000000
O O11 0.511797 0.330421 0.863531
O O12 0.288481 0.385863 0.000000
#
# Coordination Sequence:
#
# PCOD8238926 Si02
#       5
#     8   8   8   8   8
#     4   9  19  37  66  97 127 162 211 264 313 371
#     4  11  24  41  60  88 128 164 206 259 317 372
#     4   9  19  40  66  96 129 165 208 259 315 376
#     4  11  24  42  63  94 130 166 208 257 309 378
#     4  12  22  42  63  92 120 168 213 259 315 373
#
# _framework density 20.543582000000001
#
# number of rings (size 3 to 8) (size 9 to 14) (size 15 to 20)
#    0.000    1.600    4.000    2.400    0.000    2.400 
#    0.000    7.000    0.000    0.000    0.000    0.000 
#    0.000    0.000    0.000    0.000    0.000    0.000 
#
# Total GULP energy -495650.970449 kJ/mol
# GULP energy per Si atom -12391.274261 kJ/mol
# Density = 2.049682 g / cm^3
# Si number density = 20.543582 Si / 1000 Ang^3
#
#
#
# Elastic Constant Matrix: (Units=GPa)
#
#
# Indices 1 2 3 4 5 6 
#
# 1 116.1245 36.3880 35.0255 0.0000 0.0000 0.0000
# 2 36.3880 94.5908 45.0594 0.0000 0.0000 0.0000
# 3 35.0255 45.0594 91.9165 0.0000 0.0000 0.0000
# 4 0.0000 0.0000 0.0000 16.1638 0.0000 0.0000
# 5 0.0000 0.0000 0.0000 0.0000 22.3863 0.0000
# 6 0.0000 0.0000 0.0000 0.0000 0.0000 29.2806
#
#
#
# Elastic Compliance Matrix: (Units=1/GPa)
#
#
# Indices 1 2 3 4 5 6 
#
# 1 0.010237 -0.002714 -0.002571 0.000000 0.000000 0.000000
# 2 -0.002714 0.014512 -0.006080 0.000000 0.000000 0.000000
# 3 -0.002571 -0.006080 0.014840 0.000000 0.000000 0.000000
# 4 0.000000 0.000000 0.000000 0.061867 0.000000 0.000000
# 5 0.000000 0.000000 0.000000 0.000000 0.044670 0.000000
# 6 0.000000 0.000000 0.000000 0.000000 0.000000 0.034152
#
#
# Mechanical properties :
#
#
# Convention : Reuss Voigt Hill
#
# Bulk Modulus (GPa) = 59.31155 59.50863 59.41009
# Shear Modulus (GPa) = 23.96626 25.97673 24.97150
#
# Velocity S-wave (km/s) = 3.41927 3.55980 3.49024
# Velocity P-wave (km/s) = 6.67250 6.77688 6.72489
#
# Compressibility (1/GPa) = 0.01686012
#
# Stress axis : x y z
#
# Youngs Moduli (GPa) = 97.68378 68.90840 67.38722
#
# Poissons Ratio (x) = 0.18698 0.17323
# Poissons Ratio (y) = 0.26507 0.40972
# Poissons Ratio (z) = 0.25112 0.41897
#
# Static dielectric constant tensor:
#      x y z
#    x 3.798570 0.000000 0.000000 
#    y 0.000000 3.661130 0.000000 
#    z 0.000000 0.000000 3.469800 
# 
# 
# High freq. dielectric constant tensor:
#      x y z
#    x 1.819620 0.000000 0.000000 
#    y 0.000000 1.799550 0.000000 
#    z 0.000000 0.000000 1.783980 
# 
# From -- ./inp_files/2621.got.cif
#   From: 2010.06.25/outbox.cif.g09.slc.cpg/sg58_2_cif.got.tgz:2621.got - 2010.06.26 21:38:00.
