data_PCOD8238852
_publ_section_title
;
Structure prediction by ZEFSAII (Michael W. Deem and Ramdas Pophale) SiO2 
 PCOD8238852
Probable space group: P N N M
;
_chemical_formula_sum "Si O2"
_cell_formula_units_Z 48
_cell_length_a 9.781532
_cell_length_b 24.677126
_cell_length_c 10.094617
_cell_angle_alpha 90.000000
_cell_angle_beta 90.000000
_cell_angle_gamma 90.000000
_cell_volume 2436.639637
_symmetry_space_group_name_H-M "P N N M"
_symmetry_group_IT_number 58
_symmetry_cell_setting 'orthorhombic'
loop_
_space_group_symop_operation_xyz
x,y,z
-x,-y,z
1/2+x,1/2-y,1/2-z
1/2-x,1/2+y,1/2-z
-x,-y,-z
x,y,-z
1/2-x,1/2+y,1/2+z
1/2+x,1/2-y,1/2+z
loop_
_atom_site_type_symbol
_atom_site_label
_atom_site_fract_x
_atom_site_fract_y
_atom_site_fract_z
Si Si1 0.266399 0.437685 0.652276
Si Si2 0.100319 0.198398 0.000000
Si Si3 0.418465 0.202384 0.000000
Si Si4 0.479371 0.870404 0.772422
Si Si5 0.904737 0.169810 0.500000
Si Si6 0.773731 0.441298 0.656901
Si Si7 0.977197 0.875825 0.230462
Si Si8 0.414449 0.825926 0.500000
O O1 0.225270 0.438630 0.500000
O O2 0.239798 0.497513 0.710558
O O3 0.423191 0.422072 0.674012
O O4 0.175337 0.391720 0.720990
O O5 0.261016 0.182856 0.000000
O O6 0.027562 0.174870 0.869530
O O7 0.076459 0.261707 0.000000
O O8 0.494418 0.179575 0.870825
O O9 0.431517 0.266463 0.000000
O O10 0.574945 0.921028 0.809017
O O11 0.498523 0.848636 0.624463
O O12 0.744081 0.155988 0.500000
O O13 0.976864 0.144114 0.373288
O O14 0.742313 0.437172 0.500000
O O15 0.670788 0.403437 0.738896
#
# Coordination Sequence:
#
# PCOD8238852 Si02
#       8
#     8   4   4   8   4   8   8   4
#     4  11  22  37  68  96 123 162 215 261 308 374
#     4  11  22  43  66  94 125 166 211 263 310 363
#     4  11  22  43  66  94 125 166 211 263 310 363
#     4  12  21  43  63  94 126 167 207 255 317 369
#     4  11  26  41  62  92 135 166 205 261 318 367
#     4  11  22  41  66  96 125 162 211 267 310 364
#     4  12  21  43  63  94 126 167 207 255 317 369
#     4  11  26  41  62  92 135 166 205 261 318 367
#
# _framework density 19.699259999999999
#
# number of rings (size 3 to 8) (size 9 to 14) (size 15 to 20)
#    0.000    0.667    6.667    2.000    0.000    3.333 
#    0.000    6.667    0.000    0.000    0.000    0.000 
#    0.000    0.000    0.000    0.000    0.000    0.000 
#
# Total GULP energy -595459.027434 kJ/mol
# GULP energy per Si atom -12405.396405 kJ/mol
# Density = 1.965442 g / cm^3
# Si number density = 19.699260 Si / 1000 Ang^3
#
#
#
# Elastic Constant Matrix: (Units=GPa)
#
#
# Indices 1 2 3 4 5 6 
#
# 1 61.1846 21.1103 25.6981 0.0000 0.0000 0.0000
# 2 21.1103 93.2901 47.5930 0.0000 0.0000 0.0000
# 3 25.6981 47.5930 135.3346 0.0000 0.0000 0.0000
# 4 0.0000 0.0000 0.0000 51.5076 0.0000 0.0000
# 5 0.0000 0.0000 0.0000 0.0000 25.7160 0.0000
# 6 0.0000 0.0000 0.0000 0.0000 0.0000 33.5058
#
#
#
# Elastic Compliance Matrix: (Units=1/GPa)
#
#
# Indices 1 2 3 4 5 6 
#
# 1 0.018382 -0.002899 -0.002471 0.000000 0.000000 0.000000
# 2 -0.002899 0.013520 -0.004204 0.000000 0.000000 0.000000
# 3 -0.002471 -0.004204 0.009337 0.000000 0.000000 0.000000
# 4 0.000000 0.000000 0.000000 0.019415 0.000000 0.000000
# 5 0.000000 0.000000 0.000000 0.000000 0.038886 0.000000
# 6 0.000000 0.000000 0.000000 0.000000 0.000000 0.029846
#
#
# Mechanical properties :
#
#
# Convention : Reuss Voigt Hill
#
# Bulk Modulus (GPa) = 45.26803 53.17911 49.22357
# Shear Modulus (GPa) = 32.07244 35.17307 33.62275
#
# Velocity S-wave (km/s) = 4.03935 4.23010 4.13583
# Velocity P-wave (km/s) = 6.69213 7.13530 6.91726
#
# Compressibility (1/GPa) = 0.02209065
#
# Stress axis : x y z
#
# Youngs Moduli (GPa) = 54.40085 73.96435 107.10362
#
# Poissons Ratio (x) = 0.21442 0.26465
# Poissons Ratio (y) = 0.15771 0.45027
# Poissons Ratio (z) = 0.13442 0.31095
#
# Static dielectric constant tensor:
#      x y z
#    x 3.565140 0.000000 0.000000 
#    y 0.000000 3.677180 0.000000 
#    z 0.000000 0.000000 3.444960 
# 
# 
# High freq. dielectric constant tensor:
#      x y z
#    x 1.773180 0.000000 0.000000 
#    y 0.000000 1.780540 0.000000 
#    z 0.000000 0.000000 1.757120 
# 
# From -- ./inp_files/3112.got.cif
#   From: 2010.06.25/outbox.cif.g09.slc.cpg/sg58_2_cif.got.tgz:3112.got - 2010.06.26 21:38:00.
