data_PCOD8238225
_publ_section_title
;
Structure prediction by ZEFSAII (Michael W. Deem and Ramdas Pophale) SiO2 
 PCOD8238225
Probable space group: P N N M
;
_chemical_formula_sum "Si O2"
_cell_formula_units_Z 48
_cell_length_a 8.622234
_cell_length_b 18.416928
_cell_length_c 15.293397
_cell_angle_alpha 90.000000
_cell_angle_beta 90.000000
_cell_angle_gamma 90.000000
_cell_volume 2428.515937
_symmetry_space_group_name_H-M "P N N M"
_symmetry_group_IT_number 58
_symmetry_cell_setting 'orthorhombic'
loop_
_space_group_symop_operation_xyz
x,y,z
-x,-y,z
1/2+x,1/2-y,1/2-z
1/2-x,1/2+y,1/2-z
-x,-y,-z
x,y,-z
1/2-x,1/2+y,1/2+z
1/2+x,1/2-y,1/2+z
loop_
_atom_site_type_symbol
_atom_site_label
_atom_site_fract_x
_atom_site_fract_y
_atom_site_fract_z
Si Si1 0.140083 0.580311 0.178666
Si Si2 0.416306 0.393334 0.000000
Si Si3 0.325844 0.680543 0.282935
Si Si4 0.633271 0.683825 0.183132
Si Si5 0.757676 0.460148 0.000000
Si Si6 0.690888 0.054749 0.763643
Si Si7 0.833937 0.963454 0.899813
O O1 0.217739 0.656585 0.201584
O O2 0.253707 0.513215 0.205950
O O3 0.983560 0.573417 0.234835
O O4 0.127464 0.568836 0.075651
O O5 0.399997 0.345235 0.913414
O O6 0.589769 0.423485 0.000000
O O7 0.278602 0.453622 0.000000
O O8 0.482636 0.707971 0.237238
O O9 0.248973 0.748985 0.330708
O O10 0.337538 0.614384 0.351262
O O11 0.705070 0.623985 0.247126
O O12 0.708918 0.022619 0.862280
O O13 0.789511 0.948737 0.000000
O O14 0.000000 0.000000 0.889355
#
# Coordination Sequence:
#
# PCOD8238225 Si02
#       7
#     8   4   8   8   4   8   8
#     4  10  21  38  62  96 127 169 214 267 330 391
#     4  11  24  37  70 101 131 166 223 271 338 396
#     4  11  24  40  67  89 134 175 219 268 337 404
#     4  12  23  42  63  94 131 177 210 270 339 406
#     4  11  20  38  69 102 130 165 220 279 324 406
#     4  10  21  38  63  93 131 167 213 269 331 389
#     4  10  21  41  71  97 122 172 236 283 319 384
#
# _framework density 19.765158
#
# number of rings (size 3 to 8) (size 9 to 14) (size 15 to 20)
#    0.000    1.333    5.000    1.000    1.167    2.000 
#    0.000    6.667   11.000    0.000    0.000    0.000 
#    0.000    0.000    0.000    0.000    0.000    0.000 
#
# Total GULP energy -594654.319324 kJ/mol
# GULP energy per Si atom -12388.631653 kJ/mol
# Density = 1.972017 g / cm^3
# Si number density = 19.765158 Si / 1000 Ang^3
#
#
#
# Elastic Constant Matrix: (Units=GPa)
#
#
# Indices 1 2 3 4 5 6 
#
# 1 98.9735 36.1913 48.0591 0.0000 0.0000 0.0000
# 2 36.1913 105.1359 49.9107 0.0000 0.0000 0.0000
# 3 48.0591 49.9107 146.0142 0.0000 0.0000 0.0000
# 4 0.0000 0.0000 0.0000 13.2785 0.0000 0.0000
# 5 0.0000 0.0000 0.0000 0.0000 27.8273 0.0000
# 6 0.0000 0.0000 0.0000 0.0000 0.0000 31.7523
#
#
#
# Elastic Compliance Matrix: (Units=1/GPa)
#
#
# Indices 1 2 3 4 5 6 
#
# 1 0.012703 -0.002851 -0.003207 0.000000 0.000000 0.000000
# 2 -0.002851 0.011994 -0.003161 0.000000 0.000000 0.000000
# 3 -0.003207 -0.003161 0.008985 0.000000 0.000000 0.000000
# 4 0.000000 0.000000 0.000000 0.075310 0.000000 0.000000
# 5 0.000000 0.000000 0.000000 0.000000 0.035936 0.000000
# 6 0.000000 0.000000 0.000000 0.000000 0.000000 0.031494
#
#
# Mechanical properties :
#
#
# Convention : Reuss Voigt Hill
#
# Bulk Modulus (GPa) = 65.59923 68.71619 67.15771
# Shear Modulus (GPa) = 25.00756 28.96911 26.98833
#
# Velocity S-wave (km/s) = 3.56087 3.83255 3.69921
# Velocity P-wave (km/s) = 7.08292 7.37743 7.23167
#
# Compressibility (1/GPa) = 0.01524408
#
# Stress axis : x y z
#
# Youngs Moduli (GPa) = 78.72042 83.37810 111.29955
#
# Poissons Ratio (x) = 0.23767 0.35691
# Poissons Ratio (y) = 0.22439 0.35187
# Poissons Ratio (z) = 0.25244 0.26359
#
# Static dielectric constant tensor:
#      x y z
#    x 3.561970 0.000000 0.000000 
#    y 0.000000 3.685780 0.000000 
#    z 0.000000 0.000000 3.701660 
# 
# 
# High freq. dielectric constant tensor:
#      x y z
#    x 1.770890 0.000000 0.000000 
#    y 0.000000 1.770510 0.000000 
#    z 0.000000 0.000000 1.769280 
# 
# From -- ./inp_files/19871.got.cif
#   From: 2010.06.25/outbox.cif.g09.slc.cpg/sg58_10_cif.got.tgz:19871.got - 2010.06.26 21:38:00.
