data_PCOD8238477
_publ_section_title
;
Structure prediction by ZEFSAII (Michael W. Deem and Ramdas Pophale) SiO2 
 PCOD8238477
Probable space group: P N N M
;
_chemical_formula_sum "Si O2"
_cell_formula_units_Z 64
_cell_length_a 20.490348
_cell_length_b 19.736727
_cell_length_c 8.838780
_cell_angle_alpha 90.000000
_cell_angle_beta 90.000000
_cell_angle_gamma 90.000000
_cell_volume 3574.512274
_symmetry_space_group_name_H-M "P N N M"
_symmetry_group_IT_number 58
_symmetry_cell_setting 'orthorhombic'
loop_
_space_group_symop_operation_xyz
x,y,z
-x,-y,z
1/2+x,1/2-y,1/2-z
1/2-x,1/2+y,1/2-z
-x,-y,-z
x,y,-z
1/2-x,1/2+y,1/2+z
1/2+x,1/2-y,1/2+z
loop_
_atom_site_type_symbol
_atom_site_label
_atom_site_fract_x
_atom_site_fract_y
_atom_site_fract_z
Si Si1 0.266869 0.070067 0.176954
Si Si2 0.880826 0.073265 0.321872
Si Si3 0.075108 0.209622 0.826661
Si Si4 0.757788 0.577086 0.325237
Si Si5 0.928254 0.204880 0.174885
Si Si6 0.692988 0.220247 0.824955
Si Si7 0.815842 0.290655 0.679254
Si Si8 0.379985 0.564245 0.677147
O O1 0.311628 0.131240 0.239831
O O2 0.193243 0.077198 0.238972
O O3 0.293215 0.994492 0.218689
O O4 0.264371 0.082080 0.000000
O O5 0.885460 0.074226 0.500000
O O6 0.806602 0.087543 0.273300
O O7 0.925374 0.132902 0.257117
O O8 0.908512 0.001679 0.261278
O O9 0.121844 0.254041 0.721752
O O10 0.078077 0.130280 0.781705
O O11 0.001088 0.234535 0.803450
O O12 0.098122 0.218367 0.000000
O O13 0.735159 0.573398 0.500000
O O14 0.806934 0.639059 0.297297
O O15 0.878442 0.258721 0.242845
O O16 0.911132 0.193694 0.000000
O O17 0.749214 0.253399 0.724508
O O18 0.706093 0.237451 0.000000
O O19 0.824528 0.284546 0.500000
O O20 0.380659 0.548059 0.500000
#
# Coordination Sequence:
#
# PCOD8238477 Si02
#       8
#     8   8   8   8   8   8   8   8
#     4   8  15  30  54  78 103 135 175 217 260 316
#     4  11  21  32  50  78 109 143 178 222 267 317
#     4  10  22  39  57  75 105 148 189 223 269 328
#     4   9  18  34  54  78 107 140 176 217 265 322
#     4  11  23  38  54  76 107 147 187 225 271 325
#     4  11  21  33  56  84 111 139 175 227 275 320
#     4  11  20  34  57  82 108 141 182 226 270 320
#     4   9  17  34  54  73 102 143 183 220 261 320
#
# _framework density 17.904540000000001
#
# number of rings (size 3 to 8) (size 9 to 14) (size 15 to 20)
#    0.000    2.000    2.500    3.000    0.000    2.500 
#    0.000    3.125    0.000    0.750    0.000    5.250 
#    0.000    0.000    0.000    0.000    0.000    0.000 
#
# Total GULP energy -793428.562040 kJ/mol
# GULP energy per Si atom -12397.321282 kJ/mol
# Density = 1.786379 g / cm^3
# Si number density = 17.904540 Si / 1000 Ang^3
#
#
#
# Elastic Constant Matrix: (Units=GPa)
#
#
# Indices 1 2 3 4 5 6 
#
# 1 77.9921 47.2323 33.6791 0.0000 0.0000 0.0000
# 2 47.2323 119.3725 39.7761 0.0000 0.0000 0.0000
# 3 33.6791 39.7761 85.5516 0.0000 0.0000 0.0000
# 4 0.0000 0.0000 0.0000 27.1741 0.0000 0.0000
# 5 0.0000 0.0000 0.0000 0.0000 23.8263 0.0000
# 6 0.0000 0.0000 0.0000 0.0000 0.0000 23.8201
#
#
#
# Elastic Compliance Matrix: (Units=1/GPa)
#
#
# Indices 1 2 3 4 5 6 
#
# 1 0.018231 -0.005706 -0.004524 0.000000 0.000000 0.000000
# 2 -0.005706 0.011699 -0.003193 0.000000 0.000000 0.000000
# 3 -0.004524 -0.003193 0.014954 0.000000 0.000000 0.000000
# 4 0.000000 0.000000 0.000000 0.036800 0.000000 0.000000
# 5 0.000000 0.000000 0.000000 0.000000 0.041970 0.000000
# 6 0.000000 0.000000 0.000000 0.000000 0.000000 0.041981
#
#
# Mechanical properties :
#
#
# Convention : Reuss Voigt Hill
#
# Bulk Modulus (GPa) = 55.43807 58.25455 56.84631
# Shear Modulus (GPa) = 25.18965 25.77936 25.48451
#
# Velocity S-wave (km/s) = 3.75492 3.79862 3.77683
# Velocity P-wave (km/s) = 7.05901 7.20043 7.13007
#
# Compressibility (1/GPa) = 0.01803815
#
# Stress axis : x y z
#
# Youngs Moduli (GPa) = 54.85163 85.47921 66.87029
#
# Poissons Ratio (x) = 0.48775 0.30252
# Poissons Ratio (y) = 0.31298 0.21351
# Poissons Ratio (z) = 0.24815 0.27293
#
# Static dielectric constant tensor:
#      x y z
#    x 3.057220 0.000000 0.000000 
#    y 0.000000 3.691290 0.000000 
#    z 0.000000 0.000000 3.227420 
# 
# 
# High freq. dielectric constant tensor:
#      x y z
#    x 1.661540 0.000000 0.000000 
#    y 0.000000 1.703240 0.000000 
#    z 0.000000 0.000000 1.686550 
# 
# From -- ./inp_files/8247.got.cif
#   From: 2010.06.25/outbox.cif.g09.slc.cpg/sg58_5_cif.got.tgz:8247.got - 2010.06.26 21:38:00.
