data_PCOD8238886
_publ_section_title
;
Structure prediction by ZEFSAII (Michael W. Deem and Ramdas Pophale) SiO2 
 PCOD8238886
Probable space group: P N N M
;
_chemical_formula_sum "Si O2"
_cell_formula_units_Z 32
_cell_length_a 8.709978
_cell_length_b 8.659908
_cell_length_c 21.907515
_cell_angle_alpha 90.000000
_cell_angle_beta 90.000000
_cell_angle_gamma 90.000000
_cell_volume 1652.431457
_symmetry_space_group_name_H-M "P N N M"
_symmetry_group_IT_number 58
_symmetry_cell_setting 'orthorhombic'
loop_
_space_group_symop_operation_xyz
x,y,z
-x,-y,z
1/2+x,1/2-y,1/2-z
1/2-x,1/2+y,1/2-z
-x,-y,-z
x,y,-z
1/2-x,1/2+y,1/2+z
1/2+x,1/2-y,1/2+z
loop_
_atom_site_type_symbol
_atom_site_label
_atom_site_fract_x
_atom_site_fract_y
_atom_site_fract_z
Si Si1 0.390468 0.620237 0.626735
Si Si2 0.309740 0.325718 0.430306
Si Si3 0.333585 0.684055 0.181091
Si Si4 0.318490 0.331249 0.789975
O O1 0.500000 0.500000 0.666762
O O2 0.510141 0.715590 0.583600
O O3 0.282430 0.509118 0.584635
O O4 0.295258 0.731678 0.668721
O O5 0.268883 0.289782 0.500000
O O6 0.197163 0.219090 0.389849
O O7 0.509236 0.721027 0.196457
O O8 0.289552 0.508915 0.195603
O O9 0.223420 0.797142 0.219845
#
# Coordination Sequence:
#
# PCOD8238886 Si02
#       4
#     8   8   8   8
#     4   8  19  37  62  83 114 148 197 244 297 348
#     4   9  19  39  60  87 118 155 199 240 295 357
#     4  11  24  37  60  87 122 154 196 249 298 361
#     4  11  23  40  59  90 118 154 199 249 308 345
#
# _framework density 19.365402
#
# number of rings (size 3 to 8) (size 9 to 14) (size 15 to 20)
#    1.500    0.500    0.000    4.500    3.500    7.000 
#    0.000   10.000    0.000    0.000    0.000    0.000 
#    0.000    0.000    0.000    0.000    0.000    0.000 
#
# Total GULP energy -396492.455225 kJ/mol
# GULP energy per Si atom -12390.389226 kJ/mol
# Density = 1.932133 g / cm^3
# Si number density = 19.365402 Si / 1000 Ang^3
#
#
#
# Elastic Constant Matrix: (Units=GPa)
#
#
# Indices 1 2 3 4 5 6 
#
# 1 74.4421 20.7452 35.5808 0.0000 0.0000 0.0000
# 2 20.7452 18.7565 18.9207 0.0000 0.0000 0.0000
# 3 35.5808 18.9207 127.6279 0.0000 0.0000 0.0000
# 4 0.0000 0.0000 0.0000 18.9996 0.0000 0.0000
# 5 0.0000 0.0000 0.0000 0.0000 21.5589 0.0000
# 6 0.0000 0.0000 0.0000 0.0000 0.0000 36.9481
#
#
#
# Elastic Compliance Matrix: (Units=1/GPa)
#
#
# Indices 1 2 3 4 5 6 
#
# 1 0.020194 -0.019585 -0.002726 0.000000 0.000000 0.000000
# 2 -0.019585 0.081684 -0.006650 0.000000 0.000000 0.000000
# 3 -0.002726 -0.006650 0.009581 0.000000 0.000000 0.000000
# 4 0.000000 0.000000 0.000000 0.052633 0.000000 0.000000
# 5 0.000000 0.000000 0.000000 0.000000 0.046384 0.000000
# 6 0.000000 0.000000 0.000000 0.000000 0.000000 0.027065
#
#
# Mechanical properties :
#
#
# Convention : Reuss Voigt Hill
#
# Bulk Modulus (GPa) = 18.67845 41.25773 29.96809
# Shear Modulus (GPa) = 15.95863 25.20666 20.58264
#
# Velocity S-wave (km/s) = 2.87379 3.61173 3.26368
# Velocity P-wave (km/s) = 4.54728 6.22446 5.45077
#
# Compressibility (1/GPa) = 0.05353764
#
# Stress axis : x y z
#
# Youngs Moduli (GPa) = 49.51894 12.24223 104.37169
#
# Poissons Ratio (x) = 0.23977 0.28456
# Poissons Ratio (y) = 0.96984 0.69402
# Poissons Ratio (z) = 0.13501 0.08141
#
# Static dielectric constant tensor:
#      x y z
#    x 3.464780 0.000000 0.000000 
#    y 0.000000 3.405830 0.000000 
#    z 0.000000 0.000000 3.333510 
# 
# 
# High freq. dielectric constant tensor:
#      x y z
#    x 1.748290 0.000000 0.000000 
#    y 0.000000 1.744010 0.000000 
#    z 0.000000 0.000000 1.741740 
# 
# From -- ./inp_files/28444.got.cif
#   From: 2010.06.25/outbox.cif.g09.slc.cpg/sg58_15_cif.got.tgz:28444.got - 2010.06.26 21:38:00.
