data_PCOD8238752
_publ_section_title
;
Structure prediction by ZEFSAII (Michael W. Deem and Ramdas Pophale) SiO2 
 PCOD8238752
Probable space group: P N N M
;
_chemical_formula_sum "Si O2"
_cell_formula_units_Z 48
_cell_length_a 7.658172
_cell_length_b 15.045773
_cell_length_c 24.406564
_cell_angle_alpha 90.000000
_cell_angle_beta 90.000000
_cell_angle_gamma 90.000000
_cell_volume 2812.200392
_symmetry_space_group_name_H-M "P N N M"
_symmetry_group_IT_number 58
_symmetry_cell_setting 'orthorhombic'
loop_
_space_group_symop_operation_xyz
x,y,z
-x,-y,z
1/2+x,1/2-y,1/2-z
1/2-x,1/2+y,1/2-z
-x,-y,-z
x,y,-z
1/2-x,1/2+y,1/2+z
1/2+x,1/2-y,1/2+z
loop_
_atom_site_type_symbol
_atom_site_label
_atom_site_fract_x
_atom_site_fract_y
_atom_site_fract_z
Si Si1 0.889640 0.781520 0.853351
Si Si2 0.633963 0.067215 0.860236
Si Si3 0.324242 0.181841 0.296129
Si Si4 0.935717 0.100354 0.936654
Si Si5 0.164262 0.052340 0.775629
Si Si6 0.964167 0.263400 0.314350
O O1 0.897106 0.856846 0.805821
O O2 0.694403 0.738994 0.856200
O O3 0.027877 0.700878 0.841951
O O4 0.929074 0.828998 0.911228
O O5 0.750453 0.114306 0.906443
O O6 0.519851 0.135465 0.825279
O O7 0.500000 0.000000 0.890052
O O8 0.754114 0.015536 0.817987
O O9 0.301201 0.080834 0.272879
O O10 0.380500 0.246188 0.246061
O O11 0.133957 0.203194 0.321551
O O12 0.912428 0.123000 0.000000
O O13 0.000000 0.000000 0.927152
O O14 0.000000 0.000000 0.749337
#
# Coordination Sequence:
#
# PCOD8238752 Si02
#       6
#     8   8   8   8   8   8
#     4  11  19  34  49  67  97 133 171 215 254 299
#     4  12  19  31  46  69 103 134 169 210 255 292
#     4  11  20  30  48  71  96 131 173 203 252 314
#     4  11  21  34  50  68  96 139 184 226 260 293
#     4  11  19  30  48  70 100 135 168 208 253 313
#     4  11  20  29  49  73  97 132 171 202 249 311
#
# _framework density 17.068484999999999
#
# number of rings (size 3 to 8) (size 9 to 14) (size 15 to 20)
#    0.000    0.833   11.667    0.000    0.000    0.333 
#    0.000    0.833    0.000    0.000    0.000    0.000 
#    0.000    0.667    0.000    6.333    0.000    2.333 
#
# Total GULP energy -594675.656223 kJ/mol
# GULP energy per Si atom -12389.076171 kJ/mol
# Density = 1.702964 g / cm^3
# Si number density = 17.068485 Si / 1000 Ang^3
#
#
#
# Elastic Constant Matrix: (Units=GPa)
#
#
# Indices 1 2 3 4 5 6 
#
# 1 127.0430 23.5748 40.0809 0.0000 0.0000 0.0000
# 2 23.5748 27.2563 28.9525 0.0000 0.0000 0.0000
# 3 40.0809 28.9525 76.1854 0.0000 0.0000 0.0000
# 4 0.0000 0.0000 0.0000 18.6510 0.0000 0.0000
# 5 0.0000 0.0000 0.0000 0.0000 12.3191 0.0000
# 6 0.0000 0.0000 0.0000 0.0000 0.0000 35.2565
#
#
#
# Elastic Compliance Matrix: (Units=1/GPa)
#
#
# Indices 1 2 3 4 5 6 
#
# 1 0.009835 -0.005049 -0.003256 0.000000 0.000000 0.000000
# 2 -0.005049 0.064116 -0.021710 0.000000 0.000000 0.000000
# 3 -0.003256 -0.021710 0.023089 0.000000 0.000000 0.000000
# 4 0.000000 0.000000 0.000000 0.053617 0.000000 0.000000
# 5 0.000000 0.000000 0.000000 0.000000 0.081175 0.000000
# 6 0.000000 0.000000 0.000000 0.000000 0.000000 0.028364
#
#
# Mechanical properties :
#
#
# Convention : Reuss Voigt Hill
#
# Bulk Modulus (GPa) = 27.01797 46.18900 36.60348
# Shear Modulus (GPa) = 15.03480 22.43708 18.73594
#
# Velocity S-wave (km/s) = 2.97113 3.62958 3.31674
# Velocity P-wave (km/s) = 5.25678 6.68467 6.01326
#
# Compressibility (1/GPa) = 0.03701241
#
# Stress axis : x y z
#
# Youngs Moduli (GPa) = 101.67408 15.59662 43.31055
#
# Poissons Ratio (x) = 0.07874 0.14101
# Poissons Ratio (y) = 0.51331 0.94027
# Poissons Ratio (z) = 0.33103 0.33860
#
# Static dielectric constant tensor:
#      x y z
#    x 3.726070 0.000000 0.000000 
#    y 0.000000 3.118900 0.000000 
#    z 0.000000 0.000000 2.900470 
# 
# 
# High freq. dielectric constant tensor:
#      x y z
#    x 1.687570 0.000000 0.000000 
#    y 0.000000 1.621950 0.000000 
#    z 0.000000 0.000000 1.601970 
# 
# From -- ./inp_files/31530.got.cif
#   From: 2010.06.25/outbox.cif.g09.slc.cpg/sg58_16_cif.got.tgz:31530.got - 2010.06.26 21:38:00.
