data_PCOD8238727
_publ_section_title
;
Structure prediction by ZEFSAII (Michael W. Deem and Ramdas Pophale) SiO2 
 PCOD8238727
Probable space group: P N N M
;
_chemical_formula_sum "Si O2"
_cell_formula_units_Z 28
_cell_length_a 8.189702
_cell_length_b 8.780771
_cell_length_c 17.478160
_cell_angle_alpha 90.000000
_cell_angle_beta 90.000000
_cell_angle_gamma 90.000000
_cell_volume 1256.887656
_symmetry_space_group_name_H-M "P N N M"
_symmetry_group_IT_number 58
_symmetry_cell_setting 'orthorhombic'
loop_
_space_group_symop_operation_xyz
x,y,z
-x,-y,z
1/2+x,1/2-y,1/2-z
1/2-x,1/2+y,1/2-z
-x,-y,-z
x,y,-z
1/2-x,1/2+y,1/2+z
1/2+x,1/2-y,1/2+z
loop_
_atom_site_type_symbol
_atom_site_label
_atom_site_fract_x
_atom_site_fract_y
_atom_site_fract_z
Si Si1 0.000000 0.000000 0.876188
Si Si2 0.542711 0.248776 0.500000
Si Si3 0.338904 0.579292 0.832606
Si Si4 0.251118 0.023091 0.500000
Si Si5 0.831619 0.570987 0.291366
O O1 0.169982 0.996014 0.830971
O O2 0.983925 0.847853 0.925130
O O3 0.416474 0.114060 0.500000
O O4 0.717516 0.160471 0.500000
O O5 0.500000 0.500000 0.799338
O O6 0.185242 0.484186 0.797591
O O7 0.336562 0.749101 0.799767
O O8 0.346764 0.573671 0.924484
O O9 0.000000 0.500000 0.325388
#
# Coordination Sequence:
#
# PCOD8238727 Si02
#       5
#     4   4   8   4   8
#     4  11  24  52  72 107 148 184 248 297 368 434
#     4  10  24  44  76 103 143 193 235 304 365 441
#     4  12  27  49  72 109 149 190 247 304 363 440
#     4  11  25  44  73 104 147 189 244 294 372 429
#     4  12  28  46  78 107 146 193 247 302 365 432
#
# _framework density 22.277249999999999
#
# number of rings (size 3 to 8) (size 9 to 14) (size 15 to 20)
#    0.000    0.571    4.286    2.143   12.000    0.000 
#    0.000    3.571    0.000    0.000    0.000    0.000 
#    0.000    0.000    0.000    0.000    0.000    0.000 
#
# Total GULP energy -347077.066826 kJ/mol
# GULP energy per Si atom -12395.609529 kJ/mol
# Density = 2.222655 g / cm^3
# Si number density = 22.277250 Si / 1000 Ang^3
#
#
#
# Elastic Constant Matrix: (Units=GPa)
#
#
# Indices 1 2 3 4 5 6 
#
# 1 151.0534 55.5490 45.9771 0.0000 0.0000 0.0000
# 2 55.5490 155.4709 60.7333 0.0000 0.0000 0.0000
# 3 45.9771 60.7333 118.2536 0.0000 0.0000 0.0000
# 4 0.0000 0.0000 0.0000 51.6124 0.0000 0.0000
# 5 0.0000 0.0000 0.0000 0.0000 43.0361 0.0000
# 6 0.0000 0.0000 0.0000 0.0000 0.0000 29.5091
#
#
#
# Elastic Compliance Matrix: (Units=1/GPa)
#
#
# Indices 1 2 3 4 5 6 
#
# 1 0.008002 -0.002056 -0.002055 0.000000 0.000000 0.000000
# 2 -0.002056 0.008575 -0.003604 0.000000 0.000000 0.000000
# 3 -0.002055 -0.003604 0.011107 0.000000 0.000000 0.000000
# 4 0.000000 0.000000 0.000000 0.019375 0.000000 0.000000
# 5 0.000000 0.000000 0.000000 0.000000 0.023236 0.000000
# 6 0.000000 0.000000 0.000000 0.000000 0.000000 0.033888
#
#
# Mechanical properties :
#
#
# Convention : Reuss Voigt Hill
#
# Bulk Modulus (GPa) = 81.62075 83.25518 82.43796
# Shear Modulus (GPa) = 40.42104 42.33277 41.37690
#
# Velocity S-wave (km/s) = 4.26426 4.36394 4.31439
# Velocity P-wave (km/s) = 7.80791 7.92751 7.86793
#
# Compressibility (1/GPa) = 0.01225179
#
# Stress axis : x y z
#
# Youngs Moduli (GPa) = 124.97099 116.62099 90.03652
#
# Poissons Ratio (x) = 0.23980 0.18503
# Poissons Ratio (y) = 0.25697 0.32453
# Poissons Ratio (z) = 0.25683 0.42035
#
# Static dielectric constant tensor:
#      x y z
#    x 4.201540 0.000000 0.000000 
#    y 0.000000 4.193360 0.000000 
#    z 0.000000 0.000000 4.164820 
# 
# 
# High freq. dielectric constant tensor:
#      x y z
#    x 1.882970 0.000000 0.000000 
#    y 0.000000 1.892520 0.000000 
#    z 0.000000 0.000000 1.881750 
# 
# From -- ./inp_files/24738.got.cif
#   From: 2010.06.25/outbox.cif.g09.slc.cpg/sg58_13_cif.got.tgz:24738.got - 2010.06.26 21:38:00.
