data_PCOD8238957
_publ_section_title
;
Structure prediction by ZEFSAII (Michael W. Deem and Ramdas Pophale) SiO2 
 PCOD8238957
Probable space group: P N N M
;
_chemical_formula_sum "Si O2"
_cell_formula_units_Z 32
_cell_length_a 4.942543
_cell_length_b 25.873011
_cell_length_c 11.228305
_cell_angle_alpha 90.000000
_cell_angle_beta 90.000000
_cell_angle_gamma 90.000000
_cell_volume 1435.858457
_symmetry_space_group_name_H-M "P N N M"
_symmetry_group_IT_number 58
_symmetry_cell_setting 'orthorhombic'
loop_
_space_group_symop_operation_xyz
x,y,z
-x,-y,z
1/2+x,1/2-y,1/2-z
1/2-x,1/2+y,1/2-z
-x,-y,-z
x,y,-z
1/2-x,1/2+y,1/2+z
1/2+x,1/2-y,1/2+z
loop_
_atom_site_type_symbol
_atom_site_label
_atom_site_fract_x
_atom_site_fract_y
_atom_site_fract_z
Si Si1 0.799251 0.338824 0.500000
Si Si2 0.198703 0.908464 0.000000
Si Si3 0.586131 0.888328 0.638179
Si Si4 0.585236 0.556990 0.243258
Si Si5 0.539134 0.783649 0.236458
O O1 0.491477 0.358258 0.500000
O O2 0.843931 0.303427 0.386841
O O3 0.993487 0.388760 0.500000
O O4 0.151859 0.943128 0.116513
O O5 0.661551 0.891914 0.500000
O O6 0.346324 0.927886 0.667008
O O7 0.496848 0.830344 0.670731
O O8 0.846900 0.902598 0.716674
O O9 0.500000 0.500000 0.202654
O O10 0.249204 0.757923 0.211490
#
# Coordination Sequence:
#
# PCOD8238957 Si02
#       5
#     4   4   8   8   8
#     4  12  24  44  71  96 142 176 221 288 336 390
#     4  12  21  46  68 104 138 172 224 282 339 392
#     4  12  27  47  67 100 140 176 228 282 332 406
#     4  12  25  45  72 101 134 180 226 278 342 401
#     4  12  26  44  68  99 131 179 225 275 335 395
#
# _framework density 22.286321000000001
#
# number of rings (size 3 to 8) (size 9 to 14) (size 15 to 20)
#    0.000    0.000    5.000    4.875    3.500    3.000 
#    0.000    3.750    0.000    0.000    0.000    0.000 
#    0.000    0.000    0.000    0.000    0.000    0.000 
#
# Total GULP energy -397138.304203 kJ/mol
# GULP energy per Si atom -12410.572006 kJ/mol
# Density = 2.223560 g / cm^3
# Si number density = 22.286321 Si / 1000 Ang^3
#
#
#
# Elastic Constant Matrix: (Units=GPa)
#
#
# Indices 1 2 3 4 5 6 
#
# 1 75.8771 -0.8639 2.8240 0.0000 0.0000 0.0000
# 2 -0.8639 74.8737 31.4547 0.0000 0.0000 0.0000
# 3 2.8240 31.4547 83.2573 0.0000 0.0000 0.0000
# 4 0.0000 0.0000 0.0000 -36.4358 0.0000 0.0000
# 5 0.0000 0.0000 0.0000 0.0000 18.5027 0.0000
# 6 0.0000 0.0000 0.0000 0.0000 0.0000 39.7143
#
#
#
# Elastic Compliance Matrix: (Units=1/GPa)
#
#
# Indices 1 2 3 4 5 6 
#
# 1 0.013206 0.000405 -0.000601 0.000000 0.000000 0.000000
# 2 0.000405 0.015888 -0.006016 0.000000 0.000000 0.000000
# 3 -0.000601 -0.006016 0.014304 0.000000 0.000000 0.000000
# 4 0.000000 0.000000 0.000000 -0.027446 0.000000 0.000000
# 5 0.000000 0.000000 0.000000 0.000000 0.054046 0.000000
# 6 0.000000 0.000000 0.000000 0.000000 0.000000 0.025180
#
#
# Mechanical properties :
#
#
# Convention : Reuss Voigt Hill
#
# Bulk Modulus (GPa) = 32.28532 33.42641 32.85587
# Shear Modulus (GPa) = 42.39874 17.72913 30.06393
#
# Velocity S-wave (km/s) = 4.36645 2.82355 3.67684
# Velocity P-wave (km/s) = 6.31975 5.06568 5.72714
#
# Compressibility (1/GPa) = 0.03097382
#
# Stress axis : x y z
#
# Youngs Moduli (GPa) = 75.72208 62.94088 69.90919
#
# Poissons Ratio (x) = -0.02548 0.04201
# Poissons Ratio (y) = -0.03065 0.42059
# Poissons Ratio (z) = 0.04550 0.37867
#
# Static dielectric constant tensor:
#      x y z
#    x 4.214090 0.000000 0.000000 
#    y 0.000000 3.948960 0.000000 
#    z 0.000000 0.000000 4.000910 
# 
# 
# High freq. dielectric constant tensor:
#      x y z
#    x 1.893010 0.000000 0.000000 
#    y 0.000000 1.879630 0.000000 
#    z 0.000000 0.000000 1.884820 
# 
# From -- ./inp_files/11554.got.cif
#   From: 2010.06.25/outbox.cif.g09.slc.cpg/sg58_6_cif.got.tgz:11554.got - 2010.06.26 21:38:00.
