data_PCOD8238876
_publ_section_title
;
Structure prediction by ZEFSAII (Michael W. Deem and Ramdas Pophale) SiO2 
 PCOD8238876
Probable space group: P N N M
;
_chemical_formula_sum "Si O2"
_cell_formula_units_Z 56
_cell_length_a 21.709638
_cell_length_b 14.636951
_cell_length_c 8.952518
_cell_angle_alpha 90.000000
_cell_angle_beta 90.000000
_cell_angle_gamma 90.000000
_cell_volume 2844.778150
_symmetry_space_group_name_H-M "P N N M"
_symmetry_group_IT_number 58
_symmetry_cell_setting 'orthorhombic'
loop_
_space_group_symop_operation_xyz
x,y,z
-x,-y,z
1/2+x,1/2-y,1/2-z
1/2-x,1/2+y,1/2-z
-x,-y,-z
x,y,-z
1/2-x,1/2+y,1/2+z
1/2+x,1/2-y,1/2+z
loop_
_atom_site_type_symbol
_atom_site_label
_atom_site_fract_x
_atom_site_fract_y
_atom_site_fract_z
Si Si1 0.569918 0.508265 0.677825
Si Si2 0.726612 0.824178 0.676560
Si Si3 0.857264 0.491150 0.831645
Si Si4 0.641781 0.329746 0.323021
Si Si5 0.616713 0.701154 0.322695
Si Si6 0.592999 0.153900 0.174372
Si Si7 0.970490 0.360589 0.829887
O O1 0.500000 0.500000 0.739486
O O2 0.568113 0.511988 0.500000
O O3 0.610835 0.423598 0.734495
O O4 0.602483 0.600263 0.741153
O O5 0.738529 0.818004 0.500000
O O6 0.694880 0.920093 0.719639
O O7 0.789663 0.818494 0.763882
O O8 0.682915 0.740319 0.731411
O O9 0.855878 0.579361 0.724275
O O10 0.923772 0.444438 0.823086
O O11 0.844348 0.524357 0.000000
O O12 0.642219 0.326126 0.500000
O O13 0.600730 0.248351 0.260778
O O14 0.617669 0.701934 0.500000
O O15 0.562342 0.768555 0.270668
O O16 0.526014 0.116393 0.218764
O O17 0.599674 0.170793 0.000000
O O18 0.994721 0.348337 0.000000
#
# Coordination Sequence:
#
# PCOD8238876 Si02
#       7
#     8   8   8   8   8   8   8
#     4   9  17  31  55  84 107 132 176 230 274 319
#     4   9  19  37  58  81 111 143 176 218 271 332
#     4   9  19  36  58  82 110 145 180 216 266 332
#     4  11  23  37  55  79 108 143 185 231 276 328
#     4   8  15  31  57  84 108 139 176 214 266 334
#     4  12  24  35  51  77 110 146 183 227 274 316
#     4   9  17  33  58  84 110 140 174 214 265 330
#
# _framework density 19.685189999999999
#
# number of rings (size 3 to 8) (size 9 to 14) (size 15 to 20)
#    0.000    2.429    0.000    4.714    0.000    6.286 
#    0.000    3.571    0.000    8.571    0.000    0.000 
#    0.000    0.000    0.000    0.000    0.000    0.000 
#
# Total GULP energy -694338.430461 kJ/mol
# GULP energy per Si atom -12398.900544 kJ/mol
# Density = 1.964039 g / cm^3
# Si number density = 19.685190 Si / 1000 Ang^3
#
#
#
# Elastic Constant Matrix: (Units=GPa)
#
#
# Indices 1 2 3 4 5 6 
#
# 1 87.5829 24.8962 23.0232 0.0000 0.0000 0.0000
# 2 24.8962 121.9597 26.5631 0.0000 0.0000 0.0000
# 3 23.0232 26.5631 47.4380 0.0000 0.0000 0.0000
# 4 0.0000 0.0000 0.0000 16.8572 0.0000 0.0000
# 5 0.0000 0.0000 0.0000 0.0000 27.8608 0.0000
# 6 0.0000 0.0000 0.0000 0.0000 0.0000 22.2242
#
#
#
# Elastic Compliance Matrix: (Units=1/GPa)
#
#
# Indices 1 2 3 4 5 6 
#
# 1 0.013322 -0.001493 -0.005629 0.000000 0.000000 0.000000
# 2 -0.001493 0.009506 -0.004598 0.000000 0.000000 0.000000
# 3 -0.005629 -0.004598 0.026387 0.000000 0.000000 0.000000
# 4 0.000000 0.000000 0.000000 0.059322 0.000000 0.000000
# 5 0.000000 0.000000 0.000000 0.000000 0.035893 0.000000
# 6 0.000000 0.000000 0.000000 0.000000 0.000000 0.044996
#
#
# Mechanical properties :
#
#
# Convention : Reuss Voigt Hill
#
# Bulk Modulus (GPa) = 38.80003 45.10506 41.95255
# Shear Modulus (GPa) = 22.57766 25.55499 24.06633
#
# Velocity S-wave (km/s) = 3.39032 3.60694 3.50031
# Velocity P-wave (km/s) = 5.92273 6.34899 6.13956
#
# Compressibility (1/GPa) = 0.02577318
#
# Stress axis : x y z
#
# Youngs Moduli (GPa) = 75.06333 105.19963 37.89756
#
# Poissons Ratio (x) = 0.15710 0.21334
# Poissons Ratio (y) = 0.11210 0.17425
# Poissons Ratio (z) = 0.42256 0.48371
#
# Static dielectric constant tensor:
#      x y z
#    x 3.553880 0.000000 0.000000 
#    y 0.000000 3.958030 0.000000 
#    z 0.000000 0.000000 3.154990 
# 
# 
# High freq. dielectric constant tensor:
#      x y z
#    x 1.766730 0.000000 0.000000 
#    y 0.000000 1.780810 0.000000 
#    z 0.000000 0.000000 1.724830 
# 
# From -- ./inp_files/9052.got.cif
#   From: 2010.06.25/outbox.cif.g09.slc.cpg/sg58_5_cif.got.tgz:9052.got - 2010.06.26 21:38:00.
