data_PCOD8238550
_publ_section_title
;
Structure prediction by ZEFSAII (Michael W. Deem and Ramdas Pophale) SiO2 
 PCOD8238550
Probable space group: P N N M
;
_chemical_formula_sum "Si O2"
_cell_formula_units_Z 64
_cell_length_a 23.591223
_cell_length_b 15.368565
_cell_length_c 9.032467
_cell_angle_alpha 90.000000
_cell_angle_beta 90.000000
_cell_angle_gamma 90.000000
_cell_volume 3274.840538
_symmetry_space_group_name_H-M "P N N M"
_symmetry_group_IT_number 58
_symmetry_cell_setting 'orthorhombic'
loop_
_space_group_symop_operation_xyz
x,y,z
-x,-y,z
1/2+x,1/2-y,1/2-z
1/2-x,1/2+y,1/2-z
-x,-y,-z
x,y,-z
1/2-x,1/2+y,1/2+z
1/2+x,1/2-y,1/2+z
loop_
_atom_site_type_symbol
_atom_site_label
_atom_site_fract_x
_atom_site_fract_y
_atom_site_fract_z
Si Si1 0.091353 0.011439 0.324736
Si Si2 0.290450 0.498693 0.325178
Si Si3 0.263830 0.837277 0.671620
Si Si4 0.611456 0.108513 0.330888
Si Si5 0.501543 0.170549 0.175392
Si Si6 0.209592 0.654489 0.673254
Si Si7 0.102724 0.592289 0.828960
Si Si8 0.992308 0.134796 0.674827
O O1 0.101825 0.015584 0.500000
O O2 0.049204 0.087324 0.268266
O O3 0.149455 0.025169 0.240579
O O4 0.063739 0.918630 0.278507
O O5 0.295631 0.495309 0.500000
O O6 0.271372 0.405323 0.267206
O O7 0.246208 0.572164 0.273840
O O8 0.252334 0.858395 0.500000
O O9 0.330402 0.842271 0.707647
O O10 0.243341 0.741431 0.715573
O O11 0.592432 0.125946 0.500000
O O12 0.564778 0.144469 0.219542
O O13 0.621629 0.006660 0.304153
O O14 0.457551 0.104995 0.250266
O O15 0.488743 0.267504 0.236726
O O16 0.495230 0.164137 0.000000
O O17 0.196316 0.650312 0.500000
O O18 0.149851 0.654902 0.757901
O O19 0.096115 0.616178 0.000000
O O20 0.996414 0.136279 0.500000
#
# Coordination Sequence:
#
# PCOD8238550 Si02
#       8
#     8   8   8   8   8   8   8   8
#     4   9  18  37  62  81 112 158 198 230 278 347
#     4  11  23  38  59  93 125 149 190 250 302 344
#     4  10  22  42  64  85 116 164 203 235 291 361
#     4  10  22  41  62  84 113 152 198 240 287 352
#     4  11  23  37  59  89 118 150 192 243 297 346
#     4  10  23  41  62  87 120 158 198 243 295 351
#     4  11  23  41  62  85 115 152 196 243 291 349
#     4   8  18  37  58  84 113 151 198 238 276 339
#
# _framework density 19.542936000000001
#
# number of rings (size 3 to 8) (size 9 to 14) (size 15 to 20)
#    0.000    2.000    1.250    2.250    3.500    4.000 
#    0.000    2.500    0.000    0.000    0.000    0.000 
#    0.000    0.000    0.000    0.000    0.000    0.000 
#
# Total GULP energy -793838.429561 kJ/mol
# GULP energy per Si atom -12403.725462 kJ/mol
# Density = 1.949846 g / cm^3
# Si number density = 19.542936 Si / 1000 Ang^3
#
#
#
# Elastic Constant Matrix: (Units=GPa)
#
#
# Indices 1 2 3 4 5 6 
#
# 1 92.0708 19.0502 34.9378 0.0000 0.0000 0.0000
# 2 19.0502 81.1485 31.8687 0.0000 0.0000 0.0000
# 3 34.9378 31.8687 61.3207 0.0000 0.0000 0.0000
# 4 0.0000 0.0000 0.0000 24.4059 0.0000 0.0000
# 5 0.0000 0.0000 0.0000 0.0000 37.3120 0.0000
# 6 0.0000 0.0000 0.0000 0.0000 0.0000 29.2394
#
#
#
# Elastic Compliance Matrix: (Units=1/GPa)
#
#
# Indices 1 2 3 4 5 6 
#
# 1 0.013860 -0.000192 -0.007797 0.000000 0.000000 0.000000
# 2 -0.000192 0.015486 -0.007939 0.000000 0.000000 0.000000
# 3 -0.007797 -0.007939 0.024876 0.000000 0.000000 0.000000
# 4 0.000000 0.000000 0.000000 0.040974 0.000000 0.000000
# 5 0.000000 0.000000 0.000000 0.000000 0.026801 0.000000
# 6 0.000000 0.000000 0.000000 0.000000 0.000000 0.034200
#
#
# Mechanical properties :
#
#
# Convention : Reuss Voigt Hill
#
# Bulk Modulus (GPa) = 44.70993 45.13925 44.92459
# Shear Modulus (GPa) = 25.57455 28.10369 26.83912
#
# Velocity S-wave (km/s) = 3.62143 3.79628 3.70988
# Velocity P-wave (km/s) = 6.35718 6.50870 6.43339
#
# Compressibility (1/GPa) = 0.02236639
#
# Stress axis : x y z
#
# Youngs Moduli (GPa) = 72.15249 64.57510 40.19941
#
# Poissons Ratio (x) = 0.01237 0.31343
# Poissons Ratio (y) = 0.01382 0.31914
# Poissons Ratio (z) = 0.56257 0.51266
#
# Static dielectric constant tensor:
#      x y z
#    x 3.562790 0.000000 0.000000 
#    y 0.000000 3.837080 0.000000 
#    z 0.000000 0.000000 3.369730 
# 
# 
# High freq. dielectric constant tensor:
#      x y z
#    x 1.772650 0.000000 0.000000 
#    y 0.000000 1.768140 0.000000 
#    z 0.000000 0.000000 1.746200 
# 
# From -- ./inp_files/9994.got.cif
#   From: 2010.06.25/outbox.cif.g09.slc.cpg/sg58_5_cif.got.tgz:9994.got - 2010.06.26 21:38:00.
