data_PCOD8238484
_publ_section_title
;
Structure prediction by ZEFSAII (Michael W. Deem and Ramdas Pophale) SiO2 
 PCOD8238484
Probable space group: P N N M
;
_chemical_formula_sum "Si O2"
_cell_formula_units_Z 48
_cell_length_a 13.907993
_cell_length_b 19.831444
_cell_length_c 8.946047
_cell_angle_alpha 90.000000
_cell_angle_beta 90.000000
_cell_angle_gamma 90.000000
_cell_volume 2467.459181
_symmetry_space_group_name_H-M "P N N M"
_symmetry_group_IT_number 58
_symmetry_cell_setting 'orthorhombic'
loop_
_space_group_symop_operation_xyz
x,y,z
-x,-y,z
1/2+x,1/2-y,1/2-z
1/2-x,1/2+y,1/2-z
-x,-y,-z
x,y,-z
1/2-x,1/2+y,1/2+z
1/2+x,1/2-y,1/2+z
loop_
_atom_site_type_symbol
_atom_site_label
_atom_site_fract_x
_atom_site_fract_y
_atom_site_fract_z
Si Si1 0.558783 0.934262 0.324875
Si Si2 0.912917 0.182515 0.331379
Si Si3 0.459546 0.572716 0.673392
Si Si4 0.461441 0.813441 0.831610
Si Si5 0.257555 0.756846 0.176024
Si Si6 0.254584 0.112331 0.824793
O O1 0.579733 0.932610 0.500000
O O2 0.493635 0.870875 0.281448
O O3 0.660997 0.934388 0.240553
O O4 0.500000 0.000000 0.276191
O O5 0.884597 0.162534 0.500000
O O6 0.817905 0.186592 0.229942
O O7 0.985961 0.127557 0.270244
O O8 0.960710 0.255174 0.326884
O O9 0.500000 0.500000 0.718639
O O10 0.478233 0.588420 0.500000
O O11 0.346427 0.576169 0.711472
O O12 0.360949 0.783906 0.774751
O O13 0.452169 0.842480 0.000000
O O14 0.238903 0.685831 0.253626
O O15 0.249224 0.746060 0.000000
O O16 0.271337 0.120891 0.000000
#
# Coordination Sequence:
#
# PCOD8238484 Si02
#       6
#     8   8   8   8   8   8
#     4  11  25  42  62  90 125 163 205 252 306 366
#     4  11  22  38  61  93 124 155 204 252 300 360
#     4  10  23  42  63  90 125 165 207 250 304 366
#     4  10  22  39  61  90 121 157 204 251 301 361
#     4  11  22  38  62  91 124 160 202 253 304 361
#     4  11  22  38  63  90 119 160 205 251 306 365
#
# _framework density 19.453208
#
# number of rings (size 3 to 8) (size 9 to 14) (size 15 to 20)
#    0.000    1.333    3.333    2.000    0.000    5.667 
#    0.000    5.000    0.000    0.000    0.000    0.000 
#    0.000    0.000    0.000    0.000    0.000    0.000 
#
# Total GULP energy -595437.352754 kJ/mol
# GULP energy per Si atom -12404.944849 kJ/mol
# Density = 1.940893 g / cm^3
# Si number density = 19.453208 Si / 1000 Ang^3
#
#
#
# Elastic Constant Matrix: (Units=GPa)
#
#
# Indices 1 2 3 4 5 6 
#
# 1 129.8542 37.1907 50.7144 0.0000 0.0000 0.0000
# 2 37.1907 93.1442 45.1779 0.0000 0.0000 0.0000
# 3 50.7144 45.1779 90.5303 0.0000 0.0000 0.0000
# 4 0.0000 0.0000 0.0000 41.6089 0.0000 0.0000
# 5 0.0000 0.0000 0.0000 0.0000 29.8049 0.0000
# 6 0.0000 0.0000 0.0000 0.0000 0.0000 34.4494
#
#
#
# Elastic Compliance Matrix: (Units=1/GPa)
#
#
# Indices 1 2 3 4 5 6 
#
# 1 0.010056 -0.001692 -0.004789 0.000000 0.000000 0.000000
# 2 -0.001692 0.014449 -0.006263 0.000000 0.000000 0.000000
# 3 -0.004789 -0.006263 0.016854 0.000000 0.000000 0.000000
# 4 0.000000 0.000000 0.000000 0.024033 0.000000 0.000000
# 5 0.000000 0.000000 0.000000 0.000000 0.033552 0.000000
# 6 0.000000 0.000000 0.000000 0.000000 0.000000 0.029028
#
#
# Mechanical properties :
#
#
# Convention : Reuss Voigt Hill
#
# Bulk Modulus (GPa) = 63.00551 64.41052 63.70802
# Shear Modulus (GPa) = 31.49605 33.20236 32.34920
#
# Velocity S-wave (km/s) = 4.02813 4.13580 4.08232
# Velocity P-wave (km/s) = 7.35479 7.48257 7.41896
#
# Compressibility (1/GPa) = 0.01587163
#
# Stress axis : x y z
#
# Youngs Moduli (GPa) = 99.44440 69.20696 59.33356
#
# Poissons Ratio (x) = 0.11713 0.28413
# Poissons Ratio (y) = 0.16831 0.37159
# Poissons Ratio (z) = 0.47620 0.43342
#
# Static dielectric constant tensor:
#      x y z
#    x 3.821940 0.000000 0.000000 
#    y 0.000000 3.798100 0.000000 
#    z 0.000000 0.000000 3.632430 
# 
# 
# High freq. dielectric constant tensor:
#      x y z
#    x 1.776420 0.000000 0.000000 
#    y 0.000000 1.748080 0.000000 
#    z 0.000000 0.000000 1.765750 
# 
# From -- ./inp_files/5851.got.cif
#   From: 2010.06.25/outbox.cif.g09.slc.cpg/sg58_3_cif.got.tgz:5851.got - 2010.06.26 21:38:00.
