data_PCOD8238360
_publ_section_title
;
Structure prediction by ZEFSAII (Michael W. Deem and Ramdas Pophale) SiO2 
 PCOD8238360
Probable space group: P N N M
;
_chemical_formula_sum "Si O2"
_cell_formula_units_Z 64
_cell_length_a 14.431439
_cell_length_b 9.038726
_cell_length_c 23.153515
_cell_angle_alpha 90.000000
_cell_angle_beta 90.000000
_cell_angle_gamma 90.000000
_cell_volume 3020.186703
_symmetry_space_group_name_H-M "P N N M"
_symmetry_group_IT_number 58
_symmetry_cell_setting 'orthorhombic'
loop_
_space_group_symop_operation_xyz
x,y,z
-x,-y,z
1/2+x,1/2-y,1/2-z
1/2-x,1/2+y,1/2-z
-x,-y,-z
x,y,-z
1/2-x,1/2+y,1/2+z
1/2+x,1/2-y,1/2+z
loop_
_atom_site_type_symbol
_atom_site_label
_atom_site_fract_x
_atom_site_fract_y
_atom_site_fract_z
Si Si1 0.635044 0.381011 0.242893
Si Si2 0.172688 0.771558 0.254790
Si Si3 0.388909 0.115234 0.868595
Si Si4 0.444456 0.640262 0.364534
Si Si5 0.575722 0.874606 0.646761
Si Si6 0.414756 0.781761 0.134573
Si Si7 0.735105 0.789061 0.432723
Si Si8 0.718282 0.447509 0.435529
O O1 0.722494 0.272061 0.240531
O O2 0.665894 0.551163 0.246309
O O3 0.567731 0.346005 0.295851
O O4 0.575506 0.335955 0.186740
O O5 0.149035 0.718143 0.318321
O O6 0.106992 0.696753 0.207204
O O7 0.483553 0.188979 0.892901
O O8 0.322400 0.107289 0.924088
O O9 0.389625 0.947378 0.843144
O O10 0.500000 0.500000 0.384801
O O11 0.509601 0.767203 0.389402
O O12 0.344154 0.647959 0.392819
O O13 0.667535 0.898010 0.605698
O O14 0.500000 0.000000 0.660833
O O15 0.341857 0.709629 0.089399
O O16 0.732808 0.837821 0.500000
O O17 0.701277 0.621078 0.423997
O O18 0.691306 0.405739 0.500000
#
# Coordination Sequence:
#
# PCOD8238360 Si02
#       8
#     8   8   8   8   8   8   8   8
#     4  12  24  39  64  93 133 170 208 264 328 392
#     4  12  24  40  64  95 132 169 208 264 328 391
#     4  10  22  39  62  97 128 164 213 268 318 385
#     4  12  23  41  63  94 129 166 213 261 318 389
#     4  12  27  41  64  97 132 168 213 264 327 392
#     4  10  22  39  65  94 128 167 213 263 324 384
#     4  10  21  42  65  91 126 169 217 268 318 377
#     4  10  21  40  66  92 124 167 220 270 315 372
#
# _framework density 21.190743000000001
#
# number of rings (size 3 to 8) (size 9 to 14) (size 15 to 20)
#    0.000    1.000    5.000    1.500    5.250    1.500 
#    0.000    2.500    0.000    0.000    0.000    1.750 
#    0.000    0.000    0.000    0.000    0.000    0.000 
#
# Total GULP energy -792923.166722 kJ/mol
# GULP energy per Si atom -12389.424480 kJ/mol
# Density = 2.114251 g / cm^3
# Si number density = 21.190743 Si / 1000 Ang^3
#
#
#
# Elastic Constant Matrix: (Units=GPa)
#
#
# Indices 1 2 3 4 5 6 
#
# 1 110.4301 32.2926 14.1052 0.0000 0.0000 0.0000
# 2 32.2926 69.9639 13.5954 0.0000 0.0000 0.0000
# 3 14.1052 13.5954 79.8871 0.0000 0.0000 0.0000
# 4 0.0000 0.0000 0.0000 24.9205 0.0000 0.0000
# 5 0.0000 0.0000 0.0000 0.0000 11.9007 0.0000
# 6 0.0000 0.0000 0.0000 0.0000 0.0000 32.7369
#
#
#
# Elastic Compliance Matrix: (Units=1/GPa)
#
#
# Indices 1 2 3 4 5 6 
#
# 1 0.010556 -0.004664 -0.001070 0.000000 0.000000 0.000000
# 2 -0.004664 0.016843 -0.002043 0.000000 0.000000 0.000000
# 3 -0.001070 -0.002043 0.013054 0.000000 0.000000 0.000000
# 4 0.000000 0.000000 0.000000 0.040128 0.000000 0.000000
# 5 0.000000 0.000000 0.000000 0.000000 0.084029 0.000000
# 6 0.000000 0.000000 0.000000 0.000000 0.000000 0.030547
#
#
# Mechanical properties :
#
#
# Convention : Reuss Voigt Hill
#
# Bulk Modulus (GPa) = 40.16246 42.25195 41.20720
# Shear Modulus (GPa) = 22.82994 27.26414 25.04704
#
# Velocity S-wave (km/s) = 3.28587 3.59082 3.44172
# Velocity P-wave (km/s) = 5.77840 6.09706 5.93987
#
# Compressibility (1/GPa) = 0.02489888
#
# Stress axis : x y z
#
# Youngs Moduli (GPa) = 94.73139 59.37201 76.60346
#
# Poissons Ratio (x) = 0.27693 0.08197
# Poissons Ratio (y) = 0.44186 0.15649
# Poissons Ratio (z) = 0.10137 0.12129
#
# Static dielectric constant tensor:
#      x y z
#    x 4.165290 0.000000 0.000000 
#    y 0.000000 3.657800 0.000000 
#    z 0.000000 0.000000 3.592420 
# 
# 
# High freq. dielectric constant tensor:
#      x y z
#    x 1.854380 0.000000 0.000000 
#    y 0.000000 1.812420 0.000000 
#    z 0.000000 0.000000 1.810560 
# 
# From -- ./inp_files/32238.got.cif
#   From: 2010.06.25/outbox.cif.g09.slc.cpg/sg58_17_cif.got.tgz:32238.got - 2010.06.26 21:38:00.
