data_PCOD8238426
_publ_section_title
;
Structure prediction by ZEFSAII (Michael W. Deem and Ramdas Pophale) SiO2 
 PCOD8238426
Probable space group: P N N M
;
_chemical_formula_sum "Si O2"
_cell_formula_units_Z 44
_cell_length_a 19.002290
_cell_length_b 8.365938
_cell_length_c 13.887995
_cell_angle_alpha 90.000000
_cell_angle_beta 90.000000
_cell_angle_gamma 90.000000
_cell_volume 2207.802063
_symmetry_space_group_name_H-M "P N N M"
_symmetry_group_IT_number 58
_symmetry_cell_setting 'orthorhombic'
loop_
_space_group_symop_operation_xyz
x,y,z
-x,-y,z
1/2+x,1/2-y,1/2-z
1/2-x,1/2+y,1/2-z
-x,-y,-z
x,y,-z
1/2-x,1/2+y,1/2+z
1/2+x,1/2-y,1/2+z
loop_
_atom_site_type_symbol
_atom_site_label
_atom_site_fract_x
_atom_site_fract_y
_atom_site_fract_z
Si Si1 0.293832 0.637342 0.500000
Si Si2 0.947804 0.785994 0.500000
Si Si3 0.263784 0.869532 0.664391
Si Si4 0.341465 0.176856 0.295325
Si Si5 0.807671 0.935517 0.500000
Si Si6 0.684765 0.708523 0.500000
Si Si7 0.361898 0.035848 0.000000
Si Si8 0.543562 0.840114 0.844397
O O1 0.304733 0.740702 0.597001
O O2 0.340378 0.477494 0.500000
O O3 0.220709 0.541291 0.500000
O O4 0.893034 0.931182 0.500000
O O5 0.898422 0.633703 0.500000
O O6 0.995243 0.787652 0.597460
O O7 0.219861 0.785308 0.748722
O O8 0.319973 0.988633 0.715154
O O9 0.211722 0.968523 0.595927
O O10 0.350266 0.212744 0.407259
O O11 0.419865 0.217351 0.254269
O O12 0.768285 0.762172 0.500000
O O13 0.386563 0.129543 0.906035
O O14 0.500000 0.000000 0.825914
#
# Coordination Sequence:
#
# PCOD8238426 Si02
#       8
#     4   4   8   8   4   4   4   8
#     4  11  17  35  57  87 107 148 174 239 306 329
#     4   9  17  32  58  91 116 148 177 222 286 354
#     4  10  22  32  58  82 119 149 181 243 289 343
#     4  11  21  38  51  85 112 151 200 228 284 335
#     4   9  19  36  54  94 116 140 182 228 303 351
#     4  10  22  34  58  79 116 151 184 250 275 335
#     4   9  15  29  54  82 115 136 178 219 278 347
#     4   9  19  32  55  83 114 155 187 224 272 352
#
# _framework density 19.929321999999999
#
# number of rings (size 3 to 8) (size 9 to 14) (size 15 to 20)
#    0.000    2.182    2.727    2.727    0.000    1.455 
#    0.000    2.273    0.000    0.000    0.000    3.818 
#    0.000    0.000    0.000    0.000    0.000    0.000 
#
# Total GULP energy -545120.757652 kJ/mol
# GULP energy per Si atom -12389.108128 kJ/mol
# Density = 1.988396 g / cm^3
# Si number density = 19.929322 Si / 1000 Ang^3
#
#
#
# Elastic Constant Matrix: (Units=GPa)
#
#
# Indices 1 2 3 4 5 6 
#
# 1 66.6537 13.9241 38.0685 0.0000 0.0000 0.0000
# 2 13.9241 94.1462 25.6398 0.0000 0.0000 0.0000
# 3 38.0685 25.6398 116.2438 0.0000 0.0000 0.0000
# 4 0.0000 0.0000 0.0000 25.0247 0.0000 0.0000
# 5 0.0000 0.0000 0.0000 0.0000 23.3716 0.0000
# 6 0.0000 0.0000 0.0000 0.0000 0.0000 19.8969
#
#
#
# Elastic Compliance Matrix: (Units=1/GPa)
#
#
# Indices 1 2 3 4 5 6 
#
# 1 0.018573 -0.001160 -0.005827 0.000000 0.000000 0.000000
# 2 -0.001160 0.011373 -0.002129 0.000000 0.000000 0.000000
# 3 -0.005827 -0.002129 0.010980 0.000000 0.000000 0.000000
# 4 0.000000 0.000000 0.000000 0.039961 0.000000 0.000000
# 5 0.000000 0.000000 0.000000 0.000000 0.042787 0.000000
# 6 0.000000 0.000000 0.000000 0.000000 0.000000 0.050259
#
#
# Mechanical properties :
#
#
# Convention : Reuss Voigt Hill
#
# Bulk Modulus (GPa) = 44.06109 48.03424 46.04767
# Shear Modulus (GPa) = 25.03393 26.95272 25.99332
#
# Velocity S-wave (km/s) = 3.54805 3.68151 3.61539
# Velocity P-wave (km/s) = 6.24031 6.49815 6.37054
#
# Compressibility (1/GPa) = 0.02269576
#
# Stress axis : x y z
#
# Youngs Moduli (GPa) = 53.84143 87.92704 91.07257
#
# Poissons Ratio (x) = 0.10201 0.53064
# Poissons Ratio (y) = 0.06246 0.19386
# Poissons Ratio (z) = 0.31371 0.18716
#
# Static dielectric constant tensor:
#      x y z
#    x 3.382690 0.000000 0.000000 
#    y 0.000000 3.696340 0.000000 
#    z 0.000000 0.000000 3.728340 
# 
# 
# High freq. dielectric constant tensor:
#      x y z
#    x 1.738660 0.000000 0.000000 
#    y 0.000000 1.777120 0.000000 
#    z 0.000000 0.000000 1.778000 
# 
# From -- ./inp_files/22732.got.cif
#   From: 2010.06.25/outbox.cif.g09.slc.cpg/sg58_12_cif.got.tgz:22732.got - 2010.06.26 21:38:00.
