data_PCOD8238027
_publ_section_title
;
Structure prediction by ZEFSAII (Michael W. Deem and Ramdas Pophale) SiO2 
 PCOD8238027
Probable space group: P N N M
;
_chemical_formula_sum "Si O2"
_cell_formula_units_Z 48
_cell_length_a 15.139055
_cell_length_b 18.752167
_cell_length_c 8.567683
_cell_angle_alpha 90.000000
_cell_angle_beta 90.000000
_cell_angle_gamma 90.000000
_cell_volume 2432.280277
_symmetry_space_group_name_H-M "P N N M"
_symmetry_group_IT_number 58
_symmetry_cell_setting 'orthorhombic'
loop_
_space_group_symop_operation_xyz
x,y,z
-x,-y,z
1/2+x,1/2-y,1/2-z
1/2-x,1/2+y,1/2-z
-x,-y,-z
x,y,-z
1/2-x,1/2+y,1/2+z
1/2+x,1/2-y,1/2+z
loop_
_atom_site_type_symbol
_atom_site_label
_atom_site_fract_x
_atom_site_fract_y
_atom_site_fract_z
Si Si1 0.104269 0.926546 0.684228
Si Si2 0.238220 0.330069 0.816449
Si Si3 0.751241 0.333934 0.319443
Si Si4 0.396365 0.066037 0.681764
Si Si5 0.592340 0.412355 0.815283
Si Si6 0.083046 0.415752 0.317478
O O1 0.102319 0.920313 0.500000
O O2 0.180870 0.876547 0.753120
O O3 0.008148 0.900955 0.743738
O O4 0.123309 0.008042 0.731524
O O5 0.260454 0.248817 0.777456
O O6 0.149156 0.352832 0.729382
O O7 0.225150 0.342956 0.000000
O O8 0.771178 0.348254 0.500000
O O9 0.820771 0.377074 0.216648
O O10 0.652042 0.356894 0.277898
O O11 0.396223 0.048104 0.500000
O O12 0.490700 0.098063 0.730384
O O13 0.376367 0.992417 0.771750
O O14 0.601699 0.399917 0.000000
O O15 0.064301 0.413466 0.500000
#
# Coordination Sequence:
#
# PCOD8238027 Si02
#       6
#     8   8   8   8   8   8
#     4   8  16  33  57  80 101 134 182 228 271 326
#     4  10  21  37  55  79 116 157 188 221 276 340
#     4  11  23  36  52  81 118 152 188 230 275 329
#     4  11  22  39  62  84 111 150 193 234 284 343
#     4   9  17  33  58  82 102 134 184 234 279 330
#     4  11  22  38  61  88 115 143 186 241 289 336
#
# _framework density 19.734569
#
# number of rings (size 3 to 8) (size 9 to 14) (size 15 to 20)
#    0.000    2.000    0.000    6.500    0.000    4.000 
#    0.000    4.167    0.000    0.000    0.000    0.000 
#    0.000    0.000    0.000    0.000    0.000    0.000 
#
# Total GULP energy -595335.955587 kJ/mol
# GULP energy per Si atom -12402.832408 kJ/mol
# Density = 1.968965 g / cm^3
# Si number density = 19.734569 Si / 1000 Ang^3
#
#
#
# Elastic Constant Matrix: (Units=GPa)
#
#
# Indices 1 2 3 4 5 6 
#
# 1 83.7366 28.7554 14.0059 0.0000 0.0000 0.0000
# 2 28.7554 60.0771 19.0530 0.0000 0.0000 0.0000
# 3 14.0059 19.0530 51.7806 0.0000 0.0000 0.0000
# 4 0.0000 0.0000 0.0000 26.4855 0.0000 0.0000
# 5 0.0000 0.0000 0.0000 0.0000 26.6414 0.0000
# 6 0.0000 0.0000 0.0000 0.0000 0.0000 20.7235
#
#
#
# Elastic Compliance Matrix: (Units=1/GPa)
#
#
# Indices 1 2 3 4 5 6 
#
# 1 0.014399 -0.006404 -0.001538 0.000000 0.000000 0.000000
# 2 -0.006404 0.021693 -0.006250 0.000000 0.000000 0.000000
# 3 -0.001538 -0.006250 0.022028 0.000000 0.000000 0.000000
# 4 0.000000 0.000000 0.000000 0.037756 0.000000 0.000000
# 5 0.000000 0.000000 0.000000 0.000000 0.037536 0.000000
# 6 0.000000 0.000000 0.000000 0.000000 0.000000 0.048254
#
#
# Mechanical properties :
#
#
# Convention : Reuss Voigt Hill
#
# Bulk Modulus (GPa) = 33.63010 35.46922 34.54966
# Shear Modulus (GPa) = 22.73129 23.68876 23.21002
#
# Velocity S-wave (km/s) = 3.39758 3.46839 3.43317
# Velocity P-wave (km/s) = 5.69821 5.83539 5.76721
#
# Compressibility (1/GPa) = 0.02973527
#
# Stress axis : x y z
#
# Youngs Moduli (GPa) = 69.45105 46.09877 45.39685
#
# Poissons Ratio (x) = 0.29521 0.06983
# Poissons Ratio (y) = 0.44476 0.28372
# Poissons Ratio (z) = 0.10683 0.28811
#
# Static dielectric constant tensor:
#      x y z
#    x 3.892170 0.000000 0.000000 
#    y 0.000000 3.580470 0.000000 
#    z 0.000000 0.000000 3.394580 
# 
# 
# High freq. dielectric constant tensor:
#      x y z
#    x 1.782660 0.000000 0.000000 
#    y 0.000000 1.762740 0.000000 
#    z 0.000000 0.000000 1.753980 
# 
# From -- ./inp_files/5821.got.cif
#   From: 2010.06.25/outbox.cif.g09.slc.cpg/sg58_3_cif.got.tgz:5821.got - 2010.06.26 21:38:00.
