data_PCOD8238538
_publ_section_title
;
Structure prediction by ZEFSAII (Michael W. Deem and Ramdas Pophale) SiO2 
 PCOD8238538
Probable space group: P N N M
;
_chemical_formula_sum "Si O2"
_cell_formula_units_Z 48
_cell_length_a 9.092619
_cell_length_b 13.600358
_cell_length_c 18.327929
_cell_angle_alpha 90.000000
_cell_angle_beta 90.000000
_cell_angle_gamma 90.000000
_cell_volume 2266.484366
_symmetry_space_group_name_H-M "P N N M"
_symmetry_group_IT_number 58
_symmetry_cell_setting 'orthorhombic'
loop_
_space_group_symop_operation_xyz
x,y,z
-x,-y,z
1/2+x,1/2-y,1/2-z
1/2-x,1/2+y,1/2-z
-x,-y,-z
x,y,-z
1/2-x,1/2+y,1/2+z
1/2+x,1/2-y,1/2+z
loop_
_atom_site_type_symbol
_atom_site_label
_atom_site_fract_x
_atom_site_fract_y
_atom_site_fract_z
Si Si1 0.252088 0.302431 0.356999
Si Si2 0.083692 0.205100 0.886780
Si Si3 0.872903 0.576663 0.919287
Si Si4 0.307063 0.421855 0.775296
Si Si5 0.771483 0.412591 0.500000
Si Si6 0.385451 0.873078 0.000000
Si Si7 0.129206 0.142375 0.734383
O O1 0.416376 0.332191 0.380558
O O2 0.206456 0.371030 0.287490
O O3 0.147866 0.314592 0.426253
O O4 0.226521 0.189654 0.330648
O O5 0.071043 0.311381 0.923684
O O6 0.154225 0.210004 0.806141
O O7 0.182700 0.127535 0.930597
O O8 0.752771 0.571899 0.856954
O O9 0.000000 0.500000 0.898770
O O10 0.809046 0.550138 0.000000
O O11 0.456754 0.360111 0.785044
O O12 0.322242 0.532601 0.747240
O O13 0.781961 0.530348 0.500000
O O14 0.940054 0.380732 0.500000
#
# Coordination Sequence:
#
# PCOD8238538 Si02
#       7
#     8   8   8   8   4   4   8
#     4  11  23  41  67  96 130 174 226 274 328 415
#     4  11  22  40  70  92 130 182 220 278 340 403
#     4  11  23  40  64  96 132 175 228 270 334 409
#     4  10  22  43  63  95 132 176 220 286 334 398
#     4  11  25  45  64  94 135 171 218 285 342 398
#     4  11  27  43  63 101 131 171 226 280 344 401
#     4  10  22  40  66  96 132 171 229 273 342 401
#
# _framework density 21.178173999999999
#
# number of rings (size 3 to 8) (size 9 to 14) (size 15 to 20)
#    0.000    1.333    2.500    2.500    2.333    2.667 
#    7.500    0.833    0.000    0.000    0.000    0.000 
#    0.000    0.000    0.000    0.000    0.000    0.000 
#
# Total GULP energy -594936.028691 kJ/mol
# GULP energy per Si atom -12394.500598 kJ/mol
# Density = 2.112997 g / cm^3
# Si number density = 21.178174 Si / 1000 Ang^3
#
#
#
# Elastic Constant Matrix: (Units=GPa)
#
#
# Indices 1 2 3 4 5 6 
#
# 1 76.6519 29.6306 54.8640 0.0000 0.0000 0.0000
# 2 29.6306 89.3353 37.9182 0.0000 0.0000 0.0000
# 3 54.8640 37.9182 153.1647 0.0000 0.0000 0.0000
# 4 0.0000 0.0000 0.0000 33.6094 0.0000 0.0000
# 5 0.0000 0.0000 0.0000 0.0000 39.6648 0.0000
# 6 0.0000 0.0000 0.0000 0.0000 0.0000 31.5683
#
#
#
# Elastic Compliance Matrix: (Units=1/GPa)
#
#
# Indices 1 2 3 4 5 6 
#
# 1 0.018595 -0.003733 -0.005737 0.000000 0.000000 0.000000
# 2 -0.003733 0.013257 -0.001945 0.000000 0.000000 0.000000
# 3 -0.005737 -0.001945 0.009065 0.000000 0.000000 0.000000
# 4 0.000000 0.000000 0.000000 0.029754 0.000000 0.000000
# 5 0.000000 0.000000 0.000000 0.000000 0.025211 0.000000
# 6 0.000000 0.000000 0.000000 0.000000 0.000000 0.031677
#
#
# Mechanical properties :
#
#
# Convention : Reuss Voigt Hill
#
# Bulk Modulus (GPa) = 55.28226 62.66417 58.97321
# Shear Modulus (GPa) = 31.96560 34.08445 33.02503
#
# Velocity S-wave (km/s) = 3.88927 4.01610 3.95319
# Velocity P-wave (km/s) = 6.80651 7.15253 6.98167
#
# Compressibility (1/GPa) = 0.01808899
#
# Stress axis : x y z
#
# Youngs Moduli (GPa) = 53.77809 75.42972 110.31031
#
# Poissons Ratio (x) = 0.28155 0.63282
# Poissons Ratio (y) = 0.20073 0.21456
# Poissons Ratio (z) = 0.30851 0.14671
#
# Static dielectric constant tensor:
#      x y z
#    x 3.631700 0.000000 0.000000 
#    y 0.000000 3.943760 0.000000 
#    z 0.000000 0.000000 4.003990 
# 
# 
# High freq. dielectric constant tensor:
#      x y z
#    x 1.811760 0.000000 0.000000 
#    y 0.000000 1.837730 0.000000 
#    z 0.000000 0.000000 1.847530 
# 
# From -- ./inp_files/25324.got.cif
#   From: 2010.06.25/outbox.cif.g09.slc.cpg/sg58_13_cif.got.tgz:25324.got - 2010.06.26 21:38:00.
