data_PCOD8238648
_publ_section_title
;
Structure prediction by ZEFSAII (Michael W. Deem and Ramdas Pophale) SiO2 
 PCOD8238648
Probable space group: P N N M
;
_chemical_formula_sum "Si O2"
_cell_formula_units_Z 64
_cell_length_a 11.870026
_cell_length_b 30.352970
_cell_length_c 8.813008
_cell_angle_alpha 90.000000
_cell_angle_beta 90.000000
_cell_angle_gamma 90.000000
_cell_volume 3175.243438
_symmetry_space_group_name_H-M "P N N M"
_symmetry_group_IT_number 58
_symmetry_cell_setting 'orthorhombic'
loop_
_space_group_symop_operation_xyz
x,y,z
-x,-y,z
1/2+x,1/2-y,1/2-z
1/2-x,1/2+y,1/2-z
-x,-y,-z
x,y,-z
1/2-x,1/2+y,1/2+z
1/2+x,1/2-y,1/2+z
loop_
_atom_site_type_symbol
_atom_site_label
_atom_site_fract_x
_atom_site_fract_y
_atom_site_fract_z
Si Si1 0.745928 0.696155 0.176188
Si Si2 0.647291 0.873520 0.678927
Si Si3 0.790229 0.796526 0.176174
Si Si4 0.245548 0.952465 0.177651
Si Si5 0.784849 0.959682 0.678443
Si Si6 0.504554 0.424358 0.678462
Si Si7 0.903945 0.628088 0.321576
Si Si8 0.999598 0.167797 0.321146
O O1 0.743483 0.747982 0.206758
O O2 0.843973 0.673248 0.272144
O O3 0.626517 0.677660 0.234076
O O4 0.765898 0.685280 0.000000
O O5 0.644875 0.868804 0.500000
O O6 0.707686 0.830736 0.744217
O O7 0.711705 0.917735 0.729347
O O8 0.521677 0.876676 0.739230
O O9 0.915812 0.797776 0.243966
O O10 0.794566 0.808149 0.000000
O O11 0.119303 0.939590 0.225364
O O12 0.327501 0.913211 0.227989
O O13 0.280822 0.996199 0.269954
O O14 0.255306 0.962218 0.000000
O O15 0.807330 0.960201 0.500000
O O16 0.903841 0.960194 0.768450
O O17 0.513378 0.415727 0.500000
O O18 0.536682 0.380462 0.769223
O O19 0.923973 0.629510 0.500000
O O20 0.011883 0.172344 0.500000
#
# Coordination Sequence:
#
# PCOD8238648 Si02
#       8
#     8   8   8   8   8   8   8   8
#     4  10  24  43  64  94 129 164 207 256 312 371
#     4  11  25  44  63  90 126 165 209 259 313 367
#     4  11  24  42  65  95 126 166 211 255 311 370
#     4  10  23  41  62  92 125 160 205 254 310 370
#     4  11  24  40  62  92 124 162 208 255 309 371
#     4  11  21  38  63  92 127 163 202 255 309 368
#     4  11  24  43  66  92 123 164 212 257 310 371
#     4  11  22  39  64  94 128 165 204 256 312 367
#
# _framework density 20.155934999999999
#
# number of rings (size 3 to 8) (size 9 to 14) (size 15 to 20)
#    0.000    1.250    2.500    2.625    1.750    7.000 
#    0.000    2.500    0.000    0.000    0.000    0.000 
#    0.000    0.000    0.000    0.000    0.000    0.000 
#
# Total GULP energy -794029.734268 kJ/mol
# GULP energy per Si atom -12406.714598 kJ/mol
# Density = 2.011006 g / cm^3
# Si number density = 20.155935 Si / 1000 Ang^3
#
#
#
# Elastic Constant Matrix: (Units=GPa)
#
#
# Indices 1 2 3 4 5 6 
#
# 1 99.7582 23.7548 43.6504 0.0000 0.0000 0.0000
# 2 23.7548 91.6077 43.4484 0.0000 0.0000 0.0000
# 3 43.6504 43.4484 75.8512 0.0000 0.0000 0.0000
# 4 0.0000 0.0000 0.0000 34.4206 0.0000 0.0000
# 5 0.0000 0.0000 0.0000 0.0000 35.6139 0.0000
# 6 0.0000 0.0000 0.0000 0.0000 0.0000 22.8723
#
#
#
# Elastic Compliance Matrix: (Units=1/GPa)
#
#
# Indices 1 2 3 4 5 6 
#
# 1 0.013402 0.000251 -0.007856 0.000000 0.000000 0.000000
# 2 0.000251 0.014993 -0.008732 0.000000 0.000000 0.000000
# 3 -0.007856 -0.008732 0.022707 0.000000 0.000000 0.000000
# 4 0.000000 0.000000 0.000000 0.029052 0.000000 0.000000
# 5 0.000000 0.000000 0.000000 0.000000 0.028079 0.000000
# 6 0.000000 0.000000 0.000000 0.000000 0.000000 0.043721
#
#
# Mechanical properties :
#
#
# Convention : Reuss Voigt Hill
#
# Bulk Modulus (GPa) = 54.27096 54.32492 54.29794
# Shear Modulus (GPa) = 26.20939 29.00560 27.60750
#
# Velocity S-wave (km/s) = 3.60992 3.79761 3.70496
# Velocity P-wave (km/s) = 6.66028 6.80000 6.73050
#
# Compressibility (1/GPa) = 0.01842606
#
# Stress axis : x y z
#
# Youngs Moduli (GPa) = 74.61517 66.69909 44.03980
#
# Poissons Ratio (x) = -0.01673 0.34599
# Poissons Ratio (y) = -0.01871 0.38457
# Poissons Ratio (z) = 0.58619 0.58244
#
# Static dielectric constant tensor:
#      x y z
#    x 3.852140 0.000000 0.000000 
#    y 0.000000 3.782970 0.000000 
#    z 0.000000 0.000000 3.640740 
# 
# 
# High freq. dielectric constant tensor:
#      x y z
#    x 1.792690 0.000000 0.000000 
#    y 0.000000 1.797610 0.000000 
#    z 0.000000 0.000000 1.792620 
# 
# From -- ./inp_files/4634.got.cif
#   From: 2010.06.25/outbox.cif.g09.slc.cpg/sg58_3_cif.got.tgz:4634.got - 2010.06.26 21:38:00.
