data_PCOD8238314
_publ_section_title
;
Structure prediction by ZEFSAII (Michael W. Deem and Ramdas Pophale) SiO2 
 PCOD8238314
Probable space group: P N N M
;
_chemical_formula_sum "Si O2"
_cell_formula_units_Z 64
_cell_length_a 21.034012
_cell_length_b 16.733058
_cell_length_c 8.520398
_cell_angle_alpha 90.000000
_cell_angle_beta 90.000000
_cell_angle_gamma 90.000000
_cell_volume 2998.867762
_symmetry_space_group_name_H-M "P N N M"
_symmetry_group_IT_number 58
_symmetry_cell_setting 'orthorhombic'
loop_
_space_group_symop_operation_xyz
x,y,z
-x,-y,z
1/2+x,1/2-y,1/2-z
1/2-x,1/2+y,1/2-z
-x,-y,-z
x,y,-z
1/2-x,1/2+y,1/2+z
1/2+x,1/2-y,1/2+z
loop_
_atom_site_type_symbol
_atom_site_label
_atom_site_fract_x
_atom_site_fract_y
_atom_site_fract_z
Si Si1 0.318495 0.884853 0.316392
Si Si2 0.007514 0.094005 0.177612
Si Si3 0.427935 0.999523 0.685324
Si Si4 0.142747 0.658461 0.817977
Si Si5 0.637514 0.419879 0.818896
Si Si6 0.275183 0.707442 0.682705
Si Si7 0.398298 0.306689 0.180347
Si Si8 0.306618 0.424801 0.318643
O O1 0.308106 0.897899 0.500000
O O2 0.388937 0.918224 0.268783
O O3 0.304924 0.793312 0.267818
O O4 0.266778 0.940025 0.227362
O O5 0.073565 0.120318 0.254705
O O6 0.953049 0.130831 0.283284
O O7 0.003531 0.126263 0.000000
O O8 0.000000 0.000000 0.184442
O O9 0.434622 0.007480 0.500000
O O10 0.500000 0.000000 0.757652
O O11 0.386747 0.075391 0.745891
O O12 0.200864 0.692446 0.713629
O O13 0.090601 0.727978 0.788102
O O14 0.161821 0.651285 0.000000
O O15 0.692207 0.355681 0.796593
O O16 0.651961 0.497600 0.716271
O O17 0.631865 0.444731 0.000000
O O18 0.289710 0.691094 0.500000
O O19 0.330962 0.349125 0.218748
O O20 0.399532 0.281569 0.000000
O O21 0.314357 0.403326 0.500000
#
# Coordination Sequence:
#
# PCOD8238314 Si02
#       8
#     8   8   8   8   8   8   8   8
#     4  10  21  39  65  95 125 164 212 266 330 389
#     4  11  23  40  62  88 122 163 210 256 306 375
#     4   9  20  40  66  95 126 166 216 269 326 391
#     4  11  22  39  66  96 128 166 216 274 328 387
#     4  12  25  40  61  89 128 169 209 257 316 380
#     4  11  23  39  62  93 131 169 213 268 326 388
#     4  12  24  39  62  91 127 168 211 259 319 387
#     4  12  23  38  62  91 123 162 212 262 317 380
#
# _framework density 21.341388999999999
#
# number of rings (size 3 to 8) (size 9 to 14) (size 15 to 20)
#    0.000    1.000    2.500    5.250    0.000    3.000 
#    0.000    3.125    0.000    3.375    0.000    0.000 
#    0.000    0.000    0.000    0.000    0.000    0.000 
#
# Total GULP energy -793609.152201 kJ/mol
# GULP energy per Si atom -12400.143003 kJ/mol
# Density = 2.129281 g / cm^3
# Si number density = 21.341389 Si / 1000 Ang^3
#
#
#
# Elastic Constant Matrix: (Units=GPa)
#
#
# Indices 1 2 3 4 5 6 
#
# 1 106.0642 43.5671 22.3386 0.0000 0.0000 0.0000
# 2 43.5671 111.4227 18.5918 0.0000 0.0000 0.0000
# 3 22.3386 18.5918 75.4892 0.0000 0.0000 0.0000
# 4 0.0000 0.0000 0.0000 24.1313 0.0000 0.0000
# 5 0.0000 0.0000 0.0000 0.0000 32.1366 0.0000
# 6 0.0000 0.0000 0.0000 0.0000 0.0000 30.3276
#
#
#
# Elastic Compliance Matrix: (Units=1/GPa)
#
#
# Indices 1 2 3 4 5 6 
#
# 1 0.011643 -0.004148 -0.002424 0.000000 0.000000 0.000000
# 2 -0.004148 0.010837 -0.001442 0.000000 0.000000 0.000000
# 3 -0.002424 -0.001442 0.014319 0.000000 0.000000 0.000000
# 4 0.000000 0.000000 0.000000 0.041440 0.000000 0.000000
# 5 0.000000 0.000000 0.000000 0.000000 0.031117 0.000000
# 6 0.000000 0.000000 0.000000 0.000000 0.000000 0.032973
#
#
# Mechanical properties :
#
#
# Convention : Reuss Voigt Hill
#
# Bulk Modulus (GPa) = 48.14037 51.33013 49.73525
# Shear Modulus (GPa) = 30.25174 31.21768 30.73471
#
# Velocity S-wave (km/s) = 3.76907 3.82878 3.79904
# Velocity P-wave (km/s) = 6.44573 6.60683 6.52678
#
# Compressibility (1/GPa) = 0.02077259
#
# Stress axis : x y z
#
# Youngs Moduli (GPa) = 85.89212 92.27442 69.83644
#
# Poissons Ratio (x) = 0.38275 0.16926
# Poissons Ratio (y) = 0.35627 0.10068
# Poissons Ratio (z) = 0.20817 0.13302
#
# Static dielectric constant tensor:
#      x y z
#    x 4.068060 0.000000 0.000000 
#    y 0.000000 3.950210 0.000000 
#    z 0.000000 0.000000 3.598570 
# 
# 
# High freq. dielectric constant tensor:
#      x y z
#    x 1.841150 0.000000 0.000000 
#    y 0.000000 1.838290 0.000000 
#    z 0.000000 0.000000 1.824240 
# 
# From -- ./inp_files/9332.got.cif
#   From: 2010.06.25/outbox.cif.g09.slc.cpg/sg58_5_cif.got.tgz:9332.got - 2010.06.26 21:38:00.
