data_PCOD8238528
_publ_section_title
;
Structure prediction by ZEFSAII (Michael W. Deem and Ramdas Pophale) SiO2 
 PCOD8238528
Probable space group: P N N M
;
_chemical_formula_sum "Si O2"
_cell_formula_units_Z 32
_cell_length_a 11.666378
_cell_length_b 14.015218
_cell_length_c 9.271391
_cell_angle_alpha 90.000000
_cell_angle_beta 90.000000
_cell_angle_gamma 90.000000
_cell_volume 1515.935761
_symmetry_space_group_name_H-M "P N N M"
_symmetry_group_IT_number 58
_symmetry_cell_setting 'orthorhombic'
loop_
_space_group_symop_operation_xyz
x,y,z
-x,-y,z
1/2+x,1/2-y,1/2-z
1/2-x,1/2+y,1/2-z
-x,-y,-z
x,y,-z
1/2-x,1/2+y,1/2+z
1/2+x,1/2-y,1/2+z
loop_
_atom_site_type_symbol
_atom_site_label
_atom_site_fract_x
_atom_site_fract_y
_atom_site_fract_z
Si Si1 0.583926 0.609089 0.000000
Si Si2 0.000000 0.000000 0.247823
Si Si3 0.361616 0.212409 0.500000
Si Si4 0.985282 0.610893 0.770206
Si Si5 0.822733 0.676275 0.000000
Si Si6 0.952580 0.864091 0.000000
Si Si7 0.592558 0.233652 0.000000
O O1 0.594240 0.546553 0.854137
O O2 0.687014 0.682560 0.000000
O O3 0.462876 0.662171 0.000000
O O4 0.935457 0.925125 0.144917
O O5 0.403860 0.152902 0.642006
O O6 0.422835 0.315308 0.500000
O O7 0.227914 0.240705 0.500000
O O8 0.871041 0.618749 0.864583
O O9 0.955975 0.675129 0.633911
O O10 0.000000 0.500000 0.727337
O O11 0.854075 0.786637 0.000000
#
# Coordination Sequence:
#
# PCOD8238528 Si02
#       7
#     4   4   4   8   4   4   4
#     4  11  24  41  61 104 132 168 216 272 324 404
#     4  10  22  40  64  92 132 160 228 264 316 388
#     4  10  23  46  69  92 137 177 214 268 341 388
#     4  10  23  45  69  98 131 172 225 271 322 394
#     4  10  22  42  70  92 138 174 214 266 342 389
#     4   9  20  45  66  92 122 178 215 271 326 388
#     4  12  26  42  69 100 136 172 219 270 338 388
#
# _framework density 21.109074
#
# number of rings (size 3 to 8) (size 9 to 14) (size 15 to 20)
#    0.000    2.000    0.000    4.875    7.000    4.000 
#    4.500    0.000    0.000    0.000    0.000    0.000 
#    0.000    0.000    0.000    0.000    0.000    0.000 
#
# Total GULP energy -396515.065868 kJ/mol
# GULP energy per Si atom -12391.095808 kJ/mol
# Density = 2.106103 g / cm^3
# Si number density = 21.109074 Si / 1000 Ang^3
#
#
#
# Elastic Constant Matrix: (Units=GPa)
#
#
# Indices 1 2 3 4 5 6 
#
# 1 148.6719 70.1915 54.5576 0.0000 0.0000 0.0000
# 2 70.1915 144.7229 52.0633 0.0000 0.0000 0.0000
# 3 54.5576 52.0633 143.3531 0.0000 0.0000 0.0000
# 4 0.0000 0.0000 0.0000 16.8901 0.0000 0.0000
# 5 0.0000 0.0000 0.0000 0.0000 -30.6176 0.0000
# 6 0.0000 0.0000 0.0000 0.0000 0.0000 17.9264
#
#
#
# Elastic Compliance Matrix: (Units=1/GPa)
#
#
# Indices 1 2 3 4 5 6 
#
# 1 0.009282 -0.003717 -0.002183 0.000000 0.000000 0.000000
# 2 -0.003717 0.009436 -0.002013 0.000000 0.000000 0.000000
# 3 -0.002183 -0.002013 0.008537 0.000000 0.000000 0.000000
# 4 0.000000 0.000000 0.000000 0.059206 0.000000 0.000000
# 5 0.000000 0.000000 0.000000 0.000000 -0.032661 0.000000
# 6 0.000000 0.000000 0.000000 0.000000 0.000000 0.055784
#
#
# Mechanical properties :
#
#
# Convention : Reuss Voigt Hill
#
# Bulk Modulus (GPa) = 87.47526 87.81917 87.64722
# Shear Modulus (GPa) = 38.69400 18.16882 28.43141
#
# Velocity S-wave (km/s) = 4.28606 2.93697 3.67397
# Velocity P-wave (km/s) = 8.12547 7.29342 7.72066
#
# Compressibility (1/GPa) = 0.01143180
#
# Stress axis : x y z
#
# Youngs Moduli (GPa) = 107.73681 105.97321 117.13097
#
# Poissons Ratio (x) = 0.39385 0.25567
# Poissons Ratio (y) = 0.40041 0.23575
# Poissons Ratio (z) = 0.23516 0.21329
#
# Static dielectric constant tensor:
#      x y z
#    x 3.527350 0.000000 0.000000 
#    y 0.000000 3.976660 0.000000 
#    z 0.000000 0.000000 3.910440 
# 
# 
# High freq. dielectric constant tensor:
#      x y z
#    x 1.802020 0.000000 0.000000 
#    y 0.000000 1.844080 0.000000 
#    z 0.000000 0.000000 1.844540 
# 
# From -- ./inp_files/3646.got.cif
#   From: 2010.06.25/outbox.cif.g09.slc.cpg/sg58_2_cif.got.tgz:3646.got - 2010.06.26 21:38:00.
