data_PCOD8238291
_publ_section_title
;
Structure prediction by ZEFSAII (Michael W. Deem and Ramdas Pophale) SiO2 
 PCOD8238291
Probable space group: P N N M
;
_chemical_formula_sum "Si O2"
_cell_formula_units_Z 32
_cell_length_a 14.109737
_cell_length_b 12.534577
_cell_length_c 8.648380
_cell_angle_alpha 90.000000
_cell_angle_beta 90.000000
_cell_angle_gamma 90.000000
_cell_volume 1529.548897
_symmetry_space_group_name_H-M "P N N M"
_symmetry_group_IT_number 58
_symmetry_cell_setting 'orthorhombic'
loop_
_space_group_symop_operation_xyz
x,y,z
-x,-y,z
1/2+x,1/2-y,1/2-z
1/2-x,1/2+y,1/2-z
-x,-y,-z
x,y,-z
1/2-x,1/2+y,1/2+z
1/2+x,1/2-y,1/2+z
loop_
_atom_site_type_symbol
_atom_site_label
_atom_site_fract_x
_atom_site_fract_y
_atom_site_fract_z
Si Si1 0.905801 0.234782 0.181999
Si Si2 0.213915 0.951503 0.679049
Si Si3 0.103583 0.537837 0.680595
Si Si4 0.073723 0.095225 0.170124
O O1 0.828880 0.144887 0.222352
O O2 0.881548 0.338896 0.278815
O O3 0.012811 0.197058 0.228364
O O4 0.899624 0.258423 0.000000
O O5 0.204218 0.924009 0.500000
O O6 0.323038 0.965359 0.724630
O O7 0.158325 0.062953 0.714418
O O8 0.121233 0.520382 0.500000
O O9 0.000000 0.500000 0.732414
O O10 0.117693 0.117661 0.000000
O O11 0.000000 0.000000 0.156668
#
# Coordination Sequence:
#
# PCOD8238291 Si02
#       4
#     8   8   8   8
#     4  10  21  39  63  89 119 155 196 244 297 350
#     4  11  22  37  61  90 121 157 198 243 292 352
#     4  11  25  43  61  84 118 157 199 247 296 350
#     4   8  16  33  57  85 117 150 189 240 289 338
#
# _framework density 20.921199999999999
#
# number of rings (size 3 to 8) (size 9 to 14) (size 15 to 20)
#    0.000    2.000    0.000    5.250    0.000    9.500 
#    0.000    5.000    0.000    0.000    0.000    0.000 
#    0.000    0.000    0.000    0.000    0.000    0.000 
#
# Total GULP energy -396807.061162 kJ/mol
# GULP energy per Si atom -12400.220661 kJ/mol
# Density = 2.087358 g / cm^3
# Si number density = 20.921200 Si / 1000 Ang^3
#
#
#
# Elastic Constant Matrix: (Units=GPa)
#
#
# Indices 1 2 3 4 5 6 
#
# 1 111.8042 24.7528 26.1793 0.0000 0.0000 0.0000
# 2 24.7528 66.0071 2.3101 0.0000 0.0000 0.0000
# 3 26.1793 2.3101 70.9250 0.0000 0.0000 0.0000
# 4 0.0000 0.0000 0.0000 23.5838 0.0000 0.0000
# 5 0.0000 0.0000 0.0000 0.0000 29.5914 0.0000
# 6 0.0000 0.0000 0.0000 0.0000 0.0000 27.4947
#
#
#
# Elastic Compliance Matrix: (Units=1/GPa)
#
#
# Indices 1 2 3 4 5 6 
#
# 1 0.010698 -0.003878 -0.003822 0.000000 0.000000 0.000000
# 2 -0.003878 0.016573 0.000892 0.000000 0.000000 0.000000
# 3 -0.003822 0.000892 0.015481 0.000000 0.000000 0.000000
# 4 0.000000 0.000000 0.000000 0.042402 0.000000 0.000000
# 5 0.000000 0.000000 0.000000 0.000000 0.033794 0.000000
# 6 0.000000 0.000000 0.000000 0.000000 0.000000 0.036371
#
#
# Mechanical properties :
#
#
# Convention : Reuss Voigt Hill
#
# Bulk Modulus (GPa) = 34.32352 39.46897 36.89624
# Shear Modulus (GPa) = 27.98814 29.16692 28.57753
#
# Velocity S-wave (km/s) = 3.66155 3.73786 3.69990
# Velocity P-wave (km/s) = 5.85812 6.12660 5.99387
#
# Compressibility (1/GPa) = 0.02913454
#
# Stress axis : x y z
#
# Youngs Moduli (GPa) = 93.47737 60.33940 64.59429
#
# Poissons Ratio (x) = 0.23399 0.24690
# Poissons Ratio (y) = 0.36250 -0.05759
# Poissons Ratio (z) = 0.35731 -0.05380
#
# Static dielectric constant tensor:
#      x y z
#    x 3.939140 0.000000 0.000000 
#    y 0.000000 3.768320 0.000000 
#    z 0.000000 0.000000 3.672750 
# 
# 
# High freq. dielectric constant tensor:
#      x y z
#    x 1.820720 0.000000 0.000000 
#    y 0.000000 1.806670 0.000000 
#    z 0.000000 0.000000 1.817990 
# 
# From -- ./inp_files/3485.got.cif
#   From: 2010.06.25/outbox.cif.g09.slc.cpg/sg58_2_cif.got.tgz:3485.got - 2010.06.26 21:38:00.
