data_PCOD8238101
_publ_section_title
;
Structure prediction by ZEFSAII (Michael W. Deem and Ramdas Pophale) SiO2 
 PCOD8238101
Probable space group: P N N M
;
_chemical_formula_sum "Si O2"
_cell_formula_units_Z 48
_cell_length_a 30.852802
_cell_length_b 8.876268
_cell_length_c 9.031319
_cell_angle_alpha 90.000000
_cell_angle_beta 90.000000
_cell_angle_gamma 90.000000
_cell_volume 2473.296602
_symmetry_space_group_name_H-M "P N N M"
_symmetry_group_IT_number 58
_symmetry_cell_setting 'orthorhombic'
loop_
_space_group_symop_operation_xyz
x,y,z
-x,-y,z
1/2+x,1/2-y,1/2-z
1/2-x,1/2+y,1/2-z
-x,-y,-z
x,y,-z
1/2-x,1/2+y,1/2+z
1/2+x,1/2-y,1/2+z
loop_
_atom_site_type_symbol
_atom_site_label
_atom_site_fract_x
_atom_site_fract_y
_atom_site_fract_z
Si Si1 0.707955 0.575054 0.672627
Si Si2 0.213230 0.575351 0.830277
Si Si3 0.542267 0.587884 0.175135
Si Si4 0.125361 0.400246 0.170844
Si Si5 0.628086 0.416016 0.824947
Si Si6 0.042335 0.591602 0.173369
O O1 0.700835 0.544341 0.500000
O O2 0.752579 0.499969 0.721766
O O3 0.710018 0.750276 0.710263
O O4 0.668356 0.504820 0.759979
O O5 0.166844 0.502965 0.800167
O O6 0.227993 0.552005 0.000000
O O7 0.500000 0.500000 0.233670
O O8 0.584120 0.495592 0.229429
O O9 0.543411 0.752493 0.242137
O O10 0.541226 0.604080 0.000000
O O11 0.128622 0.254400 0.271266
O O12 0.083732 0.494619 0.221296
O O13 0.121731 0.350851 0.000000
O O14 0.632080 0.416819 0.000000
O O15 0.000000 0.500000 0.221988
O O16 0.042576 0.626764 0.000000
#
# Coordination Sequence:
#
# PCOD8238101 Si02
#       6
#     8   8   8   8   8   8
#     4  11  23  39  60  84 113 149 186 231 286 336
#     4  10  22  39  58  83 114 148 189 233 278 335
#     4  10  22  39  58  83 116 153 192 234 280 333
#     4  10  21  38  59  84 116 151 188 233 283 335
#     4  11  23  38  58  85 115 148 190 235 279 334
#     4  10  21  37  59  88 118 149 189 235 282 335
#
# _framework density 19.407295999999999
#
# number of rings (size 3 to 8) (size 9 to 14) (size 15 to 20)
#    0.000    1.667    0.000    4.000    0.000    8.667 
#    0.000    0.000    0.000    0.000    0.000    0.000 
#    0.000    0.000    0.000    0.000    0.000    0.000 
#
# Total GULP energy -595495.012213 kJ/mol
# GULP energy per Si atom -12406.146088 kJ/mol
# Density = 1.936312 g / cm^3
# Si number density = 19.407296 Si / 1000 Ang^3
#
#
#
# Elastic Constant Matrix: (Units=GPa)
#
#
# Indices 1 2 3 4 5 6 
#
# 1 155.7301 71.9510 42.0695 0.0000 0.0000 0.0000
# 2 71.9510 148.0737 44.2604 0.0000 0.0000 0.0000
# 3 42.0695 44.2604 40.3836 0.0000 0.0000 0.0000
# 4 0.0000 0.0000 0.0000 42.0560 0.0000 0.0000
# 5 0.0000 0.0000 0.0000 0.0000 -903.3899 0.0000
# 6 0.0000 0.0000 0.0000 0.0000 0.0000 37.9974
#
#
#
# Elastic Compliance Matrix: (Units=1/GPa)
#
#
# Indices 1 2 3 4 5 6 
#
# 1 0.009506 -0.002467 -0.007199 0.000000 0.000000 0.000000
# 2 -0.002467 0.010684 -0.009139 0.000000 0.000000 0.000000
# 3 -0.007199 -0.009139 0.042279 0.000000 0.000000 0.000000
# 4 0.000000 0.000000 0.000000 0.023778 0.000000 0.000000
# 5 0.000000 0.000000 0.000000 0.000000 -0.001107 0.000000
# 6 0.000000 0.000000 0.000000 0.000000 0.000000 0.026318
#
#
# Mechanical properties :
#
#
# Convention : Reuss Voigt Hill
#
# Bulk Modulus (GPa) = 40.22886 73.41658 56.82272
# Shear Modulus (GPa) = 31.77547 -152.27354 -60.24903
#
# Velocity S-wave (km/s) = 4.05074 -8.86749 -5.57781
# Velocity P-wave (km/s) = 6.53083 8.18117 3.48424
#
# Compressibility (1/GPa) = 0.02485778
#
# Stress axis : x y z
#
# Youngs Moduli (GPa) = 105.19667 93.59615 23.65268
#
# Poissons Ratio (x) = 0.23094 0.17027
# Poissons Ratio (y) = 0.25956 0.21617
# Poissons Ratio (z) = 0.75727 0.85542
#
# Static dielectric constant tensor:
#      x y z
#    x 3.821080 0.000000 0.000000 
#    y 0.000000 3.659660 0.000000 
#    z 0.000000 0.000000 3.408790 
# 
# 
# High freq. dielectric constant tensor:
#      x y z
#    x 1.777650 0.000000 0.000000 
#    y 0.000000 1.772360 0.000000 
#    z 0.000000 0.000000 1.752700 
# 
# From -- ./inp_files/2884.got.cif
#   From: 2010.06.25/outbox.cif.g09.slc.cpg/sg58_2_cif.got.tgz:2884.got - 2010.06.26 21:38:00.
