data_PCOD8238026
_publ_section_title
;
Structure prediction by ZEFSAII (Michael W. Deem and Ramdas Pophale) SiO2 
 PCOD8238026
Probable space group: P N N M
;
_chemical_formula_sum "Si O2"
_cell_formula_units_Z 64
_cell_length_a 29.659786
_cell_length_b 12.882415
_cell_length_c 8.431287
_cell_angle_alpha 90.000000
_cell_angle_beta 90.000000
_cell_angle_gamma 90.000000
_cell_volume 3221.507685
_symmetry_space_group_name_H-M "P N N M"
_symmetry_group_IT_number 58
_symmetry_cell_setting 'orthorhombic'
loop_
_space_group_symop_operation_xyz
x,y,z
-x,-y,z
1/2+x,1/2-y,1/2-z
1/2-x,1/2+y,1/2-z
-x,-y,-z
x,y,-z
1/2-x,1/2+y,1/2+z
1/2+x,1/2-y,1/2+z
loop_
_atom_site_type_symbol
_atom_site_label
_atom_site_fract_x
_atom_site_fract_y
_atom_site_fract_z
Si Si1 0.968297 0.789627 0.813639
Si Si2 0.931415 0.181904 0.810193
Si Si3 0.119656 0.617239 0.187500
Si Si4 0.696541 0.372069 0.316819
Si Si5 0.682996 0.159305 0.180459
Si Si6 0.907959 0.605872 0.185768
Si Si7 0.284114 0.042518 0.317762
Si Si8 0.101794 0.040150 0.811601
O O1 0.953557 0.670185 0.776753
O O2 0.933123 0.874032 0.742572
O O3 0.017888 0.807402 0.741827
O O4 0.970405 0.808002 0.000000
O O5 0.902189 0.278324 0.740501
O O6 0.910870 0.074032 0.746014
O O7 0.931341 0.185407 0.000000
O O8 0.090368 0.515213 0.239564
O O9 0.171721 0.606178 0.243480
O O10 0.118876 0.624256 0.000000
O O11 0.689976 0.342253 0.500000
O O12 0.704681 0.270594 0.211740
O O13 0.741449 0.438559 0.293900
O O14 0.652556 0.434218 0.255189
O O15 0.630019 0.166732 0.216572
O O16 0.705293 0.078674 0.301328
O O17 0.691926 0.125404 0.000000
O O18 0.895930 0.612977 0.000000
O O19 0.272994 0.068745 0.500000
O O20 0.099112 0.039212 0.000000
#
# Coordination Sequence:
#
# PCOD8238026 Si02
#       8
#     8   8   8   8   8   8   8   8
#     4   9  15  25  45  72 104 142 177 216 267 323
#     4   9  16  26  43  73 108 139 174 215 270 330
#     4   8  16  29  45  68 104 142 171 218 274 320
#     4  11  21  35  55  80 109 141 181 226 277 331
#     4  11  21  35  55  78 103 138 181 225 273 324
#     4   9  16  30  50  73 105 138 171 218 271 317
#     4  10  21  37  55  78 109 141 179 227 282 335
#     4   9  17  28  44  70 108 144 173 217 269 319
#
# _framework density 19.866474
#
# number of rings (size 3 to 8) (size 9 to 14) (size 15 to 20)
#    0.000    2.500    1.250    3.000    0.000    3.000 
#    0.000    5.000    0.000    0.000    0.000   11.375 
#    0.000    0.000    0.000    0.000    0.000    0.000 
#
# Total GULP energy -793322.933322 kJ/mol
# GULP energy per Si atom -12395.670833 kJ/mol
# Density = 1.982126 g / cm^3
# Si number density = 19.866474 Si / 1000 Ang^3
#
#
#
# Elastic Constant Matrix: (Units=GPa)
#
#
# Indices 1 2 3 4 5 6 
#
# 1 152.0574 82.4679 9.7568 0.0000 0.0000 0.0000
# 2 82.4679 139.4759 8.5710 0.0000 0.0000 0.0000
# 3 9.7568 8.5710 29.6202 0.0000 0.0000 0.0000
# 4 0.0000 0.0000 0.0000 13.7650 0.0000 0.0000
# 5 0.0000 0.0000 0.0000 0.0000 17.7879 0.0000
# 6 0.0000 0.0000 0.0000 0.0000 0.0000 27.9424
#
#
#
# Elastic Compliance Matrix: (Units=1/GPa)
#
#
# Indices 1 2 3 4 5 6 
#
# 1 0.009752 -0.005670 -0.001572 0.000000 0.000000 0.000000
# 2 -0.005670 0.010596 -0.001198 0.000000 0.000000 0.000000
# 3 -0.001572 -0.001198 0.034625 0.000000 0.000000 0.000000
# 4 0.000000 0.000000 0.000000 0.072648 0.000000 0.000000
# 5 0.000000 0.000000 0.000000 0.000000 0.056218 0.000000
# 6 0.000000 0.000000 0.000000 0.000000 0.000000 0.035788
#
#
# Mechanical properties :
#
#
# Convention : Reuss Voigt Hill
#
# Bulk Modulus (GPa) = 26.25119 58.08276 42.16698
# Shear Modulus (GPa) = 20.06382 26.58956 23.32669
#
# Velocity S-wave (km/s) = 3.18139 3.66240 3.43034
# Velocity P-wave (km/s) = 5.17083 6.86908 6.07955
#
# Compressibility (1/GPa) = 0.03809351
#
# Stress axis : x y z
#
# Youngs Moduli (GPa) = 102.54095 94.37878 28.88059
#
# Poissons Ratio (x) = 0.53509 0.04539
# Poissons Ratio (y) = 0.58137 0.03461
# Poissons Ratio (z) = 0.16117 0.11311
#
# Static dielectric constant tensor:
#      x y z
#    x 3.742470 0.000000 0.000000 
#    y 0.000000 3.847710 0.000000 
#    z 0.000000 0.000000 3.035370 
# 
# 
# High freq. dielectric constant tensor:
#      x y z
#    x 1.772490 0.000000 0.000000 
#    y 0.000000 1.782030 0.000000 
#    z 0.000000 0.000000 1.719010 
# 
# From -- ./inp_files/11007.got.cif
#   From: 2010.06.25/outbox.cif.g09.slc.cpg/sg58_6_cif.got.tgz:11007.got - 2010.06.26 21:38:00.
