data_PCOD8238529
_publ_section_title
;
Structure prediction by ZEFSAII (Michael W. Deem and Ramdas Pophale) SiO2 
 PCOD8238529
Probable space group: P N N M
;
_chemical_formula_sum "Si O2"
_cell_formula_units_Z 48
_cell_length_a 30.428160
_cell_length_b 9.397654
_cell_length_c 7.944806
_cell_angle_alpha 90.000000
_cell_angle_beta 90.000000
_cell_angle_gamma 90.000000
_cell_volume 2271.843649
_symmetry_space_group_name_H-M "P N N M"
_symmetry_group_IT_number 58
_symmetry_cell_setting 'orthorhombic'
loop_
_space_group_symop_operation_xyz
x,y,z
-x,-y,z
1/2+x,1/2-y,1/2-z
1/2-x,1/2+y,1/2-z
-x,-y,-z
x,y,-z
1/2-x,1/2+y,1/2+z
1/2+x,1/2-y,1/2+z
loop_
_atom_site_type_symbol
_atom_site_label
_atom_site_fract_x
_atom_site_fract_y
_atom_site_fract_z
Si Si1 0.528404 0.636011 0.818113
Si Si2 0.635261 0.966741 0.191077
Si Si3 0.213213 0.352649 0.807163
Si Si4 0.708103 0.470932 0.691913
Si Si5 0.371588 0.361039 0.805598
Si Si6 0.923197 0.511040 0.000000
Si Si7 0.007474 0.703519 0.000000
O O1 0.500000 0.500000 0.854930
O O2 0.578070 0.604027 0.757905
O O3 0.501448 0.713239 0.673170
O O4 0.530948 0.719781 0.000000
O O5 0.681624 0.046971 0.197416
O O6 0.603575 0.040779 0.328525
O O7 0.641023 0.801546 0.240941
O O8 0.616254 0.980175 0.000000
O O9 0.261743 0.419501 0.796042
O O10 0.212041 0.190568 0.736748
O O11 0.197229 0.353256 0.000000
O O12 0.724115 0.470759 0.500000
O O13 0.658322 0.528426 0.702458
O O14 0.362345 0.390450 0.000000
O O15 0.942148 0.351595 0.000000
O O16 0.967637 0.597204 0.000000
#
# Coordination Sequence:
#
# PCOD8238529 Si02
#       7
#     8   8   8   8   8   4   4
#     4  10  22  41  64  93 128 170 219 271 328 388
#     4  11  23  42  68  94 129 172 217 264 324 387
#     4  11  24  43  63  94 133 167 214 264 316 387
#     4  11  25  40  63  95 128 170 213 262 324 383
#     4  10  22  40  64  93 124 167 219 267 323 388
#     4  11  24  40  64  98 126 174 214 268 325 386
#     4  11  23  40  64  94 133 165 222 266 328 389
#
# _framework density 21.128215000000001
#
# number of rings (size 3 to 8) (size 9 to 14) (size 15 to 20)
#    0.000    1.333    2.500    2.250    2.333    8.667 
#    0.000    3.333    0.000    0.000    0.000    0.000 
#    0.000    0.000    0.000    0.000    0.000    0.000 
#
# Total GULP energy -595052.389623 kJ/mol
# GULP energy per Si atom -12396.924784 kJ/mol
# Density = 2.108013 g / cm^3
# Si number density = 21.128215 Si / 1000 Ang^3
#
#
#
# Elastic Constant Matrix: (Units=GPa)
#
#
# Indices 1 2 3 4 5 6 
#
# 1 107.7515 58.8466 29.3797 0.0000 0.0000 0.0000
# 2 58.8466 114.6733 30.9262 0.0000 0.0000 0.0000
# 3 29.3797 30.9262 109.4515 0.0000 0.0000 0.0000
# 4 0.0000 0.0000 0.0000 30.2893 0.0000 0.0000
# 5 0.0000 0.0000 0.0000 0.0000 29.1143 0.0000
# 6 0.0000 0.0000 0.0000 0.0000 0.0000 32.5377
#
#
#
# Elastic Compliance Matrix: (Units=1/GPa)
#
#
# Indices 1 2 3 4 5 6 
#
# 1 0.013202 -0.006299 -0.001764 0.000000 0.000000 0.000000
# 2 -0.006299 0.012445 -0.001826 0.000000 0.000000 0.000000
# 3 -0.001764 -0.001826 0.010126 0.000000 0.000000 0.000000
# 4 0.000000 0.000000 0.000000 0.033015 0.000000 0.000000
# 5 0.000000 0.000000 0.000000 0.000000 0.034347 0.000000
# 6 0.000000 0.000000 0.000000 0.000000 0.000000 0.030734
#
#
# Mechanical properties :
#
#
# Convention : Reuss Voigt Hill
#
# Bulk Modulus (GPa) = 62.51695 63.35349 62.93522
# Shear Modulus (GPa) = 31.45100 32.56983 32.01041
#
# Velocity S-wave (km/s) = 3.86240 3.93049 3.89659
# Velocity P-wave (km/s) = 7.03877 7.11679 7.07789
#
# Compressibility (1/GPa) = 0.01599566
#
# Stress axis : x y z
#
# Youngs Moduli (GPa) = 75.74838 80.35224 98.75779
#
# Poissons Ratio (x) = 0.50613 0.17419
# Poissons Ratio (y) = 0.47713 0.18030
# Poissons Ratio (z) = 0.13361 0.14670
#
# Static dielectric constant tensor:
#      x y z
#    x 3.762490 0.000000 0.000000 
#    y 0.000000 3.799710 0.000000 
#    z 0.000000 0.000000 2.641520 
# 
# 
# High freq. dielectric constant tensor:
#      x y z
#    x 1.830980 0.000000 0.000000 
#    y 0.000000 1.814060 0.000000 
#    z 0.000000 0.000000 1.839230 
# 
# From -- ./inp_files/3077.got.cif
#   From: 2010.06.25/outbox.cif.g09.slc.cpg/sg58_2_cif.got.tgz:3077.got - 2010.06.26 21:38:00.
