data_PCOD8238702
_publ_section_title
;
Structure prediction by ZEFSAII (Michael W. Deem and Ramdas Pophale) SiO2 
 PCOD8238702
Probable space group: P N N M
;
_chemical_formula_sum "Si O2"
_cell_formula_units_Z 48
_cell_length_a 8.579052
_cell_length_b 9.600319
_cell_length_c 27.954371
_cell_angle_alpha 90.000000
_cell_angle_beta 90.000000
_cell_angle_gamma 90.000000
_cell_volume 2302.367727
_symmetry_space_group_name_H-M "P N N M"
_symmetry_group_IT_number 58
_symmetry_cell_setting 'orthorhombic'
loop_
_space_group_symop_operation_xyz
x,y,z
-x,-y,z
1/2+x,1/2-y,1/2-z
1/2-x,1/2+y,1/2-z
-x,-y,-z
x,y,-z
1/2-x,1/2+y,1/2+z
1/2+x,1/2-y,1/2+z
loop_
_atom_site_type_symbol
_atom_site_label
_atom_site_fract_x
_atom_site_fract_y
_atom_site_fract_z
Si Si1 0.814033 0.710557 0.303076
Si Si2 0.458235 0.156688 0.115994
Si Si3 0.647452 0.431820 0.276549
Si Si4 0.404987 0.633922 0.617832
Si Si5 0.104677 0.626235 0.877203
Si Si6 0.875924 0.879370 0.554166
O O1 0.777387 0.549559 0.288845
O O2 0.798983 0.803925 0.255875
O O3 0.686279 0.780308 0.336952
O O4 0.982011 0.709236 0.331002
O O5 0.275109 0.157581 0.105901
O O6 0.548506 0.240690 0.075399
O O7 0.500000 0.000000 0.108331
O O8 0.500000 0.500000 0.249087
O O9 0.581399 0.365379 0.324884
O O10 0.500000 0.500000 0.596962
O O11 0.489512 0.768046 0.595599
O O12 0.227994 0.568325 0.915323
O O13 0.000000 0.500000 0.855681
O O14 0.823565 0.849554 0.500000
O O15 0.000000 0.000000 0.557403
#
# Coordination Sequence:
#
# PCOD8238702 Si02
#       6
#     8   8   8   8   8   8
#     4  11  25  40  59  92 126 176 219 270 309 373
#     4  11  22  41  68  91 124 170 214 259 323 378
#     4  11  24  39  58  88 126 173 217 269 315 356
#     4  11  21  42  60  86 127 168 211 264 317 367
#     4  11  23  40  65  94 126 171 213 260 322 383
#     4  10  23  45  69  99 130 158 204 260 321 397
#
# _framework density 20.848102000000001
#
# number of rings (size 3 to 8) (size 9 to 14) (size 15 to 20)
#    0.000    1.167    5.000    2.000    4.667    3.333 
#    0.000    0.833    0.000    2.000    0.000    0.000 
#    0.000    0.000    0.000    0.000    0.000    0.000 
#
# Total GULP energy -594682.969266 kJ/mol
# GULP energy per Si atom -12389.228526 kJ/mol
# Density = 2.080065 g / cm^3
# Si number density = 20.848102 Si / 1000 Ang^3
#
#
#
# Elastic Constant Matrix: (Units=GPa)
#
#
# Indices 1 2 3 4 5 6 
#
# 1 103.5092 9.3098 3.4184 0.0000 0.0000 0.0000
# 2 9.3098 90.0963 14.4768 0.0000 0.0000 0.0000
# 3 3.4184 14.4768 61.1277 0.0000 0.0000 0.0000
# 4 0.0000 0.0000 0.0000 23.3392 0.0000 0.0000
# 5 0.0000 0.0000 0.0000 0.0000 13.0825 0.0000
# 6 0.0000 0.0000 0.0000 0.0000 0.0000 37.3813
#
#
#
# Elastic Compliance Matrix: (Units=1/GPa)
#
#
# Indices 1 2 3 4 5 6 
#
# 1 0.009758 -0.000957 -0.000319 0.000000 0.000000 0.000000
# 2 -0.000957 0.011632 -0.002701 0.000000 0.000000 0.000000
# 3 -0.000319 -0.002701 0.017017 0.000000 0.000000 0.000000
# 4 0.000000 0.000000 0.000000 0.042846 0.000000 0.000000
# 5 0.000000 0.000000 0.000000 0.000000 0.076438 0.000000
# 6 0.000000 0.000000 0.000000 0.000000 0.000000 0.026751
#
#
# Mechanical properties :
#
#
# Convention : Reuss Voigt Hill
#
# Bulk Modulus (GPa) = 32.83871 34.34925 33.59398
# Shear Modulus (GPa) = 24.68558 29.92914 27.30736
#
# Velocity S-wave (km/s) = 3.44476 3.79302 3.62308
# Velocity P-wave (km/s) = 5.62205 5.97448 5.80094
#
# Compressibility (1/GPa) = 0.03045186
#
# Stress axis : x y z
#
# Youngs Moduli (GPa) = 102.48431 85.96843 58.76546
#
# Poissons Ratio (x) = 0.08227 0.01875
# Poissons Ratio (y) = 0.09808 0.15874
# Poissons Ratio (z) = 0.03269 0.23223
#
# Static dielectric constant tensor:
#      x y z
#    x 4.213080 0.000000 0.000000 
#    y 0.000000 3.989820 0.000000 
#    z 0.000000 0.000000 3.528020 
# 
# 
# High freq. dielectric constant tensor:
#      x y z
#    x 1.835840 0.000000 0.000000 
#    y 0.000000 1.831500 0.000000 
#    z 0.000000 0.000000 1.775210 
# 
# From -- ./inp_files/34573.got.cif
#   From: 2010.06.25/outbox.cif.g09.slc.cpg/sg58_18_cif.got.tgz:34573.got - 2010.06.26 21:38:00.
