data_PCOD8238021
_publ_section_title
;
Structure prediction by ZEFSAII (Michael W. Deem and Ramdas Pophale) SiO2 
 PCOD8238021
Probable space group: P N N M
;
_chemical_formula_sum "Si O2"
_cell_formula_units_Z 64
_cell_length_a 24.731482
_cell_length_b 15.248383
_cell_length_c 9.038365
_cell_angle_alpha 90.000000
_cell_angle_beta 90.000000
_cell_angle_gamma 90.000000
_cell_volume 3408.504008
_symmetry_space_group_name_H-M "P N N M"
_symmetry_group_IT_number 58
_symmetry_cell_setting 'orthorhombic'
loop_
_space_group_symop_operation_xyz
x,y,z
-x,-y,z
1/2+x,1/2-y,1/2-z
1/2-x,1/2+y,1/2-z
-x,-y,-z
x,y,-z
1/2-x,1/2+y,1/2+z
1/2+x,1/2-y,1/2+z
loop_
_atom_site_type_symbol
_atom_site_label
_atom_site_fract_x
_atom_site_fract_y
_atom_site_fract_z
Si Si1 0.311574 0.810928 0.827660
Si Si2 0.081644 0.055858 0.174934
Si Si3 0.189816 0.113929 0.326670
Si Si4 0.968069 0.119574 0.827542
Si Si5 0.110844 0.546225 0.331509
Si Si6 0.568085 0.141447 0.167083
Si Si7 0.283331 0.982908 0.675317
Si Si8 0.461249 0.185255 0.327414
O O1 0.290346 0.713332 0.788590
O O2 0.374826 0.816728 0.784503
O O3 0.277374 0.884123 0.738812
O O4 0.304722 0.833843 0.000000
O O5 0.133435 0.096898 0.249734
O O6 0.028926 0.108080 0.235640
O O7 0.073787 0.954560 0.228503
O O8 0.089814 0.063862 0.000000
O O9 0.180351 0.105969 0.500000
O O10 0.233302 0.042792 0.271352
O O11 0.944378 0.214871 0.791768
O O12 0.975463 0.103715 0.000000
O O13 0.128443 0.564845 0.500000
O O14 0.071039 0.463570 0.323704
O O15 0.163507 0.530312 0.234371
O O16 0.079083 0.628608 0.268911
O O17 0.523395 0.172803 0.282248
O O18 0.552563 0.170222 0.000000
O O19 0.286582 0.977514 0.500000
O O20 0.455252 0.162199 0.500000
#
# Coordination Sequence:
#
# PCOD8238021 Si02
#       8
#     8   8   8   8   8   8   8   8
#     4   9  19  37  58  79 107 144 178 216 272 330
#     4   9  17  34  58  78 103 142 182 218 258 313
#     4  10  21  37  57  83 112 139 175 226 277 318
#     4   8  17  33  51  77 111 141 174 218 263 310
#     4  10  21  37  53  71 103 143 180 220 267 323
#     4   9  18  32  51  74 102 135 176 219 260 315
#     4  10  21  38  57  79 109 140 177 232 275 310
#     4  11  20  30  49  78 109 140 176 216 265 321
#
# _framework density 18.776565000000002
#
# number of rings (size 3 to 8) (size 9 to 14) (size 15 to 20)
#    0.000    2.500    0.000    3.750    0.000    5.500 
#    2.250    3.125    0.000    0.000    0.000    0.000 
#    0.000    0.000    0.000    0.000    0.000    0.000 
#
# Total GULP energy -793468.340083 kJ/mol
# GULP energy per Si atom -12397.942814 kJ/mol
# Density = 1.873383 g / cm^3
# Si number density = 18.776565 Si / 1000 Ang^3
#
#
#
# Elastic Constant Matrix: (Units=GPa)
#
#
# Indices 1 2 3 4 5 6 
#
# 1 53.0390 41.7715 22.3975 0.0000 0.0000 0.0000
# 2 41.7715 119.3280 41.1301 0.0000 0.0000 0.0000
# 3 22.3975 41.1301 47.7061 0.0000 0.0000 0.0000
# 4 0.0000 0.0000 0.0000 61.7990 0.0000 0.0000
# 5 0.0000 0.0000 0.0000 0.0000 22.3172 0.0000
# 6 0.0000 0.0000 0.0000 0.0000 0.0000 26.8768
#
#
#
# Elastic Compliance Matrix: (Units=1/GPa)
#
#
# Indices 1 2 3 4 5 6 
#
# 1 0.027391 -0.007336 -0.006535 0.000000 0.000000 0.000000
# 2 -0.007336 0.013888 -0.008530 0.000000 0.000000 0.000000
# 3 -0.006535 -0.008530 0.031384 0.000000 0.000000 0.000000
# 4 0.000000 0.000000 0.000000 0.016181 0.000000 0.000000
# 5 0.000000 0.000000 0.000000 0.000000 0.044808 0.000000
# 6 0.000000 0.000000 0.000000 0.000000 0.000000 0.037207
#
#
# Mechanical properties :
#
#
# Convention : Reuss Voigt Hill
#
# Bulk Modulus (GPa) = 35.89156 47.85236 41.87196
# Shear Modulus (GPa) = 22.22727 29.85022 26.03874
#
# Velocity S-wave (km/s) = 3.44434 3.99150 3.72797
# Velocity P-wave (km/s) = 5.91393 6.83983 6.39366
#
# Compressibility (1/GPa) = 0.02786170
#
# Stress axis : x y z
#
# Youngs Moduli (GPa) = 36.50802 72.00308 31.86356
#
# Poissons Ratio (x) = 0.52821 0.20823
# Poissons Ratio (y) = 0.26782 0.27179
# Poissons Ratio (z) = 0.23859 0.61417
#
# Static dielectric constant tensor:
#      x y z
#    x 3.262880 0.000000 0.000000 
#    y 0.000000 3.815790 0.000000 
#    z 0.000000 0.000000 3.311080 
# 
# 
# High freq. dielectric constant tensor:
#      x y z
#    x 1.711160 0.000000 0.000000 
#    y 0.000000 1.742980 0.000000 
#    z 0.000000 0.000000 1.718620 
# 
# From -- ./inp_files/9929.got.cif
#   From: 2010.06.25/outbox.cif.g09.slc.cpg/sg58_5_cif.got.tgz:9929.got - 2010.06.26 21:38:00.
