data_PCOD8238769
_publ_section_title
;
Structure prediction by ZEFSAII (Michael W. Deem and Ramdas Pophale) SiO2 
 PCOD8238769
Probable space group: P N N M
;
_chemical_formula_sum "Si O2"
_cell_formula_units_Z 40
_cell_length_a 8.290580
_cell_length_b 11.969759
_cell_length_c 20.888097
_cell_angle_alpha 90.000000
_cell_angle_beta 90.000000
_cell_angle_gamma 90.000000
_cell_volume 2072.856302
_symmetry_space_group_name_H-M "P N N M"
_symmetry_group_IT_number 58
_symmetry_cell_setting 'orthorhombic'
loop_
_space_group_symop_operation_xyz
x,y,z
-x,-y,z
1/2+x,1/2-y,1/2-z
1/2-x,1/2+y,1/2-z
-x,-y,-z
x,y,-z
1/2-x,1/2+y,1/2+z
1/2+x,1/2-y,1/2+z
loop_
_atom_site_type_symbol
_atom_site_label
_atom_site_fract_x
_atom_site_fract_y
_atom_site_fract_z
Si Si1 0.832615 0.553922 0.316221
Si Si2 0.684405 0.511854 0.813665
Si Si3 0.837359 0.740676 0.835366
Si Si4 0.831203 0.937180 0.927044
Si Si5 0.301051 0.218184 0.704975
O O1 0.695553 0.527090 0.263307
O O2 0.797930 0.505761 0.386143
O O3 0.827580 0.689056 0.320610
O O4 0.000000 0.500000 0.290965
O O5 0.500000 0.500000 0.834830
O O6 0.776022 0.614327 0.848976
O O7 0.768586 0.396035 0.833406
O O8 0.835846 0.810416 0.900999
O O9 0.721477 0.797307 0.781910
O O10 0.015520 0.749705 0.806955
O O11 0.772226 0.932932 0.000000
O O12 0.000000 0.000000 0.920498
#
# Coordination Sequence:
#
# PCOD8238769 Si02
#       5
#     8   8   8   8   8
#     4  11  22  35  60  90 124 155 202 252 307 364
#     4  11  22  34  57  91 124 157 190 253 317 369
#     4  11  22  35  60  90 123 158 201 249 313 367
#     4  11  23  42  63  86 123 166 209 249 296 371
#     4  11  20  35  56  90 124 154 191 258 311 370
#
# _framework density 19.297045000000001
#
# number of rings (size 3 to 8) (size 9 to 14) (size 15 to 20)
#    0.000    1.000    4.000    6.000    2.800    0.400 
#    0.000    0.000    0.000    4.200    0.000    0.000 
#    0.000    0.000    0.000    0.000    0.000    0.000 
#
# Total GULP energy -495875.987254 kJ/mol
# GULP energy per Si atom -12396.899681 kJ/mol
# Density = 1.925312 g / cm^3
# Si number density = 19.297045 Si / 1000 Ang^3
#
#
#
# Elastic Constant Matrix: (Units=GPa)
#
#
# Indices 1 2 3 4 5 6 
#
# 1 66.1702 23.8238 17.7136 0.0000 0.0000 0.0000
# 2 23.8238 158.3117 36.3625 0.0000 0.0000 0.0000
# 3 17.7136 36.3625 93.2310 0.0000 0.0000 0.0000
# 4 0.0000 0.0000 0.0000 25.3200 0.0000 0.0000
# 5 0.0000 0.0000 0.0000 0.0000 14.1339 0.0000
# 6 0.0000 0.0000 0.0000 0.0000 0.0000 37.7649
#
#
#
# Elastic Compliance Matrix: (Units=1/GPa)
#
#
# Indices 1 2 3 4 5 6 
#
# 1 0.016442 -0.001930 -0.002371 0.000000 0.000000 0.000000
# 2 -0.001930 0.007165 -0.002428 0.000000 0.000000 0.000000
# 3 -0.002371 -0.002428 0.012123 0.000000 0.000000 0.000000
# 4 0.000000 0.000000 0.000000 0.039494 0.000000 0.000000
# 5 0.000000 0.000000 0.000000 0.000000 0.070752 0.000000
# 6 0.000000 0.000000 0.000000 0.000000 0.000000 0.026480
#
#
# Mechanical properties :
#
#
# Convention : Reuss Voigt Hill
#
# Bulk Modulus (GPa) = 44.89796 52.61253 48.75525
# Shear Modulus (GPa) = 25.86145 31.43128 28.64637
#
# Velocity S-wave (km/s) = 3.66481 4.04023 3.85709
# Velocity P-wave (km/s) = 6.42068 7.00631 6.71988
#
# Compressibility (1/GPa) = 0.02227272
#
# Stress axis : x y z
#
# Youngs Moduli (GPa) = 60.81955 139.57361 82.48450
#
# Poissons Ratio (x) = 0.26933 0.19560
# Poissons Ratio (y) = 0.11736 0.20025
# Poissons Ratio (z) = 0.14422 0.33885
#
# Static dielectric constant tensor:
#      x y z
#    x 3.493860 0.000000 0.000000 
#    y 0.000000 4.063490 0.000000 
#    z 0.000000 0.000000 3.087790 
# 
# 
# High freq. dielectric constant tensor:
#      x y z
#    x 1.757750 0.000000 0.000000 
#    y 0.000000 1.779000 0.000000 
#    z 0.000000 0.000000 1.685110 
# 
# From -- ./inp_files/28732.got.cif
#   From: 2010.06.25/outbox.cif.g09.slc.cpg/sg58_15_cif.got.tgz:28732.got - 2010.06.26 21:38:00.
