data_PCOD8238664
_publ_section_title
;
Structure prediction by ZEFSAII (Michael W. Deem and Ramdas Pophale) SiO2 
 PCOD8238664
Probable space group: P N N M
;
_chemical_formula_sum "Si O2"
_cell_formula_units_Z 48
_cell_length_a 18.339900
_cell_length_b 14.565312
_cell_length_c 8.958582
_cell_angle_alpha 90.000000
_cell_angle_beta 90.000000
_cell_angle_gamma 90.000000
_cell_volume 2393.073450
_symmetry_space_group_name_H-M "P N N M"
_symmetry_group_IT_number 58
_symmetry_cell_setting 'orthorhombic'
loop_
_space_group_symop_operation_xyz
x,y,z
-x,-y,z
1/2+x,1/2-y,1/2-z
1/2-x,1/2+y,1/2-z
-x,-y,-z
x,y,-z
1/2-x,1/2+y,1/2+z
1/2+x,1/2-y,1/2+z
loop_
_atom_site_type_symbol
_atom_site_label
_atom_site_fract_x
_atom_site_fract_y
_atom_site_fract_z
Si Si1 0.425719 0.051670 0.172357
Si Si2 0.679912 0.394648 0.170006
Si Si3 0.768316 0.215041 0.174181
Si Si4 0.971015 0.901148 0.824704
Si Si5 0.920098 0.236096 0.674611
Si Si6 0.204815 0.452165 0.171231
O O1 0.435826 0.158152 0.212301
O O2 0.500000 0.000000 0.210972
O O3 0.363187 0.011359 0.275440
O O4 0.403647 0.038235 0.000000
O O5 0.735873 0.314195 0.212403
O O6 0.613379 0.392316 0.283469
O O7 0.721193 0.490387 0.190641
O O8 0.651928 0.382397 0.000000
O O9 0.844537 0.202029 0.256780
O O10 0.710982 0.139504 0.231091
O O11 0.781906 0.201475 0.000000
O O12 0.014046 0.821376 0.741918
O O13 0.981022 0.888025 0.000000
O O14 0.000000 0.000000 0.771380
O O15 0.916399 0.217432 0.500000
O O16 0.192008 0.424955 0.000000
#
# Coordination Sequence:
#
# PCOD8238664 Si02
#       6
#     8   8   8   8   8   8
#     4  10  23  42  63  90 126 168 210 255 311 375
#     4  10  23  42  63  89 125 163 204 254 309 369
#     4  11  23  41  64  91 125 164 206 256 314 369
#     4  11  25  42  63  92 126 165 208 257 314 371
#     4  11  23  41  66  94 127 167 210 256 312 372
#     4  11  23  41  65  95 125 161 208 258 312 371
#
# _framework density 20.057887999999998
#
# number of rings (size 3 to 8) (size 9 to 14) (size 15 to 20)
#    0.000    1.333    1.667    3.000    2.333    7.667 
#    0.000    0.000    0.000    0.000    0.000    0.000 
#    0.000    0.000    0.000    0.000    0.000    0.000 
#
# Total GULP energy -595576.951805 kJ/mol
# GULP energy per Si atom -12407.853163 kJ/mol
# Density = 2.001224 g / cm^3
# Si number density = 20.057888 Si / 1000 Ang^3
#
#
#
# Elastic Constant Matrix: (Units=GPa)
#
#
# Indices 1 2 3 4 5 6 
#
# 1 92.2051 20.7673 40.1469 0.0000 0.0000 0.0000
# 2 20.7673 93.9097 43.4741 0.0000 0.0000 0.0000
# 3 40.1469 43.4741 81.0829 0.0000 0.0000 0.0000
# 4 0.0000 0.0000 0.0000 31.7077 0.0000 0.0000
# 5 0.0000 0.0000 0.0000 0.0000 2.0606 0.0000
# 6 0.0000 0.0000 0.0000 0.0000 0.0000 32.9138
#
#
#
# Elastic Compliance Matrix: (Units=1/GPa)
#
#
# Indices 1 2 3 4 5 6 
#
# 1 0.013828 0.000149 -0.006926 0.000000 0.000000 0.000000
# 2 0.000149 0.014166 -0.007669 0.000000 0.000000 0.000000
# 3 -0.006926 -0.007669 0.019874 0.000000 0.000000 0.000000
# 4 0.000000 0.000000 0.000000 0.031538 0.000000 0.000000
# 5 0.000000 0.000000 0.000000 0.000000 0.485300 0.000000
# 6 0.000000 0.000000 0.000000 0.000000 0.000000 0.030382
#
#
# Mechanical properties :
#
#
# Convention : Reuss Voigt Hill
#
# Bulk Modulus (GPa) = 52.70157 52.88604 52.79380
# Shear Modulus (GPa) = 7.93265 24.19038 16.06152
#
# Velocity S-wave (km/s) = 1.99085 3.47656 2.83284
# Velocity P-wave (km/s) = 5.62285 6.52221 6.08916
#
# Compressibility (1/GPa) = 0.01897477
#
# Stress axis : x y z
#
# Youngs Moduli (GPa) = 72.31886 70.59228 50.31642
#
# Poissons Ratio (x) = -0.01048 0.34850
# Poissons Ratio (y) = -0.01074 0.38587
# Poissons Ratio (z) = 0.50089 0.54136
#
# Static dielectric constant tensor:
#      x y z
#    x 3.564040 0.000000 0.000000 
#    y 0.000000 3.828810 0.000000 
#    z 0.000000 0.000000 3.666530 
# 
# 
# High freq. dielectric constant tensor:
#      x y z
#    x 1.787530 0.000000 0.000000 
#    y 0.000000 1.798620 0.000000 
#    z 0.000000 0.000000 1.789750 
# 
# From -- ./inp_files/5827.got.cif
#   From: 2010.06.25/outbox.cif.g09.slc.cpg/sg58_3_cif.got.tgz:5827.got - 2010.06.26 21:38:00.
