data_PCOD8238612
_publ_section_title
;
Structure prediction by ZEFSAII (Michael W. Deem and Ramdas Pophale) SiO2 
 PCOD8238612
Probable space group: P N N M
;
_chemical_formula_sum "Si O2"
_cell_formula_units_Z 48
_cell_length_a 12.721174
_cell_length_b 12.826427
_cell_length_c 13.395620
_cell_angle_alpha 90.000000
_cell_angle_beta 90.000000
_cell_angle_gamma 90.000000
_cell_volume 2185.725937
_symmetry_space_group_name_H-M "P N N M"
_symmetry_group_IT_number 58
_symmetry_cell_setting 'orthorhombic'
loop_
_space_group_symop_operation_xyz
x,y,z
-x,-y,z
1/2+x,1/2-y,1/2-z
1/2-x,1/2+y,1/2-z
-x,-y,-z
x,y,-z
1/2-x,1/2+y,1/2+z
1/2+x,1/2-y,1/2+z
loop_
_atom_site_type_symbol
_atom_site_label
_atom_site_fract_x
_atom_site_fract_y
_atom_site_fract_z
Si Si1 0.103215 0.340951 0.706458
Si Si2 0.419778 0.421380 0.746092
Si Si3 0.733604 0.814652 0.612077
Si Si4 0.504522 0.258157 0.387924
Si Si5 0.777087 0.457383 0.285478
Si Si6 0.112201 0.729277 0.616014
O O1 0.202405 0.278260 0.663828
O O2 0.124586 0.464522 0.703698
O O3 0.083498 0.311428 0.822101
O O4 0.002251 0.317167 0.638844
O O5 0.500000 0.500000 0.803573
O O6 0.495446 0.371295 0.661961
O O7 0.327746 0.480058 0.685192
O O8 0.371833 0.336395 0.822593
O O9 0.775283 0.831046 0.500000
O O10 0.611109 0.789914 0.614818
O O11 0.745473 0.922783 0.671352
O O12 0.549597 0.264706 0.500000
O O13 0.798811 0.354810 0.352263
O O14 0.124410 0.754010 0.500000
#
# Coordination Sequence:
#
# PCOD8238612 Si02
#       6
#     8   8   8   8   8   8
#     4  11  22  42  69  96 137 179 219 283 339 399
#     4  11  24  44  69  92 134 180 223 275 330 400
#     4  11  23  42  67  95 132 176 219 269 334 408
#     4  10  22  43  67  97 134 174 223 272 329 401
#     4  12  22  41  67 101 130 172 224 283 339 392
#     4  11  25  43  65 101 137 173 226 283 337 404
#
# _framework density 21.960667000000001
#
# number of rings (size 3 to 8) (size 9 to 14) (size 15 to 20)
#    0.000    1.000    5.000    3.000    0.000    4.667 
#    0.000    7.500    0.000    0.000    0.000    0.000 
#    0.000    0.000    0.000    0.000    0.000    0.000 
#
# Total GULP energy -595107.886682 kJ/mol
# GULP energy per Si atom -12398.080973 kJ/mol
# Density = 2.191068 g / cm^3
# Si number density = 21.960667 Si / 1000 Ang^3
#
#
#
# Elastic Constant Matrix: (Units=GPa)
#
#
# Indices 1 2 3 4 5 6 
#
# 1 51.6401 22.4209 7.1859 0.0000 0.0000 0.0000
# 2 22.4209 98.9362 11.2960 0.0000 0.0000 0.0000
# 3 7.1859 11.2960 129.3292 0.0000 0.0000 0.0000
# 4 0.0000 0.0000 0.0000 10.8350 0.0000 0.0000
# 5 0.0000 0.0000 0.0000 0.0000 23.6422 0.0000
# 6 0.0000 0.0000 0.0000 0.0000 0.0000 40.1045
#
#
#
# Elastic Compliance Matrix: (Units=1/GPa)
#
#
# Indices 1 2 3 4 5 6 
#
# 1 0.021555 -0.004796 -0.000779 0.000000 0.000000 0.000000
# 2 -0.004796 0.011276 -0.000718 0.000000 0.000000 0.000000
# 3 -0.000779 -0.000718 0.007838 0.000000 0.000000 0.000000
# 4 0.000000 0.000000 0.000000 0.092294 0.000000 0.000000
# 5 0.000000 0.000000 0.000000 0.000000 0.042297 0.000000
# 6 0.000000 0.000000 0.000000 0.000000 0.000000 0.024935
#
#
# Mechanical properties :
#
#
# Convention : Reuss Voigt Hill
#
# Bulk Modulus (GPa) = 35.60784 40.19013 37.89899
# Shear Modulus (GPa) = 22.50796 30.84984 26.67890
#
# Velocity S-wave (km/s) = 3.20491 3.75210 3.48925
# Velocity P-wave (km/s) = 5.47219 6.09194 5.79036
#
# Compressibility (1/GPa) = 0.02808370
#
# Stress axis : x y z
#
# Youngs Moduli (GPa) = 46.39192 88.68064 127.57986
#
# Poissons Ratio (x) = 0.42531 0.09936
# Poissons Ratio (y) = 0.22249 0.09166
# Poissons Ratio (z) = 0.03613 0.06371
#
# Static dielectric constant tensor:
#      x y z
#    x 3.972250 0.000000 0.000000 
#    y 0.000000 4.113500 0.000000 
#    z 0.000000 0.000000 4.124570 
# 
# 
# High freq. dielectric constant tensor:
#      x y z
#    x 1.874360 0.000000 0.000000 
#    y 0.000000 1.870600 0.000000 
#    z 0.000000 0.000000 1.845550 
# 
# From -- ./inp_files/22131.got.cif
#   From: 2010.06.25/outbox.cif.g09.slc.cpg/sg58_12_cif.got.tgz:22131.got - 2010.06.26 21:38:00.
