data_PCOD8238979
_publ_section_title
;
Structure prediction by ZEFSAII (Michael W. Deem and Ramdas Pophale) SiO2 
 PCOD8238979
Probable space group: P N N M
;
_chemical_formula_sum "Si O2"
_cell_formula_units_Z 64
_cell_length_a 9.847558
_cell_length_b 34.036835
_cell_length_c 13.474393
_cell_angle_alpha 90.000000
_cell_angle_beta 90.000000
_cell_angle_gamma 90.000000
_cell_volume 4516.343095
_symmetry_space_group_name_H-M "P N N M"
_symmetry_group_IT_number 58
_symmetry_cell_setting 'orthorhombic'
loop_
_space_group_symop_operation_xyz
x,y,z
-x,-y,z
1/2+x,1/2-y,1/2-z
1/2-x,1/2+y,1/2-z
-x,-y,-z
x,y,-z
1/2-x,1/2+y,1/2+z
1/2+x,1/2-y,1/2+z
loop_
_atom_site_type_symbol
_atom_site_label
_atom_site_fract_x
_atom_site_fract_y
_atom_site_fract_z
Si Si1 0.654386 0.759654 0.889317
Si Si2 0.347632 0.456513 0.882128
Si Si3 0.347632 0.543487 0.117872
Si Si4 0.154385 0.259654 0.389317
Si Si5 0.656918 0.804570 0.696040
Si Si6 0.156918 0.304570 0.196040
Si Si7 0.343689 0.111968 0.615571
Si Si8 0.343689 0.888032 0.615571
O O1 0.500000 0.744645 0.875335
O O2 0.685807 0.794460 0.811380
O O3 0.752953 0.722892 0.873817
O O4 0.677244 0.776560 0.000000
O O5 0.500000 0.446027 0.846912
O O6 0.306800 0.500000 0.842660
O O7 0.244326 0.423953 0.840399
O O8 0.340294 0.456734 0.000000
O O9 0.244326 0.576047 0.159601
O O10 0.340294 0.543266 0.000000
O O11 0.177244 0.276560 0.500000
O O12 0.252952 0.222892 0.373817
O O13 0.185807 0.294460 0.311380
O O14 0.500000 0.797646 0.666933
O O15 0.697811 0.849537 0.677490
O O16 0.197811 0.349537 0.177490
O O17 0.312744 0.120000 0.500000
O O18 0.500000 0.100757 0.631889
O O19 0.312745 0.880000 0.500000
#
# Coordination Sequence:
#
# PCOD8238979 Si02
#       8
#     8   8   8   8   8   8   8   8
#     4   9  17  28  41  56  74  98 128 159 189 221
#     4   8  14  24  36  50  70  96 122 146 175 212
#     4   8  14  24  36  50  70  96 122 146 175 212
#     4   9  17  28  41  56  74  98 128 159 189 221
#     4   9  17  28  40  55  76 100 126 156 189 223
#     4   9  17  28  40  55  76 100 126 156 189 223
#     4   9  16  24  35  52  73  97 123 149 178 214
#     4   9  16  24  35  52  73  97 123 149 178 214
#
# _framework density 14.170756000000001
#
# number of rings (size 3 to 8) (size 9 to 14) (size 15 to 20)
#    0.000    3.250    0.000    1.500    0.000    3.000 
#    0.000    5.000    0.000    0.000    0.000    0.000 
#    0.000    1.000    0.000   12.500    0.000    2.500 
#
# Total GULP energy -793319.245808 kJ/mol
# GULP energy per Si atom -12395.613216 kJ/mol
# Density = 1.413850 g / cm^3
# Si number density = 14.170756 Si / 1000 Ang^3
#
#
#
# Elastic Constant Matrix: (Units=GPa)
#
#
# Indices 1 2 3 4 5 6 
#
# 1 69.1131 70.2028 28.9835 0.0000 0.0000 0.0000
# 2 70.2028 131.1732 38.4848 0.0000 0.0000 0.0000
# 3 28.9835 38.4848 55.9585 0.0000 0.0000 0.0000
# 4 0.0000 0.0000 0.0000 15.4461 0.0000 0.0000
# 5 0.0000 0.0000 0.0000 0.0000 13.0410 0.0000
# 6 0.0000 0.0000 0.0000 0.0000 0.0000 29.5251
#
#
#
# Elastic Compliance Matrix: (Units=1/GPa)
#
#
# Indices 1 2 3 4 5 6 
#
# 1 0.033371 -0.016021 -0.006266 0.000000 0.000000 0.000000
# 2 -0.016021 0.017243 -0.003560 0.000000 0.000000 0.000000
# 3 -0.006266 -0.003560 0.023564 0.000000 0.000000 0.000000
# 4 0.000000 0.000000 0.000000 0.064741 0.000000 0.000000
# 5 0.000000 0.000000 0.000000 0.000000 0.076681 0.000000
# 6 0.000000 0.000000 0.000000 0.000000 0.000000 0.033869
#
#
# Mechanical properties :
#
#
# Convention : Reuss Voigt Hill
#
# Bulk Modulus (GPa) = 44.47827 59.06520 51.77173
# Shear Modulus (GPa) = 16.19917 19.50737 17.85327
#
# Velocity S-wave (km/s) = 3.38471 3.71427 3.55331
# Velocity P-wave (km/s) = 6.83597 7.75667 7.31083
#
# Compressibility (1/GPa) = 0.02248289
#
# Stress axis : x y z
#
# Youngs Moduli (GPa) = 29.96644 57.99609 42.43750
#
# Poissons Ratio (x) = 0.92918 0.26590
# Poissons Ratio (y) = 0.48011 0.15108
# Poissons Ratio (z) = 0.18776 0.20647
#
# Static dielectric constant tensor:
#      x y z
#    x 2.926060 0.000000 0.000000 
#    y 0.000000 2.887020 0.000000 
#    z 0.000000 0.000000 2.558100 
# 
# 
# High freq. dielectric constant tensor:
#      x y z
#    x 1.549650 0.000000 0.000000 
#    y 0.000000 1.533940 0.000000 
#    z 0.000000 0.000000 1.498880 
# 
# From -- ./inp_files/14912.got.cif
#   From: 2010.06.25/outbox.cif.g09.slc.cpg/sg58_8_cif.got.tgz:14912.got - 2010.06.26 21:38:00.
