data_PCOD8238293
_publ_section_title
;
Structure prediction by ZEFSAII (Michael W. Deem and Ramdas Pophale) SiO2 
 PCOD8238293
Probable space group: P N N M
;
_chemical_formula_sum "Si O2"
_cell_formula_units_Z 64
_cell_length_a 34.424649
_cell_length_b 10.940173
_cell_length_c 8.506784
_cell_angle_alpha 90.000000
_cell_angle_beta 90.000000
_cell_angle_gamma 90.000000
_cell_volume 3203.753665
_symmetry_space_group_name_H-M "P N N M"
_symmetry_group_IT_number 58
_symmetry_cell_setting 'orthorhombic'
loop_
_space_group_symop_operation_xyz
x,y,z
-x,-y,z
1/2+x,1/2-y,1/2-z
1/2-x,1/2+y,1/2-z
-x,-y,-z
x,y,-z
1/2-x,1/2+y,1/2+z
1/2+x,1/2-y,1/2+z
loop_
_atom_site_type_symbol
_atom_site_label
_atom_site_fract_x
_atom_site_fract_y
_atom_site_fract_z
Si Si1 0.061786 0.253414 0.821204
Si Si2 0.732968 0.609699 0.317095
Si Si3 0.635164 0.366373 0.823468
Si Si4 0.650432 0.643692 0.179152
Si Si5 0.511623 0.635203 0.180716
Si Si6 0.578935 0.772293 0.318259
Si Si7 0.455628 0.992167 0.181357
Si Si8 0.281278 0.664736 0.684840
O O1 0.101674 0.184655 0.786994
O O2 0.025969 0.218120 0.709632
O O3 0.068118 0.396458 0.787907
O O4 0.050079 0.228201 0.000000
O O5 0.742450 0.624093 0.500000
O O6 0.688788 0.644352 0.283652
O O7 0.739409 0.465794 0.263793
O O8 0.758303 0.711009 0.225723
O O9 0.630801 0.511544 0.818879
O O10 0.677191 0.322900 0.766643
O O11 0.629068 0.317053 0.000000
O O12 0.621704 0.737661 0.261869
O O13 0.659870 0.683807 0.000000
O O14 0.500000 0.500000 0.225308
O O15 0.548068 0.663915 0.292127
O O16 0.524549 0.649880 0.000000
O O17 0.579900 0.810423 0.500000
O O18 0.564993 0.879845 0.206199
O O19 0.500000 0.000000 0.239610
O O20 0.453341 0.954115 0.000000
O O21 0.287958 0.658557 0.500000
#
# Coordination Sequence:
#
# PCOD8238293 Si02
#       8
#     8   8   8   8   8   8   8   8
#     4  12  24  38  59  86 117 150 193 244 296 350
#     4  10  21  39  64  94 127 162 203 250 303 364
#     4  10  21  39  63  89 120 158 198 242 295 352
#     4  10  21  39  63  89 120 158 198 242 295 352
#     4  11  23  38  57  82 113 151 195 239 286 345
#     4  12  24  38  59  86 117 150 193 244 296 350
#     4  11  23  41  63  81 110 156 200 242 294 354
#     4  10  21  39  64  94 127 162 203 250 303 364
#
# _framework density 19.976565999999998
#
# number of rings (size 3 to 8) (size 9 to 14) (size 15 to 20)
#    0.000    1.250    1.250    5.250    0.000    7.500 
#    2.250    0.000    0.000    0.000    0.000    0.000 
#    0.000    0.000    0.000    0.000    0.000    0.000 
#
# Total GULP energy -793668.226696 kJ/mol
# GULP energy per Si atom -12401.066042 kJ/mol
# Density = 1.993110 g / cm^3
# Si number density = 19.976566 Si / 1000 Ang^3
#
#
#
# Elastic Constant Matrix: (Units=GPa)
#
#
# Indices 1 2 3 4 5 6 
#
# 1 50.3045 11.8252 5.4232 0.0000 0.0000 0.0000
# 2 11.8252 54.8388 20.5611 0.0000 0.0000 0.0000
# 3 5.4232 20.5611 66.3639 0.0000 0.0000 0.0000
# 4 0.0000 0.0000 0.0000 27.7848 0.0000 0.0000
# 5 0.0000 0.0000 0.0000 0.0000 31.8151 0.0000
# 6 0.0000 0.0000 0.0000 0.0000 0.0000 33.7937
#
#
#
# Elastic Compliance Matrix: (Units=1/GPa)
#
#
# Indices 1 2 3 4 5 6 
#
# 1 0.020948 -0.004385 -0.000353 0.000000 0.000000 0.000000
# 2 -0.004385 0.021550 -0.006318 0.000000 0.000000 0.000000
# 3 -0.000353 -0.006318 0.017055 0.000000 0.000000 0.000000
# 4 0.000000 0.000000 0.000000 0.035991 0.000000 0.000000
# 5 0.000000 0.000000 0.000000 0.000000 0.031432 0.000000
# 6 0.000000 0.000000 0.000000 0.000000 0.000000 0.029591
#
#
# Mechanical properties :
#
#
# Convention : Reuss Voigt Hill
#
# Bulk Modulus (GPa) = 26.70955 27.45845 27.08400
# Shear Modulus (GPa) = 26.15629 27.59190 26.87410
#
# Velocity S-wave (km/s) = 3.62242 3.72050 3.67179
# Velocity P-wave (km/s) = 5.55836 5.67726 5.61813
#
# Compressibility (1/GPa) = 0.03743980
#
# Stress axis : x y z
#
# Youngs Moduli (GPa) = 47.73785 46.40437 58.63427
#
# Poissons Ratio (x) = 0.20346 0.02072
# Poissons Ratio (y) = 0.20931 0.37047
# Poissons Ratio (z) = 0.01687 0.29320
#
# Static dielectric constant tensor:
#      x y z
#    x 3.517860 0.000000 0.000000 
#    y 0.000000 3.906410 0.000000 
#    z 0.000000 0.000000 3.636450 
# 
# 
# High freq. dielectric constant tensor:
#      x y z
#    x 1.770840 0.000000 0.000000 
#    y 0.000000 1.784400 0.000000 
#    z 0.000000 0.000000 1.790080 
# 
# From -- ./inp_files/10929.got.cif
#   From: 2010.06.25/outbox.cif.g09.slc.cpg/sg58_6_cif.got.tgz:10929.got - 2010.06.26 21:38:00.
