data_PCOD8238190
_publ_section_title
;
Structure prediction by ZEFSAII (Michael W. Deem and Ramdas Pophale) SiO2 
 PCOD8238190
Probable space group: P N N M
;
_chemical_formula_sum "Si O2"
_cell_formula_units_Z 64
_cell_length_a 12.508646
_cell_length_b 28.617828
_cell_length_c 9.019398
_cell_angle_alpha 90.000000
_cell_angle_beta 90.000000
_cell_angle_gamma 90.000000
_cell_volume 3228.676425
_symmetry_space_group_name_H-M "P N N M"
_symmetry_group_IT_number 58
_symmetry_cell_setting 'orthorhombic'
loop_
_space_group_symop_operation_xyz
x,y,z
-x,-y,z
1/2+x,1/2-y,1/2-z
1/2-x,1/2+y,1/2-z
-x,-y,-z
x,y,-z
1/2-x,1/2+y,1/2+z
1/2+x,1/2-y,1/2+z
loop_
_atom_site_type_symbol
_atom_site_label
_atom_site_fract_x
_atom_site_fract_y
_atom_site_fract_z
Si Si1 0.279541 0.659634 0.672239
Si Si2 0.476745 0.053359 0.172226
Si Si3 0.073475 0.701918 0.173960
Si Si4 0.846221 0.121244 0.327218
Si Si5 0.991644 0.195791 0.171153
Si Si6 0.395002 0.872629 0.671400
Si Si7 0.257065 0.067398 0.675785
Si Si8 0.113840 0.982670 0.323739
O O1 0.258800 0.649689 0.500000
O O2 0.175867 0.684379 0.738303
O O3 0.381251 0.692944 0.697638
O O4 0.305892 0.610920 0.753866
O O5 0.577898 0.083187 0.225627
O O6 0.377864 0.070722 0.269065
O O7 0.500000 0.000000 0.207506
O O8 0.452998 0.062067 0.000000
O O9 0.047568 0.754042 0.229231
O O10 0.969841 0.670917 0.212587
O O11 0.098778 0.699785 0.000000
O O12 0.871401 0.119998 0.500000
O O13 0.932217 0.154826 0.255680
O O14 0.727588 0.140801 0.294659
O O15 0.858908 0.068747 0.261348
O O16 0.963382 0.189788 0.000000
O O17 0.408070 0.887546 0.500000
O O18 0.253997 0.072375 0.500000
O O19 0.203786 0.019198 0.731124
O O20 0.112143 0.981945 0.500000
O O21 0.000000 0.000000 0.261168
#
# Coordination Sequence:
#
# PCOD8238190 Si02
#       8
#     8   8   8   8   8   8   8   8
#     4  11  23  40  63  91 123 156 198 250 308 364
#     4  11  23  37  55  84 121 158 197 244 299 359
#     4  10  22  41  62  86 116 156 201 250 306 360
#     4  10  21  38  62  91 120 158 207 250 297 357
#     4  10  24  42  61  88 124 160 197 248 310 371
#     4  10  21  38  61  86 116 155 202 252 299 356
#     4  11  21  36  61  88 118 157 201 250 301 357
#     4   9  18  33  55  85 119 155 199 248 293 346
#
# _framework density 19.822364
#
# number of rings (size 3 to 8) (size 9 to 14) (size 15 to 20)
#    0.000    1.750    1.250    2.625    1.750    5.000 
#    0.000    1.250    0.000    3.375    0.000    0.000 
#    0.000    0.000    0.000    0.000    0.000    0.000 
#
# Total GULP energy -793828.008350 kJ/mol
# GULP energy per Si atom -12403.562630 kJ/mol
# Density = 1.977725 g / cm^3
# Si number density = 19.822364 Si / 1000 Ang^3
#
#
#
# Elastic Constant Matrix: (Units=GPa)
#
#
# Indices 1 2 3 4 5 6 
#
# 1 112.5506 52.9752 36.0692 0.0000 0.0000 0.0000
# 2 52.9752 148.1267 48.2543 0.0000 0.0000 0.0000
# 3 36.0692 48.2543 62.8340 0.0000 0.0000 0.0000
# 4 0.0000 0.0000 0.0000 25.2025 0.0000 0.0000
# 5 0.0000 0.0000 0.0000 0.0000 23.7870 0.0000
# 6 0.0000 0.0000 0.0000 0.0000 0.0000 34.6554
#
#
#
# Elastic Compliance Matrix: (Units=1/GPa)
#
#
# Indices 1 2 3 4 5 6 
#
# 1 0.011615 -0.002643 -0.004638 0.000000 0.000000 0.000000
# 2 -0.002643 0.009605 -0.005859 0.000000 0.000000 0.000000
# 3 -0.004638 -0.005859 0.023077 0.000000 0.000000 0.000000
# 4 0.000000 0.000000 0.000000 0.039679 0.000000 0.000000
# 5 0.000000 0.000000 0.000000 0.000000 0.042040 0.000000
# 6 0.000000 0.000000 0.000000 0.000000 0.000000 0.028856
#
#
# Mechanical properties :
#
#
# Convention : Reuss Voigt Hill
#
# Bulk Modulus (GPa) = 55.50289 66.45653 60.97971
# Shear Modulus (GPa) = 26.71564 29.14313 27.92939
#
# Velocity S-wave (km/s) = 3.67516 3.83850 3.75772
# Velocity P-wave (km/s) = 6.78749 7.29686 7.04678
#
# Compressibility (1/GPa) = 0.01801708
#
# Stress axis : x y z
#
# Youngs Moduli (GPa) = 86.09369 104.11351 43.33390
#
# Poissons Ratio (x) = 0.27519 0.20097
# Poissons Ratio (y) = 0.22756 0.25389
# Poissons Ratio (z) = 0.39928 0.60999
#
# Static dielectric constant tensor:
#      x y z
#    x 3.681290 0.000000 0.000000 
#    y 0.000000 3.856810 0.000000 
#    z 0.000000 0.000000 3.445150 
# 
# 
# High freq. dielectric constant tensor:
#      x y z
#    x 1.783240 0.000000 0.000000 
#    y 0.000000 1.784310 0.000000 
#    z 0.000000 0.000000 1.755320 
# 
# From -- ./inp_files/4653.got.cif
#   From: 2010.06.25/outbox.cif.g09.slc.cpg/sg58_3_cif.got.tgz:4653.got - 2010.06.26 21:38:00.
