data_PCOD8238074
_publ_section_title
;
Structure prediction by ZEFSAII (Michael W. Deem and Ramdas Pophale) SiO2 
 PCOD8238074
Probable space group: P N N M
;
_chemical_formula_sum "Si O2"
_cell_formula_units_Z 64
_cell_length_a 30.867965
_cell_length_b 11.940995
_cell_length_c 8.887862
_cell_angle_alpha 90.000000
_cell_angle_beta 90.000000
_cell_angle_gamma 90.000000
_cell_volume 3276.014523
_symmetry_space_group_name_H-M "P N N M"
_symmetry_group_IT_number 58
_symmetry_cell_setting 'orthorhombic'
loop_
_space_group_symop_operation_xyz
x,y,z
-x,-y,z
1/2+x,1/2-y,1/2-z
1/2-x,1/2+y,1/2-z
-x,-y,-z
x,y,-z
1/2-x,1/2+y,1/2+z
1/2+x,1/2-y,1/2+z
loop_
_atom_site_type_symbol
_atom_site_label
_atom_site_fract_x
_atom_site_fract_y
_atom_site_fract_z
Si Si1 0.369705 0.622678 0.676816
Si Si2 0.372771 0.363960 0.322973
Si Si3 0.204731 0.730022 0.678437
Si Si4 0.044676 0.723702 0.827434
Si Si5 0.069473 0.502740 0.677936
Si Si6 0.296842 0.766043 0.178946
Si Si7 0.449343 0.773367 0.673040
Si Si8 0.334000 0.998762 0.177874
O O1 0.362630 0.637857 0.500000
O O2 0.376284 0.493829 0.720114
O O3 0.326895 0.666683 0.759890
O O4 0.412503 0.688769 0.733561
O O5 0.364623 0.347465 0.500000
O O6 0.333113 0.312101 0.231670
O O7 0.417698 0.306675 0.269181
O O8 0.209784 0.740699 0.500000
O O9 0.248743 0.760295 0.759606
O O10 0.194646 0.603397 0.729949
O O11 0.042669 0.608233 0.736203
O O12 0.997292 0.781807 0.808409
O O13 0.053587 0.693296 0.000000
O O14 0.067812 0.503011 0.500000
O O15 0.049791 0.387095 0.733749
O O16 0.118005 0.514991 0.742588
O O17 0.314841 0.883686 0.241890
O O18 0.296123 0.760274 0.000000
O O19 0.439977 0.802494 0.500000
O O20 0.335904 0.992070 0.000000
#
# Coordination Sequence:
#
# PCOD8238074 Si02
#       8
#     8   8   8   8   8   8   8   8
#     4  10  22  40  60  84 116 155 196 240 290 343
#     4  10  22  40  60  84 116 155 196 240 290 343
#     4  11  23  41  62  88 118 152 193 238 291 346
#     4  10  21  37  58  86 118 152 193 241 290 343
#     4  11  20  36  59  86 118 154 192 235 291 347
#     4  11  23  41  62  88 118 152 193 238 291 346
#     4  10  21  37  58  86 118 152 193 241 290 343
#     4   9  20  38  60  83 116 152 185 235 288 337
#
# _framework density 19.535934000000001
#
# number of rings (size 3 to 8) (size 9 to 14) (size 15 to 20)
#    0.000    1.750    2.500    1.500    1.750    3.000 
#    0.000    4.375    0.000    0.000    0.000    3.500 
#    0.000    0.000    0.000    0.000    0.000    0.000 
#
# Total GULP energy -793670.622879 kJ/mol
# GULP energy per Si atom -12401.103482 kJ/mol
# Density = 1.949147 g / cm^3
# Si number density = 19.535934 Si / 1000 Ang^3
#
#
#
# Elastic Constant Matrix: (Units=GPa)
#
#
# Indices 1 2 3 4 5 6 
#
# 1 114.5309 32.7427 31.8044 0.0000 0.0000 0.0000
# 2 32.7427 116.5295 34.4471 0.0000 0.0000 0.0000
# 3 31.8044 34.4471 51.6170 0.0000 0.0000 0.0000
# 4 0.0000 0.0000 0.0000 25.0242 0.0000 0.0000
# 5 0.0000 0.0000 0.0000 0.0000 29.3097 0.0000
# 6 0.0000 0.0000 0.0000 0.0000 0.0000 26.1915
#
#
#
# Elastic Compliance Matrix: (Units=1/GPa)
#
#
# Indices 1 2 3 4 5 6 
#
# 1 0.010693 -0.001317 -0.005710 0.000000 0.000000 0.000000
# 2 -0.001317 0.010853 -0.006431 0.000000 0.000000 0.000000
# 3 -0.005710 -0.006431 0.027184 0.000000 0.000000 0.000000
# 4 0.000000 0.000000 0.000000 0.039961 0.000000 0.000000
# 5 0.000000 0.000000 0.000000 0.000000 0.034118 0.000000
# 6 0.000000 0.000000 0.000000 0.000000 0.000000 0.038180
#
#
# Mechanical properties :
#
#
# Convention : Reuss Voigt Hill
#
# Bulk Modulus (GPa) = 45.84308 53.40730 49.62519
# Shear Modulus (GPa) = 25.61775 28.35063 26.98419
#
# Velocity S-wave (km/s) = 3.62514 3.81360 3.72056
# Velocity P-wave (km/s) = 6.40618 6.84023 6.62676
#
# Compressibility (1/GPa) = 0.02181354
#
# Stress axis : x y z
#
# Youngs Moduli (GPa) = 93.51609 92.14353 36.78663
#
# Poissons Ratio (x) = 0.12132 0.21006
# Poissons Ratio (y) = 0.12313 0.23659
# Poissons Ratio (z) = 0.53399 0.59260
#
# Static dielectric constant tensor:
#      x y z
#    x 3.778140 0.000000 0.000000 
#    y 0.000000 3.668510 0.000000 
#    z 0.000000 0.000000 3.404700 
# 
# 
# High freq. dielectric constant tensor:
#      x y z
#    x 1.780000 0.000000 0.000000 
#    y 0.000000 1.760790 0.000000 
#    z 0.000000 0.000000 1.746960 
# 
# From -- ./inp_files/11060.got.cif
#   From: 2010.06.25/outbox.cif.g09.slc.cpg/sg58_6_cif.got.tgz:11060.got - 2010.06.26 21:38:00.
