data_PCOD8238103
_publ_section_title
;
Structure prediction by ZEFSAII (Michael W. Deem and Ramdas Pophale) SiO2 
 PCOD8238103
Probable space group: P N N M
;
_chemical_formula_sum "Si O2"
_cell_formula_units_Z 48
_cell_length_a 9.635487
_cell_length_b 27.404459
_cell_length_c 9.210023
_cell_angle_alpha 90.000000
_cell_angle_beta 90.000000
_cell_angle_gamma 90.000000
_cell_volume 2431.955464
_symmetry_space_group_name_H-M "P N N M"
_symmetry_group_IT_number 58
_symmetry_cell_setting 'orthorhombic'
loop_
_space_group_symop_operation_xyz
x,y,z
-x,-y,z
1/2+x,1/2-y,1/2-z
1/2-x,1/2+y,1/2-z
-x,-y,-z
x,y,-z
1/2-x,1/2+y,1/2+z
1/2+x,1/2-y,1/2+z
loop_
_atom_site_type_symbol
_atom_site_label
_atom_site_fract_x
_atom_site_fract_y
_atom_site_fract_z
Si Si1 0.304012 0.893033 0.335327
Si Si2 0.711980 0.388826 0.665899
Si Si3 0.846887 0.716435 0.166683
Si Si4 0.477003 0.052613 0.836231
Si Si5 0.021504 0.944135 0.670287
Si Si6 0.669725 0.795629 0.328486
O O1 0.346112 0.903198 0.500000
O O2 0.273072 0.835955 0.312418
O O3 0.437854 0.905618 0.242645
O O4 0.176216 0.927226 0.290171
O O5 0.679758 0.373361 0.500000
O O6 0.815600 0.434569 0.670905
O O7 0.573268 0.406578 0.742861
O O8 0.779498 0.344032 0.749516
O O9 0.766091 0.751769 0.274530
O O10 0.009206 0.714673 0.210491
O O11 0.831565 0.734163 0.000000
O O12 0.500000 0.000000 0.760660
O O13 0.533025 0.050488 0.000000
O O14 0.989164 0.938621 0.500000
O O15 0.000000 0.000000 0.721216
O O16 0.688876 0.802380 0.500000
#
# Coordination Sequence:
#
# PCOD8238103 Si02
#       6
#     8   8   8   8   8   8
#     4  10  21  39  61  86 119 157 198 249 298 354
#     4  11  23  39  61  89 123 159 200 250 302 358
#     4  10  23  42  62  90 122 154 201 249 302 364
#     4  10  21  37  59  88 120 156 198 244 297 356
#     4  10  22  39  60  90 125 164 209 251 300 359
#     4  11  24  42  65  90 119 156 199 246 302 364
#
# _framework density 19.737203999999998
#
# number of rings (size 3 to 8) (size 9 to 14) (size 15 to 20)
#    0.000    1.667    1.667    2.000    2.333    4.000 
#    0.000    0.000    0.000    0.000    0.000    0.000 
#    0.000    0.000    0.000    0.000    0.000    0.000 
#
# Total GULP energy -595314.106320 kJ/mol
# GULP energy per Si atom -12402.377215 kJ/mol
# Density = 1.969228 g / cm^3
# Si number density = 19.737204 Si / 1000 Ang^3
#
#
#
# Elastic Constant Matrix: (Units=GPa)
#
#
# Indices 1 2 3 4 5 6 
#
# 1 77.1780 33.1027 43.2951 0.0000 0.0000 0.0000
# 2 33.1027 85.8955 32.1138 0.0000 0.0000 0.0000
# 3 43.2951 32.1138 74.6569 0.0000 0.0000 0.0000
# 4 0.0000 0.0000 0.0000 33.7463 0.0000 0.0000
# 5 0.0000 0.0000 0.0000 0.0000 33.1680 0.0000
# 6 0.0000 0.0000 0.0000 0.0000 0.0000 39.7459
#
#
#
# Elastic Compliance Matrix: (Units=1/GPa)
#
#
# Indices 1 2 3 4 5 6 
#
# 1 0.020341 -0.004086 -0.010039 0.000000 0.000000 0.000000
# 2 -0.004086 0.014694 -0.003951 0.000000 0.000000 0.000000
# 3 -0.010039 -0.003951 0.020916 0.000000 0.000000 0.000000
# 4 0.000000 0.000000 0.000000 0.029633 0.000000 0.000000
# 5 0.000000 0.000000 0.000000 0.000000 0.030150 0.000000
# 6 0.000000 0.000000 0.000000 0.000000 0.000000 0.025160
#
#
# Mechanical properties :
#
#
# Convention : Reuss Voigt Hill
#
# Bulk Modulus (GPa) = 50.50655 50.52820 50.51737
# Shear Modulus (GPa) = 27.22659 29.94663 28.58661
#
# Velocity S-wave (km/s) = 3.71813 3.89944 3.80986
# Velocity P-wave (km/s) = 6.63911 6.77718 6.70850
#
# Compressibility (1/GPa) = 0.01979941
#
# Stress axis : x y z
#
# Youngs Moduli (GPa) = 49.16175 68.05549 47.81082
#
# Poissons Ratio (x) = 0.27807 0.47995
# Poissons Ratio (y) = 0.20087 0.18890
# Poissons Ratio (z) = 0.49352 0.26889
#
# Static dielectric constant tensor:
#      x y z
#    x 3.558350 0.000000 0.000000 
#    y 0.000000 3.712040 0.000000 
#    z 0.000000 0.000000 3.618490 
# 
# 
# High freq. dielectric constant tensor:
#      x y z
#    x 1.772320 0.000000 0.000000 
#    y 0.000000 1.780980 0.000000 
#    z 0.000000 0.000000 1.768270 
# 
# From -- ./inp_files/2934.got.cif
#   From: 2010.06.25/outbox.cif.g09.slc.cpg/sg58_2_cif.got.tgz:2934.got - 2010.06.26 21:38:00.
