data_PCOD8238386
_publ_section_title
;
Structure prediction by ZEFSAII (Michael W. Deem and Ramdas Pophale) SiO2 
 PCOD8238386
Probable space group: P N N M
;
_chemical_formula_sum "Si O2"
_cell_formula_units_Z 56
_cell_length_a 19.370451
_cell_length_b 8.257248
_cell_length_c 18.054600
_cell_angle_alpha 90.000000
_cell_angle_beta 90.000000
_cell_angle_gamma 90.000000
_cell_volume 2887.772205
_symmetry_space_group_name_H-M "P N N M"
_symmetry_group_IT_number 58
_symmetry_cell_setting 'orthorhombic'
loop_
_space_group_symop_operation_xyz
x,y,z
-x,-y,z
1/2+x,1/2-y,1/2-z
1/2-x,1/2+y,1/2-z
-x,-y,-z
x,y,-z
1/2-x,1/2+y,1/2+z
1/2+x,1/2-y,1/2+z
loop_
_atom_site_type_symbol
_atom_site_label
_atom_site_fract_x
_atom_site_fract_y
_atom_site_fract_z
Si Si1 0.967618 0.242168 0.918122
Si Si2 0.424052 0.925379 0.913402
Si Si3 0.417728 0.666823 0.792139
Si Si4 0.201168 0.327209 0.207236
Si Si5 0.327306 0.110342 0.807391
Si Si6 0.104103 0.414651 0.918961
Si Si7 0.061612 0.820985 0.237075
O O1 0.933043 0.415319 0.909787
O O2 0.937880 0.130147 0.850981
O O3 0.049590 0.268235 0.908277
O O4 0.951840 0.165826 0.000000
O O5 0.415067 0.749970 0.873473
O O6 0.500000 0.000000 0.900176
O O7 0.365982 0.048675 0.881457
O O8 0.409518 0.899047 0.000000
O O9 0.349057 0.698114 0.745435
O O10 0.424266 0.471642 0.792481
O O11 0.484651 0.746206 0.752980
O O12 0.272075 0.250470 0.177269
O O13 0.214965 0.466766 0.267638
O O14 0.167263 0.406060 0.136182
O O15 0.385389 0.176836 0.751526
O O16 0.137281 0.401123 0.000000
#
# Coordination Sequence:
#
# PCOD8238386 Si02
#       7
#     8   8   8   8   8   8   8
#     4   9  17  31  56  89 121 156 195 234 284 353
#     4  10  21  41  64  89 119 161 213 265 324 378
#     4  10  22  35  60  88 119 157 202 252 308 359
#     4  11  21  37  55  85 117 158 197 250 300 368
#     4  11  23  36  63  87 122 158 208 257 310 371
#     4   9  17  30  54  85 117 153 191 231 286 355
#     4  11  19  36  57  91 120 156 203 255 293 364
#
# _framework density 19.392111
#
# number of rings (size 3 to 8) (size 9 to 14) (size 15 to 20)
#    0.000    1.857    4.286    1.714    0.000    0.571 
#    0.000    4.286    0.000   13.714    0.000    0.000 
#    0.000    0.000    0.000    0.000    0.000    0.000 
#
# Total GULP energy -693927.396273 kJ/mol
# GULP energy per Si atom -12391.560648 kJ/mol
# Density = 1.934797 g / cm^3
# Si number density = 19.392111 Si / 1000 Ang^3
#
#
#
# Elastic Constant Matrix: (Units=GPa)
#
#
# Indices 1 2 3 4 5 6 
#
# 1 87.2972 23.9288 40.2105 0.0000 0.0000 0.0000
# 2 23.9288 67.6867 33.7704 0.0000 0.0000 0.0000
# 3 40.2105 33.7704 138.3806 0.0000 0.0000 0.0000
# 4 0.0000 0.0000 0.0000 21.7107 0.0000 0.0000
# 5 0.0000 0.0000 0.0000 0.0000 18.6111 0.0000
# 6 0.0000 0.0000 0.0000 0.0000 0.0000 26.3837
#
#
#
# Elastic Compliance Matrix: (Units=1/GPa)
#
#
# Indices 1 2 3 4 5 6 
#
# 1 0.013839 -0.003286 -0.003219 0.000000 0.000000 0.000000
# 2 -0.003286 0.017603 -0.003341 0.000000 0.000000 0.000000
# 3 -0.003219 -0.003341 0.008977 0.000000 0.000000 0.000000
# 4 0.000000 0.000000 0.000000 0.046060 0.000000 0.000000
# 5 0.000000 0.000000 0.000000 0.000000 0.053731 0.000000
# 6 0.000000 0.000000 0.000000 0.000000 0.000000 0.037902
#
#
# Mechanical properties :
#
#
# Convention : Reuss Voigt Hill
#
# Bulk Modulus (GPa) = 48.24879 54.35377 51.30128
# Shear Modulus (GPa) = 24.42438 26.37141 25.39790
#
# Velocity S-wave (km/s) = 3.55280 3.69169 3.62291
# Velocity P-wave (km/s) = 6.46254 6.80155 6.63421
#
# Compressibility (1/GPa) = 0.02072591
#
# Stress axis : x y z
#
# Youngs Moduli (GPa) = 72.26088 56.81011 111.39321
#
# Poissons Ratio (x) = 0.18669 0.35861
# Poissons Ratio (y) = 0.23746 0.37215
# Poissons Ratio (z) = 0.23263 0.18979
#
# Static dielectric constant tensor:
#      x y z
#    x 3.553280 0.000000 0.000000 
#    y 0.000000 3.321540 0.000000 
#    z 0.000000 0.000000 3.593460 
# 
# 
# High freq. dielectric constant tensor:
#      x y z
#    x 1.743790 0.000000 0.000000 
#    y 0.000000 1.743590 0.000000 
#    z 0.000000 0.000000 1.749930 
# 
# From -- ./inp_files/27498.got.cif
#   From: 2010.06.25/outbox.cif.g09.slc.cpg/sg58_14_cif.got.tgz:27498.got - 2010.06.26 21:38:00.
