data_PCOD8238391
_publ_section_title
;
Structure prediction by ZEFSAII (Michael W. Deem and Ramdas Pophale) SiO2 
 PCOD8238391
Probable space group: P N N M
;
_chemical_formula_sum "Si O2"
_cell_formula_units_Z 48
_cell_length_a 9.912828
_cell_length_b 26.941177
_cell_length_c 8.879880
_cell_angle_alpha 90.000000
_cell_angle_beta 90.000000
_cell_angle_gamma 90.000000
_cell_volume 2371.489645
_symmetry_space_group_name_H-M "P N N M"
_symmetry_group_IT_number 58
_symmetry_cell_setting 'orthorhombic'
loop_
_space_group_symop_operation_xyz
x,y,z
-x,-y,z
1/2+x,1/2-y,1/2-z
1/2-x,1/2+y,1/2-z
-x,-y,-z
x,y,-z
1/2-x,1/2+y,1/2+z
1/2+x,1/2-y,1/2+z
loop_
_atom_site_type_symbol
_atom_site_label
_atom_site_fract_x
_atom_site_fract_y
_atom_site_fract_z
Si Si1 0.769578 0.437496 0.826415
Si Si2 0.021802 0.901878 0.322804
Si Si3 0.250992 0.460045 0.323338
Si Si4 0.359677 0.778431 0.324613
Si Si5 0.412706 0.298248 0.322746
Si Si6 0.453488 0.887544 0.327329
O O1 0.632982 0.409984 0.775991
O O2 0.797179 0.485705 0.726418
O O3 0.889628 0.398800 0.798646
O O4 0.761028 0.454341 0.000000
O O5 0.041836 0.899627 0.500000
O O6 0.108303 0.947466 0.258159
O O7 0.077974 0.851253 0.255322
O O8 0.274919 0.458837 0.500000
O O9 0.136443 0.420822 0.281184
O O10 0.324115 0.774656 0.500000
O O11 0.460898 0.735138 0.273807
O O12 0.223680 0.771272 0.230025
O O13 0.431005 0.830416 0.286455
O O14 0.407472 0.305982 0.500000
O O15 0.412908 0.899074 0.500000
#
# Coordination Sequence:
#
# PCOD8238391 Si02
#       6
#     8   8   8   8   8   8
#     4  10  23  40  63  91 119 163 212 252 298 365
#     4  11  23  41  65  90 122 164 208 251 304 366
#     4  12  24  39  61  91 126 162 202 256 311 361
#     4  10  23  42  65  92 124 164 203 247 304 364
#     4  11  24  41  65  96 126 158 203 253 305 360
#     4  10  21  41  65  88 121 164 207 250 297 363
#
# _framework density 20.240441000000001
#
# number of rings (size 3 to 8) (size 9 to 14) (size 15 to 20)
#    0.000    1.333    1.667    3.500    2.333    7.333 
#    0.000    0.000    0.000    0.000    0.000    0.000 
#    0.000    0.000    0.000    0.000    0.000    0.000 
#
# Total GULP energy -595554.493190 kJ/mol
# GULP energy per Si atom -12407.385275 kJ/mol
# Density = 2.019437 g / cm^3
# Si number density = 20.240441 Si / 1000 Ang^3
#
#
#
# Elastic Constant Matrix: (Units=GPa)
#
#
# Indices 1 2 3 4 5 6 
#
# 1 85.2564 -4.0274 28.1322 0.0000 0.0000 0.0000
# 2 -4.0274 53.5475 19.8150 0.0000 0.0000 0.0000
# 3 28.1322 19.8150 72.2316 0.0000 0.0000 0.0000
# 4 0.0000 0.0000 0.0000 17.9014 0.0000 0.0000
# 5 0.0000 0.0000 0.0000 0.0000 23.3468 0.0000
# 6 0.0000 0.0000 0.0000 0.0000 0.0000 34.2977
#
#
#
# Elastic Compliance Matrix: (Units=1/GPa)
#
#
# Indices 1 2 3 4 5 6 
#
# 1 0.013999 0.003417 -0.006390 0.000000 0.000000 0.000000
# 2 0.003417 0.021619 -0.007262 0.000000 0.000000 0.000000
# 3 -0.006390 -0.007262 0.018325 0.000000 0.000000 0.000000
# 4 0.000000 0.000000 0.000000 0.055862 0.000000 0.000000
# 5 0.000000 0.000000 0.000000 0.000000 0.042833 0.000000
# 6 0.000000 0.000000 0.000000 0.000000 0.000000 0.029156
#
#
# Mechanical properties :
#
#
# Convention : Reuss Voigt Hill
#
# Bulk Modulus (GPa) = 29.87273 33.20834 31.54053
# Shear Modulus (GPa) = 23.42791 26.25022 24.83906
#
# Velocity S-wave (km/s) = 3.40587 3.60518 3.50694
# Velocity P-wave (km/s) = 5.50069 5.81140 5.65817
#
# Compressibility (1/GPa) = 0.03347535
#
# Stress axis : x y z
#
# Youngs Moduli (GPa) = 71.43263 46.25516 54.57007
#
# Poissons Ratio (x) = -0.15807 0.34869
# Poissons Ratio (y) = -0.24412 0.39627
# Poissons Ratio (z) = 0.45644 0.33589
#
# Static dielectric constant tensor:
#      x y z
#    x 3.874350 0.000000 0.000000 
#    y 0.000000 3.698600 0.000000 
#    z 0.000000 0.000000 3.594890 
# 
# 
# High freq. dielectric constant tensor:
#      x y z
#    x 1.806810 0.000000 0.000000 
#    y 0.000000 1.793960 0.000000 
#    z 0.000000 0.000000 1.786500 
# 
# From -- ./inp_files/2977.got.cif
#   From: 2010.06.25/outbox.cif.g09.slc.cpg/sg58_2_cif.got.tgz:2977.got - 2010.06.26 21:38:00.
