data_PCOD8238068
_publ_section_title
;
Structure prediction by ZEFSAII (Michael W. Deem and Ramdas Pophale) SiO2 
 PCOD8238068
Probable space group: P N N M
;
_chemical_formula_sum "Si O2"
_cell_formula_units_Z 48
_cell_length_a 18.714246
_cell_length_b 15.060836
_cell_length_c 8.375695
_cell_angle_alpha 90.000000
_cell_angle_beta 90.000000
_cell_angle_gamma 90.000000
_cell_volume 2360.707977
_symmetry_space_group_name_H-M "P N N M"
_symmetry_group_IT_number 58
_symmetry_cell_setting 'orthorhombic'
loop_
_space_group_symop_operation_xyz
x,y,z
-x,-y,z
1/2+x,1/2-y,1/2-z
1/2-x,1/2+y,1/2-z
-x,-y,-z
x,y,-z
1/2-x,1/2+y,1/2+z
1/2+x,1/2-y,1/2+z
loop_
_atom_site_type_symbol
_atom_site_label
_atom_site_fract_x
_atom_site_fract_y
_atom_site_fract_z
Si Si1 0.793927 0.518492 0.314496
Si Si2 0.185536 0.116530 0.685105
Si Si3 0.581730 0.742792 0.690103
Si Si4 0.760864 0.205278 0.189045
Si Si5 0.937367 0.439499 0.186980
Si Si6 0.969009 0.903494 0.186426
O O1 0.814134 0.521906 0.500000
O O2 0.724909 0.457168 0.290114
O O3 0.774928 0.615533 0.244757
O O4 0.860560 0.481904 0.216935
O O5 0.204547 0.101768 0.500000
O O6 0.211924 0.212841 0.743525
O O7 0.101556 0.109934 0.711016
O O8 0.585710 0.745488 0.500000
O O9 0.659463 0.717247 0.760192
O O10 0.559441 0.839647 0.758464
O O11 0.525238 0.669663 0.747908
O O12 0.766229 0.198104 0.000000
O O13 0.000000 0.500000 0.265236
O O14 0.950404 0.433251 0.000000
O O15 0.951467 0.891604 0.000000
O O16 0.000000 0.000000 0.222713
#
# Coordination Sequence:
#
# PCOD8238068 Si02
#       6
#     8   8   8   8   8   8
#     4  11  22  38  61  87 115 151 197 243 289 348
#     4  11  22  39  61  86 119 153 191 241 294 347
#     4   9  17  35  59  81 112 153 190 228 281 343
#     4   9  19  36  59  83 112 152 191 235 294 346
#     4  10  21  37  58  84 116 155 196 238 290 347
#     4  10  21  37  60  87 116 152 195 239 286 347
#
# _framework density 20.332884
#
# number of rings (size 3 to 8) (size 9 to 14) (size 15 to 20)
#    0.000    2.000    1.667    2.000    2.333    3.333 
#    0.000    3.333    0.000    0.000    0.000    0.000 
#    0.000    0.000    0.000    0.000    0.000    0.000 
#
# Total GULP energy -595319.909194 kJ/mol
# GULP energy per Si atom -12402.498108 kJ/mol
# Density = 2.028661 g / cm^3
# Si number density = 20.332884 Si / 1000 Ang^3
#
#
#
# Elastic Constant Matrix: (Units=GPa)
#
#
# Indices 1 2 3 4 5 6 
#
# 1 134.3665 67.8783 2.7219 0.0000 0.0000 0.0000
# 2 67.8783 185.5992 11.9578 0.0000 0.0000 0.0000
# 3 2.7219 11.9578 14.9443 0.0000 0.0000 0.0000
# 4 0.0000 0.0000 0.0000 16.7980 0.0000 0.0000
# 5 0.0000 0.0000 0.0000 0.0000 26.3711 0.0000
# 6 0.0000 0.0000 0.0000 0.0000 0.0000 46.0232
#
#
#
# Elastic Compliance Matrix: (Units=1/GPa)
#
#
# Indices 1 2 3 4 5 6 
#
# 1 0.009145 -0.003413 0.001065 0.000000 0.000000 0.000000
# 2 -0.003413 0.006955 -0.004943 0.000000 0.000000 0.000000
# 3 0.001065 -0.004943 0.070677 0.000000 0.000000 0.000000
# 4 0.000000 0.000000 0.000000 0.059531 0.000000 0.000000
# 5 0.000000 0.000000 0.000000 0.000000 0.037920 0.000000
# 6 0.000000 0.000000 0.000000 0.000000 0.000000 0.021728
#
#
# Mechanical properties :
#
#
# Convention : Reuss Voigt Hill
#
# Bulk Modulus (GPa) = 13.85148 55.55844 34.70496
# Shear Modulus (GPa) = 20.44133 34.66191 27.55162
#
# Velocity S-wave (km/s) = 3.17414 4.13331 3.68506
# Velocity P-wave (km/s) = 4.50119 7.08256 5.93394
#
# Compressibility (1/GPa) = 0.07219443
#
# Stress axis : x y z
#
# Youngs Moduli (GPa) = 109.34933 143.78695 14.14895
#
# Poissons Ratio (x) = 0.49077 -0.01508
# Poissons Ratio (y) = 0.37323 0.06994
# Poissons Ratio (z) = -0.11651 0.71077
#
# Static dielectric constant tensor:
#      x y z
#    x 3.719690 0.000000 0.000000 
#    y 0.000000 4.471080 0.000000 
#    z 0.000000 0.000000 3.183030 
# 
# 
# High freq. dielectric constant tensor:
#      x y z
#    x 1.804080 0.000000 0.000000 
#    y 0.000000 1.814720 0.000000 
#    z 0.000000 0.000000 1.752790 
# 
# From -- ./inp_files/5875.got.cif
#   From: 2010.06.25/outbox.cif.g09.slc.cpg/sg58_3_cif.got.tgz:5875.got - 2010.06.26 21:38:00.
