data_PCOD8238146
_publ_section_title
;
Structure prediction by ZEFSAII (Michael W. Deem and Ramdas Pophale) SiO2 
 PCOD8238146
Probable space group: P N N M
;
_chemical_formula_sum "Si O2"
_cell_formula_units_Z 64
_cell_length_a 28.293597
_cell_length_b 12.833612
_cell_length_c 8.700730
_cell_angle_alpha 90.000000
_cell_angle_beta 90.000000
_cell_angle_gamma 90.000000
_cell_volume 3159.313770
_symmetry_space_group_name_H-M "P N N M"
_symmetry_group_IT_number 58
_symmetry_cell_setting 'orthorhombic'
loop_
_space_group_symop_operation_xyz
x,y,z
-x,-y,z
1/2+x,1/2-y,1/2-z
1/2-x,1/2+y,1/2-z
-x,-y,-z
x,y,-z
1/2-x,1/2+y,1/2+z
1/2+x,1/2-y,1/2+z
loop_
_atom_site_type_symbol
_atom_site_label
_atom_site_fract_x
_atom_site_fract_y
_atom_site_fract_z
Si Si1 0.951264 0.754801 0.176444
Si Si2 0.365971 0.420661 0.318114
Si Si3 0.801144 0.267987 0.182052
Si Si4 0.369644 0.631692 0.819658
Si Si5 0.029737 0.906899 0.821558
Si Si6 0.346195 0.024954 0.816873
Si Si7 0.949194 0.536214 0.319843
Si Si8 0.299081 0.812521 0.819038
O O1 0.918106 0.851062 0.226318
O O2 0.941719 0.657418 0.285329
O O3 0.004643 0.795209 0.201221
O O4 0.942082 0.723762 0.000000
O O5 0.363158 0.436304 0.500000
O O6 0.336966 0.321019 0.265842
O O7 0.345777 0.524137 0.236151
O O8 0.418277 0.400484 0.250464
O O9 0.818215 0.375150 0.257216
O O10 0.750949 0.227476 0.247936
O O11 0.799640 0.285350 0.000000
O O12 0.336320 0.725840 0.770626
O O13 0.379457 0.629396 0.000000
O O14 0.035260 0.933967 0.000000
O O15 0.000000 0.000000 0.741739
O O16 0.401572 0.022878 0.758570
O O17 0.317488 0.923594 0.753554
O O18 0.346266 0.023920 0.000000
O O19 0.952287 0.519110 0.500000
O O20 0.000000 0.500000 0.245339
O O21 0.293687 0.822911 0.000000
#
# Coordination Sequence:
#
# PCOD8238146 Si02
#       8
#     8   8   8   8   8   8   8   8
#     4  11  21  35  58  85 114 150 196 239 287 346
#     4  10  21  38  58  82 116 153 192 237 288 342
#     4  10  23  40  61  87 116 152 197 246 293 346
#     4  11  21  37  60  84 117 153 193 240 293 349
#     4   9  17  32  52  77 114 149 175 222 286 331
#     4  10  21  41  63  85 120 157 192 239 297 353
#     4  10  22  40  60  83 117 160 198 239 293 352
#     4   9  20  40  61  82 114 154 189 240 302 344
#
# _framework density 20.257565
#
# number of rings (size 3 to 8) (size 9 to 14) (size 15 to 20)
#    0.000    2.000    2.500    0.750    3.500    1.250 
#    0.000    3.125    0.000    0.000    0.000    0.000 
#    0.000    0.000    0.000    0.000    0.000    0.000 
#
# Total GULP energy -793337.304359 kJ/mol
# GULP energy per Si atom -12395.895381 kJ/mol
# Density = 2.021146 g / cm^3
# Si number density = 20.257565 Si / 1000 Ang^3
#
#
#
# Elastic Constant Matrix: (Units=GPa)
#
#
# Indices 1 2 3 4 5 6 
#
# 1 144.1481 72.7754 27.1701 0.0000 0.0000 0.0000
# 2 72.7754 148.2939 21.3301 0.0000 0.0000 0.0000
# 3 27.1701 21.3301 16.2069 0.0000 0.0000 0.0000
# 4 0.0000 0.0000 0.0000 32.2810 0.0000 0.0000
# 5 0.0000 0.0000 0.0000 0.0000 17.0368 0.0000
# 6 0.0000 0.0000 0.0000 0.0000 0.0000 28.4195
#
#
#
# Elastic Compliance Matrix: (Units=1/GPa)
#
#
# Indices 1 2 3 4 5 6 
#
# 1 0.011468 -0.003531 -0.014578 0.000000 0.000000 0.000000
# 2 -0.003531 0.009405 -0.006459 0.000000 0.000000 0.000000
# 3 -0.014578 -0.006459 0.094642 0.000000 0.000000 0.000000
# 4 0.000000 0.000000 0.000000 0.030978 0.000000 0.000000
# 5 0.000000 0.000000 0.000000 0.000000 0.058696 0.000000
# 6 0.000000 0.000000 0.000000 0.000000 0.000000 0.035187
#
#
# Mechanical properties :
#
#
# Convention : Reuss Voigt Hill
#
# Bulk Modulus (GPa) = 15.06492 61.24447 38.15470
# Shear Modulus (GPa) = 16.04423 28.03902 22.04163
#
# Velocity S-wave (km/s) = 2.81732 3.72442 3.30217
# Velocity P-wave (km/s) = 4.24687 6.98524 5.78055
#
# Compressibility (1/GPa) = 0.06637937
#
# Stress axis : x y z
#
# Youngs Moduli (GPa) = 87.20119 106.32411 10.56613
#
# Poissons Ratio (x) = 0.37543 0.15403
# Poissons Ratio (y) = 0.30790 0.06825
# Poissons Ratio (z) = 1.27122 0.68673
#
# Static dielectric constant tensor:
#      x y z
#    x 4.119990 0.000000 0.000000 
#    y 0.000000 3.643710 0.000000 
#    z 0.000000 0.000000 3.224790 
# 
# 
# High freq. dielectric constant tensor:
#      x y z
#    x 1.804270 0.000000 0.000000 
#    y 0.000000 1.798800 0.000000 
#    z 0.000000 0.000000 1.752020 
# 
# From -- ./inp_files/4694.got.cif
#   From: 2010.06.25/outbox.cif.g09.slc.cpg/sg58_3_cif.got.tgz:4694.got - 2010.06.26 21:38:00.
