data_PCOD8238697
_publ_section_title
;
Structure prediction by ZEFSAII (Michael W. Deem and Ramdas Pophale) SiO2 
 PCOD8238697
Probable space group: P N N M
;
_chemical_formula_sum "Si O2"
_cell_formula_units_Z 40
_cell_length_a 9.498957
_cell_length_b 8.750405
_cell_length_c 22.149515
_cell_angle_alpha 90.000000
_cell_angle_beta 90.000000
_cell_angle_gamma 90.000000
_cell_volume 1841.061503
_symmetry_space_group_name_H-M "P N N M"
_symmetry_group_IT_number 58
_symmetry_cell_setting 'orthorhombic'
loop_
_space_group_symop_operation_xyz
x,y,z
-x,-y,z
1/2+x,1/2-y,1/2-z
1/2-x,1/2+y,1/2-z
-x,-y,-z
x,y,-z
1/2-x,1/2+y,1/2+z
1/2+x,1/2-y,1/2+z
loop_
_atom_site_type_symbol
_atom_site_label
_atom_site_fract_x
_atom_site_fract_y
_atom_site_fract_z
Si Si1 0.113256 0.736375 0.069046
Si Si2 0.848836 0.003384 0.157498
Si Si3 0.867171 0.667316 0.155420
Si Si4 0.861380 0.921367 0.374629
Si Si5 0.090115 0.357505 0.709684
O O1 0.131640 0.908041 0.093903
O O2 0.267323 0.658122 0.073831
O O3 0.993040 0.644049 0.106680
O O4 0.064739 0.740096 0.000000
O O5 0.752358 0.094590 0.203642
O O6 0.793540 0.832095 0.144333
O O7 0.000000 0.000000 0.190434
O O8 0.744234 0.543020 0.155764
O O9 0.945534 0.666795 0.220206
O O10 0.925789 0.800632 0.326597
O O11 0.000000 0.000000 0.403713
O O12 0.000000 0.500000 0.682722
#
# Coordination Sequence:
#
# PCOD8238697 Si02
#       5
#     8   8   8   8   8
#     4  10  23  44  64  86 121 164 208 252 304 366
#     4   9  21  38  60  88 121 160 201 247 303 364
#     4  11  22  38  62  93 122 159 206 253 304 359
#     4  11  24  38  60  91 123 160 204 255 306 359
#     4  11  22  38  59  88 130 166 197 241 304 374
#
# _framework density 21.726597000000002
#
# number of rings (size 3 to 8) (size 9 to 14) (size 15 to 20)
#    0.000    1.600    0.000    4.200    0.000   16.800 
#    0.000    0.000    0.000   20.400    0.000    0.000 
#    0.000    0.000    0.000    0.000    0.000    0.000 
#
# Total GULP energy -495719.254045 kJ/mol
# GULP energy per Si atom -12392.981351 kJ/mol
# Density = 2.167715 g / cm^3
# Si number density = 21.726597 Si / 1000 Ang^3
#
#
#
# Elastic Constant Matrix: (Units=GPa)
#
#
# Indices 1 2 3 4 5 6 
#
# 1 103.4064 38.8817 31.9373 0.0000 0.0000 0.0000
# 2 38.8817 144.7510 23.3850 0.0000 0.0000 0.0000
# 3 31.9373 23.3850 116.4732 0.0000 0.0000 0.0000
# 4 0.0000 0.0000 0.0000 16.1173 0.0000 0.0000
# 5 0.0000 0.0000 0.0000 0.0000 19.7895 0.0000
# 6 0.0000 0.0000 0.0000 0.0000 0.0000 48.6962
#
#
#
# Elastic Compliance Matrix: (Units=1/GPa)
#
#
# Indices 1 2 3 4 5 6 
#
# 1 0.011478 -0.002661 -0.002613 0.000000 0.000000 0.000000
# 2 -0.002661 0.007757 -0.000828 0.000000 0.000000 0.000000
# 3 -0.002613 -0.000828 0.009468 0.000000 0.000000 0.000000
# 4 0.000000 0.000000 0.000000 0.062045 0.000000 0.000000
# 5 0.000000 0.000000 0.000000 0.000000 0.050532 0.000000
# 6 0.000000 0.000000 0.000000 0.000000 0.000000 0.020536
#
#
# Mechanical properties :
#
#
# Convention : Reuss Voigt Hill
#
# Bulk Modulus (GPa) = 60.60679 61.44871 61.02775
# Shear Modulus (GPa) = 27.85210 34.94903 31.40056
#
# Velocity S-wave (km/s) = 3.58430 4.01507 3.80578
# Velocity P-wave (km/s) = 6.71456 7.05963 6.88926
#
# Compressibility (1/GPa) = 0.01649980
#
# Stress axis : x y z
#
# Youngs Moduli (GPa) = 87.12162 128.91713 105.61479
#
# Poissons Ratio (x) = 0.34305 0.27598
# Poissons Ratio (y) = 0.23183 0.08742
# Poissons Ratio (z) = 0.22766 0.10671
#
# Static dielectric constant tensor:
#      x y z
#    x 4.015890 0.000000 0.000000 
#    y 0.000000 4.403250 0.000000 
#    z 0.000000 0.000000 3.349850 
# 
# 
# High freq. dielectric constant tensor:
#      x y z
#    x 1.858510 0.000000 0.000000 
#    y 0.000000 1.884160 0.000000 
#    z 0.000000 0.000000 1.806000 
# 
# From -- ./inp_files/31295.got.cif
#   From: 2010.06.25/outbox.cif.g09.slc.cpg/sg58_16_cif.got.tgz:31295.got - 2010.06.26 21:38:00.
