data_PCOD8238207
_publ_section_title
;
Structure prediction by ZEFSAII (Michael W. Deem and Ramdas Pophale) SiO2 
 PCOD8238207
Probable space group: P N N M
;
_chemical_formula_sum "Si O2"
_cell_formula_units_Z 48
_cell_length_a 14.286614
_cell_length_b 8.993911
_cell_length_c 17.421101
_cell_angle_alpha 90.000000
_cell_angle_beta 90.000000
_cell_angle_gamma 90.000000
_cell_volume 2238.481427
_symmetry_space_group_name_H-M "P N N M"
_symmetry_group_IT_number 58
_symmetry_cell_setting 'orthorhombic'
loop_
_space_group_symop_operation_xyz
x,y,z
-x,-y,z
1/2+x,1/2-y,1/2-z
1/2-x,1/2+y,1/2-z
-x,-y,-z
x,y,-z
1/2-x,1/2+y,1/2+z
1/2+x,1/2-y,1/2+z
loop_
_atom_site_type_symbol
_atom_site_label
_atom_site_fract_x
_atom_site_fract_y
_atom_site_fract_z
Si Si1 0.223804 0.534676 0.119699
Si Si2 0.853680 0.080817 0.500000
Si Si3 0.890407 0.708736 0.185906
Si Si4 0.191435 0.015692 0.091976
Si Si5 0.039405 0.227836 0.500000
Si Si6 0.063190 0.740199 0.082607
Si Si7 0.148066 0.306895 0.355043
O O1 0.285119 0.415680 0.072375
O O2 0.173872 0.437781 0.184024
O O3 0.144178 0.617943 0.070638
O O4 0.290010 0.659736 0.153293
O O5 0.926014 0.218666 0.500000
O O6 0.913127 0.931523 0.500000
O O7 0.836928 0.843047 0.143223
O O8 0.910170 0.710927 0.276576
O O9 0.990939 0.687615 0.146799
O O10 0.107322 0.899095 0.103724
O O11 0.286140 0.949698 0.129746
O O12 0.205389 0.050040 0.000000
O O13 0.072904 0.311506 0.423684
O O14 0.011136 0.753039 0.000000
#
# Coordination Sequence:
#
# PCOD8238207 Si02
#       7
#     8   4   8   8   4   8   8
#     4  10  21  38  62  87 121 156 200 256 310 364
#     4   9  18  36  62  92 105 148 213 253 291 351
#     4  12  23  34  59  97 125 154 206 263 306 361
#     4  10  21  40  63  85 125 169 205 247 316 384
#     4   9  18  40  65  80 110 160 211 249 297 367
#     4  10  21  39  61  86 123 165 198 240 313 391
#     4  10  21  42  61  86 119 168 207 253 315 373
#
# _framework density 21.443107999999999
#
# number of rings (size 3 to 8) (size 9 to 14) (size 15 to 20)
#    0.000    1.833    1.667    2.500    2.333    2.000 
#   18.000    0.000    0.000    1.000    0.000    0.000 
#    0.000    0.000    0.000    0.000    0.000    0.000 
#
# Total GULP energy -594660.040623 kJ/mol
# GULP energy per Si atom -12388.750846 kJ/mol
# Density = 2.139430 g / cm^3
# Si number density = 21.443108 Si / 1000 Ang^3
#
#
#
# Elastic Constant Matrix: (Units=GPa)
#
#
# Indices 1 2 3 4 5 6 
#
# 1 98.4558 16.9276 49.7632 0.0000 0.0000 0.0000
# 2 16.9276 56.2730 20.3027 0.0000 0.0000 0.0000
# 3 49.7632 20.3027 161.5555 0.0000 0.0000 0.0000
# 4 0.0000 0.0000 0.0000 10.2642 0.0000 0.0000
# 5 0.0000 0.0000 0.0000 0.0000 21.8656 0.0000
# 6 0.0000 0.0000 0.0000 0.0000 0.0000 22.2159
#
#
#
# Elastic Compliance Matrix: (Units=1/GPa)
#
#
# Indices 1 2 3 4 5 6 
#
# 1 0.012345 -0.002453 -0.003494 0.000000 0.000000 0.000000
# 2 -0.002453 0.019102 -0.001645 0.000000 0.000000 0.000000
# 3 -0.003494 -0.001645 0.007473 0.000000 0.000000 0.000000
# 4 0.000000 0.000000 0.000000 0.097426 0.000000 0.000000
# 5 0.000000 0.000000 0.000000 0.000000 0.045734 0.000000
# 6 0.000000 0.000000 0.000000 0.000000 0.000000 0.045013
#
#
# Mechanical properties :
#
#
# Convention : Reuss Voigt Hill
#
# Bulk Modulus (GPa) = 42.13123 54.47459 48.30291
# Shear Modulus (GPa) = 19.98496 26.15520 23.07008
#
# Velocity S-wave (km/s) = 3.05618 3.49628 3.28361
# Velocity P-wave (km/s) = 5.66959 6.46204 6.07874
#
# Compressibility (1/GPa) = 0.02373536
#
# Stress axis : x y z
#
# Youngs Moduli (GPa) = 81.00672 52.35105 133.81741
#
# Poissons Ratio (x) = 0.12840 0.46759
# Poissons Ratio (y) = 0.19869 0.22013
# Poissons Ratio (z) = 0.28306 0.08612
#
# Static dielectric constant tensor:
#      x y z
#    x 4.001460 0.000000 0.000000 
#    y 0.000000 3.812540 0.000000 
#    z 0.000000 0.000000 3.774480 
# 
# 
# High freq. dielectric constant tensor:
#      x y z
#    x 1.840960 0.000000 0.000000 
#    y 0.000000 1.835440 0.000000 
#    z 0.000000 0.000000 1.835390 
# 
# From -- ./inp_files/26826.got.cif
#   From: 2010.06.25/outbox.cif.g09.slc.cpg/sg58_14_cif.got.tgz:26826.got - 2010.06.26 21:38:00.
