data_PCOD8238863
_publ_section_title
;
Structure prediction by ZEFSAII (Michael W. Deem and Ramdas Pophale) SiO2 
 PCOD8238863
Probable space group: P N N M
;
_chemical_formula_sum "Si O2"
_cell_formula_units_Z 56
_cell_length_a 21.783648
_cell_length_b 14.433028
_cell_length_c 8.345206
_cell_angle_alpha 90.000000
_cell_angle_beta 90.000000
_cell_angle_gamma 90.000000
_cell_volume 2623.766160
_symmetry_space_group_name_H-M "P N N M"
_symmetry_group_IT_number 58
_symmetry_cell_setting 'orthorhombic'
loop_
_space_group_symop_operation_xyz
x,y,z
-x,-y,z
1/2+x,1/2-y,1/2-z
1/2-x,1/2+y,1/2-z
-x,-y,-z
x,y,-z
1/2-x,1/2+y,1/2+z
1/2+x,1/2-y,1/2+z
loop_
_atom_site_type_symbol
_atom_site_label
_atom_site_fract_x
_atom_site_fract_y
_atom_site_fract_z
Si Si1 0.976379 0.780835 0.186213
Si Si2 0.771270 0.166643 0.814903
Si Si3 0.451134 0.926250 0.690495
Si Si4 0.096044 0.867098 0.686892
Si Si5 0.881629 0.924730 0.316061
Si Si6 0.741350 0.356293 0.317576
Si Si7 0.182201 0.485243 0.186867
O O1 0.968079 0.676406 0.251263
O O2 0.931811 0.846436 0.286568
O O3 0.046167 0.811257 0.211552
O O4 0.958693 0.787913 0.000000
O O5 0.838635 0.171297 0.740981
O O6 0.741059 0.267502 0.797544
O O7 0.731703 0.094435 0.714586
O O8 0.772517 0.136739 0.000000
O O9 0.452460 0.928193 0.500000
O O10 0.383660 0.952948 0.754158
O O11 0.500000 0.000000 0.760374
O O12 0.085782 0.847441 0.500000
O O13 0.089198 0.975915 0.726618
O O14 0.860386 0.922677 0.500000
O O15 0.821695 0.911918 0.207726
O O16 0.745723 0.322531 0.500000
O O17 0.798932 0.421891 0.279383
O O18 0.178912 0.508504 0.000000
#
# Coordination Sequence:
#
# PCOD8238863 Si02
#       7
#     8   8   8   8   8   8   8
#     4  11  23  39  65  96 129 172 221 270 325 387
#     4  12  25  42  66  95 130 172 219 271 331 394
#     4   9  21  41  64  92 127 170 215 263 316 381
#     4  11  24  42  64  93 131 170 214 270 330 390
#     4  11  23  42  66  93 130 173 217 265 330 393
#     4  12  25  41  65  96 132 169 216 269 327 393
#     4  11  22  41  68  97 131 170 216 268 325 386
#
# _framework density 21.343366
#
# number of rings (size 3 to 8) (size 9 to 14) (size 15 to 20)
#    0.000    1.000    1.429    5.571    2.000    4.571 
#    0.000    2.143    0.000    3.429    0.000    0.000 
#    0.000    0.000    0.000    0.000    0.000    0.000 
#
# Total GULP energy -694847.831621 kJ/mol
# GULP energy per Si atom -12407.996993 kJ/mol
# Density = 2.129479 g / cm^3
# Si number density = 21.343366 Si / 1000 Ang^3
#
#
#
# Elastic Constant Matrix: (Units=GPa)
#
#
# Indices 1 2 3 4 5 6 
#
# 1 106.8548 14.2076 14.4511 0.0000 0.0000 0.0000
# 2 14.2076 69.3437 20.1672 0.0000 0.0000 0.0000
# 3 14.4511 20.1672 57.3084 0.0000 0.0000 0.0000
# 4 0.0000 0.0000 0.0000 32.9701 0.0000 0.0000
# 5 0.0000 0.0000 0.0000 0.0000 29.5176 0.0000
# 6 0.0000 0.0000 0.0000 0.0000 0.0000 36.5291
#
#
#
# Elastic Compliance Matrix: (Units=1/GPa)
#
#
# Indices 1 2 3 4 5 6 
#
# 1 0.009816 -0.001439 -0.001969 0.000000 0.000000 0.000000
# 2 -0.001439 0.016276 -0.005365 0.000000 0.000000 0.000000
# 3 -0.001969 -0.005365 0.019834 0.000000 0.000000 0.000000
# 4 0.000000 0.000000 0.000000 0.030331 0.000000 0.000000
# 5 0.000000 0.000000 0.000000 0.000000 0.033878 0.000000
# 6 0.000000 0.000000 0.000000 0.000000 0.000000 0.027375
#
#
# Mechanical properties :
#
#
# Convention : Reuss Voigt Hill
#
# Bulk Modulus (GPa) = 35.23478 36.79541 36.01510
# Shear Modulus (GPa) = 30.39235 32.11542 31.25388
#
# Velocity S-wave (km/s) = 3.77765 3.88326 3.83082
# Velocity P-wave (km/s) = 5.96422 6.11420 6.03967
#
# Compressibility (1/GPa) = 0.02838105
#
# Stress axis : x y z
#
# Youngs Moduli (GPa) = 101.87386 61.44053 50.41873
#
# Poissons Ratio (x) = 0.08838 0.09928
# Poissons Ratio (y) = 0.14655 0.27049
# Poissons Ratio (z) = 0.20059 0.32962
#
# Static dielectric constant tensor:
#      x y z
#    x 3.962810 0.000000 0.000000 
#    y 0.000000 4.035830 0.000000 
#    z 0.000000 0.000000 3.651960 
# 
# 
# High freq. dielectric constant tensor:
#      x y z
#    x 1.845840 0.000000 0.000000 
#    y 0.000000 1.849730 0.000000 
#    z 0.000000 0.000000 1.828940 
# 
# From -- ./inp_files/8997.got.cif
#   From: 2010.06.25/outbox.cif.g09.slc.cpg/sg58_5_cif.got.tgz:8997.got - 2010.06.26 21:38:00.
