data_PCOD8238406
_publ_section_title
;
Structure prediction by ZEFSAII (Michael W. Deem and Ramdas Pophale) SiO2 
 PCOD8238406
Probable space group: P N N M
;
_chemical_formula_sum "Si O2"
_cell_formula_units_Z 40
_cell_length_a 8.910469
_cell_length_b 18.989241
_cell_length_c 10.287930
_cell_angle_alpha 90.000000
_cell_angle_beta 90.000000
_cell_angle_gamma 90.000000
_cell_volume 1740.749065
_symmetry_space_group_name_H-M "P N N M"
_symmetry_group_IT_number 58
_symmetry_cell_setting 'orthorhombic'
loop_
_space_group_symop_operation_xyz
x,y,z
-x,-y,z
1/2+x,1/2-y,1/2-z
1/2-x,1/2+y,1/2-z
-x,-y,-z
x,y,-z
1/2-x,1/2+y,1/2+z
1/2+x,1/2-y,1/2+z
loop_
_atom_site_type_symbol
_atom_site_label
_atom_site_fract_x
_atom_site_fract_y
_atom_site_fract_z
Si Si1 0.655253 0.897533 0.352994
Si Si2 0.340640 0.468265 0.222208
Si Si3 0.350328 0.734753 0.149627
Si Si4 0.676458 0.683123 0.142863
Si Si5 0.429056 0.925148 0.137402
O O1 0.597097 0.886856 0.500000
O O2 0.771648 0.837887 0.309226
O O3 0.510404 0.888991 0.260259
O O4 0.737911 0.972934 0.347046
O O5 0.500000 0.500000 0.265633
O O6 0.363827 0.399994 0.131200
O O7 0.249088 0.437273 0.344353
O O8 0.526467 0.726667 0.174068
O O9 0.295354 0.798722 0.242513
O O10 0.312982 0.752926 0.000000
O O11 0.738072 0.705692 0.000000
O O12 0.500000 0.000000 0.117174
O O13 0.451277 0.882472 0.000000
#
# Coordination Sequence:
#
# PCOD8238406 Si02
#       5
#     8   8   8   8   8
#     4  10  21  41  69  98 129 168 218 272 325 384
#     4  11  22  40  69 102 131 164 218 282 331 375
#     4  10  24  45  66  94 132 174 219 267 324 393
#     4  11  25  44  68  97 130 172 220 270 328 390
#     4   9  21  39  59  90 132 171 206 253 319 391
#
# _framework density 22.978612999999999
#
# number of rings (size 3 to 8) (size 9 to 14) (size 15 to 20)
#    0.000    1.800    2.000    0.600    2.800    8.000 
#    0.000    0.000    0.000    0.000    0.000    0.000 
#    0.000    0.000    0.000    0.000    0.000    0.000 
#
# Total GULP energy -495694.139850 kJ/mol
# GULP energy per Si atom -12392.353496 kJ/mol
# Density = 2.292631 g / cm^3
# Si number density = 22.978613 Si / 1000 Ang^3
#
#
#
# Elastic Constant Matrix: (Units=GPa)
#
#
# Indices 1 2 3 4 5 6 
#
# 1 125.6259 20.7835 65.2093 0.0000 0.0000 0.0000
# 2 20.7835 115.8421 13.4249 0.0000 0.0000 0.0000
# 3 65.2093 13.4249 141.8837 0.0000 0.0000 0.0000
# 4 0.0000 0.0000 0.0000 19.7954 0.0000 0.0000
# 5 0.0000 0.0000 0.0000 0.0000 28.4130 0.0000
# 6 0.0000 0.0000 0.0000 0.0000 0.0000 38.9855
#
#
#
# Elastic Compliance Matrix: (Units=1/GPa)
#
#
# Indices 1 2 3 4 5 6 
#
# 1 0.010662 -0.001360 -0.004771 0.000000 0.000000 0.000000
# 2 -0.001360 0.008902 -0.000217 0.000000 0.000000 0.000000
# 3 -0.004771 -0.000217 0.009262 0.000000 0.000000 0.000000
# 4 0.000000 0.000000 0.000000 0.050517 0.000000 0.000000
# 5 0.000000 0.000000 0.000000 0.000000 0.035195 0.000000
# 6 0.000000 0.000000 0.000000 0.000000 0.000000 0.025651
#
#
# Mechanical properties :
#
#
# Convention : Reuss Voigt Hill
#
# Bulk Modulus (GPa) = 62.00504 64.68746 63.34625
# Shear Modulus (GPa) = 31.59344 36.36771 33.98058
#
# Velocity S-wave (km/s) = 3.71200 3.98260 3.84968
# Velocity P-wave (km/s) = 6.73901 7.02570 6.88385
#
# Compressibility (1/GPa) = 0.01612772
#
# Stress axis : x y z
#
# Youngs Moduli (GPa) = 93.79201 112.33936 107.97331
#
# Poissons Ratio (x) = 0.15277 0.51519
# Poissons Ratio (y) = 0.12755 0.02346
# Poissons Ratio (z) = 0.44753 0.02441
#
# Static dielectric constant tensor:
#      x y z
#    x 4.115160 0.000000 0.000000 
#    y 0.000000 4.325830 0.000000 
#    z 0.000000 0.000000 4.331750 
# 
# 
# High freq. dielectric constant tensor:
#      x y z
#    x 1.905660 0.000000 0.000000 
#    y 0.000000 1.923600 0.000000 
#    z 0.000000 0.000000 1.898190 
# 
# From -- ./inp_files/12906.got.cif
#   From: 2010.06.25/outbox.cif.g09.slc.cpg/sg58_7_cif.got.tgz:12906.got - 2010.06.26 21:38:00.
