data_PCOD8238148
_publ_section_title
;
Structure prediction by ZEFSAII (Michael W. Deem and Ramdas Pophale) SiO2 
 PCOD8238148
Probable space group: P N N M
;
_chemical_formula_sum "Si O2"
_cell_formula_units_Z 64
_cell_length_a 23.914985
_cell_length_b 15.439040
_cell_length_c 8.765537
_cell_angle_alpha 90.000000
_cell_angle_beta 90.000000
_cell_angle_gamma 90.000000
_cell_volume 3236.450227
_symmetry_space_group_name_H-M "P N N M"
_symmetry_group_IT_number 58
_symmetry_cell_setting 'orthorhombic'
loop_
_space_group_symop_operation_xyz
x,y,z
-x,-y,z
1/2+x,1/2-y,1/2-z
1/2-x,1/2+y,1/2-z
-x,-y,-z
x,y,-z
1/2-x,1/2+y,1/2+z
1/2+x,1/2-y,1/2+z
loop_
_atom_site_type_symbol
_atom_site_label
_atom_site_fract_x
_atom_site_fract_y
_atom_site_fract_z
Si Si1 0.498463 0.162206 0.175814
Si Si2 0.501767 0.346488 0.679197
Si Si3 0.110698 0.085921 0.680430
Si Si4 0.181936 0.247615 0.681703
Si Si5 0.379596 0.407557 0.680367
Si Si6 0.612466 0.906018 0.679749
Si Si7 0.382898 0.916620 0.823896
Si Si8 0.692547 0.752895 0.318931
O O1 0.508529 0.247126 0.275149
O O2 0.444999 0.109868 0.232052
O O3 0.551396 0.100090 0.196853
O O4 0.491393 0.189764 0.000000
O O5 0.509837 0.355790 0.500000
O O6 0.547600 0.406053 0.759999
O O7 0.441493 0.380151 0.731816
O O8 0.110222 0.085842 0.500000
O O9 0.147740 0.165258 0.744782
O O10 0.137711 0.997181 0.740674
O O11 0.181614 0.245628 0.500000
O O12 0.152328 0.335209 0.739171
O O13 0.244788 0.243312 0.747790
O O14 0.375622 0.418559 0.500000
O O15 0.337287 0.334104 0.740852
O O16 0.601753 0.897933 0.500000
O O17 0.658125 0.836550 0.736722
O O18 0.634920 0.000860 0.723403
O O19 0.368260 0.935029 0.000000
O O20 0.694242 0.751751 0.500000
#
# Coordination Sequence:
#
# PCOD8238148 Si02
#       8
#     8   8   8   8   8   8   8   8
#     4  11  21  36  59  86 117 151 188 233 286 345
#     4  11  21  36  59  86 117 151 188 233 286 345
#     4  11  22  37  58  88 117 150 191 233 286 342
#     4   9  19  38  60  80 111 154 194 233 282 338
#     4  10  21  38  58  84 114 150 190 231 283 340
#     4  11  22  37  58  88 117 150 191 233 286 342
#     4  10  21  38  58  84 114 150 190 231 283 340
#     4   9  19  38  60  80 111 154 194 233 282 338
#
# _framework density 19.774750999999998
#
# number of rings (size 3 to 8) (size 9 to 14) (size 15 to 20)
#    0.000    1.750    2.500    2.250    0.000    6.000 
#    0.000    0.000    0.000    5.250    0.000    0.000 
#    0.000    0.000    0.000    0.000    0.000    0.000 
#
# Total GULP energy -793852.780989 kJ/mol
# GULP energy per Si atom -12403.949703 kJ/mol
# Density = 1.972974 g / cm^3
# Si number density = 19.774751 Si / 1000 Ang^3
#
#
#
# Elastic Constant Matrix: (Units=GPa)
#
#
# Indices 1 2 3 4 5 6 
#
# 1 137.2372 54.3379 34.2614 0.0000 0.0000 0.0000
# 2 54.3379 139.7267 32.2305 0.0000 0.0000 0.0000
# 3 34.2614 32.2305 24.3427 0.0000 0.0000 0.0000
# 4 0.0000 0.0000 0.0000 37.0897 0.0000 0.0000
# 5 0.0000 0.0000 0.0000 0.0000 19.4636 0.0000
# 6 0.0000 0.0000 0.0000 0.0000 0.0000 15.9452
#
#
#
# Elastic Compliance Matrix: (Units=1/GPa)
#
#
# Indices 1 2 3 4 5 6 
#
# 1 0.011340 -0.001049 -0.014572 0.000000 0.000000 0.000000
# 2 -0.001049 0.010401 -0.012295 0.000000 0.000000 0.000000
# 3 -0.014572 -0.012295 0.077868 0.000000 0.000000 0.000000
# 4 0.000000 0.000000 0.000000 0.026962 0.000000 0.000000
# 5 0.000000 0.000000 0.000000 0.000000 0.051378 0.000000
# 6 0.000000 0.000000 0.000000 0.000000 0.000000 0.062715
#
#
# Mechanical properties :
#
#
# Convention : Reuss Voigt Hill
#
# Bulk Modulus (GPa) = 22.84256 60.32958 41.58607
# Shear Modulus (GPa) = 16.07269 26.53147 21.30208
#
# Velocity S-wave (km/s) = 2.85404 3.66687 3.28569
# Velocity P-wave (km/s) = 4.73679 6.96438 5.95566
#
# Compressibility (1/GPa) = 0.04377793
#
# Stress axis : x y z
#
# Youngs Moduli (GPa) = 88.18562 96.14770 12.84220
#
# Poissons Ratio (x) = 0.10082 0.18713
# Poissons Ratio (y) = 0.09247 0.15789
# Poissons Ratio (z) = 1.28503 1.18213
#
# Static dielectric constant tensor:
#      x y z
#    x 3.767670 0.000000 0.000000 
#    y 0.000000 3.768440 0.000000 
#    z 0.000000 0.000000 3.321100 
# 
# 
# High freq. dielectric constant tensor:
#      x y z
#    x 1.769580 0.000000 0.000000 
#    y 0.000000 1.786900 0.000000 
#    z 0.000000 0.000000 1.745640 
# 
# From -- ./inp_files/10070.got.cif
#   From: 2010.06.25/outbox.cif.g09.slc.cpg/sg58_6_cif.got.tgz:10070.got - 2010.06.26 21:38:00.
