data_PCOD8238080
_publ_section_title
;
Structure prediction by ZEFSAII (Michael W. Deem and Ramdas Pophale) SiO2 
 PCOD8238080
Probable space group: P N N M
;
_chemical_formula_sum "Si O2"
_cell_formula_units_Z 48
_cell_length_a 9.076240
_cell_length_b 20.027386
_cell_length_c 13.480283
_cell_angle_alpha 90.000000
_cell_angle_beta 90.000000
_cell_angle_gamma 90.000000
_cell_volume 2450.356360
_symmetry_space_group_name_H-M "P N N M"
_symmetry_group_IT_number 58
_symmetry_cell_setting 'orthorhombic'
loop_
_space_group_symop_operation_xyz
x,y,z
-x,-y,z
1/2+x,1/2-y,1/2-z
1/2-x,1/2+y,1/2-z
-x,-y,-z
x,y,-z
1/2-x,1/2+y,1/2+z
1/2+x,1/2-y,1/2+z
loop_
_atom_site_type_symbol
_atom_site_label
_atom_site_fract_x
_atom_site_fract_y
_atom_site_fract_z
Si Si1 0.582614 0.935228 0.268545
Si Si2 0.569905 0.674898 0.811803
Si Si3 0.886188 0.319000 0.387613
Si Si4 0.382050 0.849605 0.611119
Si Si5 0.882094 0.943149 0.614440
Si Si6 0.541480 0.295960 0.392043
O O1 0.572603 0.880847 0.181509
O O2 0.486341 0.910744 0.361564
O O3 0.746286 0.950341 0.309023
O O4 0.500000 0.000000 0.225394
O O5 0.540188 0.750649 0.847641
O O6 0.737356 0.651836 0.821808
O O7 0.457595 0.628889 0.872730
O O8 0.543275 0.665832 0.694307
O O9 0.941717 0.332193 0.500000
O O10 0.712729 0.311011 0.385612
O O11 0.322943 0.858797 0.500000
O O12 0.480660 0.783239 0.621508
O O13 0.829762 0.950560 0.500000
O O14 0.000000 0.000000 0.642395
O O15 0.479981 0.318835 0.500000
#
# Coordination Sequence:
#
# PCOD8238080 Si02
#       6
#     8   8   8   8   8   8
#     4  12  24  39  60  87 124 170 202 250 309 362
#     4  11  19  38  66  90 120 160 199 247 306 364
#     4  10  21  39  62  90 121 159 202 252 306 356
#     4  10  21  37  58  89 125 157 193 245 310 361
#     4  11  24  41  62  92 123 157 207 256 302 366
#     4   9  18  35  62  90 120 154 195 250 302 354
#
# _framework density 19.588986999999999
#
# number of rings (size 3 to 8) (size 9 to 14) (size 15 to 20)
#    0.000    1.500    3.333    4.000    0.000    3.000 
#    0.000    0.833    0.000    4.000    0.000    0.000 
#    0.000    0.000    0.000    0.000    0.000    0.000 
#
# Total GULP energy -595194.479516 kJ/mol
# GULP energy per Si atom -12399.884990 kJ/mol
# Density = 1.954440 g / cm^3
# Si number density = 19.588987 Si / 1000 Ang^3
#
#
#
# Elastic Constant Matrix: (Units=GPa)
#
#
# Indices 1 2 3 4 5 6 
#
# 1 67.0001 47.5284 38.6545 0.0000 0.0000 0.0000
# 2 47.5284 122.6164 45.5600 0.0000 0.0000 0.0000
# 3 38.6545 45.5600 120.7803 0.0000 0.0000 0.0000
# 4 0.0000 0.0000 0.0000 25.5744 0.0000 0.0000
# 5 0.0000 0.0000 0.0000 0.0000 30.4665 0.0000
# 6 0.0000 0.0000 0.0000 0.0000 0.0000 31.0647
#
#
#
# Elastic Compliance Matrix: (Units=1/GPa)
#
#
# Indices 1 2 3 4 5 6 
#
# 1 0.022557 -0.007049 -0.004560 0.000000 0.000000 0.000000
# 2 -0.007049 0.011688 -0.002153 0.000000 0.000000 0.000000
# 3 -0.004560 -0.002153 0.010551 0.000000 0.000000 0.000000
# 4 0.000000 0.000000 0.000000 0.039102 0.000000 0.000000
# 5 0.000000 0.000000 0.000000 0.000000 0.032823 0.000000
# 6 0.000000 0.000000 0.000000 0.000000 0.000000 0.032191
#
#
# Mechanical properties :
#
#
# Convention : Reuss Voigt Hill
#
# Bulk Modulus (GPa) = 57.89850 63.76473 60.83162
# Shear Modulus (GPa) = 27.44363 29.33139 28.38751
#
# Velocity S-wave (km/s) = 3.74702 3.87375 3.81091
# Velocity P-wave (km/s) = 6.95277 7.25464 7.10531
#
# Compressibility (1/GPa) = 0.01727160
#
# Stress axis : x y z
#
# Youngs Moduli (GPa) = 44.33293 85.55960 94.77819
#
# Poissons Ratio (x) = 0.60311 0.43219
# Poissons Ratio (y) = 0.31250 0.20404
# Poissons Ratio (z) = 0.20216 0.18419
#
# Static dielectric constant tensor:
#      x y z
#    x 3.378670 0.000000 0.000000 
#    y 0.000000 3.651420 0.000000 
#    z 0.000000 0.000000 3.765910 
# 
# 
# High freq. dielectric constant tensor:
#      x y z
#    x 1.753180 0.000000 0.000000 
#    y 0.000000 1.758090 0.000000 
#    z 0.000000 0.000000 1.767710 
# 
# From -- ./inp_files/19830.got.cif
#   From: 2010.06.25/outbox.cif.g09.slc.cpg/sg58_10_cif.got.tgz:19830.got - 2010.06.26 21:38:00.
