data_PCOD8238739
_publ_section_title
;
Structure prediction by ZEFSAII (Michael W. Deem and Ramdas Pophale) SiO2 
 PCOD8238739
Probable space group: P N N M
;
_chemical_formula_sum "Si O2"
_cell_formula_units_Z 40
_cell_length_a 13.559066
_cell_length_b 5.805937
_cell_length_c 22.486141
_cell_angle_alpha 90.000000
_cell_angle_beta 90.000000
_cell_angle_gamma 90.000000
_cell_volume 1770.178344
_symmetry_space_group_name_H-M "P N N M"
_symmetry_group_IT_number 58
_symmetry_cell_setting 'orthorhombic'
loop_
_space_group_symop_operation_xyz
x,y,z
-x,-y,z
1/2+x,1/2-y,1/2-z
1/2-x,1/2+y,1/2-z
-x,-y,-z
x,y,-z
1/2-x,1/2+y,1/2+z
1/2+x,1/2-y,1/2+z
loop_
_atom_site_type_symbol
_atom_site_label
_atom_site_fract_x
_atom_site_fract_y
_atom_site_fract_z
Si Si1 0.239265 0.772306 0.174894
Si Si2 0.248072 0.103673 0.067011
Si Si3 0.901568 0.615878 0.866323
Si Si4 0.962596 0.248459 0.568209
Si Si5 0.400199 0.595055 0.746020
O O1 0.182975 0.539232 0.161792
O O2 0.347715 0.740904 0.202548
O O3 0.254481 0.893446 0.112064
O O4 0.177827 0.906696 0.224553
O O5 0.147963 0.243793 0.080080
O O6 0.344172 0.263481 0.075089
O O7 0.241979 0.005579 0.000000
O O8 0.938868 0.769359 0.811674
O O9 0.000000 0.500000 0.893081
O O10 0.998105 0.250712 0.500000
O O11 0.000000 0.500000 0.595540
O O12 0.000000 0.000000 0.596225
O O13 0.500000 0.500000 0.776072
#
# Coordination Sequence:
#
# PCOD8238739 Si02
#       5
#     8   8   8   8   8
#     4  11  23  42  70 102 135 178 232 287 360 434
#     4  10  25  44  66 101 142 186 236 290 348 433
#     4  11  23  42  70  97 133 181 225 293 365 423
#     4   9  19  39  66  92 130 185 236 288 349 412
#     4  11  22  42  71 100 136 175 227 298 364 430
#
# _framework density 22.596592999999999
#
# number of rings (size 3 to 8) (size 9 to 14) (size 15 to 20)
#    0.000    1.600    4.000    0.000    2.800    1.200 
#    3.600    1.000    0.000    0.600    0.000    0.000 
#    0.000    0.000    0.000    0.000    0.000    0.000 
#
# Total GULP energy -495750.286628 kJ/mol
# GULP energy per Si atom -12393.757166 kJ/mol
# Density = 2.254516 g / cm^3
# Si number density = 22.596593 Si / 1000 Ang^3
#
#
#
# Elastic Constant Matrix: (Units=GPa)
#
#
# Indices 1 2 3 4 5 6 
#
# 1 162.7656 50.0046 64.4464 0.0000 0.0000 0.0000
# 2 50.0046 111.1633 30.7179 0.0000 0.0000 0.0000
# 3 64.4464 30.7179 93.8837 0.0000 0.0000 0.0000
# 4 0.0000 0.0000 0.0000 -80.7960 0.0000 0.0000
# 5 0.0000 0.0000 0.0000 0.0000 64.3539 0.0000
# 6 0.0000 0.0000 0.0000 0.0000 0.0000 42.4710
#
#
#
# Elastic Compliance Matrix: (Units=1/GPa)
#
#
# Indices 1 2 3 4 5 6 
#
# 1 0.009070 -0.002594 -0.005377 0.000000 0.000000 0.000000
# 2 -0.002594 0.010632 -0.001698 0.000000 0.000000 0.000000
# 3 -0.005377 -0.001698 0.014898 0.000000 0.000000 0.000000
# 4 0.000000 0.000000 0.000000 -0.012377 0.000000 0.000000
# 5 0.000000 0.000000 0.000000 0.000000 0.015539 0.000000
# 6 0.000000 0.000000 0.000000 0.000000 0.000000 0.023545
#
#
# Mechanical properties :
#
#
# Convention : Reuss Voigt Hill
#
# Bulk Modulus (GPa) = 65.52456 73.12782 69.32619
# Shear Modulus (GPa) = 58.32046 20.04870 39.18458
#
# Velocity S-wave (km/s) = 5.08581 2.98190 4.16876
# Velocity P-wave (km/s) = 7.97168 6.65494 7.34288
#
# Compressibility (1/GPa) = 0.01526145
#
# Stress axis : x y z
#
# Youngs Moduli (GPa) = 110.25577 94.05710 67.12198
#
# Poissons Ratio (x) = 0.24398 0.36093
# Poissons Ratio (y) = 0.28600 0.11397
# Poissons Ratio (z) = 0.59287 0.15971
#
# Static dielectric constant tensor:
#      x y z
#    x 4.101410 0.000000 0.000000 
#    y 0.000000 4.244650 0.000000 
#    z 0.000000 0.000000 3.884730 
# 
# 
# High freq. dielectric constant tensor:
#      x y z
#    x 1.903560 0.000000 0.000000 
#    y 0.000000 1.890400 0.000000 
#    z 0.000000 0.000000 1.872250 
# 
# From -- ./inp_files/33458.got.cif
#   From: 2010.06.25/outbox.cif.g09.slc.cpg/sg58_17_cif.got.tgz:33458.got - 2010.06.26 21:38:00.
