data_PCOD8238754
_publ_section_title
;
Structure prediction by ZEFSAII (Michael W. Deem and Ramdas Pophale) SiO2 
 PCOD8238754
Probable space group: P N N M
;
_chemical_formula_sum "Si O2"
_cell_formula_units_Z 64
_cell_length_a 9.676377
_cell_length_b 22.753221
_cell_length_c 18.280487
_cell_angle_alpha 90.000000
_cell_angle_beta 90.000000
_cell_angle_gamma 90.000000
_cell_volume 4024.791869
_symmetry_space_group_name_H-M "P N N M"
_symmetry_group_IT_number 58
_symmetry_cell_setting 'orthorhombic'
loop_
_space_group_symop_operation_xyz
x,y,z
-x,-y,z
1/2+x,1/2-y,1/2-z
1/2-x,1/2+y,1/2-z
-x,-y,-z
x,y,-z
1/2-x,1/2+y,1/2+z
1/2+x,1/2-y,1/2+z
loop_
_atom_site_type_symbol
_atom_site_label
_atom_site_fract_x
_atom_site_fract_y
_atom_site_fract_z
Si Si1 0.225431 0.567377 0.586914
Si Si2 0.915121 0.192984 0.727653
Si Si3 0.020945 0.131151 0.142615
Si Si4 0.585551 0.745856 0.081229
Si Si5 0.529111 0.134986 0.859541
Si Si6 0.092709 0.302789 0.225162
Si Si7 0.095921 0.251575 0.919088
Si Si8 0.225665 0.934740 0.915662
O O1 0.249619 0.576599 0.500000
O O2 0.323016 0.608739 0.635760
O O3 0.071460 0.585096 0.609978
O O4 0.247832 0.500642 0.612077
O O5 0.934720 0.191797 0.638914
O O6 0.754279 0.203737 0.746628
O O7 0.971440 0.135735 0.771905
O O8 0.013029 0.244455 0.754148
O O9 0.006062 0.194812 0.103976
O O10 0.932099 0.082708 0.099442
O O11 0.493403 0.802400 0.101356
O O12 0.743786 0.767819 0.082739
O O13 0.544667 0.723394 0.000000
O O14 0.523144 0.143790 0.770768
O O15 0.682855 0.113076 0.874442
O O16 0.074385 0.306889 0.136761
O O17 0.051000 0.272447 0.000000
O O18 0.262625 0.931659 0.000000
#
# Coordination Sequence:
#
# PCOD8238754 Si02
#       8
#     8   8   8   8   8   8   8   8
#     4  11  22  34  47  64  87 127 170 195 226 270
#     4   9  18  30  46  69  92 119 152 186 225 274
#     4  11  19  32  47  65  93 124 156 192 230 272
#     4   9  16  28  48  69  91 120 153 181 217 278
#     4  11  19  32  47  65  93 124 156 192 230 272
#     4   9  18  30  46  69  92 119 152 186 225 274
#     4   9  16  28  48  69  91 120 153 181 217 278
#     4  11  22  32  45  66  93 119 158 207 234 258
#
# _framework density 15.901444
#
# number of rings (size 3 to 8) (size 9 to 14) (size 15 to 20)
#    0.000    2.000    2.500    3.000    1.750    2.000 
#    0.000    0.000    0.000    0.000    0.000    0.000 
#    0.000    6.000    0.000    0.000    0.000    0.000 
#
# Total GULP energy -792972.828450 kJ/mol
# GULP energy per Si atom -12390.200445 kJ/mol
# Density = 1.586525 g / cm^3
# Si number density = 15.901444 Si / 1000 Ang^3
#
#
#
# Elastic Constant Matrix: (Units=GPa)
#
#
# Indices 1 2 3 4 5 6 
#
# 1 44.4319 8.1502 20.4550 0.0000 0.0000 0.0000
# 2 8.1502 45.5976 40.1833 0.0000 0.0000 0.0000
# 3 20.4550 40.1833 124.8792 0.0000 0.0000 0.0000
# 4 0.0000 0.0000 0.0000 20.3259 0.0000 0.0000
# 5 0.0000 0.0000 0.0000 0.0000 22.7329 0.0000
# 6 0.0000 0.0000 0.0000 0.0000 0.0000 16.9042
#
#
#
# Elastic Compliance Matrix: (Units=1/GPa)
#
#
# Indices 1 2 3 4 5 6 
#
# 1 0.024387 -0.001171 -0.003618 0.000000 0.000000 0.000000
# 2 -0.001171 0.030668 -0.009676 0.000000 0.000000 0.000000
# 3 -0.003618 -0.009676 0.011714 0.000000 0.000000 0.000000
# 4 0.000000 0.000000 0.000000 0.049198 0.000000 0.000000
# 5 0.000000 0.000000 0.000000 0.000000 0.043989 0.000000
# 6 0.000000 0.000000 0.000000 0.000000 0.000000 0.059157
#
#
# Mechanical properties :
#
#
# Convention : Reuss Voigt Hill
#
# Bulk Modulus (GPa) = 26.42810 39.16505 32.79658
# Shear Modulus (GPa) = 19.18243 21.73395 20.45819
#
# Velocity S-wave (km/s) = 3.47700 3.70102 3.59076
# Velocity P-wave (km/s) = 5.72498 6.55338 6.15314
#
# Compressibility (1/GPa) = 0.03783851
#
# Stress axis : x y z
#
# Youngs Moduli (GPa) = 41.00607 32.60764 85.36815
#
# Poissons Ratio (x) = 0.03817 0.30884
# Poissons Ratio (y) = 0.04801 0.82606
# Poissons Ratio (z) = 0.14835 0.31552
#
# Static dielectric constant tensor:
#      x y z
#    x 3.044810 0.000000 0.000000 
#    y 0.000000 2.842050 0.000000 
#    z 0.000000 0.000000 3.482150 
# 
# 
# High freq. dielectric constant tensor:
#      x y z
#    x 1.618970 0.000000 0.000000 
#    y 0.000000 1.567780 0.000000 
#    z 0.000000 0.000000 1.609940 
# 
# From -- ./inp_files/25733.got.cif
#   From: 2010.06.25/outbox.cif.g09.slc.cpg/sg58_13_cif.got.tgz:25733.got - 2010.06.26 21:38:00.
