data_PCOD8238020
_publ_section_title
;
Structure prediction by ZEFSAII (Michael W. Deem and Ramdas Pophale) SiO2 
 PCOD8238020
Probable space group: P N N M
;
_chemical_formula_sum "Si O2"
_cell_formula_units_Z 64
_cell_length_a 20.451345
_cell_length_b 17.947805
_cell_length_c 9.310825
_cell_angle_alpha 90.000000
_cell_angle_beta 90.000000
_cell_angle_gamma 90.000000
_cell_volume 3417.601183
_symmetry_space_group_name_H-M "P N N M"
_symmetry_group_IT_number 58
_symmetry_cell_setting 'orthorhombic'
loop_
_space_group_symop_operation_xyz
x,y,z
-x,-y,z
1/2+x,1/2-y,1/2-z
1/2-x,1/2+y,1/2-z
-x,-y,-z
x,y,-z
1/2-x,1/2+y,1/2+z
1/2+x,1/2-y,1/2+z
loop_
_atom_site_type_symbol
_atom_site_label
_atom_site_fract_x
_atom_site_fract_y
_atom_site_fract_z
Si Si1 0.000956 0.320225 0.331685
Si Si2 0.751375 0.911022 0.340872
Si Si3 0.128973 0.596170 0.668063
Si Si4 0.117940 0.427602 0.333067
Si Si5 0.896625 0.925677 0.666911
Si Si6 0.499637 0.329458 0.671597
Si Si7 0.884088 0.099879 0.666870
Si Si8 0.260912 0.912409 0.659122
O O1 0.004485 0.299091 0.500000
O O2 0.051577 0.385557 0.293600
O O3 0.019904 0.250442 0.234209
O O4 0.929164 0.348736 0.287775
O O5 0.739130 0.879259 0.500000
O O6 0.696596 0.874969 0.238335
O O7 0.825363 0.891971 0.291937
O O8 0.745001 0.999240 0.340684
O O9 0.140422 0.596737 0.500000
O O10 0.110718 0.512779 0.720788
O O11 0.132374 0.425233 0.500000
O O12 0.180046 0.386491 0.260886
O O13 0.912877 0.908334 0.500000
O O14 0.948951 0.889753 0.772214
O O15 0.899540 0.013592 0.694249
O O16 0.499583 0.328006 0.500000
O O17 0.428118 0.349751 0.730453
O O18 0.897302 0.119713 0.500000
O O19 0.809228 0.119766 0.708986
O O20 0.277139 0.883216 0.500000
#
# Coordination Sequence:
#
# PCOD8238020 Si02
#       8
#     8   8   8   8   8   8   8   8
#     4  10  21  37  53  70 101 143 177 204 246 306
#     4   8  15  29  51  79 106 130 160 201 249 302
#     4   9  17  31  54  81 104 129 166 211 254 297
#     4   9  17  31  54  81 104 129 166 211 254 297
#     4   9  18  35  58  79 101 134 171 203 246 309
#     4  12  25  36  49  74 105 134 171 218 258 292
#     4   9  18  35  58  79 101 134 171 203 246 309
#     4   8  15  29  51  79 106 130 160 201 249 302
#
# _framework density 18.726583999999999
#
# number of rings (size 3 to 8) (size 9 to 14) (size 15 to 20)
#    0.000    2.750    0.000    3.375    0.000    5.500 
#    0.000    3.750    0.000    3.750    0.000    0.000 
#    0.000    0.000    0.000    0.000    0.000    0.000 
#
# Total GULP energy -793412.011138 kJ/mol
# GULP energy per Si atom -12397.062674 kJ/mol
# Density = 1.868396 g / cm^3
# Si number density = 18.726584 Si / 1000 Ang^3
#
#
#
# Elastic Constant Matrix: (Units=GPa)
#
#
# Indices 1 2 3 4 5 6 
#
# 1 95.7253 7.1963 38.1573 0.0000 0.0000 0.0000
# 2 7.1963 34.9472 22.7164 0.0000 0.0000 0.0000
# 3 38.1573 22.7164 68.4702 0.0000 0.0000 0.0000
# 4 0.0000 0.0000 0.0000 18.6532 0.0000 0.0000
# 5 0.0000 0.0000 0.0000 0.0000 37.0565 0.0000
# 6 0.0000 0.0000 0.0000 0.0000 0.0000 8.4626
#
#
#
# Elastic Compliance Matrix: (Units=1/GPa)
#
#
# Indices 1 2 3 4 5 6 
#
# 1 0.013629 0.002716 -0.008497 0.000000 0.000000 0.000000
# 2 0.002716 0.037024 -0.013797 0.000000 0.000000 0.000000
# 3 -0.008497 -0.013797 0.023917 0.000000 0.000000 0.000000
# 4 0.000000 0.000000 0.000000 0.053610 0.000000 0.000000
# 5 0.000000 0.000000 0.000000 0.000000 0.026986 0.000000
# 6 0.000000 0.000000 0.000000 0.000000 0.000000 0.118167
#
#
# Mechanical properties :
#
#
# Convention : Reuss Voigt Hill
#
# Bulk Modulus (GPa) = 28.23616 37.25365 32.74491
# Shear Modulus (GPa) = 15.41815 21.57263 18.49539
#
# Velocity S-wave (km/s) = 2.87248 3.39776 3.14611
# Velocity P-wave (km/s) = 5.11003 5.94388 5.54266
#
# Compressibility (1/GPa) = 0.03541558
#
# Stress axis : x y z
#
# Youngs Moduli (GPa) = 73.37204 27.00975 41.81059
#
# Poissons Ratio (x) = -0.07337 0.35525
# Poissons Ratio (y) = -0.19931 0.57687
# Poissons Ratio (z) = 0.62341 0.37266
#
# Static dielectric constant tensor:
#      x y z
#    x 3.755590 0.000000 0.000000 
#    y 0.000000 3.169730 0.000000 
#    z 0.000000 0.000000 3.415920 
# 
# 
# High freq. dielectric constant tensor:
#      x y z
#    x 1.743510 0.000000 0.000000 
#    y 0.000000 1.694630 0.000000 
#    z 0.000000 0.000000 1.712550 
# 
# From -- ./inp_files/9265.got.cif
#   From: 2010.06.25/outbox.cif.g09.slc.cpg/sg58_5_cif.got.tgz:9265.got - 2010.06.26 21:38:00.
