data_PCOD8238097
_publ_section_title
;
Structure prediction by ZEFSAII (Michael W. Deem and Ramdas Pophale) SiO2 
 PCOD8238097
Probable space group: P N N M
;
_chemical_formula_sum "Si O2"
_cell_formula_units_Z 56
_cell_length_a 13.426214
_cell_length_b 20.645434
_cell_length_c 10.097128
_cell_angle_alpha 90.000000
_cell_angle_beta 90.000000
_cell_angle_gamma 90.000000
_cell_volume 2798.823062
_symmetry_space_group_name_H-M "P N N M"
_symmetry_group_IT_number 58
_symmetry_cell_setting 'orthorhombic'
loop_
_space_group_symop_operation_xyz
x,y,z
-x,-y,z
1/2+x,1/2-y,1/2-z
1/2-x,1/2+y,1/2-z
-x,-y,-z
x,y,-z
1/2-x,1/2+y,1/2+z
1/2+x,1/2-y,1/2+z
loop_
_atom_site_type_symbol
_atom_site_label
_atom_site_fract_x
_atom_site_fract_y
_atom_site_fract_z
Si Si1 0.766578 0.739706 0.154746
Si Si2 0.647598 0.335069 0.146664
Si Si3 0.939920 0.190037 0.248405
Si Si4 0.432309 0.057846 0.342248
Si Si5 0.213635 0.025174 0.347905
Si Si6 0.089958 0.950962 0.149234
Si Si7 0.528662 0.184784 0.649366
O O1 0.777468 0.804181 0.244721
O O2 0.663917 0.701304 0.175644
O O3 0.859159 0.695250 0.204178
O O4 0.777401 0.759108 0.000000
O O5 0.533352 0.311030 0.151377
O O6 0.643381 0.412269 0.167115
O O7 0.690174 0.318632 0.000000
O O8 0.940394 0.124033 0.164741
O O9 0.960150 0.251203 0.153743
O O10 0.431348 0.061309 0.500000
O O11 0.321073 0.045563 0.292761
O O12 0.474188 0.124710 0.277673
O O13 0.500000 0.000000 0.288577
O O14 0.216337 0.000157 0.500000
O O15 0.174802 0.966921 0.256435
O O16 0.130180 0.960785 0.000000
O O17 0.000000 0.000000 0.176218
O O18 0.541775 0.162701 0.500000
#
# Coordination Sequence:
#
# PCOD8238097 Si02
#       7
#     8   8   8   8   8   8   8
#     4  10  22  36  59  90 119 153 197 246 298 352
#     4  10  21  38  59  86 120 158 198 243 301 359
#     4  11  21  37  59  85 118 157 199 253 298 356
#     4   9  18  33  57  86 116 150 192 242 296 352
#     4  10  21  37  59  87 118 158 201 250 300 356
#     4  11  24  40  59  87 121 162 204 250 307 367
#     4   9  19  36  56  83 116 152 195 239 291 356
#
# _framework density 20.008410999999999
#
# number of rings (size 3 to 8) (size 9 to 14) (size 15 to 20)
#    0.000    2.000    1.429    1.714    2.000    4.857 
#    0.000    0.000    0.000    1.286    0.000    0.000 
#    0.000    0.000    0.000    0.000    0.000    0.000 
#
# Total GULP energy -694134.766641 kJ/mol
# GULP energy per Si atom -12395.263690 kJ/mol
# Density = 1.996287 g / cm^3
# Si number density = 20.008411 Si / 1000 Ang^3
#
#
#
# Elastic Constant Matrix: (Units=GPa)
#
#
# Indices 1 2 3 4 5 6 
#
# 1 116.4467 47.9742 30.4906 0.0000 0.0000 0.0000
# 2 47.9742 126.6455 27.7668 0.0000 0.0000 0.0000
# 3 30.4906 27.7668 81.8007 0.0000 0.0000 0.0000
# 4 0.0000 0.0000 0.0000 26.0836 0.0000 0.0000
# 5 0.0000 0.0000 0.0000 0.0000 19.1156 0.0000
# 6 0.0000 0.0000 0.0000 0.0000 0.0000 31.6057
#
#
#
# Elastic Compliance Matrix: (Units=1/GPa)
#
#
# Indices 1 2 3 4 5 6 
#
# 1 0.010752 -0.003451 -0.002836 0.000000 0.000000 0.000000
# 2 -0.003451 0.009639 -0.001985 0.000000 0.000000 0.000000
# 3 -0.002836 -0.001985 0.013956 0.000000 0.000000 0.000000
# 4 0.000000 0.000000 0.000000 0.038338 0.000000 0.000000
# 5 0.000000 0.000000 0.000000 0.000000 0.052313 0.000000
# 6 0.000000 0.000000 0.000000 0.000000 0.000000 0.031640
#
#
# Mechanical properties :
#
#
# Convention : Reuss Voigt Hill
#
# Bulk Modulus (GPa) = 56.17637 59.70622 57.94130
# Shear Modulus (GPa) = 27.91463 29.93839 28.92651
#
# Velocity S-wave (km/s) = 3.73922 3.87239 3.80638
# Velocity P-wave (km/s) = 6.83956 7.06394 6.95266
#
# Compressibility (1/GPa) = 0.01780108
#
# Stress axis : x y z
#
# Youngs Moduli (GPa) = 93.00529 103.74890 71.65387
#
# Poissons Ratio (x) = 0.35805 0.20323
# Poissons Ratio (y) = 0.32097 0.14226
# Poissons Ratio (z) = 0.26379 0.20598
#
# Static dielectric constant tensor:
#      x y z
#    x 3.700600 0.000000 0.000000 
#    y 0.000000 3.764240 0.000000 
#    z 0.000000 0.000000 3.321050 
# 
# 
# High freq. dielectric constant tensor:
#      x y z
#    x 1.787400 0.000000 0.000000 
#    y 0.000000 1.784400 0.000000 
#    z 0.000000 0.000000 1.746870 
# 
# From -- ./inp_files/14566.got.cif
#   From: 2010.06.25/outbox.cif.g09.slc.cpg/sg58_8_cif.got.tgz:14566.got - 2010.06.26 21:38:00.
