data_PCOD8238859
_publ_section_title
;
Structure prediction by ZEFSAII (Michael W. Deem and Ramdas Pophale) SiO2 
 PCOD8238859
Probable space group: P N N M
;
_chemical_formula_sum "Si O2"
_cell_formula_units_Z 64
_cell_length_a 11.653554
_cell_length_b 16.592457
_cell_length_c 14.990712
_cell_angle_alpha 90.000000
_cell_angle_beta 90.000000
_cell_angle_gamma 90.000000
_cell_volume 2898.620467
_symmetry_space_group_name_H-M "P N N M"
_symmetry_group_IT_number 58
_symmetry_cell_setting 'orthorhombic'
loop_
_space_group_symop_operation_xyz
x,y,z
-x,-y,z
1/2+x,1/2-y,1/2-z
1/2-x,1/2+y,1/2-z
-x,-y,-z
x,y,-z
1/2-x,1/2+y,1/2+z
1/2+x,1/2-y,1/2+z
loop_
_atom_site_type_symbol
_atom_site_label
_atom_site_fract_x
_atom_site_fract_y
_atom_site_fract_z
Si Si1 0.334434 0.794921 0.898887
Si Si2 0.651683 0.437477 0.901847
Si Si3 0.093041 0.897069 0.350499
Si Si4 0.564726 0.082963 0.399545
Si Si5 0.119166 0.545691 0.598046
Si Si6 0.579630 0.780027 0.845554
Si Si7 0.276399 0.934637 0.227542
Si Si8 0.154692 0.667104 0.846397
O O1 0.443308 0.762615 0.842667
O O2 0.301060 0.878849 0.856231
O O3 0.229805 0.732385 0.898959
O O4 0.372663 0.811409 0.000000
O O5 0.544503 0.403244 0.846381
O O6 0.644028 0.534294 0.916216
O O7 0.769662 0.416194 0.849763
O O8 0.651834 0.397103 0.000000
O O9 0.132758 0.806164 0.378642
O O10 0.142873 0.922810 0.253074
O O11 0.619761 0.088336 0.500000
O O12 0.654644 0.089937 0.318152
O O13 0.468492 0.153109 0.391939
O O14 0.500000 0.000000 0.386521
O O15 0.167172 0.520903 0.500000
O O16 0.104676 0.642692 0.593209
O O17 0.198879 0.522502 0.683380
O O18 0.000000 0.500000 0.617412
O O19 0.634669 0.799209 0.751117
#
# Coordination Sequence:
#
# PCOD8238859 Si02
#       8
#     8   8   8   8   8   8   8   8
#     4  12  24  40  66  98 135 175 224 282 336 400
#     4  11  24  42  66  95 130 175 232 283 333 413
#     4  11  24  39  61  95 132 181 220 278 344 403
#     4  11  23  39  63  95 132 174 217 276 351 415
#     4  11  22  38  65  97 131 172 223 284 346 405
#     4  12  23  40  64  97 135 170 218 285 346 400
#     4  12  23  42  64  96 137 178 226 282 341 419
#     4  12  23  42  68  98 134 176 223 279 347 413
#
# _framework density 22.079469
#
# number of rings (size 3 to 8) (size 9 to 14) (size 15 to 20)
#    0.000    0.500    5.000    5.250    0.000    3.500 
#    0.000    0.000    0.000    0.000    0.000   21.875 
#    0.000    0.000    0.000    0.000    0.000    0.000 
#
# Total GULP energy -792847.786015 kJ/mol
# GULP energy per Si atom -12388.246656 kJ/mol
# Density = 2.202921 g / cm^3
# Si number density = 22.079469 Si / 1000 Ang^3
#
#
#
# Elastic Constant Matrix: (Units=GPa)
#
#
# Indices 1 2 3 4 5 6 
#
# 1 87.4255 31.6015 58.8984 0.0000 0.0000 0.0000
# 2 31.6015 134.5301 40.0493 0.0000 0.0000 0.0000
# 3 58.8984 40.0493 131.6591 0.0000 0.0000 0.0000
# 4 0.0000 0.0000 0.0000 23.1604 0.0000 0.0000
# 5 0.0000 0.0000 0.0000 0.0000 14.9876 0.0000
# 6 0.0000 0.0000 0.0000 0.0000 0.0000 33.4434
#
#
#
# Elastic Compliance Matrix: (Units=1/GPa)
#
#
# Indices 1 2 3 4 5 6 
#
# 1 0.016794 -0.001878 -0.006941 0.000000 0.000000 0.000000
# 2 -0.001878 0.008384 -0.001710 0.000000 0.000000 0.000000
# 3 -0.006941 -0.001710 0.011221 0.000000 0.000000 0.000000
# 4 0.000000 0.000000 0.000000 0.043177 0.000000 0.000000
# 5 0.000000 0.000000 0.000000 0.000000 0.066722 0.000000
# 6 0.000000 0.000000 0.000000 0.000000 0.000000 0.029901
#
#
# Mechanical properties :
#
#
# Convention : Reuss Voigt Hill
#
# Bulk Modulus (GPa) = 65.19467 68.30146 66.74806
# Shear Modulus (GPa) = 24.70719 29.18931 26.94825
#
# Velocity S-wave (km/s) = 3.34879 3.63989 3.49737
# Velocity P-wave (km/s) = 6.67412 6.97615 6.82681
#
# Compressibility (1/GPa) = 0.01533868
#
# Stress axis : x y z
#
# Youngs Moduli (GPa) = 59.54622 119.28107 89.12074
#
# Poissons Ratio (x) = 0.22407 0.61862
# Poissons Ratio (y) = 0.11186 0.15238
# Poissons Ratio (z) = 0.41333 0.20395
#
# Static dielectric constant tensor:
#      x y z
#    x 4.023680 0.000000 0.000000 
#    y 0.000000 4.383540 0.000000 
#    z 0.000000 0.000000 3.921420 
# 
# 
# High freq. dielectric constant tensor:
#      x y z
#    x 1.849500 0.000000 0.000000 
#    y 0.000000 1.884030 0.000000 
#    z 0.000000 0.000000 1.865310 
# 
# From -- ./inp_files/21518.got.cif
#   From: 2010.06.25/outbox.cif.g09.slc.cpg/sg58_11_cif.got.tgz:21518.got - 2010.06.26 21:38:00.
