data_PCOD8238340
_publ_section_title
;
Structure prediction by ZEFSAII (Michael W. Deem and Ramdas Pophale) SiO2 
 PCOD8238340
Probable space group: P N N M
;
_chemical_formula_sum "Si O2"
_cell_formula_units_Z 36
_cell_length_a 14.826070
_cell_length_b 6.551602
_cell_length_c 17.445556
_cell_angle_alpha 90.000000
_cell_angle_beta 90.000000
_cell_angle_gamma 90.000000
_cell_volume 1694.565531
_symmetry_space_group_name_H-M "P N N M"
_symmetry_group_IT_number 58
_symmetry_cell_setting 'orthorhombic'
loop_
_space_group_symop_operation_xyz
x,y,z
-x,-y,z
1/2+x,1/2-y,1/2-z
1/2-x,1/2+y,1/2-z
-x,-y,-z
x,y,-z
1/2-x,1/2+y,1/2+z
1/2+x,1/2-y,1/2+z
loop_
_atom_site_type_symbol
_atom_site_label
_atom_site_fract_x
_atom_site_fract_y
_atom_site_fract_z
Si Si1 0.362064 0.744660 0.914356
Si Si2 0.633254 0.742714 0.711269
Si Si3 0.000000 0.000000 0.690970
Si Si4 0.256040 0.091722 0.847021
Si Si5 0.318118 0.988880 0.583870
O O1 0.428066 0.616180 0.860930
O O2 0.342820 0.972996 0.882552
O O3 0.266387 0.638040 0.915168
O O4 0.403521 0.759098 0.000000
O O5 0.543887 0.677439 0.756953
O O6 0.668680 0.546526 0.666036
O O7 0.713617 0.810253 0.767256
O O8 0.613898 0.927541 0.650351
O O9 0.219548 0.262863 0.904101
O O10 0.365371 0.996690 0.500000
#
# Coordination Sequence:
#
# PCOD8238340 Si02
#       5
#     8   8   4   8   8
#     4  10  22  38  60  93 130 161 198 250 311 374
#     4  11  22  37  62  89 122 160 209 254 302 363
#     4  12  23  40  57  96 134 166 194 254 315 376
#     4  11  19  40  64  89 116 165 216 246 295 364
#     4  10  21  40  64  88 119 160 212 261 298 356
#
# _framework density 21.244385000000001
#
# number of rings (size 3 to 8) (size 9 to 14) (size 15 to 20)
#    0.000    1.333    4.444    2.333    0.000    1.778 
#    0.000    1.667    0.000    1.333    0.000    0.000 
#    0.000    0.000    0.000    0.000    0.000    0.000 
#
# Total GULP energy -446327.386603 kJ/mol
# GULP energy per Si atom -12397.982961 kJ/mol
# Density = 2.119603 g / cm^3
# Si number density = 21.244385 Si / 1000 Ang^3
#
#
#
# Elastic Constant Matrix: (Units=GPa)
#
#
# Indices 1 2 3 4 5 6 
#
# 1 25.7256 6.9033 26.7976 0.0000 0.0000 0.0000
# 2 6.9033 104.9561 48.4766 0.0000 0.0000 0.0000
# 3 26.7976 48.4766 153.6599 0.0000 0.0000 0.0000
# 4 0.0000 0.0000 0.0000 8.5977 0.0000 0.0000
# 5 0.0000 0.0000 0.0000 0.0000 19.2274 0.0000
# 6 0.0000 0.0000 0.0000 0.0000 0.0000 23.9963
#
#
#
# Elastic Compliance Matrix: (Units=1/GPa)
#
#
# Indices 1 2 3 4 5 6 
#
# 1 0.047562 0.000823 -0.008554 0.000000 0.000000 0.000000
# 2 0.000823 0.011167 -0.003666 0.000000 0.000000 0.000000
# 3 -0.008554 -0.003666 0.009156 0.000000 0.000000 0.000000
# 4 0.000000 0.000000 0.000000 0.116310 0.000000 0.000000
# 5 0.000000 0.000000 0.000000 0.000000 0.052009 0.000000
# 6 0.000000 0.000000 0.000000 0.000000 0.000000 0.041673
#
#
# Mechanical properties :
#
#
# Convention : Reuss Voigt Hill
#
# Bulk Modulus (GPa) = 22.17826 49.85520 36.01673
# Shear Modulus (GPa) = 15.83766 23.84188 19.83977
#
# Velocity S-wave (km/s) = 2.73334 3.35366 3.05927
# Velocity P-wave (km/s) = 4.51927 6.20600 5.42855
#
# Compressibility (1/GPa) = 0.04508920
#
# Stress axis : x y z
#
# Youngs Moduli (GPa) = 21.02541 89.54849 109.21369
#
# Poissons Ratio (x) = -0.07366 0.93422
# Poissons Ratio (y) = -0.01730 0.40043
# Poissons Ratio (z) = 0.17985 0.32833
#
# Static dielectric constant tensor:
#      x y z
#    x 3.391420 0.000000 0.000000 
#    y 0.000000 4.077410 0.000000 
#    z 0.000000 0.000000 4.421120 
# 
# 
# High freq. dielectric constant tensor:
#      x y z
#    x 1.787920 0.000000 0.000000 
#    y 0.000000 1.848600 0.000000 
#    z 0.000000 0.000000 1.849440 
# 
# From -- ./inp_files/29837.got.cif
#   From: 2010.06.25/outbox.cif.g09.slc.cpg/sg58_15_cif.got.tgz:29837.got - 2010.06.26 21:38:00.
