data_PCOD8238755
_publ_section_title
;
Structure prediction by ZEFSAII (Michael W. Deem and Ramdas Pophale) SiO2 
 PCOD8238755
Probable space group: P N N M
;
_chemical_formula_sum "Si O2"
_cell_formula_units_Z 56
_cell_length_a 14.054091
_cell_length_b 11.550686
_cell_length_c 18.120027
_cell_angle_alpha 90.000000
_cell_angle_beta 90.000000
_cell_angle_gamma 90.000000
_cell_volume 2941.503569
_symmetry_space_group_name_H-M "P N N M"
_symmetry_group_IT_number 58
_symmetry_cell_setting 'orthorhombic'
loop_
_space_group_symop_operation_xyz
x,y,z
-x,-y,z
1/2+x,1/2-y,1/2-z
1/2-x,1/2+y,1/2-z
-x,-y,-z
x,y,-z
1/2-x,1/2+y,1/2+z
1/2+x,1/2-y,1/2+z
loop_
_atom_site_type_symbol
_atom_site_label
_atom_site_fract_x
_atom_site_fract_y
_atom_site_fract_z
Si Si1 0.695804 0.385671 0.582196
Si Si2 0.326780 0.249061 0.165694
Si Si3 0.993229 0.363563 0.759694
Si Si4 0.321918 0.731413 0.785738
Si Si5 0.665206 0.621301 0.648785
Si Si6 0.107408 0.976461 0.698734
Si Si7 0.497118 0.748084 0.414996
O O1 0.685815 0.429094 0.500000
O O2 0.795415 0.315340 0.590654
O O3 0.709401 0.498354 0.631141
O O4 0.600108 0.317248 0.604157
O O5 0.399515 0.179983 0.217784
O O6 0.224643 0.248242 0.206449
O O7 0.354087 0.380311 0.140941
O O8 0.078292 0.298126 0.717426
O O9 0.000000 0.500000 0.747828
O O10 0.987781 0.340903 0.848542
O O11 0.251562 0.786204 0.847255
O O12 0.333533 0.594781 0.803401
O O13 0.612977 0.601583 0.727025
O O14 0.586391 0.660188 0.589424
O O15 0.000000 0.000000 0.678507
O O16 0.494581 0.798988 0.500000
#
# Coordination Sequence:
#
# PCOD8238755 Si02
#       7
#     8   8   8   8   8   8   8
#     4  11  22  38  60  87 123 155 193 241 294 359
#     4  11  22  35  59  88 112 156 195 240 288 347
#     4  12  23  37  57  87 121 152 194 248 295 344
#     4  11  21  35  58  88 116 148 197 242 290 341
#     4  11  20  34  59  86 121 154 191 238 294 350
#     4  11  19  35  59  85 115 147 192 251 289 338
#     4  11  22  36  56  88 124 161 194 231 294 363
#
# _framework density 19.037883000000001
#
# number of rings (size 3 to 8) (size 9 to 14) (size 15 to 20)
#    0.000    0.857    7.143    2.571    2.000    1.429 
#    0.000    0.000    0.000    6.000    0.000    0.000 
#    0.000    0.000    0.000    0.000    0.000    0.000 
#
# Total GULP energy -693862.967746 kJ/mol
# GULP energy per Si atom -12390.410138 kJ/mol
# Density = 1.899455 g / cm^3
# Si number density = 19.037883 Si / 1000 Ang^3
#
#
#
# Elastic Constant Matrix: (Units=GPa)
#
#
# Indices 1 2 3 4 5 6 
#
# 1 105.3230 44.4406 36.5650 0.0000 0.0000 0.0000
# 2 44.4406 126.7990 16.5104 0.0000 0.0000 0.0000
# 3 36.5650 16.5104 41.2517 0.0000 0.0000 0.0000
# 4 0.0000 0.0000 0.0000 18.6702 0.0000 0.0000
# 5 0.0000 0.0000 0.0000 0.0000 21.0593 0.0000
# 6 0.0000 0.0000 0.0000 0.0000 0.0000 35.7546
#
#
#
# Elastic Compliance Matrix: (Units=1/GPa)
#
#
# Indices 1 2 3 4 5 6 
#
# 1 0.015262 -0.003785 -0.012014 0.000000 0.000000 0.000000
# 2 -0.003785 0.009259 -0.000351 0.000000 0.000000 0.000000
# 3 -0.012014 -0.000351 0.035030 0.000000 0.000000 0.000000
# 4 0.000000 0.000000 0.000000 0.053561 0.000000 0.000000
# 5 0.000000 0.000000 0.000000 0.000000 0.047485 0.000000
# 6 0.000000 0.000000 0.000000 0.000000 0.000000 0.027968
#
#
# Mechanical properties :
#
#
# Convention : Reuss Voigt Hill
#
# Bulk Modulus (GPa) = 36.69305 52.04508 44.36906
# Shear Modulus (GPa) = 21.74397 26.82067 24.28232
#
# Velocity S-wave (km/s) = 3.38323 3.75748 3.57525
# Velocity P-wave (km/s) = 5.88024 6.79866 6.35606
#
# Compressibility (1/GPa) = 0.02725312
#
# Stress axis : x y z
#
# Youngs Moduli (GPa) = 65.52067 108.00647 28.54662
#
# Poissons Ratio (x) = 0.40879 0.34295
# Poissons Ratio (y) = 0.24799 0.01001
# Poissons Ratio (z) = 0.78713 0.03789
#
# Static dielectric constant tensor:
#      x y z
#    x 3.604490 0.000000 0.000000 
#    y 0.000000 3.706260 0.000000 
#    z 0.000000 0.000000 3.256070 
# 
# 
# High freq. dielectric constant tensor:
#      x y z
#    x 1.750900 0.000000 0.000000 
#    y 0.000000 1.749660 0.000000 
#    z 0.000000 0.000000 1.701630 
# 
# From -- ./inp_files/29607.got.cif
#   From: 2010.06.25/outbox.cif.g09.slc.cpg/sg58_15_cif.got.tgz:29607.got - 2010.06.26 21:38:00.
