data_PCOD8238526
_publ_section_title
;
Structure prediction by ZEFSAII (Michael W. Deem and Ramdas Pophale) SiO2 
 PCOD8238526
Probable space group: P N N M
;
_chemical_formula_sum "Si O2"
_cell_formula_units_Z 28
_cell_length_a 17.368214
_cell_length_b 11.184688
_cell_length_c 7.487168
_cell_angle_alpha 90.000000
_cell_angle_beta 90.000000
_cell_angle_gamma 90.000000
_cell_volume 1454.442691
_symmetry_space_group_name_H-M "P N N M"
_symmetry_group_IT_number 58
_symmetry_cell_setting 'orthorhombic'
loop_
_space_group_symop_operation_xyz
x,y,z
-x,-y,z
1/2+x,1/2-y,1/2-z
1/2-x,1/2+y,1/2-z
-x,-y,-z
x,y,-z
1/2-x,1/2+y,1/2+z
1/2+x,1/2-y,1/2+z
loop_
_atom_site_type_symbol
_atom_site_label
_atom_site_fract_x
_atom_site_fract_y
_atom_site_fract_z
Si Si1 0.953473 0.224672 0.500000
Si Si2 0.703233 0.080823 0.802453
Si Si3 0.432327 0.085926 0.296614
Si Si4 0.132892 0.215990 0.500000
Si Si5 0.819524 0.050641 0.500000
O O1 0.930547 0.297050 0.323530
O O2 0.905499 0.102354 0.500000
O O3 0.042584 0.190687 0.500000
O O4 0.657633 0.207494 0.823888
O O5 0.776371 0.098519 0.676171
O O6 0.648239 0.982449 0.715013
O O7 0.730444 0.037444 0.000000
O O8 0.447878 0.125232 0.500000
O O9 0.500000 0.000000 0.224517
O O10 0.178524 0.092307 0.500000
#
# Coordination Sequence:
#
# PCOD8238526 Si02
#       5
#     4   8   8   4   4
#     4  12  23  42  65  93 130 172 197 263 318 373
#     4  10  22  40  64  90 124 162 212 266 302 362
#     4  11  20  36  69  97 117 161 219 259 301 363
#     4  10  24  46  60  90 135 158 214 250 316 389
#     4  12  27  39  65  94 128 170 202 259 328 373
#
# _framework density 19.251359999999998
#
# number of rings (size 3 to 8) (size 9 to 14) (size 15 to 20)
#    0.857    0.286    5.714    0.857    4.000    1.143 
#    0.000    0.000    0.000    3.429    0.000    0.000 
#    0.000    0.000    0.000    0.000    0.000    0.000 
#
# Total GULP energy -347226.564827 kJ/mol
# GULP energy per Si atom -12400.948744 kJ/mol
# Density = 1.920754 g / cm^3
# Si number density = 19.251360 Si / 1000 Ang^3
#
#
#
# Elastic Constant Matrix: (Units=GPa)
#
#
# Indices 1 2 3 4 5 6 
#
# 1 112.4188 31.8211 32.3058 0.0000 0.0000 0.0000
# 2 31.8211 77.7727 26.6351 0.0000 0.0000 0.0000
# 3 32.3058 26.6351 107.3105 0.0000 0.0000 0.0000
# 4 0.0000 0.0000 0.0000 103.1545 0.0000 0.0000
# 5 0.0000 0.0000 0.0000 0.0000 18.5922 0.0000
# 6 0.0000 0.0000 0.0000 0.0000 0.0000 37.5469
#
#
#
# Elastic Compliance Matrix: (Units=1/GPa)
#
#
# Indices 1 2 3 4 5 6 
#
# 1 0.010556 -0.003531 -0.002302 0.000000 0.000000 0.000000
# 2 -0.003531 0.015234 -0.002718 0.000000 0.000000 0.000000
# 3 -0.002302 -0.002718 0.010686 0.000000 0.000000 0.000000
# 4 0.000000 0.000000 0.000000 0.009694 0.000000 0.000000
# 5 0.000000 0.000000 0.000000 0.000000 0.053786 0.000000
# 6 0.000000 0.000000 0.000000 0.000000 0.000000 0.026633
#
#
# Mechanical properties :
#
#
# Convention : Reuss Voigt Hill
#
# Bulk Modulus (GPa) = 51.61305 53.22510 52.41908
# Shear Modulus (GPa) = 33.30030 45.64140 39.47085
#
# Velocity S-wave (km/s) = 4.16355 4.87438 4.53292
# Velocity P-wave (km/s) = 7.06979 7.70629 7.39489
#
# Compressibility (1/GPa) = 0.01937495
#
# Stress axis : x y z
#
# Youngs Moduli (GPa) = 94.73157 65.64470 93.57796
#
# Poissons Ratio (x) = 0.23178 0.21537
# Poissons Ratio (y) = 0.33449 0.25435
# Poissons Ratio (z) = 0.21803 0.17843
#
# Static dielectric constant tensor:
#      x y z
#    x 3.423180 0.000000 0.000000 
#    y 0.000000 3.244580 0.000000 
#    z 0.000000 0.000000 3.458950 
# 
# 
# High freq. dielectric constant tensor:
#      x y z
#    x 1.751150 0.000000 0.000000 
#    y 0.000000 1.731760 0.000000 
#    z 0.000000 0.000000 1.749890 
# 
# From -- ./inp_files/7330.got.cif
#   From: 2010.06.25/outbox.cif.g09.slc.cpg/sg58_4_cif.got.tgz:7330.got - 2010.06.26 21:38:00.
