data_PCOD8238448
_publ_section_title
;
Structure prediction by ZEFSAII (Michael W. Deem and Ramdas Pophale) SiO2 
 PCOD8238448
Probable space group: P N N M
;
_chemical_formula_sum "Si O2"
_cell_formula_units_Z 56
_cell_length_a 17.214024
_cell_length_b 18.845514
_cell_length_c 8.451956
_cell_angle_alpha 90.000000
_cell_angle_beta 90.000000
_cell_angle_gamma 90.000000
_cell_volume 2741.874791
_symmetry_space_group_name_H-M "P N N M"
_symmetry_group_IT_number 58
_symmetry_cell_setting 'orthorhombic'
loop_
_space_group_symop_operation_xyz
x,y,z
-x,-y,z
1/2+x,1/2-y,1/2-z
1/2-x,1/2+y,1/2-z
-x,-y,-z
x,y,-z
1/2-x,1/2+y,1/2+z
1/2+x,1/2-y,1/2+z
loop_
_atom_site_type_symbol
_atom_site_label
_atom_site_fract_x
_atom_site_fract_y
_atom_site_fract_z
Si Si1 0.236564 0.277748 0.312209
Si Si2 0.821565 0.448937 0.682533
Si Si3 0.591103 0.701347 0.686868
Si Si4 0.455166 0.144018 0.316680
Si Si5 0.678959 0.374142 0.816140
Si Si6 0.617274 0.102800 0.814134
Si Si7 0.017052 0.077849 0.186333
O O1 0.242392 0.274577 0.500000
O O2 0.321806 0.295116 0.241425
O O3 0.206637 0.202035 0.248603
O O4 0.177510 0.337971 0.255346
O O5 0.796870 0.445536 0.500000
O O6 0.891749 0.395292 0.711511
O O7 0.747509 0.430275 0.788796
O O8 0.847294 0.527399 0.730996
O O9 0.596402 0.692219 0.500000
O O10 0.545002 0.773158 0.730751
O O11 0.543831 0.634803 0.760144
O O12 0.433008 0.133724 0.500000
O O13 0.538762 0.111413 0.283216
O O14 0.604004 0.398613 0.721548
O O15 0.658001 0.369964 0.000000
O O16 0.599143 0.109313 0.000000
O O17 0.005218 0.075160 0.000000
O O18 0.000000 0.000000 0.259811
#
# Coordination Sequence:
#
# PCOD8238448 Si02
#       7
#     8   8   8   8   8   8   8
#     4   9  18  36  61  85 112 151 195 238 287 340
#     4  11  23  38  59  87 118 150 192 239 283 341
#     4   9  18  35  59  85 115 151 195 239 283 340
#     4  11  21  37  60  84 117 155 188 230 288 346
#     4  11  22  39  62  85 117 154 192 239 294 348
#     4  10  22  37  59  86 114 148 189 238 286 338
#     4  10  22  38  62  90 118 155 199 244 289 344
#
# _framework density 20.423981000000001
#
# number of rings (size 3 to 8) (size 9 to 14) (size 15 to 20)
#    0.000    1.857    1.429    2.571    2.000    3.143 
#    0.000    1.429    0.000    0.000    0.000    0.000 
#    0.000    0.000    0.000    0.000    0.000    0.000 
#
# Total GULP energy -694585.125281 kJ/mol
# GULP energy per Si atom -12403.305809 kJ/mol
# Density = 2.037750 g / cm^3
# Si number density = 20.423981 Si / 1000 Ang^3
#
#
#
# Elastic Constant Matrix: (Units=GPa)
#
#
# Indices 1 2 3 4 5 6 
#
# 1 137.3462 68.5461 -0.2790 0.0000 0.0000 0.0000
# 2 68.5461 143.7897 15.1206 0.0000 0.0000 0.0000
# 3 -0.2790 15.1206 15.8358 0.0000 0.0000 0.0000
# 4 0.0000 0.0000 0.0000 19.8519 0.0000 0.0000
# 5 0.0000 0.0000 0.0000 0.0000 18.2211 0.0000
# 6 0.0000 0.0000 0.0000 0.0000 0.0000 10.7267
#
#
#
# Elastic Compliance Matrix: (Units=1/GPa)
#
#
# Indices 1 2 3 4 5 6 
#
# 1 0.009927 -0.005281 0.005217 0.000000 0.000000 0.000000
# 2 -0.005281 0.010540 -0.010157 0.000000 0.000000 0.000000
# 3 0.005217 -0.010157 0.072938 0.000000 0.000000 0.000000
# 4 0.000000 0.000000 0.000000 0.050373 0.000000 0.000000
# 5 0.000000 0.000000 0.000000 0.000000 0.054881 0.000000
# 6 0.000000 0.000000 0.000000 0.000000 0.000000 0.093226
#
#
# Mechanical properties :
#
#
# Convention : Reuss Voigt Hill
#
# Bulk Modulus (GPa) = 13.70538 51.52746 32.61642
# Shear Modulus (GPa) = 14.85228 23.99888 19.42558
#
# Velocity S-wave (km/s) = 2.69959 3.43160 3.08736
# Velocity P-wave (km/s) = 4.05488 6.40194 5.35849
#
# Compressibility (1/GPa) = 0.07296403
#
# Stress axis : x y z
#
# Youngs Moduli (GPa) = 100.73456 94.87473 13.71020
#
# Poissons Ratio (x) = 0.50103 -0.07153
# Poissons Ratio (y) = 0.53198 0.13926
# Poissons Ratio (z) = -0.52557 0.96366
#
# Static dielectric constant tensor:
#      x y z
#    x 3.838910 0.000000 0.000000 
#    y 0.000000 4.041160 0.000000 
#    z 0.000000 0.000000 3.305990 
# 
# 
# High freq. dielectric constant tensor:
#      x y z
#    x 1.810540 0.000000 0.000000 
#    y 0.000000 1.814160 0.000000 
#    z 0.000000 0.000000 1.763060 
# 
# From -- ./inp_files/6428.got.cif
#   From: 2010.06.25/outbox.cif.g09.slc.cpg/sg58_4_cif.got.tgz:6428.got - 2010.06.26 21:38:00.
