data_PCOD8238718
_publ_section_title
;
Structure prediction by ZEFSAII (Michael W. Deem and Ramdas Pophale) SiO2 
 PCOD8238718
Probable space group: P N N M
;
_chemical_formula_sum "Si O2"
_cell_formula_units_Z 64
_cell_length_a 8.515105
_cell_length_b 23.087796
_cell_length_c 14.563291
_cell_angle_alpha 90.000000
_cell_angle_beta 90.000000
_cell_angle_gamma 90.000000
_cell_volume 2863.070298
_symmetry_space_group_name_H-M "P N N M"
_symmetry_group_IT_number 58
_symmetry_cell_setting 'orthorhombic'
loop_
_space_group_symop_operation_xyz
x,y,z
-x,-y,z
1/2+x,1/2-y,1/2-z
1/2-x,1/2+y,1/2-z
-x,-y,-z
x,y,-z
1/2-x,1/2+y,1/2+z
1/2+x,1/2-y,1/2+z
loop_
_atom_site_type_symbol
_atom_site_label
_atom_site_fract_x
_atom_site_fract_y
_atom_site_fract_z
Si Si1 0.759272 0.775429 0.402063
Si Si2 0.941898 0.664627 0.352646
Si Si3 0.156581 0.463578 0.395639
Si Si4 0.182664 0.006497 0.278555
Si Si5 0.705611 0.317247 0.603759
Si Si6 0.082977 0.301746 0.853991
Si Si7 0.599198 0.370660 0.780173
Si Si8 0.797320 0.096576 0.603884
O O1 0.816804 0.800826 0.500000
O O2 0.821056 0.710038 0.396280
O O3 0.571278 0.776953 0.402892
O O4 0.826162 0.813499 0.321078
O O5 0.866672 0.602402 0.367642
O O6 0.962782 0.679462 0.247087
O O7 0.112773 0.663958 0.398369
O O8 0.218516 0.468911 0.500000
O O9 0.282342 0.490755 0.326465
O O10 0.000000 0.500000 0.381725
O O11 0.267645 0.964173 0.352741
O O12 0.215881 0.074549 0.298220
O O13 0.000000 0.000000 0.295196
O O14 0.639875 0.323432 0.500000
O O15 0.706870 0.250736 0.639279
O O16 0.596764 0.357654 0.670312
O O17 0.156214 0.357711 0.903957
O O18 0.427555 0.379362 0.824367
O O19 0.862485 0.086131 0.500000
#
# Coordination Sequence:
#
# PCOD8238718 Si02
#       8
#     8   8   8   8   8   8   8   8
#     4  12  25  41  65  99 133 170 218 274 335 404
#     4  12  23  45  71  97 137 181 222 279 343 412
#     4  11  24  43  70 100 133 178 229 279 341 411
#     4  10  24  42  66  94 130 171 223 278 335 395
#     4  12  25  43  67  97 134 176 220 272 336 403
#     4  12  24  44  66  99 137 176 222 279 337 407
#     4  11  24  42  67  98 129 178 224 278 333 401
#     4  11  24  45  70  95 131 178 227 280 341 404
#
# _framework density 22.353625999999998
#
# number of rings (size 3 to 8) (size 9 to 14) (size 15 to 20)
#    0.000    0.625    3.750    4.125    1.750    4.500 
#    0.000    3.125    0.000    1.875    0.000    0.000 
#    0.000    0.000    0.000    0.000    0.000    0.000 
#
# Total GULP energy -793436.787763 kJ/mol
# GULP energy per Si atom -12397.449809 kJ/mol
# Density = 2.230275 g / cm^3
# Si number density = 22.353626 Si / 1000 Ang^3
#
#
#
# Elastic Constant Matrix: (Units=GPa)
#
#
# Indices 1 2 3 4 5 6 
#
# 1 49.4514 19.7289 24.7503 0.0000 0.0000 0.0000
# 2 19.7289 111.1175 47.8212 0.0000 0.0000 0.0000
# 3 24.7503 47.8212 158.0228 0.0000 0.0000 0.0000
# 4 0.0000 0.0000 0.0000 19.5318 0.0000 0.0000
# 5 0.0000 0.0000 0.0000 0.0000 -146.7550 0.0000
# 6 0.0000 0.0000 0.0000 0.0000 0.0000 29.4551
#
#
#
# Elastic Compliance Matrix: (Units=1/GPa)
#
#
# Indices 1 2 3 4 5 6 
#
# 1 0.022714 -0.002876 -0.002687 0.000000 0.000000 0.000000
# 2 -0.002876 0.010711 -0.002791 0.000000 0.000000 0.000000
# 3 -0.002687 -0.002791 0.007594 0.000000 0.000000 0.000000
# 4 0.000000 0.000000 0.000000 0.051199 0.000000 0.000000
# 5 0.000000 0.000000 0.000000 0.000000 -0.006814 0.000000
# 6 0.000000 0.000000 0.000000 0.000000 0.000000 0.033950
#
#
# Mechanical properties :
#
#
# Convention : Reuss Voigt Hill
#
# Bulk Modulus (GPa) = 41.13495 55.91027 48.52261
# Shear Modulus (GPa) = 34.68212 -4.46753 15.10729
#
# Velocity S-wave (km/s) = 3.94321 -1.41524 2.60250
# Velocity P-wave (km/s) = 6.25889 4.73239 5.54839
#
# Compressibility (1/GPa) = 0.02431023
#
# Stress axis : x y z
#
# Youngs Moduli (GPa) = 44.02496 93.35902 131.68842
#
# Poissons Ratio (x) = 0.26855 0.35387
# Poissons Ratio (y) = 0.12664 0.36754
# Poissons Ratio (z) = 0.11830 0.26056
#
# Static dielectric constant tensor:
#      x y z
#    x 3.804560 0.000000 0.000000 
#    y 0.000000 4.741280 0.000000 
#    z 0.000000 0.000000 4.311530 
# 
# 
# High freq. dielectric constant tensor:
#      x y z
#    x 1.857100 0.000000 0.000000 
#    y 0.000000 1.895160 0.000000 
#    z 0.000000 0.000000 1.897020 
# 
# From -- ./inp_files/20272.got.cif
#   From: 2010.06.25/outbox.cif.g09.slc.cpg/sg58_11_cif.got.tgz:20272.got - 2010.06.26 21:38:00.
