data_PCOD8238418
_publ_section_title
;
Structure prediction by ZEFSAII (Michael W. Deem and Ramdas Pophale) SiO2 
 PCOD8238418
Probable space group: P N N M
;
_chemical_formula_sum "Si O2"
_cell_formula_units_Z 32
_cell_length_a 8.708269
_cell_length_b 8.275070
_cell_length_c 21.530757
_cell_angle_alpha 90.000000
_cell_angle_beta 90.000000
_cell_angle_gamma 90.000000
_cell_volume 1551.539411
_symmetry_space_group_name_H-M "P N N M"
_symmetry_group_IT_number 58
_symmetry_cell_setting 'orthorhombic'
loop_
_space_group_symop_operation_xyz
x,y,z
-x,-y,z
1/2+x,1/2-y,1/2-z
1/2-x,1/2+y,1/2-z
-x,-y,-z
x,y,-z
1/2-x,1/2+y,1/2+z
1/2+x,1/2-y,1/2+z
loop_
_atom_site_type_symbol
_atom_site_label
_atom_site_fract_x
_atom_site_fract_y
_atom_site_fract_z
Si Si1 0.500000 0.000000 0.117882
Si Si2 0.269555 0.809520 0.201793
Si Si3 0.237486 0.215145 0.929006
Si Si4 0.824478 0.540411 0.170410
Si Si5 0.500000 0.500000 0.357949
O O1 0.406128 0.881396 0.161709
O O2 0.609757 0.893334 0.074637
O O3 0.266587 0.619846 0.188712
O O4 0.309442 0.829922 0.274147
O O5 0.108691 0.893994 0.186017
O O6 0.254220 0.381145 0.890282
O O7 0.092444 0.118859 0.902634
O O8 0.206736 0.261866 0.000000
O O9 0.000000 0.500000 0.155775
#
# Coordination Sequence:
#
# PCOD8238418 Si02
#       5
#     4   8   8   8   4
#     4  10  23  44  68  96 127 174 218 268 328 380
#     4  11  23  41  67  96 129 163 217 276 326 385
#     4  11  24  43  66  96 135 174 220 264 318 394
#     4  12  25  42  66 100 131 172 216 269 333 383
#     4  10  21  42  70  96 125 172 218 266 328 382
#
# _framework density 20.624679
#
# number of rings (size 3 to 8) (size 9 to 14) (size 15 to 20)
#    0.000    1.000    3.750    3.750    0.000    1.500 
#    0.000    3.750    0.000    0.000    0.000    0.000 
#    0.000    0.000    0.000    0.000    0.000    0.000 
#
# Total GULP energy -397032.105405 kJ/mol
# GULP energy per Si atom -12407.253294 kJ/mol
# Density = 2.057774 g / cm^3
# Si number density = 20.624679 Si / 1000 Ang^3
#
#
#
# Elastic Constant Matrix: (Units=GPa)
#
#
# Indices 1 2 3 4 5 6 
#
# 1 79.3878 14.8517 11.5070 0.0000 0.0000 0.0000
# 2 14.8517 122.6445 33.0238 0.0000 0.0000 0.0000
# 3 11.5070 33.0238 130.5212 0.0000 0.0000 0.0000
# 4 0.0000 0.0000 0.0000 27.7547 0.0000 0.0000
# 5 0.0000 0.0000 0.0000 0.0000 16.2088 0.0000
# 6 0.0000 0.0000 0.0000 0.0000 0.0000 17.9574
#
#
#
# Elastic Compliance Matrix: (Units=1/GPa)
#
#
# Indices 1 2 3 4 5 6 
#
# 1 0.012966 -0.001355 -0.000800 0.000000 0.000000 0.000000
# 2 -0.001355 0.008891 -0.002130 0.000000 0.000000 0.000000
# 3 -0.000800 -0.002130 0.008271 0.000000 0.000000 0.000000
# 4 0.000000 0.000000 0.000000 0.036030 0.000000 0.000000
# 5 0.000000 0.000000 0.000000 0.000000 0.061695 0.000000
# 6 0.000000 0.000000 0.000000 0.000000 0.000000 0.055687
#
#
# Mechanical properties :
#
#
# Convention : Reuss Voigt Hill
#
# Bulk Modulus (GPa) = 46.38670 50.14651 48.26661
# Shear Modulus (GPa) = 25.08823 30.59557 27.84190
#
# Velocity S-wave (km/s) = 3.49150 3.85573 3.67813
# Velocity P-wave (km/s) = 6.22847 6.64747 6.44138
#
# Compressibility (1/GPa) = 0.02155790
#
# Stress axis : x y z
#
# Youngs Moduli (GPa) = 77.12588 112.46987 120.90250
#
# Poissons Ratio (x) = 0.15235 0.09677
# Poissons Ratio (y) = 0.10447 0.25755
# Poissons Ratio (z) = 0.06173 0.23958
#
# Static dielectric constant tensor:
#      x y z
#    x 3.831090 0.000000 0.000000 
#    y 0.000000 3.874860 0.000000 
#    z 0.000000 0.000000 3.608120 
# 
# 
# High freq. dielectric constant tensor:
#      x y z
#    x 1.817530 0.000000 0.000000 
#    y 0.000000 1.817800 0.000000 
#    z 0.000000 0.000000 1.798730 
# 
# From -- ./inp_files/28466.got.cif
#   From: 2010.06.25/outbox.cif.g09.slc.cpg/sg58_15_cif.got.tgz:28466.got - 2010.06.26 21:38:00.
