data_PCOD8238731
_publ_section_title
;
Structure prediction by ZEFSAII (Michael W. Deem and Ramdas Pophale) SiO2 
 PCOD8238731
Probable space group: P N N M
;
_chemical_formula_sum "Si O2"
_cell_formula_units_Z 32
_cell_length_a 5.581952
_cell_length_b 17.204337
_cell_length_c 13.528244
_cell_angle_alpha 90.000000
_cell_angle_beta 90.000000
_cell_angle_gamma 90.000000
_cell_volume 1299.168453
_symmetry_space_group_name_H-M "P N N M"
_symmetry_group_IT_number 58
_symmetry_cell_setting 'orthorhombic'
loop_
_space_group_symop_operation_xyz
x,y,z
-x,-y,z
1/2+x,1/2-y,1/2-z
1/2-x,1/2+y,1/2-z
-x,-y,-z
x,y,-z
1/2-x,1/2+y,1/2+z
1/2+x,1/2-y,1/2+z
loop_
_atom_site_type_symbol
_atom_site_label
_atom_site_fract_x
_atom_site_fract_y
_atom_site_fract_z
Si Si1 0.290461 0.271236 0.388321
Si Si2 0.364190 0.580774 0.388658
Si Si3 0.254850 0.455216 0.110570
Si Si4 0.993523 0.354738 0.755489
O O1 0.213181 0.257183 0.500000
O O2 0.474126 0.342482 0.377326
O O3 0.372704 0.188209 0.347754
O O4 0.052684 0.291504 0.327679
O O5 0.500000 0.500000 0.373711
O O6 0.250318 0.581181 0.500000
O O7 0.168378 0.581296 0.300831
O O8 0.500000 0.500000 0.135300
O O9 0.000000 0.500000 0.116957
O O10 0.234926 0.391232 0.196974
O O11 0.279085 0.419916 0.000000
#
# Coordination Sequence:
#
# PCOD8238731 Si02
#       4
#     8   8   8   8
#     4  11  25  44  69 107 145 193 253 313 381 458
#     4  10  24  46  72 107 151 198 255 320 387 466
#     4  10  25  46  71 107 150 197 252 314 381 458
#     4  12  24  43  74 106 147 199 251 315 387 467
#
# _framework density 24.631138
#
# number of rings (size 3 to 8) (size 9 to 14) (size 15 to 20)
#    0.000    1.250    2.500    1.500    7.000    0.000 
#    0.000    3.750    0.000    4.500    0.000    0.000 
#    0.000    0.000    0.000    0.000    0.000    0.000 
#
# Total GULP energy -396590.702977 kJ/mol
# GULP energy per Si atom -12393.459468 kJ/mol
# Density = 2.457508 g / cm^3
# Si number density = 24.631138 Si / 1000 Ang^3
#
#
#
# Elastic Constant Matrix: (Units=GPa)
#
#
# Indices 1 2 3 4 5 6 
#
# 1 83.4297 32.6332 38.0912 0.0000 0.0000 0.0000
# 2 32.6332 101.0932 68.1586 0.0000 0.0000 0.0000
# 3 38.0912 68.1586 181.7757 0.0000 0.0000 0.0000
# 4 0.0000 0.0000 0.0000 31.5382 0.0000 0.0000
# 5 0.0000 0.0000 0.0000 0.0000 35.8767 0.0000
# 6 0.0000 0.0000 0.0000 0.0000 0.0000 39.3171
#
#
#
# Elastic Compliance Matrix: (Units=1/GPa)
#
#
# Indices 1 2 3 4 5 6 
#
# 1 0.014087 -0.003422 -0.001669 0.000000 0.000000 0.000000
# 2 -0.003422 0.014070 -0.004559 0.000000 0.000000 0.000000
# 3 -0.001669 -0.004559 0.007560 0.000000 0.000000 0.000000
# 4 0.000000 0.000000 0.000000 0.031708 0.000000 0.000000
# 5 0.000000 0.000000 0.000000 0.000000 0.027873 0.000000
# 6 0.000000 0.000000 0.000000 0.000000 0.000000 0.025434
#
#
# Mechanical properties :
#
#
# Convention : Reuss Voigt Hill
#
# Bulk Modulus (GPa) = 60.90869 71.56273 66.23571
# Shear Modulus (GPa) = 34.36349 36.50745 35.43547
#
# Velocity S-wave (km/s) = 3.73919 3.85407 3.79706
# Velocity P-wave (km/s) = 6.58969 6.99442 6.79507
#
# Compressibility (1/GPa) = 0.01641802
#
# Stress axis : x y z
#
# Youngs Moduli (GPa) = 70.98970 71.07322 132.27083
#
# Poissons Ratio (x) = 0.24322 0.22072
# Poissons Ratio (y) = 0.24294 0.60297
# Poissons Ratio (z) = 0.11846 0.32399
#
# Static dielectric constant tensor:
#      x y z
#    x 4.230830 0.000000 0.000000 
#    y 0.000000 4.243420 0.000000 
#    z 0.000000 0.000000 5.017080 
# 
# 
# High freq. dielectric constant tensor:
#      x y z
#    x 1.963730 0.000000 0.000000 
#    y 0.000000 1.973190 0.000000 
#    z 0.000000 0.000000 2.018490 
# 
# From -- ./inp_files/18307.got.cif
#   From: 2010.06.25/outbox.cif.g09.slc.cpg/sg58_10_cif.got.tgz:18307.got - 2010.06.26 21:38:00.
