data_PCOD8238933
_publ_section_title
;
Structure prediction by ZEFSAII (Michael W. Deem and Ramdas Pophale) SiO2 
 PCOD8238933
Probable space group: P N N M
;
_chemical_formula_sum "Si O2"
_cell_formula_units_Z 32
_cell_length_a 18.866514
_cell_length_b 7.400990
_cell_length_c 10.451770
_cell_angle_alpha 90.000000
_cell_angle_beta 90.000000
_cell_angle_gamma 90.000000
_cell_volume 1459.389858
_symmetry_space_group_name_H-M "P N N M"
_symmetry_group_IT_number 58
_symmetry_cell_setting 'orthorhombic'
loop_
_space_group_symop_operation_xyz
x,y,z
-x,-y,z
1/2+x,1/2-y,1/2-z
1/2-x,1/2+y,1/2-z
-x,-y,-z
x,y,-z
1/2-x,1/2+y,1/2+z
1/2+x,1/2-y,1/2+z
loop_
_atom_site_type_symbol
_atom_site_label
_atom_site_fract_x
_atom_site_fract_y
_atom_site_fract_z
Si Si1 0.495597 0.790882 0.143206
Si Si2 0.152996 0.180354 0.723449
Si Si3 0.598872 0.651920 0.646640
Si Si4 0.795593 0.468054 0.858493
O O1 0.414457 0.726518 0.136552
O O2 0.535401 0.675892 0.251780
O O3 0.500000 0.000000 0.182946
O O4 0.527811 0.760372 0.000000
O O5 0.187142 0.366093 0.768529
O O6 0.130124 0.049908 0.840460
O O7 0.212333 0.077455 0.641518
O O8 0.572048 0.677491 0.500000
O O9 0.659391 0.794401 0.684790
O O10 0.817994 0.525857 0.000000
#
# Coordination Sequence:
#
# PCOD8238933 Si02
#       4
#     8   8   8   8
#     4  11  25  45  71 103 139 182 229 281 341 406
#     4  12  23  45  69 100 133 183 227 284 337 413
#     4  11  25  45  71 102 136 177 227 279 342 407
#     4  11  24  42  66  99 136 177 224 282 341 403
#
# _framework density 21.926971999999999
#
# number of rings (size 3 to 8) (size 9 to 14) (size 15 to 20)
#    0.000    0.750    5.000    2.250    0.000    6.500 
#    0.000    0.000    0.000    0.000    0.000    0.000 
#    0.000    0.000    0.000    0.000    0.000    0.000 
#
# Total GULP energy -396803.445063 kJ/mol
# GULP energy per Si atom -12400.107658 kJ/mol
# Density = 2.187707 g / cm^3
# Si number density = 21.926972 Si / 1000 Ang^3
#
#
#
# Elastic Constant Matrix: (Units=GPa)
#
#
# Indices 1 2 3 4 5 6 
#
# 1 122.9260 32.7613 37.2454 0.0000 0.0000 0.0000
# 2 32.7613 120.6076 34.9244 0.0000 0.0000 0.0000
# 3 37.2454 34.9244 106.4330 0.0000 0.0000 0.0000
# 4 0.0000 0.0000 0.0000 22.0168 0.0000 0.0000
# 5 0.0000 0.0000 0.0000 0.0000 20.0119 0.0000
# 6 0.0000 0.0000 0.0000 0.0000 0.0000 42.8950
#
#
#
# Elastic Compliance Matrix: (Units=1/GPa)
#
#
# Indices 1 2 3 4 5 6 
#
# 1 0.009432 -0.001775 -0.002718 0.000000 0.000000 0.000000
# 2 -0.001775 0.009496 -0.002495 0.000000 0.000000 0.000000
# 3 -0.002718 -0.002495 0.011165 0.000000 0.000000 0.000000
# 4 0.000000 0.000000 0.000000 0.045420 0.000000 0.000000
# 5 0.000000 0.000000 0.000000 0.000000 0.049970 0.000000
# 6 0.000000 0.000000 0.000000 0.000000 0.000000 0.023313
#
#
# Mechanical properties :
#
#
# Convention : Reuss Voigt Hill
#
# Bulk Modulus (GPa) = 62.04534 62.20322 62.12428
# Shear Modulus (GPa) = 29.73649 33.32047 31.52848
#
# Velocity S-wave (km/s) = 3.68660 3.90245 3.79606
# Velocity P-wave (km/s) = 6.81756 6.98107 6.89980
#
# Compressibility (1/GPa) = 0.01611725
#
# Stress axis : x y z
#
# Youngs Moduli (GPa) = 106.02705 105.30865 89.56241
#
# Poissons Ratio (x) = 0.18691 0.24344
# Poissons Ratio (y) = 0.18818 0.22344
# Poissons Ratio (z) = 0.28819 0.26273
#
# Static dielectric constant tensor:
#      x y z
#    x 3.991820 0.000000 0.000000 
#    y 0.000000 4.082790 0.000000 
#    z 0.000000 0.000000 3.664400 
# 
# 
# High freq. dielectric constant tensor:
#      x y z
#    x 1.865600 0.000000 0.000000 
#    y 0.000000 1.880200 0.000000 
#    z 0.000000 0.000000 1.851120 
# 
# From -- ./inp_files/16763.got.cif
#   From: 2010.06.25/outbox.cif.g09.slc.cpg/sg58_9_cif.got.tgz:16763.got - 2010.06.26 21:38:00.
