data_PCOD8238231
_publ_section_title
;
Structure prediction by ZEFSAII (Michael W. Deem and Ramdas Pophale) SiO2 
 PCOD8238231
Probable space group: P N N M
;
_chemical_formula_sum "Si O2"
_cell_formula_units_Z 64
_cell_length_a 11.810132
_cell_length_b 13.997072
_cell_length_c 18.015368
_cell_angle_alpha 90.000000
_cell_angle_beta 90.000000
_cell_angle_gamma 90.000000
_cell_volume 2978.071265
_symmetry_space_group_name_H-M "P N N M"
_symmetry_group_IT_number 58
_symmetry_cell_setting 'orthorhombic'
loop_
_space_group_symop_operation_xyz
x,y,z
-x,-y,z
1/2+x,1/2-y,1/2-z
1/2-x,1/2+y,1/2-z
-x,-y,-z
x,y,-z
1/2-x,1/2+y,1/2+z
1/2+x,1/2-y,1/2+z
loop_
_atom_site_type_symbol
_atom_site_label
_atom_site_fract_x
_atom_site_fract_y
_atom_site_fract_z
Si Si1 0.923470 0.823783 0.420933
Si Si2 0.575156 0.621705 0.207164
Si Si3 0.237298 0.701567 0.670951
Si Si4 0.426608 0.918319 0.776914
Si Si5 0.542655 0.872792 0.080316
Si Si6 0.757331 0.964637 0.714767
Si Si7 0.326963 0.146157 0.585444
Si Si8 0.982835 0.753666 0.174478
O O1 0.930449 0.881538 0.500000
O O2 0.791486 0.795819 0.407090
O O3 0.971081 0.881858 0.351263
O O4 0.998852 0.732349 0.431856
O O5 0.671429 0.700013 0.186305
O O6 0.619126 0.512122 0.205401
O O7 0.530204 0.648815 0.289457
O O8 0.168500 0.633109 0.615206
O O9 0.256381 0.638908 0.745727
O O10 0.360641 0.727198 0.636585
O O11 0.453308 0.924111 0.864956
O O12 0.463488 0.816177 0.745391
O O13 0.500000 0.000000 0.735442
O O14 0.298698 0.948868 0.762292
O O15 0.548888 0.925013 0.000000
O O16 0.693568 0.949525 0.635333
O O17 0.353204 0.117425 0.500000
O O18 0.431181 0.210373 0.614552
#
# Coordination Sequence:
#
# PCOD8238231 Si02
#       8
#     8   8   8   8   8   8   8   8
#     4   9  20  39  62  91 125 162 207 255 316 385
#     4  11  22  37  68  92 126 167 209 269 322 370
#     4  11  22  40  61  92 129 163 208 271 319 373
#     4  12  20  38  64  91 123 162 210 271 310 371
#     4  10  21  38  63  93 120 158 211 264 323 371
#     4  12  24  39  64 100 128 165 220 265 320 385
#     4  11  24  42  62  90 132 174 215 260 315 389
#     4  12  23  39  65  89 126 174 215 258 318 388
#
# _framework density 21.49042
#
# number of rings (size 3 to 8) (size 9 to 14) (size 15 to 20)
#    0.000    1.000    7.500    0.750    1.750    3.250 
#    0.000    2.500    0.000    0.750    0.000    1.750 
#    0.000    0.000    0.000    0.000    0.000    0.000 
#
# Total GULP energy -792951.586154 kJ/mol
# GULP energy per Si atom -12389.868534 kJ/mol
# Density = 2.144151 g / cm^3
# Si number density = 21.490420 Si / 1000 Ang^3
#
#
#
# Elastic Constant Matrix: (Units=GPa)
#
#
# Indices 1 2 3 4 5 6 
#
# 1 120.9571 7.6446 49.2190 0.0000 0.0000 0.0000
# 2 7.6446 63.1349 27.3241 0.0000 0.0000 0.0000
# 3 49.2190 27.3241 132.0359 0.0000 0.0000 0.0000
# 4 0.0000 0.0000 0.0000 14.7630 0.0000 0.0000
# 5 0.0000 0.0000 0.0000 0.0000 27.4584 0.0000
# 6 0.0000 0.0000 0.0000 0.0000 0.0000 36.4040
#
#
#
# Elastic Compliance Matrix: (Units=1/GPa)
#
#
# Indices 1 2 3 4 5 6 
#
# 1 0.009756 0.000431 -0.003726 0.000000 0.000000 0.000000
# 2 0.000431 0.017416 -0.003765 0.000000 0.000000 0.000000
# 3 -0.003726 -0.003765 0.009742 0.000000 0.000000 0.000000
# 4 0.000000 0.000000 0.000000 0.067737 0.000000 0.000000
# 5 0.000000 0.000000 0.000000 0.000000 0.036419 0.000000
# 6 0.000000 0.000000 0.000000 0.000000 0.000000 0.027470
#
#
# Mechanical properties :
#
#
# Convention : Reuss Voigt Hill
#
# Bulk Modulus (GPa) = 43.86955 53.83370 48.85163
# Shear Modulus (GPa) = 26.28017 31.18776 28.73396
#
# Velocity S-wave (km/s) = 3.50076 3.81365 3.66055
# Velocity P-wave (km/s) = 6.06616 6.67056 6.37553
#
# Compressibility (1/GPa) = 0.02279485
#
# Stress axis : x y z
#
# Youngs Moduli (GPa) = 102.49740 57.41744 102.65019
#
# Poissons Ratio (x) = -0.02476 0.38249
# Poissons Ratio (y) = -0.04421 0.38648
# Poissons Ratio (z) = 0.38192 0.21618
#
# Static dielectric constant tensor:
#      x y z
#    x 4.179820 0.000000 0.000000 
#    y 0.000000 3.749520 0.000000 
#    z 0.000000 0.000000 4.238050 
# 
# 
# High freq. dielectric constant tensor:
#      x y z
#    x 1.858020 0.000000 0.000000 
#    y 0.000000 1.833120 0.000000 
#    z 0.000000 0.000000 1.827090 
# 
# From -- ./inp_files/26363.got.cif
#   From: 2010.06.25/outbox.cif.g09.slc.cpg/sg58_14_cif.got.tgz:26363.got - 2010.06.26 21:38:00.
