data_PCOD8238815
_publ_section_title
;
Structure prediction by ZEFSAII (Michael W. Deem and Ramdas Pophale) SiO2 
 PCOD8238815
Probable space group: P N N M
;
_chemical_formula_sum "Si O2"
_cell_formula_units_Z 48
_cell_length_a 19.930346
_cell_length_b 14.071569
_cell_length_c 8.453716
_cell_angle_alpha 90.000000
_cell_angle_beta 90.000000
_cell_angle_gamma 90.000000
_cell_volume 2370.855126
_symmetry_space_group_name_H-M "P N N M"
_symmetry_group_IT_number 58
_symmetry_cell_setting 'orthorhombic'
loop_
_space_group_symop_operation_xyz
x,y,z
-x,-y,z
1/2+x,1/2-y,1/2-z
1/2-x,1/2+y,1/2-z
-x,-y,-z
x,y,-z
1/2-x,1/2+y,1/2+z
1/2+x,1/2-y,1/2+z
loop_
_atom_site_type_symbol
_atom_site_label
_atom_site_fract_x
_atom_site_fract_y
_atom_site_fract_z
Si Si1 0.813678 0.444403 0.185177
Si Si2 0.993946 0.758677 0.186029
Si Si3 0.643788 0.744668 0.815173
Si Si4 0.560852 0.060515 0.312666
Si Si5 0.311511 0.449444 0.683081
Si Si6 0.432574 0.557605 0.823569
O O1 0.821217 0.343915 0.272487
O O2 0.869579 0.517649 0.252010
O O3 0.742503 0.492175 0.216634
O O4 0.823168 0.425116 0.000000
O O5 0.950008 0.668522 0.240838
O O6 0.946950 0.844637 0.235719
O O7 0.065778 0.757739 0.269687
O O8 0.008169 0.759369 0.000000
O O9 0.685479 0.661164 0.730078
O O10 0.649592 0.725825 0.000000
O O11 0.560484 0.052684 0.500000
O O12 0.500000 0.000000 0.239824
O O13 0.293130 0.457934 0.500000
O O14 0.382934 0.496759 0.716457
O O15 0.500000 0.500000 0.838838
O O16 0.403151 0.575580 0.000000
#
# Coordination Sequence:
#
# PCOD8238815 Si02
#       6
#     8   8   8   8   8   8
#     4  11  23  43  68  94 130 171 212 265 324 386
#     4  11  21  37  65  97 128 167 216 266 321 382
#     4  12  24  41  64  94 129 169 215 263 322 387
#     4   9  18  36  63  95 125 161 208 256 309 373
#     4  12  26  44  66  94 129 171 217 265 324 390
#     4  11  23  40  63  93 128 164 211 267 322 380
#
# _framework density 20.245858999999999
#
# number of rings (size 3 to 8) (size 9 to 14) (size 15 to 20)
#    0.000    1.000    3.333    4.500    0.000    2.000 
#    0.000    9.167    0.000    0.000    0.000    0.000 
#    0.000    0.000    0.000    0.000    0.000    0.000 
#
# Total GULP energy -595345.721481 kJ/mol
# GULP energy per Si atom -12403.035864 kJ/mol
# Density = 2.019978 g / cm^3
# Si number density = 20.245859 Si / 1000 Ang^3
#
#
#
# Elastic Constant Matrix: (Units=GPa)
#
#
# Indices 1 2 3 4 5 6 
#
# 1 82.9880 42.3491 10.4639 0.0000 0.0000 0.0000
# 2 42.3491 144.7419 12.3942 0.0000 0.0000 0.0000
# 3 10.4639 12.3942 63.3524 0.0000 0.0000 0.0000
# 4 0.0000 0.0000 0.0000 38.6328 0.0000 0.0000
# 5 0.0000 0.0000 0.0000 0.0000 27.4614 0.0000
# 6 0.0000 0.0000 0.0000 0.0000 0.0000 34.1283
#
#
#
# Elastic Compliance Matrix: (Units=1/GPa)
#
#
# Indices 1 2 3 4 5 6 
#
# 1 0.014317 -0.004054 -0.001572 0.000000 0.000000 0.000000
# 2 -0.004054 0.008175 -0.000930 0.000000 0.000000 0.000000
# 3 -0.001572 -0.000930 0.016226 0.000000 0.000000 0.000000
# 4 0.000000 0.000000 0.000000 0.025885 0.000000 0.000000
# 5 0.000000 0.000000 0.000000 0.000000 0.036415 0.000000
# 6 0.000000 0.000000 0.000000 0.000000 0.000000 0.029301
#
#
# Mechanical properties :
#
#
# Convention : Reuss Voigt Hill
#
# Bulk Modulus (GPa) = 39.05209 46.83295 42.94252
# Shear Modulus (GPa) = 32.90225 35.10284 34.00254
#
# Velocity S-wave (km/s) = 4.03567 4.16844 4.10259
# Velocity P-wave (km/s) = 6.40674 6.80810 6.61047
#
# Compressibility (1/GPa) = 0.02560683
#
# Stress axis : x y z
#
# Youngs Moduli (GPa) = 69.84676 122.32870 61.62882
#
# Poissons Ratio (x) = 0.49597 0.09685
# Poissons Ratio (y) = 0.28318 0.05729
# Poissons Ratio (z) = 0.10977 0.11372
#
# Static dielectric constant tensor:
#      x y z
#    x 3.587680 0.000000 0.000000 
#    y 0.000000 3.951540 0.000000 
#    z 0.000000 0.000000 3.648040 
# 
# 
# High freq. dielectric constant tensor:
#      x y z
#    x 1.786720 0.000000 0.000000 
#    y 0.000000 1.809320 0.000000 
#    z 0.000000 0.000000 1.788480 
# 
# From -- ./inp_files/7727.got.cif
#   From: 2010.06.25/outbox.cif.g09.slc.cpg/sg58_4_cif.got.tgz:7727.got - 2010.06.26 21:38:00.
