data_PCOD8238244
_publ_section_title
;
Structure prediction by ZEFSAII (Michael W. Deem and Ramdas Pophale) SiO2 
 PCOD8238244
Probable space group: P N N M
;
_chemical_formula_sum "Si O2"
_cell_formula_units_Z 36
_cell_length_a 8.368373
_cell_length_b 9.439976
_cell_length_c 21.745403
_cell_angle_alpha 90.000000
_cell_angle_beta 90.000000
_cell_angle_gamma 90.000000
_cell_volume 1717.826826
_symmetry_space_group_name_H-M "P N N M"
_symmetry_group_IT_number 58
_symmetry_cell_setting 'orthorhombic'
loop_
_space_group_symop_operation_xyz
x,y,z
-x,-y,z
1/2+x,1/2-y,1/2-z
1/2-x,1/2+y,1/2-z
-x,-y,-z
x,y,-z
1/2-x,1/2+y,1/2+z
1/2+x,1/2-y,1/2+z
loop_
_atom_site_type_symbol
_atom_site_label
_atom_site_fract_x
_atom_site_fract_y
_atom_site_fract_z
Si Si1 0.873770 0.188325 0.131584
Si Si2 0.171259 0.045016 0.650512
Si Si3 0.664067 0.174568 0.569723
Si Si4 0.671507 0.960006 0.070344
Si Si5 0.000000 0.000000 0.767863
O O1 0.722602 0.291927 0.141815
O O2 0.991307 0.259234 0.082559
O O3 0.810713 0.039345 0.106431
O O4 0.969146 0.144107 0.193439
O O5 0.306896 0.949274 0.618914
O O6 0.156557 0.021167 0.724211
O O7 0.000000 0.000000 0.619591
O O8 0.664601 0.114379 0.500000
O O9 0.801588 0.292584 0.577194
O O10 0.500000 0.000000 0.098859
O O11 0.679691 0.010404 0.000000
#
# Coordination Sequence:
#
# PCOD8238244 Si02
#       5
#     8   8   8   8   4
#     4  12  22  43  67  92 133 170 225 277 324 407
#     4  10  26  43  63  95 130 175 219 271 337 392
#     4  11  23  42  68 102 135 172 223 276 341 396
#     4  10  21  38  65  98 132 171 215 269 332 396
#     4  10  26  42  64  94 130 176 234 266 346 388
#
# _framework density 20.956712
#
# number of rings (size 3 to 8) (size 9 to 14) (size 15 to 20)
#    0.667    0.667    2.222    2.667    3.111    4.889 
#    0.000    0.000    0.000    0.000    0.000    0.000 
#    0.000    0.000    0.000    0.000    0.000    0.000 
#
# Total GULP energy -446328.565689 kJ/mol
# GULP energy per Si atom -12398.015714 kJ/mol
# Density = 2.090901 g / cm^3
# Si number density = 20.956712 Si / 1000 Ang^3
#
#
#
# Elastic Constant Matrix: (Units=GPa)
#
#
# Indices 1 2 3 4 5 6 
#
# 1 75.2650 21.4310 29.7437 0.0000 0.0000 0.0000
# 2 21.4310 96.4461 41.0386 0.0000 0.0000 0.0000
# 3 29.7437 41.0386 106.4428 0.0000 0.0000 0.0000
# 4 0.0000 0.0000 0.0000 31.9512 0.0000 0.0000
# 5 0.0000 0.0000 0.0000 0.0000 28.1101 0.0000
# 6 0.0000 0.0000 0.0000 0.0000 0.0000 48.1645
#
#
#
# Elastic Compliance Matrix: (Units=1/GPa)
#
#
# Indices 1 2 3 4 5 6 
#
# 1 0.015216 -0.001880 -0.003527 0.000000 0.000000 0.000000
# 2 -0.001880 0.012636 -0.004346 0.000000 0.000000 0.000000
# 3 -0.003527 -0.004346 0.012056 0.000000 0.000000 0.000000
# 4 0.000000 0.000000 0.000000 0.031298 0.000000 0.000000
# 5 0.000000 0.000000 0.000000 0.000000 0.035574 0.000000
# 6 0.000000 0.000000 0.000000 0.000000 0.000000 0.020762
#
#
# Mechanical properties :
#
#
# Convention : Reuss Voigt Hill
#
# Bulk Modulus (GPa) = 49.01852 51.39783 50.20817
# Shear Modulus (GPa) = 32.49958 34.04119 33.27038
#
# Velocity S-wave (km/s) = 3.94229 4.03470 3.98876
# Velocity P-wave (km/s) = 6.64555 6.80324 6.72486
#
# Compressibility (1/GPa) = 0.02040045
#
# Stress axis : x y z
#
# Youngs Moduli (GPa) = 65.72237 79.14117 82.94706
#
# Poissons Ratio (x) = 0.14881 0.29254
# Poissons Ratio (y) = 0.12358 0.36050
# Poissons Ratio (z) = 0.23179 0.34396
#
# Static dielectric constant tensor:
#      x y z
#    x 3.689840 0.000000 0.000000 
#    y 0.000000 3.681080 0.000000 
#    z 0.000000 0.000000 3.667100 
# 
# 
# High freq. dielectric constant tensor:
#      x y z
#    x 1.820010 0.000000 0.000000 
#    y 0.000000 1.821100 0.000000 
#    z 0.000000 0.000000 1.810930 
# 
# From -- ./inp_files/28551.got.cif
#   From: 2010.06.25/outbox.cif.g09.slc.cpg/sg58_15_cif.got.tgz:28551.got - 2010.06.26 21:38:00.
