data_PCOD8238963
_publ_section_title
;
Structure prediction by ZEFSAII (Michael W. Deem and Ramdas Pophale) SiO2 
 PCOD8238963
Probable space group: P N N M
;
_chemical_formula_sum "Si O2"
_cell_formula_units_Z 32
_cell_length_a 10.976006
_cell_length_b 26.078081
_cell_length_c 5.165318
_cell_angle_alpha 90.000000
_cell_angle_beta 90.000000
_cell_angle_gamma 90.000000
_cell_volume 1478.485363
_symmetry_space_group_name_H-M "P N N M"
_symmetry_group_IT_number 58
_symmetry_cell_setting 'orthorhombic'
loop_
_space_group_symop_operation_xyz
x,y,z
-x,-y,z
1/2+x,1/2-y,1/2-z
1/2-x,1/2+y,1/2-z
-x,-y,-z
x,y,-z
1/2-x,1/2+y,1/2+z
1/2+x,1/2-y,1/2+z
loop_
_atom_site_type_symbol
_atom_site_label
_atom_site_fract_x
_atom_site_fract_y
_atom_site_fract_z
Si Si1 0.618954 0.534620 0.500000
Si Si2 0.076426 0.190251 0.500000
Si Si3 0.882179 0.650708 0.000000
Si Si4 0.952051 0.443391 0.000000
Si Si5 0.499640 0.198575 0.000000
Si Si6 0.208045 0.559374 0.500000
Si Si7 0.124650 0.894349 0.500000
Si Si8 0.220566 0.167148 0.000000
O O1 0.500000 0.500000 0.500000
O O2 0.733596 0.496574 0.500000
O O3 0.626104 0.569789 0.750425
O O4 0.989646 0.239826 0.500000
O O5 0.162758 0.192855 0.749018
O O6 0.997671 0.138789 0.500000
O O7 0.931781 0.593070 0.000000
O O8 0.925399 0.680993 0.749060
O O9 0.736346 0.645427 0.000000
O O10 0.873005 0.432323 0.750318
O O11 0.000000 0.500000 0.000000
O O12 0.365180 0.175477 0.000000
O O13 0.306387 0.605710 0.500000
#
# Coordination Sequence:
#
# PCOD8238963 Si02
#       8
#     4   4   4   4   4   4   4   4
#     4  12  25  45  70 101 147 188 238 279 351 417
#     4  12  28  45  76  99 140 185 235 294 347 422
#     4  12  24  48  69 105 145 180 230 293 353 422
#     4  12  23  40  67 101 136 179 227 275 352 404
#     4  12  27  47  73 103 136 189 231 297 360 404
#     4  12  23  42  68 100 134 185 226 290 333 417
#     4  12  27  47  68 109 143 188 231 289 352 423
#     4  12  25  50  71 106 138 179 245 286 349 419
#
# _framework density 21.643771000000001
#
# number of rings (size 3 to 8) (size 9 to 14) (size 15 to 20)
#    0.000    0.000    2.500    8.250    3.500    0.000 
#    0.000    0.000    0.000    0.000    0.000    0.000 
#    0.000    0.000    0.000    0.000    0.000    0.000 
#
# Total GULP energy -397031.160018 kJ/mol
# GULP energy per Si atom -12407.223751 kJ/mol
# Density = 2.159451 g / cm^3
# Si number density = 21.643771 Si / 1000 Ang^3
#
#
#
# Elastic Constant Matrix: (Units=GPa)
#
#
# Indices 1 2 3 4 5 6 
#
# 1 105.7193 19.2582 49.3991 0.0000 0.0000 0.0000
# 2 19.2582 128.1924 42.9980 0.0000 0.0000 0.0000
# 3 49.3991 42.9980 199.6314 0.0000 0.0000 0.0000
# 4 0.0000 0.0000 0.0000 59.3503 0.0000 0.0000
# 5 0.0000 0.0000 0.0000 0.0000 36.8395 0.0000
# 6 0.0000 0.0000 0.0000 0.0000 0.0000 43.2127
#
#
#
# Elastic Compliance Matrix: (Units=1/GPa)
#
#
# Indices 1 2 3 4 5 6 
#
# 1 0.010768 -0.000780 -0.002496 0.000000 0.000000 0.000000
# 2 -0.000780 0.008465 -0.001630 0.000000 0.000000 0.000000
# 3 -0.002496 -0.001630 0.005978 0.000000 0.000000 0.000000
# 4 0.000000 0.000000 0.000000 0.016849 0.000000 0.000000
# 5 0.000000 0.000000 0.000000 0.000000 0.027145 0.000000
# 6 0.000000 0.000000 0.000000 0.000000 0.000000 0.023141
#
#
# Mechanical properties :
#
#
# Convention : Reuss Voigt Hill
#
# Bulk Modulus (GPa) = 64.94822 72.98375 68.96599
# Shear Modulus (GPa) = 46.60198 49.33969 47.97083
#
# Velocity S-wave (km/s) = 4.64522 4.77972 4.71295
# Velocity P-wave (km/s) = 7.67097 8.01590 7.84533
#
# Compressibility (1/GPa) = 0.01539688
#
# Stress axis : x y z
#
# Youngs Moduli (GPa) = 92.87088 118.13671 167.27774
#
# Poissons Ratio (x) = 0.09218 0.41759
# Poissons Ratio (y) = 0.07246 0.27268
# Poissons Ratio (z) = 0.23184 0.19258
#
# Static dielectric constant tensor:
#      x y z
#    x 5.758870 0.000000 0.000000 
#    y 0.000000 4.258940 0.000000 
#    z 0.000000 0.000000 4.047710 
# 
# 
# High freq. dielectric constant tensor:
#      x y z
#    x 1.854450 0.000000 0.000000 
#    y 0.000000 1.871060 0.000000 
#    z 0.000000 0.000000 1.873830 
# 
# From -- ./inp_files/532.got.cif
#   From: 2010.06.25/outbox.cif.g09.slc.cpg/sg58_1_cif.got.tgz:532.got - 2010.06.26 21:38:00.
