data_PCOD8238875
_publ_section_title
;
Structure prediction by ZEFSAII (Michael W. Deem and Ramdas Pophale) SiO2 
 PCOD8238875
Probable space group: P N N M
;
_chemical_formula_sum "Si O2"
_cell_formula_units_Z 64
_cell_length_a 20.250772
_cell_length_b 8.723787
_cell_length_c 18.212434
_cell_angle_alpha 90.000000
_cell_angle_beta 90.000000
_cell_angle_gamma 90.000000
_cell_volume 3217.470905
_symmetry_space_group_name_H-M "P N N M"
_symmetry_group_IT_number 58
_symmetry_cell_setting 'orthorhombic'
loop_
_space_group_symop_operation_xyz
x,y,z
-x,-y,z
1/2+x,1/2-y,1/2-z
1/2-x,1/2+y,1/2-z
-x,-y,-z
x,y,-z
1/2-x,1/2+y,1/2+z
1/2+x,1/2-y,1/2+z
loop_
_atom_site_type_symbol
_atom_site_label
_atom_site_fract_x
_atom_site_fract_y
_atom_site_fract_z
Si Si1 0.764271 0.217721 0.321626
Si Si2 0.623335 0.670025 0.080533
Si Si3 0.607936 0.707548 0.413537
Si Si4 0.328430 0.497882 0.705808
Si Si5 0.159347 0.450706 0.086419
Si Si6 0.974865 0.668252 0.914850
Si Si7 0.570075 0.419693 0.823779
Si Si8 0.984559 0.667758 0.417608
O O1 0.826384 0.270284 0.371176
O O2 0.724673 0.370954 0.306893
O O3 0.723263 0.090272 0.366527
O O4 0.792337 0.140751 0.247995
O O5 0.614783 0.503261 0.115737
O O6 0.552840 0.746014 0.076782
O O7 0.653742 0.649688 0.000000
O O8 0.610875 0.667771 0.500000
O O9 0.644939 0.572329 0.370463
O O10 0.530921 0.714898 0.383721
O O11 0.641406 0.872299 0.398624
O O12 0.389823 0.576746 0.747969
O O13 0.100840 0.332102 0.114381
O O14 0.172318 0.425951 0.000000
O O15 0.000000 0.500000 0.898896
O O16 0.972234 0.702604 0.000000
O O17 0.500000 0.500000 0.810529
O O18 0.561595 0.248605 0.856736
O O19 0.952295 0.663628 0.500000
O O20 0.000000 0.500000 0.387436
#
# Coordination Sequence:
#
# PCOD8238875 Si02
#       8
#     8   8   8   8   8   8   8   8
#     4  11  23  37  52  74 109 149 186 223 266 331
#     4   9  18  34  56  79 105 139 175 214 263 323
#     4   9  18  35  58  82 108 139 184 241 287 322
#     4  11  24  38  54  76 110 152 192 232 276 330
#     4   9  17  33  58  83 108 142 181 223 278 340
#     4   7  12  26  51  81 107 132 167 214 268 321
#     4   9  19  36  56  79 109 144 179 219 272 331
#     4   9  17  32  58  89 112 131 168 225 279 325
#
# _framework density 19.891400000000001
#
# number of rings (size 3 to 8) (size 9 to 14) (size 15 to 20)
#    0.000    2.750    0.000    3.000    0.000    4.500 
#    0.000    1.250    0.000   12.375    0.000    0.000 
#    0.000    0.500    0.000    0.000    0.000    0.000 
#
# Total GULP energy -792923.638008 kJ/mol
# GULP energy per Si atom -12389.431844 kJ/mol
# Density = 1.984613 g / cm^3
# Si number density = 19.891400 Si / 1000 Ang^3
#
#
#
# Elastic Constant Matrix: (Units=GPa)
#
#
# Indices 1 2 3 4 5 6 
#
# 1 67.2224 20.4304 36.8296 0.0000 0.0000 0.0000
# 2 20.4304 82.5682 44.1219 0.0000 0.0000 0.0000
# 3 36.8296 44.1219 97.2087 0.0000 0.0000 0.0000
# 4 0.0000 0.0000 0.0000 28.1997 0.0000 0.0000
# 5 0.0000 0.0000 0.0000 0.0000 25.9960 0.0000
# 6 0.0000 0.0000 0.0000 0.0000 0.0000 29.6416
#
#
#
# Elastic Compliance Matrix: (Units=1/GPa)
#
#
# Indices 1 2 3 4 5 6 
#
# 1 0.018851 -0.001119 -0.006634 0.000000 0.000000 0.000000
# 2 -0.001119 0.016056 -0.006863 0.000000 0.000000 0.000000
# 3 -0.006634 -0.006863 0.015916 0.000000 0.000000 0.000000
# 4 0.000000 0.000000 0.000000 0.035461 0.000000 0.000000
# 5 0.000000 0.000000 0.000000 0.000000 0.038467 0.000000
# 6 0.000000 0.000000 0.000000 0.000000 0.000000 0.033736
#
#
# Mechanical properties :
#
#
# Convention : Reuss Voigt Hill
#
# Bulk Modulus (GPa) = 46.32028 49.97369 48.14698
# Shear Modulus (GPa) = 25.65189 26.47528 26.06359
#
# Velocity S-wave (km/s) = 3.59499 3.65223 3.62373
# Velocity P-wave (km/s) = 6.36939 6.55461 6.46266
#
# Compressibility (1/GPa) = 0.02158882
#
# Stress axis : x y z
#
# Youngs Moduli (GPa) = 53.04817 62.28280 62.83066
#
# Poissons Ratio (x) = 0.06972 0.41682
# Poissons Ratio (y) = 0.05938 0.43123
# Poissons Ratio (z) = 0.35192 0.42747
#
# Static dielectric constant tensor:
#      x y z
#    x 5.672880 0.000000 0.000000 
#    y 0.000000 3.308300 0.000000 
#    z 0.000000 0.000000 3.618130 
# 
# 
# High freq. dielectric constant tensor:
#      x y z
#    x 1.782530 0.000000 0.000000 
#    y 0.000000 1.758980 0.000000 
#    z 0.000000 0.000000 1.766180 
# 
# From -- ./inp_files/27558.got.cif
#   From: 2010.06.25/outbox.cif.g09.slc.cpg/sg58_14_cif.got.tgz:27558.got - 2010.06.26 21:38:00.
