data_PCOD8238267
_publ_section_title
;
Structure prediction by ZEFSAII (Michael W. Deem and Ramdas Pophale) SiO2 
 PCOD8238267
Probable space group: P N N M
;
_chemical_formula_sum "Si O2"
_cell_formula_units_Z 64
_cell_length_a 9.485602
_cell_length_b 14.760844
_cell_length_c 23.370941
_cell_angle_alpha 90.000000
_cell_angle_beta 90.000000
_cell_angle_gamma 90.000000
_cell_volume 3272.293788
_symmetry_space_group_name_H-M "P N N M"
_symmetry_group_IT_number 58
_symmetry_cell_setting 'orthorhombic'
loop_
_space_group_symop_operation_xyz
x,y,z
-x,-y,z
1/2+x,1/2-y,1/2-z
1/2-x,1/2+y,1/2-z
-x,-y,-z
x,y,-z
1/2-x,1/2+y,1/2+z
1/2+x,1/2-y,1/2+z
loop_
_atom_site_type_symbol
_atom_site_label
_atom_site_fract_x
_atom_site_fract_y
_atom_site_fract_z
Si Si1 0.276892 0.338366 0.343015
Si Si2 0.642791 0.050839 0.372007
Si Si3 0.504311 0.606331 0.566303
Si Si4 0.195563 0.241000 0.872746
Si Si5 0.383161 0.933570 0.756335
Si Si6 0.516745 0.281581 0.856183
Si Si7 0.487507 0.739093 0.269055
Si Si8 0.371895 0.562748 0.937771
O O1 0.359117 0.359799 0.400345
O O2 0.244041 0.425348 0.302365
O O3 0.127217 0.299386 0.361611
O O4 0.367085 0.269182 0.304147
O O5 0.633898 0.158375 0.387048
O O6 0.679699 0.036645 0.304960
O O7 0.500000 0.000000 0.387856
O O8 0.757834 0.001096 0.409001
O O9 0.500000 0.500000 0.580260
O O10 0.530205 0.624016 0.500000
O O11 0.365405 0.664022 0.584393
O O12 0.364585 0.244825 0.876842
O O13 0.144860 0.210343 0.809108
O O14 0.470769 0.841838 0.749189
O O15 0.500000 0.000000 0.781498
O O16 0.507260 0.318305 0.790309
O O17 0.577227 0.358887 0.896158
O O18 0.500000 0.500000 0.952042
O O19 0.317917 0.600610 0.000000
#
# Coordination Sequence:
#
# PCOD8238267 Si02
#       8
#     8   8   8   8   8   8   8   8
#     4  10  22  38  61  92 117 152 205 250 299 363
#     4  10  21  39  61  90 126 164 205 242 298 367
#     4  10  24  46  65  84 114 154 207 262 302 354
#     4  10  21  40  61  90 122 164 198 242 319 369
#     4   9  19  34  57  89 125 153 188 244 310 359
#     4  11  21  37  61  88 126 161 195 249 309 361
#     4   9  19  37  57  87 124 156 197 243 299 366
#     4  11  25  40  55  86 129 163 207 254 288 353
#
# _framework density 19.558146000000001
#
# number of rings (size 3 to 8) (size 9 to 14) (size 15 to 20)
#    0.000    2.000    1.250    2.250    7.000    3.750 
#    4.500    0.000    0.000    1.875    0.000    0.000 
#    0.000    0.000    0.000    0.000    0.000    0.000 
#
# Total GULP energy -793069.036600 kJ/mol
# GULP energy per Si atom -12391.703697 kJ/mol
# Density = 1.951363 g / cm^3
# Si number density = 19.558146 Si / 1000 Ang^3
#
#
#
# Elastic Constant Matrix: (Units=GPa)
#
#
# Indices 1 2 3 4 5 6 
#
# 1 112.0575 47.8227 59.1687 0.0000 0.0000 0.0000
# 2 47.8227 76.7078 64.7829 0.0000 0.0000 0.0000
# 3 59.1687 64.7829 133.8811 0.0000 0.0000 0.0000
# 4 0.0000 0.0000 0.0000 27.0529 0.0000 0.0000
# 5 0.0000 0.0000 0.0000 0.0000 23.3830 0.0000
# 6 0.0000 0.0000 0.0000 0.0000 0.0000 29.3541
#
#
#
# Elastic Compliance Matrix: (Units=1/GPa)
#
#
# Indices 1 2 3 4 5 6 
#
# 1 0.012855 -0.005439 -0.003050 0.000000 0.000000 0.000000
# 2 -0.005439 0.024347 -0.009377 0.000000 0.000000 0.000000
# 3 -0.003050 -0.009377 0.013355 0.000000 0.000000 0.000000
# 4 0.000000 0.000000 0.000000 0.036965 0.000000 0.000000
# 5 0.000000 0.000000 0.000000 0.000000 0.042766 0.000000
# 6 0.000000 0.000000 0.000000 0.000000 0.000000 0.034067
#
#
# Mechanical properties :
#
#
# Convention : Reuss Voigt Hill
#
# Bulk Modulus (GPa) = 67.45332 74.02166 70.73749
# Shear Modulus (GPa) = 24.38689 26.01614 25.20151
#
# Velocity S-wave (km/s) = 3.53497 3.65114 3.59352
# Velocity P-wave (km/s) = 7.15715 7.46348 7.31192
#
# Compressibility (1/GPa) = 0.01482507
#
# Stress axis : x y z
#
# Youngs Moduli (GPa) = 77.78782 41.07286 74.88068
#
# Poissons Ratio (x) = 0.22340 0.22835
# Poissons Ratio (y) = 0.42310 0.70218
# Poissons Ratio (z) = 0.23722 0.38515
#
# Static dielectric constant tensor:
#      x y z
#    x 3.679620 0.000000 0.000000 
#    y 0.000000 3.671760 0.000000 
#    z 0.000000 0.000000 3.951000 
# 
# 
# High freq. dielectric constant tensor:
#      x y z
#    x 1.766370 0.000000 0.000000 
#    y 0.000000 1.748350 0.000000 
#    z 0.000000 0.000000 1.764280 
# 
# From -- ./inp_files/31632.got.cif
#   From: 2010.06.25/outbox.cif.g09.slc.cpg/sg58_16_cif.got.tgz:31632.got - 2010.06.26 21:38:00.
