data_PCOD8238823
_publ_section_title
;
Structure prediction by ZEFSAII (Michael W. Deem and Ramdas Pophale) SiO2 
 PCOD8238823
Probable space group: P N N M
;
_chemical_formula_sum "Si O2"
_cell_formula_units_Z 64
_cell_length_a 11.870743
_cell_length_b 18.388546
_cell_length_c 14.193852
_cell_angle_alpha 90.000000
_cell_angle_beta 90.000000
_cell_angle_gamma 90.000000
_cell_volume 3098.314972
_symmetry_space_group_name_H-M "P N N M"
_symmetry_group_IT_number 58
_symmetry_cell_setting 'orthorhombic'
loop_
_space_group_symop_operation_xyz
x,y,z
-x,-y,z
1/2+x,1/2-y,1/2-z
1/2-x,1/2+y,1/2-z
-x,-y,-z
x,y,-z
1/2-x,1/2+y,1/2+z
1/2+x,1/2-y,1/2+z
loop_
_atom_site_type_symbol
_atom_site_label
_atom_site_fract_x
_atom_site_fract_y
_atom_site_fract_z
Si Si1 0.163984 0.953088 0.840748
Si Si2 0.247904 0.359428 0.822711
Si Si3 0.473423 0.917961 0.606277
Si Si4 0.950110 0.232097 0.391526
Si Si5 0.870461 0.355812 0.740776
Si Si6 0.936259 0.895460 0.108001
Si Si7 0.646923 0.283831 0.754607
Si Si8 0.625838 0.979163 0.104009
O O1 0.185953 0.918892 0.738816
O O2 0.072507 0.902051 0.892870
O O3 0.116068 0.035562 0.836994
O O4 0.285275 0.953589 0.894890
O O5 0.160045 0.403109 0.887562
O O6 0.342103 0.320523 0.886153
O O7 0.175369 0.300970 0.762328
O O8 0.514450 0.903092 0.500000
O O9 0.539857 0.865331 0.676527
O O10 0.500000 0.000000 0.636649
O O11 0.981568 0.245292 0.500000
O O12 0.923388 0.307782 0.341848
O O13 0.058265 0.200188 0.337370
O O14 0.762078 0.320659 0.789164
O O15 0.829777 0.427523 0.686601
O O16 0.898435 0.820628 0.157763
O O17 0.892621 0.894295 0.000000
O O18 0.500000 0.000000 0.132864
O O19 0.625336 0.943481 0.000000
#
# Coordination Sequence:
#
# PCOD8238823 Si02
#       8
#     8   8   8   8   8   8   8   8
#     4  11  21  39  65  97 136 168 216 269 330 391
#     4  11  23  43  69  94 132 176 216 274 331 392
#     4  11  24  42  67  96 128 172 224 271 323 390
#     4  11  24  44  65  92 127 170 223 271 329 396
#     4  11  22  41  66  89 126 173 214 271 328 390
#     4  11  23  41  68 100 135 176 219 271 331 401
#     4  11  24  42  66  95 131 179 216 271 333 394
#     4  11  22  35  59  99 135 168 208 264 334 400
#
# _framework density 20.656389000000001
#
# number of rings (size 3 to 8) (size 9 to 14) (size 15 to 20)
#    0.000    1.000    3.750    4.125    0.000    3.000 
#    0.000    1.250    0.000    0.750    0.000    0.000 
#    0.000    0.000    0.000    0.000    0.000    0.000 
#
# Total GULP energy -793423.171097 kJ/mol
# GULP energy per Si atom -12397.237048 kJ/mol
# Density = 2.060937 g / cm^3
# Si number density = 20.656389 Si / 1000 Ang^3
#
#
#
# Elastic Constant Matrix: (Units=GPa)
#
#
# Indices 1 2 3 4 5 6 
#
# 1 127.9184 39.9622 43.0054 0.0000 0.0000 0.0000
# 2 39.9622 74.6296 48.2699 0.0000 0.0000 0.0000
# 3 43.0054 48.2699 122.3996 0.0000 0.0000 0.0000
# 4 0.0000 0.0000 0.0000 23.1175 0.0000 0.0000
# 5 0.0000 0.0000 0.0000 0.0000 18.1243 0.0000
# 6 0.0000 0.0000 0.0000 0.0000 0.0000 31.6772
#
#
#
# Elastic Compliance Matrix: (Units=1/GPa)
#
#
# Indices 1 2 3 4 5 6 
#
# 1 0.009681 -0.004006 -0.001822 0.000000 0.000000 0.000000
# 2 -0.004006 0.019645 -0.006340 0.000000 0.000000 0.000000
# 3 -0.001822 -0.006340 0.011310 0.000000 0.000000 0.000000
# 4 0.000000 0.000000 0.000000 0.043257 0.000000 0.000000
# 5 0.000000 0.000000 0.000000 0.000000 0.055175 0.000000
# 6 0.000000 0.000000 0.000000 0.000000 0.000000 0.031568
#
#
# Mechanical properties :
#
#
# Convention : Reuss Voigt Hill
#
# Bulk Modulus (GPa) = 61.34297 65.26916 63.30607
# Shear Modulus (GPa) = 24.94938 27.49782 26.22360
#
# Velocity S-wave (km/s) = 3.47915 3.65252 3.56689
# Velocity P-wave (km/s) = 6.77500 7.03236 6.90488
#
# Compressibility (1/GPa) = 0.01630179
#
# Stress axis : x y z
#
# Youngs Moduli (GPa) = 103.29090 50.90340 88.41519
#
# Poissons Ratio (x) = 0.20391 0.16108
# Poissons Ratio (y) = 0.41376 0.56054
# Poissons Ratio (z) = 0.18818 0.32272
#
# Static dielectric constant tensor:
#      x y z
#    x 4.104030 0.000000 0.000000 
#    y 0.000000 3.682380 0.000000 
#    z 0.000000 0.000000 3.491090 
# 
# 
# High freq. dielectric constant tensor:
#      x y z
#    x 1.834150 0.000000 0.000000 
#    y 0.000000 1.795900 0.000000 
#    z 0.000000 0.000000 1.790510 
# 
# From -- ./inp_files/21489.got.cif
#   From: 2010.06.25/outbox.cif.g09.slc.cpg/sg58_11_cif.got.tgz:21489.got - 2010.06.26 21:38:00.
