data_PCOD8238088
_publ_section_title
;
Structure prediction by ZEFSAII (Michael W. Deem and Ramdas Pophale) SiO2 
 PCOD8238088
Probable space group: P N N M
;
_chemical_formula_sum "Si O2"
_cell_formula_units_Z 56
_cell_length_a 11.746526
_cell_length_b 17.096754
_cell_length_c 14.170627
_cell_angle_alpha 90.000000
_cell_angle_beta 90.000000
_cell_angle_gamma 90.000000
_cell_volume 2845.851103
_symmetry_space_group_name_H-M "P N N M"
_symmetry_group_IT_number 58
_symmetry_cell_setting 'orthorhombic'
loop_
_space_group_symop_operation_xyz
x,y,z
-x,-y,z
1/2+x,1/2-y,1/2-z
1/2-x,1/2+y,1/2-z
-x,-y,-z
x,y,-z
1/2-x,1/2+y,1/2+z
1/2+x,1/2-y,1/2+z
loop_
_atom_site_type_symbol
_atom_site_label
_atom_site_fract_x
_atom_site_fract_y
_atom_site_fract_z
Si Si1 0.157036 0.232001 0.891150
Si Si2 0.725089 0.362608 0.781977
Si Si3 0.125952 0.975240 0.250544
Si Si4 0.750212 0.627532 0.393442
Si Si5 0.573816 0.244417 0.890396
Si Si6 0.093756 0.721647 0.108096
Si Si7 0.862625 0.163670 0.393305
O O1 0.207055 0.162063 0.827458
O O2 0.233681 0.309286 0.878133
O O3 0.032950 0.258623 0.855788
O O4 0.155574 0.203085 0.000000
O O5 0.697962 0.453809 0.794191
O O6 0.635534 0.317662 0.845278
O O7 0.851643 0.343492 0.822197
O O8 0.203689 0.944800 0.165409
O O9 0.107518 0.908881 0.328261
O O10 0.000000 0.000000 0.214380
O O11 0.760271 0.596808 0.500000
O O12 0.873137 0.661074 0.354925
O O13 0.662546 0.698455 0.383353
O O14 0.440035 0.258746 0.870729
O O15 0.605331 0.247383 0.000000
O O16 0.091645 0.690752 0.000000
O O17 0.885690 0.136148 0.500000
#
# Coordination Sequence:
#
# PCOD8238088 Si02
#       7
#     8   8   8   8   8   8   8
#     4  10  22  39  60  85 115 153 201 247 286 340
#     4  11  21  33  59  84 120 153 188 236 295 354
#     4  12  23  35  52  89 126 152 186 235 303 359
#     4   9  19  36  58  83 112 148 194 239 281 340
#     4   9  18  35  60  86 107 144 196 244 282 331
#     4   9  19  38  61  84 109 150 201 243 284 339
#     4  10  21  37  59  85 114 150 193 244 296 343
#
# _framework density 19.677769000000001
#
# number of rings (size 3 to 8) (size 9 to 14) (size 15 to 20)
#    0.000    2.000    1.429    3.857    2.000    2.286 
#    0.000    0.714    0.000    2.571    0.000    4.000 
#    0.000    0.000    0.000    0.000    0.000    0.000 
#
# Total GULP energy -694147.205187 kJ/mol
# GULP energy per Si atom -12395.485807 kJ/mol
# Density = 1.963298 g / cm^3
# Si number density = 19.677769 Si / 1000 Ang^3
#
#
#
# Elastic Constant Matrix: (Units=GPa)
#
#
# Indices 1 2 3 4 5 6 
#
# 1 89.4296 24.6348 45.7691 0.0000 0.0000 0.0000
# 2 24.6348 58.9353 32.3574 0.0000 0.0000 0.0000
# 3 45.7691 32.3574 63.6692 0.0000 0.0000 0.0000
# 4 0.0000 0.0000 0.0000 18.9964 0.0000 0.0000
# 5 0.0000 0.0000 0.0000 0.0000 23.1789 0.0000
# 6 0.0000 0.0000 0.0000 0.0000 0.0000 25.3398
#
#
#
# Elastic Compliance Matrix: (Units=1/GPa)
#
#
# Indices 1 2 3 4 5 6 
#
# 1 0.017704 -0.000573 -0.012436 0.000000 0.000000 0.000000
# 2 -0.000573 0.023553 -0.011558 0.000000 0.000000 0.000000
# 3 -0.012436 -0.011558 0.030520 0.000000 0.000000 0.000000
# 4 0.000000 0.000000 0.000000 0.052642 0.000000 0.000000
# 5 0.000000 0.000000 0.000000 0.000000 0.043143 0.000000
# 6 0.000000 0.000000 0.000000 0.000000 0.000000 0.039464
#
#
# Mechanical properties :
#
#
# Convention : Reuss Voigt Hill
#
# Bulk Modulus (GPa) = 44.16255 46.39519 45.27887
# Shear Modulus (GPa) = 18.96049 20.78785 19.87417
#
# Velocity S-wave (km/s) = 3.10748 3.25378 3.18147
# Velocity P-wave (km/s) = 5.94700 6.14367 6.04614
#
# Compressibility (1/GPa) = 0.02264362
#
# Stress axis : x y z
#
# Youngs Moduli (GPa) = 56.48367 42.45745 32.76563
#
# Poissons Ratio (x) = 0.02431 0.40747
# Poissons Ratio (y) = 0.03235 0.37871
# Poissons Ratio (z) = 0.70242 0.49073
#
# Static dielectric constant tensor:
#      x y z
#    x 3.956160 0.000000 0.000000 
#    y 0.000000 3.285920 0.000000 
#    z 0.000000 0.000000 3.799870 
# 
# 
# High freq. dielectric constant tensor:
#      x y z
#    x 1.774720 0.000000 0.000000 
#    y 0.000000 1.727900 0.000000 
#    z 0.000000 0.000000 1.779990 
# 
# From -- ./inp_files/21265.got.cif
#   From: 2010.06.25/outbox.cif.g09.slc.cpg/sg58_11_cif.got.tgz:21265.got - 2010.06.26 21:38:00.
