data_PCOD8238002
_publ_section_title
;
Structure prediction by ZEFSAII (Michael W. Deem and Ramdas Pophale) SiO2 
 PCOD8238002
Probable space group: P N N M
;
_chemical_formula_sum "Si O2"
_cell_formula_units_Z 64
_cell_length_a 10.810022
_cell_length_b 32.495156
_cell_length_c 9.057486
_cell_angle_alpha 90.000000
_cell_angle_beta 90.000000
_cell_angle_gamma 90.000000
_cell_volume 3181.653461
_symmetry_space_group_name_H-M "P N N M"
_symmetry_group_IT_number 58
_symmetry_cell_setting 'orthorhombic'
loop_
_space_group_symop_operation_xyz
x,y,z
-x,-y,z
1/2+x,1/2-y,1/2-z
1/2-x,1/2+y,1/2-z
-x,-y,-z
x,y,-z
1/2-x,1/2+y,1/2+z
1/2+x,1/2-y,1/2+z
loop_
_atom_site_type_symbol
_atom_site_label
_atom_site_fract_x
_atom_site_fract_y
_atom_site_fract_z
Si Si1 0.712476 0.278022 0.334742
Si Si2 0.472833 0.333882 0.667356
Si Si3 0.734792 0.186375 0.327638
Si Si4 0.634943 0.482328 0.326557
Si Si5 0.114608 0.472652 0.674766
Si Si6 0.156383 0.656806 0.163363
Si Si7 0.567927 0.119524 0.824877
Si Si8 0.106645 0.100570 0.664611
O O1 0.768128 0.278078 0.500000
O O2 0.589415 0.304383 0.328349
O O3 0.679630 0.231314 0.288756
O O4 0.816429 0.297846 0.228789
O O5 0.423779 0.339603 0.500000
O O6 0.375256 0.312550 0.774123
O O7 0.501767 0.379263 0.731941
O O8 0.726122 0.176171 0.500000
O O9 0.665829 0.151524 0.236981
O O10 0.500000 0.500000 0.283542
O O11 0.642019 0.473197 0.500000
O O12 0.749089 0.511466 0.276158
O O13 0.655683 0.440639 0.238572
O O14 0.105654 0.473401 0.500000
O O15 0.100669 0.426115 0.733687
O O16 0.000000 0.500000 0.739046
O O17 0.281934 0.632069 0.152483
O O18 0.067159 0.631345 0.268869
O O19 0.097335 0.662588 0.000000
O O20 0.569452 0.121127 0.000000
O O21 0.054086 0.091780 0.500000
#
# Coordination Sequence:
#
# PCOD8238002 Si02
#       8
#     8   8   8   8   8   8   8   8
#     4   9  21  40  61  86 116 155 201 245 293 354
#     4  10  21  39  62  86 115 156 203 246 291 355
#     4  11  24  40  58  87 124 158 195 247 306 356
#     4  10  21  36  59  88 117 154 200 252 302 360
#     4   9  19  37  60  87 119 155 199 249 301 361
#     4  10  21  38  61  88 120 155 197 248 297 350
#     4  11  23  38  61  90 121 159 202 244 300 365
#     4  10  21  38  60  88 119 155 195 243 304 361
#
# _framework density 20.115324999999999
#
# number of rings (size 3 to 8) (size 9 to 14) (size 15 to 20)
#    0.000    2.000    0.000    2.625    3.500    4.250 
#    0.000    1.250    0.000    3.375    0.000    0.000 
#    0.000    0.000    0.000    0.000    0.000    0.000 
#
# Total GULP energy -793583.238965 kJ/mol
# GULP energy per Si atom -12399.738109 kJ/mol
# Density = 2.006954 g / cm^3
# Si number density = 20.115325 Si / 1000 Ang^3
#
#
#
# Elastic Constant Matrix: (Units=GPa)
#
#
# Indices 1 2 3 4 5 6 
#
# 1 69.1269 30.3459 26.3138 0.0000 0.0000 0.0000
# 2 30.3459 144.9507 54.3802 0.0000 0.0000 0.0000
# 3 26.3138 54.3802 88.2832 0.0000 0.0000 0.0000
# 4 0.0000 0.0000 0.0000 26.1507 0.0000 0.0000
# 5 0.0000 0.0000 0.0000 0.0000 29.2324 0.0000
# 6 0.0000 0.0000 0.0000 0.0000 0.0000 24.2150
#
#
#
# Elastic Compliance Matrix: (Units=1/GPa)
#
#
# Indices 1 2 3 4 5 6 
#
# 1 0.016809 -0.002132 -0.003697 0.000000 0.000000 0.000000
# 2 -0.002132 0.009243 -0.005058 0.000000 0.000000 0.000000
# 3 -0.003697 -0.005058 0.015545 0.000000 0.000000 0.000000
# 4 0.000000 0.000000 0.000000 0.038240 0.000000 0.000000
# 5 0.000000 0.000000 0.000000 0.000000 0.034209 0.000000
# 6 0.000000 0.000000 0.000000 0.000000 0.000000 0.041297
#
#
# Mechanical properties :
#
#
# Convention : Reuss Voigt Hill
#
# Bulk Modulus (GPa) = 50.44633 58.27119 54.35876
# Shear Modulus (GPa) = 27.21483 28.67434 27.94459
#
# Velocity S-wave (km/s) = 3.68222 3.77967 3.73127
# Velocity P-wave (km/s) = 6.57354 6.93393 6.75613
#
# Compressibility (1/GPa) = 0.01982305
#
# Stress axis : x y z
#
# Youngs Moduli (GPa) = 59.49058 108.19262 64.33124
#
# Poissons Ratio (x) = 0.23069 0.23782
# Poissons Ratio (y) = 0.12684 0.32537
# Poissons Ratio (z) = 0.21993 0.54722
#
# Static dielectric constant tensor:
#      x y z
#    x 3.739460 0.000000 0.000000 
#    y 0.000000 3.809280 0.000000 
#    z 0.000000 0.000000 3.826890 
# 
# 
# High freq. dielectric constant tensor:
#      x y z
#    x 1.782980 0.000000 0.000000 
#    y 0.000000 1.793610 0.000000 
#    z 0.000000 0.000000 1.780570 
# 
# From -- ./inp_files/4830.got.cif
#   From: 2010.06.25/outbox.cif.g09.slc.cpg/sg58_3_cif.got.tgz:4830.got - 2010.06.26 21:38:00.
