data_PCOD8238150
_publ_section_title
;
Structure prediction by ZEFSAII (Michael W. Deem and Ramdas Pophale) SiO2 
 PCOD8238150
Probable space group: P N N M
;
_chemical_formula_sum "Si O2"
_cell_formula_units_Z 40
_cell_length_a 6.958542
_cell_length_b 23.614899
_cell_length_c 10.877798
_cell_angle_alpha 90.000000
_cell_angle_beta 90.000000
_cell_angle_gamma 90.000000
_cell_volume 1787.497055
_symmetry_space_group_name_H-M "P N N M"
_symmetry_group_IT_number 58
_symmetry_cell_setting 'orthorhombic'
loop_
_space_group_symop_operation_xyz
x,y,z
-x,-y,z
1/2+x,1/2-y,1/2-z
1/2-x,1/2+y,1/2-z
-x,-y,-z
x,y,-z
1/2-x,1/2+y,1/2+z
1/2+x,1/2-y,1/2+z
loop_
_atom_site_type_symbol
_atom_site_label
_atom_site_fract_x
_atom_site_fract_y
_atom_site_fract_z
Si Si1 0.777178 0.954655 0.139254
Si Si2 0.324850 0.624775 0.138573
Si Si3 0.167204 0.423730 0.364517
Si Si4 0.428677 0.269319 0.133596
Si Si5 0.937409 0.672009 0.800020
O O1 0.872957 0.920338 0.252780
O O2 0.552149 0.942866 0.143037
O O3 0.807267 0.022306 0.163678
O O4 0.853358 0.938770 0.000000
O O5 0.433977 0.681062 0.182142
O O6 0.096522 0.637428 0.123959
O O7 0.392206 0.604915 0.000000
O O8 0.215383 0.401072 0.500000
O O9 0.201167 0.372112 0.271810
O O10 0.208597 0.290772 0.120628
O O11 0.439679 0.213360 0.213871
O O12 0.500790 0.250813 0.000000
#
# Coordination Sequence:
#
# PCOD8238150 Si02
#       5
#     8   8   8   8   8
#     4   8  15  32  57  85 112 147 189 235 285 341
#     4  10  21  38  58  86 119 150 186 236 288 345
#     4   8  15  30  56  84 111 143 191 241 283 334
#     4  11  23  38  56  83 118 151 194 240 286 344
#     4  11  20  38  58  83 111 155 193 236 290 341
#
# _framework density 22.377656999999999
#
# number of rings (size 3 to 8) (size 9 to 14) (size 15 to 20)
#    0.000    2.400    2.000    2.400    0.000    0.800 
#    0.000   12.000    0.000    4.800    0.000    0.000 
#    0.000    0.000    0.000    0.000    0.000    0.000 
#
# Total GULP energy -495584.761663 kJ/mol
# GULP energy per Si atom -12389.619042 kJ/mol
# Density = 2.232672 g / cm^3
# Si number density = 22.377657 Si / 1000 Ang^3
#
#
#
# Elastic Constant Matrix: (Units=GPa)
#
#
# Indices 1 2 3 4 5 6 
#
# 1 33.9734 1.7679 -0.3555 0.0000 0.0000 0.0000
# 2 1.7679 85.8211 57.0983 0.0000 0.0000 0.0000
# 3 -0.3555 57.0983 122.6840 0.0000 0.0000 0.0000
# 4 0.0000 0.0000 0.0000 14.5572 0.0000 0.0000
# 5 0.0000 0.0000 0.0000 0.0000 12.8643 0.0000
# 6 0.0000 0.0000 0.0000 0.0000 0.0000 34.8303
#
#
#
# Elastic Compliance Matrix: (Units=1/GPa)
#
#
# Indices 1 2 3 4 5 6 
#
# 1 0.029490 -0.000962 0.000533 0.000000 0.000000 0.000000
# 2 -0.000962 0.016910 -0.007873 0.000000 0.000000 0.000000
# 3 0.000533 -0.007873 0.011817 0.000000 0.000000 0.000000
# 4 0.000000 0.000000 0.000000 0.068695 0.000000 0.000000
# 5 0.000000 0.000000 0.000000 0.000000 0.077735 0.000000
# 6 0.000000 0.000000 0.000000 0.000000 0.000000 0.028711
#
#
# Mechanical properties :
#
#
# Convention : Reuss Voigt Hill
#
# Bulk Modulus (GPa) = 24.03075 39.94444 31.98760
# Shear Modulus (GPa) = 18.95146 24.71486 21.83316
#
# Velocity S-wave (km/s) = 2.91330 3.32692 3.12696
# Velocity P-wave (km/s) = 4.69877 5.71374 5.23093
#
# Compressibility (1/GPa) = 0.04161334
#
# Stress axis : x y z
#
# Youngs Moduli (GPa) = 33.90929 59.13691 84.62626
#
# Poissons Ratio (x) = 0.05691 -0.04514
# Poissons Ratio (y) = 0.03263 0.66625
# Poissons Ratio (z) = -0.01809 0.46557
#
# Static dielectric constant tensor:
#      x y z
#    x 3.774220 0.000000 0.000000 
#    y 0.000000 4.222970 0.000000 
#    z 0.000000 0.000000 3.962910 
# 
# 
# High freq. dielectric constant tensor:
#      x y z
#    x 1.882380 0.000000 0.000000 
#    y 0.000000 1.871620 0.000000 
#    z 0.000000 0.000000 1.870950 
# 
# From -- ./inp_files/13135.got.cif
#   From: 2010.06.25/outbox.cif.g09.slc.cpg/sg58_7_cif.got.tgz:13135.got - 2010.06.26 21:38:00.
