data_PCOD8238634
_publ_section_title
;
Structure prediction by ZEFSAII (Michael W. Deem and Ramdas Pophale) SiO2 
 PCOD8238634
Probable space group: P N N M
;
_chemical_formula_sum "Si O2"
_cell_formula_units_Z 48
_cell_length_a 9.445762
_cell_length_b 30.910132
_cell_length_c 7.661597
_cell_angle_alpha 90.000000
_cell_angle_beta 90.000000
_cell_angle_gamma 90.000000
_cell_volume 2236.954563
_symmetry_space_group_name_H-M "P N N M"
_symmetry_group_IT_number 58
_symmetry_cell_setting 'orthorhombic'
loop_
_space_group_symop_operation_xyz
x,y,z
-x,-y,z
1/2+x,1/2-y,1/2-z
1/2-x,1/2+y,1/2-z
-x,-y,-z
x,y,-z
1/2-x,1/2+y,1/2+z
1/2+x,1/2-y,1/2+z
loop_
_atom_site_type_symbol
_atom_site_label
_atom_site_fract_x
_atom_site_fract_y
_atom_site_fract_z
Si Si1 0.534906 0.369381 0.207344
Si Si2 0.017975 0.289439 0.298281
Si Si3 0.587562 0.541884 0.697029
Si Si4 0.655618 0.708952 0.793666
Si Si5 0.793501 0.530615 0.000000
Si Si6 0.107715 0.563471 0.000000
Si Si7 0.157192 0.630233 0.298440
O O1 0.510163 0.415831 0.294540
O O2 0.412847 0.336209 0.269049
O O3 0.683903 0.351211 0.278867
O O4 0.540563 0.374273 0.000000
O O5 0.980535 0.288903 0.500000
O O6 0.184921 0.287363 0.271697
O O7 0.938588 0.248071 0.213236
O O8 0.951829 0.333798 0.223298
O O9 0.500000 0.500000 0.757712
O O10 0.644269 0.535512 0.500000
O O11 0.718358 0.548302 0.826553
O O12 0.653916 0.710746 0.000000
O O13 0.794969 0.478880 0.000000
O O14 0.945290 0.551651 0.000000
O O15 0.143337 0.588353 0.822459
O O16 0.124881 0.617920 0.500000
#
# Coordination Sequence:
#
# PCOD8238634 Si02
#       7
#     8   8   8   8   4   4   8
#     4  11  22  39  66  96 130 171 220 272 328 394
#     4  10  23  41  61  93 131 168 214 267 323 390
#     4  11  24  41  67  97 131 172 222 277 332 394
#     4  10  23  40  64  95 128 171 217 265 327 390
#     4  11  25  44  66  96 135 172 225 274 337 398
#     4  11  26  44  68  96 132 179 218 277 335 391
#     4  11  24  42  67  95 131 174 222 268 330 392
#
# _framework density 21.457744999999999
#
# number of rings (size 3 to 8) (size 9 to 14) (size 15 to 20)
#    0.000    1.333    1.667    2.750    3.500    4.667 
#    0.000    1.667    0.000    0.000    0.000    0.000 
#    0.000    0.000    0.000    0.000    0.000    0.000 
#
# Total GULP energy -595347.118743 kJ/mol
# GULP energy per Si atom -12403.064974 kJ/mol
# Density = 2.140891 g / cm^3
# Si number density = 21.457745 Si / 1000 Ang^3
#
#
#
# Elastic Constant Matrix: (Units=GPa)
#
#
# Indices 1 2 3 4 5 6 
#
# 1 134.9540 58.5643 21.3605 0.0000 0.0000 0.0000
# 2 58.5643 115.1049 20.3947 0.0000 0.0000 0.0000
# 3 21.3605 20.3947 87.4862 0.0000 0.0000 0.0000
# 4 0.0000 0.0000 0.0000 10.2878 0.0000 0.0000
# 5 0.0000 0.0000 0.0000 0.0000 26.5005 0.0000
# 6 0.0000 0.0000 0.0000 0.0000 0.0000 23.9731
#
#
#
# Elastic Compliance Matrix: (Units=1/GPa)
#
#
# Indices 1 2 3 4 5 6 
#
# 1 0.009641 -0.004682 -0.001263 0.000000 0.000000 0.000000
# 2 -0.004682 0.011335 -0.001499 0.000000 0.000000 0.000000
# 3 -0.001263 -0.001499 0.012088 0.000000 0.000000 0.000000
# 4 0.000000 0.000000 0.000000 0.097202 0.000000 0.000000
# 5 0.000000 0.000000 0.000000 0.000000 0.037735 0.000000
# 6 0.000000 0.000000 0.000000 0.000000 0.000000 0.041713
#
#
# Mechanical properties :
#
#
# Convention : Reuss Voigt Hill
#
# Bulk Modulus (GPa) = 55.01314 59.79822 57.40568
# Shear Modulus (GPa) = 21.67668 27.96733 24.82201
#
# Velocity S-wave (km/s) = 3.18182 3.61414 3.40484
# Velocity P-wave (km/s) = 6.26037 6.73382 6.50140
#
# Compressibility (1/GPa) = 0.01817747
#
# Stress axis : x y z
#
# Youngs Moduli (GPa) = 103.71862 88.21889 82.72527
#
# Poissons Ratio (x) = 0.41302 0.10445
# Poissons Ratio (y) = 0.48559 0.12404
# Poissons Ratio (z) = 0.13096 0.13228
#
# Static dielectric constant tensor:
#      x y z
#    x 4.002120 0.000000 0.000000 
#    y 0.000000 4.377470 0.000000 
#    z 0.000000 0.000000 3.794360 
# 
# 
# High freq. dielectric constant tensor:
#      x y z
#    x 1.847240 0.000000 0.000000 
#    y 0.000000 1.851560 0.000000 
#    z 0.000000 0.000000 1.842970 
# 
# From -- ./inp_files/3066.got.cif
#   From: 2010.06.25/outbox.cif.g09.slc.cpg/sg58_2_cif.got.tgz:3066.got - 2010.06.26 21:38:00.
