data_PCOD8238675
_publ_section_title
;
Structure prediction by ZEFSAII (Michael W. Deem and Ramdas Pophale) SiO2 
 PCOD8238675
Probable space group: P N N M
;
_chemical_formula_sum "Si O2"
_cell_formula_units_Z 64
_cell_length_a 28.447872
_cell_length_b 12.412073
_cell_length_c 8.816058
_cell_angle_alpha 90.000000
_cell_angle_beta 90.000000
_cell_angle_gamma 90.000000
_cell_volume 3112.924195
_symmetry_space_group_name_H-M "P N N M"
_symmetry_group_IT_number 58
_symmetry_cell_setting 'orthorhombic'
loop_
_space_group_symop_operation_xyz
x,y,z
-x,-y,z
1/2+x,1/2-y,1/2-z
1/2-x,1/2+y,1/2-z
-x,-y,-z
x,y,-z
1/2-x,1/2+y,1/2+z
1/2+x,1/2-y,1/2+z
loop_
_atom_site_type_symbol
_atom_site_label
_atom_site_fract_x
_atom_site_fract_y
_atom_site_fract_z
Si Si1 0.552873 0.526622 0.323166
Si Si2 0.064955 0.749927 0.321486
Si Si3 0.615852 0.152884 0.825148
Si Si4 0.516535 0.117699 0.678222
Si Si5 0.199314 0.942841 0.176598
Si Si6 0.129726 0.103212 0.325194
Si Si7 0.303083 0.008807 0.176138
Si Si8 0.659902 0.787943 0.678435
O O1 0.500000 0.500000 0.279085
O O2 0.558727 0.553032 0.500000
O O3 0.571240 0.626842 0.227026
O O4 0.584424 0.425591 0.276092
O O5 0.064379 0.737957 0.500000
O O6 0.109766 0.686059 0.256180
O O7 0.016200 0.705726 0.257184
O O8 0.570031 0.137004 0.723824
O O9 0.638651 0.270323 0.801748
O O10 0.654856 0.068461 0.770107
O O11 0.601766 0.134528 0.000000
O O12 0.511181 0.133043 0.500000
O O13 0.500000 0.000000 0.731425
O O14 0.254630 0.947201 0.209689
O O15 0.180439 0.826961 0.231717
O O16 0.175107 0.037917 0.270681
O O17 0.187708 0.960313 0.000000
O O18 0.119371 0.075760 0.500000
O O19 0.304136 0.119305 0.270724
O O20 0.307733 0.037781 0.000000
O O21 0.652953 0.791199 0.500000
#
# Coordination Sequence:
#
# PCOD8238675 Si02
#       8
#     8   8   8   8   8   8   8   8
#     4  11  23  39  60  88 124 164 205 255 315 374
#     4  12  24  39  63  92 124 164 211 261 313 375
#     4  10  23  42  64  93 129 169 212 262 317 376
#     4  11  24  41  63  92 128 168 214 262 314 379
#     4  10  23  42  65  91 125 168 209 261 326 383
#     4  11  23  39  63  92 125 164 212 262 313 378
#     4  10  23  43  66  93 127 168 214 263 322 384
#     4  11  23  41  66  95 129 165 210 265 321 378
#
# _framework density 20.559446000000001
#
# number of rings (size 3 to 8) (size 9 to 14) (size 15 to 20)
#    0.000    1.250    1.250    4.125    1.750    8.500 
#    0.000    0.000    0.000    0.000    0.000    0.000 
#    0.000    0.000    0.000    0.000    0.000    0.000 
#
# Total GULP energy -794057.210324 kJ/mol
# GULP energy per Si atom -12407.143911 kJ/mol
# Density = 2.051265 g / cm^3
# Si number density = 20.559446 Si / 1000 Ang^3
#
#
#
# Elastic Constant Matrix: (Units=GPa)
#
#
# Indices 1 2 3 4 5 6 
#
# 1 124.3983 40.5514 38.0577 0.0000 0.0000 0.0000
# 2 40.5514 112.2443 37.8693 0.0000 0.0000 0.0000
# 3 38.0577 37.8693 74.5346 0.0000 0.0000 0.0000
# 4 0.0000 0.0000 0.0000 31.6971 0.0000 0.0000
# 5 0.0000 0.0000 0.0000 0.0000 30.3145 0.0000
# 6 0.0000 0.0000 0.0000 0.0000 0.0000 35.6587
#
#
#
# Elastic Compliance Matrix: (Units=1/GPa)
#
#
# Indices 1 2 3 4 5 6 
#
# 1 0.009987 -0.002278 -0.003942 0.000000 0.000000 0.000000
# 2 -0.002278 0.011272 -0.004564 0.000000 0.000000 0.000000
# 3 -0.003942 -0.004564 0.017748 0.000000 0.000000 0.000000
# 4 0.000000 0.000000 0.000000 0.031549 0.000000 0.000000
# 5 0.000000 0.000000 0.000000 0.000000 0.032987 0.000000
# 6 0.000000 0.000000 0.000000 0.000000 0.000000 0.028044
#
#
# Mechanical properties :
#
#
# Convention : Reuss Voigt Hill
#
# Bulk Modulus (GPa) = 57.34150 60.45934 58.90042
# Shear Modulus (GPa) = 31.45278 32.51398 31.98338
#
# Velocity S-wave (km/s) = 3.91557 3.98107 3.94846
# Velocity P-wave (km/s) = 6.95653 7.11357 7.03549
#
# Compressibility (1/GPa) = 0.01743938
#
# Stress axis : x y z
#
# Youngs Moduli (GPa) = 100.12646 88.71587 56.34388
#
# Poissons Ratio (x) = 0.20212 0.22211
# Poissons Ratio (y) = 0.22811 0.25714
# Poissons Ratio (z) = 0.39471 0.40488
#
# Static dielectric constant tensor:
#      x y z
#    x 3.766770 0.000000 0.000000 
#    y 0.000000 3.812190 0.000000 
#    z 0.000000 0.000000 3.684500 
# 
# 
# High freq. dielectric constant tensor:
#      x y z
#    x 1.813100 0.000000 0.000000 
#    y 0.000000 1.813330 0.000000 
#    z 0.000000 0.000000 1.804050 
# 
# From -- ./inp_files/10986.got.cif
#   From: 2010.06.25/outbox.cif.g09.slc.cpg/sg58_6_cif.got.tgz:10986.got - 2010.06.26 21:38:00.
