data_PCOD8238936
_publ_section_title
;
Structure prediction by ZEFSAII (Michael W. Deem and Ramdas Pophale) SiO2 
 PCOD8238936
Probable space group: P N N M
;
_chemical_formula_sum "Si O2"
_cell_formula_units_Z 40
_cell_length_a 14.228153
_cell_length_b 7.836569
_cell_length_c 16.735918
_cell_angle_alpha 90.000000
_cell_angle_beta 90.000000
_cell_angle_gamma 90.000000
_cell_volume 1866.053229
_symmetry_space_group_name_H-M "P N N M"
_symmetry_group_IT_number 58
_symmetry_cell_setting 'orthorhombic'
loop_
_space_group_symop_operation_xyz
x,y,z
-x,-y,z
1/2+x,1/2-y,1/2-z
1/2-x,1/2+y,1/2-z
-x,-y,-z
x,y,-z
1/2-x,1/2+y,1/2+z
1/2+x,1/2-y,1/2+z
loop_
_atom_site_type_symbol
_atom_site_label
_atom_site_fract_x
_atom_site_fract_y
_atom_site_fract_z
Si Si1 0.184514 0.467968 0.590145
Si Si2 0.238584 0.115146 0.671163
Si Si3 0.075035 0.621338 0.727467
Si Si4 0.064546 0.139229 0.218086
Si Si5 0.816845 0.708953 0.909876
O O1 0.148440 0.446418 0.500000
O O2 0.221079 0.284854 0.620207
O O3 0.098074 0.534298 0.642796
O O4 0.265886 0.608801 0.595190
O O5 0.332073 0.150367 0.721326
O O6 0.154920 0.074506 0.732857
O O7 0.249166 0.947599 0.615908
O O8 0.000000 0.500000 0.773019
O O9 0.013232 0.792385 0.717652
O O10 0.096246 0.277435 0.151435
O O11 0.000000 0.000000 0.172155
O O12 0.852218 0.674185 0.000000
#
# Coordination Sequence:
#
# PCOD8238936 Si02
#       5
#     8   8   8   8   8
#     4  11  24  43  69 100 139 179 223 286 349 398
#     4  12  23  46  70  96 137 181 230 280 334 414
#     4  12  23  42  67 100 130 176 233 277 332 405
#     4  12  25  42  72 100 132 181 237 277 337 413
#     4  11  24  43  67 100 139 175 223 287 343 400
#
# _framework density 21.435616
#
# number of rings (size 3 to 8) (size 9 to 14) (size 15 to 20)
#    0.000    0.400    6.000    3.000    0.000    0.800 
#    0.000    3.000    0.000    4.200    0.000    0.000 
#    0.000    0.000    0.000    0.000    0.000    0.000 
#
# Total GULP energy -495551.063694 kJ/mol
# GULP energy per Si atom -12388.776592 kJ/mol
# Density = 2.138683 g / cm^3
# Si number density = 21.435616 Si / 1000 Ang^3
#
#
#
# Elastic Constant Matrix: (Units=GPa)
#
#
# Indices 1 2 3 4 5 6 
#
# 1 138.5856 49.1792 60.1092 0.0000 0.0000 0.0000
# 2 49.1792 98.9901 71.2605 0.0000 0.0000 0.0000
# 3 60.1092 71.2605 155.5107 0.0000 0.0000 0.0000
# 4 0.0000 0.0000 0.0000 28.8185 0.0000 0.0000
# 5 0.0000 0.0000 0.0000 0.0000 14.6997 0.0000
# 6 0.0000 0.0000 0.0000 0.0000 0.0000 44.1106
#
#
#
# Elastic Compliance Matrix: (Units=1/GPa)
#
#
# Indices 1 2 3 4 5 6 
#
# 1 0.009234 -0.003012 -0.002189 0.000000 0.000000 0.000000
# 2 -0.003012 0.016057 -0.006194 0.000000 0.000000 0.000000
# 3 -0.002189 -0.006194 0.010115 0.000000 0.000000 0.000000
# 4 0.000000 0.000000 0.000000 0.034700 0.000000 0.000000
# 5 0.000000 0.000000 0.000000 0.000000 0.068029 0.000000
# 6 0.000000 0.000000 0.000000 0.000000 0.000000 0.022670
#
#
# Mechanical properties :
#
#
# Convention : Reuss Voigt Hill
#
# Bulk Modulus (GPa) = 79.26046 83.79823 81.52935
# Shear Modulus (GPa) = 26.62415 31.69492 29.15953
#
# Velocity S-wave (km/s) = 3.52810 3.84944 3.69227
# Velocity P-wave (km/s) = 7.32482 7.67694 7.50295
#
# Compressibility (1/GPa) = 0.01261663
#
# Stress axis : x y z
#
# Youngs Moduli (GPa) = 108.29565 62.27816 98.86480
#
# Poissons Ratio (x) = 0.18756 0.21643
# Poissons Ratio (y) = 0.32614 0.61235
# Poissons Ratio (z) = 0.23708 0.38574
#
# Static dielectric constant tensor:
#      x y z
#    x 3.978610 0.000000 0.000000 
#    y 0.000000 4.438740 0.000000 
#    z 0.000000 0.000000 3.950150 
# 
# 
# High freq. dielectric constant tensor:
#      x y z
#    x 1.846930 0.000000 0.000000 
#    y 0.000000 1.863940 0.000000 
#    z 0.000000 0.000000 1.822530 
# 
# From -- ./inp_files/21877.got.cif
#   From: 2010.06.25/outbox.cif.g09.slc.cpg/sg58_11_cif.got.tgz:21877.got - 2010.06.26 21:38:00.
