data_PCOD8238215
_publ_section_title
;
Structure prediction by ZEFSAII (Michael W. Deem and Ramdas Pophale) SiO2 
 PCOD8238215
Probable space group: P N N M
;
_chemical_formula_sum "Si O2"
_cell_formula_units_Z 64
_cell_length_a 14.481247
_cell_length_b 24.924900
_cell_length_c 8.577566
_cell_angle_alpha 90.000000
_cell_angle_beta 90.000000
_cell_angle_gamma 90.000000
_cell_volume 3096.017837
_symmetry_space_group_name_H-M "P N N M"
_symmetry_group_IT_number 58
_symmetry_cell_setting 'orthorhombic'
loop_
_space_group_symop_operation_xyz
x,y,z
-x,-y,z
1/2+x,1/2-y,1/2-z
1/2-x,1/2+y,1/2-z
-x,-y,-z
x,y,-z
1/2-x,1/2+y,1/2+z
1/2+x,1/2-y,1/2+z
loop_
_atom_site_type_symbol
_atom_site_label
_atom_site_fract_x
_atom_site_fract_y
_atom_site_fract_z
Si Si1 0.748802 0.571245 0.682066
Si Si2 0.555203 0.261058 0.678396
Si Si3 0.651119 0.766858 0.318339
Si Si4 0.108696 0.130748 0.680812
Si Si5 0.897841 0.488524 0.315109
Si Si6 0.212952 0.317199 0.176753
Si Si7 0.457099 0.443318 0.316066
Si Si8 0.699658 0.879629 0.817560
O O1 0.744877 0.560134 0.500000
O O2 0.825440 0.531662 0.756776
O O3 0.775590 0.632569 0.710630
O O4 0.647153 0.558840 0.750523
O O5 0.560916 0.281403 0.500000
O O6 0.451635 0.249339 0.730254
O O7 0.600647 0.305841 0.788020
O O8 0.610101 0.205525 0.699297
O O9 0.670011 0.756786 0.500000
O O10 0.716854 0.730143 0.216059
O O11 0.667184 0.828926 0.281339
O O12 0.127201 0.120868 0.500000
O O13 0.194264 0.105948 0.777204
O O14 0.013883 0.103444 0.733193
O O15 0.900122 0.494856 0.500000
O O16 0.865219 0.429128 0.267779
O O17 0.000000 0.500000 0.245797
O O18 0.230305 0.335987 0.000000
O O19 0.500000 0.500000 0.269261
O O20 0.460423 0.432906 0.500000
O O21 0.691116 0.867120 0.000000
#
# Coordination Sequence:
#
# PCOD8238215 Si02
#       8
#     8   8   8   8   8   8   8   8
#     4  10  21  38  62  90 122 159 202 257 309 359
#     4  10  23  41  60  83 120 163 202 246 306 373
#     4  11  23  40  62  91 123 160 205 255 308 365
#     4  12  24  38  61  92 124 159 203 256 308 365
#     4   9  20  39  63  92 122 159 208 255 299 358
#     4  11  23  40  61  88 123 165 203 246 304 367
#     4  10  21  39  63  89 119 162 205 246 308 374
#     4  11  22  39  64  91 123 162 204 254 309 368
#
# _framework density 20.671716
#
# number of rings (size 3 to 8) (size 9 to 14) (size 15 to 20)
#    0.000    1.500    1.250    3.750    1.750    7.250 
#    0.000    2.500    0.000    1.875    0.000    0.000 
#    0.000    0.000    0.000    0.000    0.000    0.000 
#
# Total GULP energy -793925.900786 kJ/mol
# GULP energy per Si atom -12405.092200 kJ/mol
# Density = 2.062467 g / cm^3
# Si number density = 20.671716 Si / 1000 Ang^3
#
#
#
# Elastic Constant Matrix: (Units=GPa)
#
#
# Indices 1 2 3 4 5 6 
#
# 1 126.3319 35.9533 14.7263 0.0000 0.0000 0.0000
# 2 35.9533 100.8212 4.2597 0.0000 0.0000 0.0000
# 3 14.7263 4.2597 33.3827 0.0000 0.0000 0.0000
# 4 0.0000 0.0000 0.0000 28.8881 0.0000 0.0000
# 5 0.0000 0.0000 0.0000 0.0000 17.9916 0.0000
# 6 0.0000 0.0000 0.0000 0.0000 0.0000 39.6683
#
#
#
# Elastic Compliance Matrix: (Units=1/GPa)
#
#
# Indices 1 2 3 4 5 6 
#
# 1 0.009237 -0.003139 -0.003674 0.000000 0.000000 0.000000
# 2 -0.003139 0.011039 -0.000024 0.000000 0.000000 0.000000
# 3 -0.003674 -0.000024 0.031580 0.000000 0.000000 0.000000
# 4 0.000000 0.000000 0.000000 0.034616 0.000000 0.000000
# 5 0.000000 0.000000 0.000000 0.000000 0.055582 0.000000
# 6 0.000000 0.000000 0.000000 0.000000 0.000000 0.025209
#
#
# Mechanical properties :
#
#
# Convention : Reuss Voigt Hill
#
# Bulk Modulus (GPa) = 26.19071 41.15716 33.67394
# Shear Modulus (GPa) = 25.81792 31.01603 28.41698
#
# Velocity S-wave (km/s) = 3.53788 3.87771 3.71169
# Velocity P-wave (km/s) = 5.42090 6.32471 5.89017
#
# Compressibility (1/GPa) = 0.03818147
#
# Stress axis : x y z
#
# Youngs Moduli (GPa) = 108.25724 90.58894 31.66604
#
# Poissons Ratio (x) = 0.28434 0.11635
# Poissons Ratio (y) = 0.33980 0.00076
# Poissons Ratio (z) = 0.39778 0.00217
#
# Static dielectric constant tensor:
#      x y z
#    x 4.098080 0.000000 0.000000 
#    y 0.000000 3.683250 0.000000 
#    z 0.000000 0.000000 3.459880 
# 
# 
# High freq. dielectric constant tensor:
#      x y z
#    x 1.826760 0.000000 0.000000 
#    y 0.000000 1.813800 0.000000 
#    z 0.000000 0.000000 1.786910 
# 
# From -- ./inp_files/6843.got.cif
#   From: 2010.06.25/outbox.cif.g09.slc.cpg/sg58_4_cif.got.tgz:6843.got - 2010.06.26 21:38:00.
