data_PCOD8238479
_publ_section_title
;
Structure prediction by ZEFSAII (Michael W. Deem and Ramdas Pophale) SiO2 
 PCOD8238479
Probable space group: P N N M
;
_chemical_formula_sum "Si O2"
_cell_formula_units_Z 56
_cell_length_a 8.113208
_cell_length_b 21.041390
_cell_length_c 16.063846
_cell_angle_alpha 90.000000
_cell_angle_beta 90.000000
_cell_angle_gamma 90.000000
_cell_volume 2742.310132
_symmetry_space_group_name_H-M "P N N M"
_symmetry_group_IT_number 58
_symmetry_cell_setting 'orthorhombic'
loop_
_space_group_symop_operation_xyz
x,y,z
-x,-y,z
1/2+x,1/2-y,1/2-z
1/2-x,1/2+y,1/2-z
-x,-y,-z
x,y,-z
1/2-x,1/2+y,1/2+z
1/2+x,1/2-y,1/2+z
loop_
_atom_site_type_symbol
_atom_site_label
_atom_site_fract_x
_atom_site_fract_y
_atom_site_fract_z
Si Si1 0.006100 0.154216 0.404806
Si Si2 0.810247 0.259430 0.092363
Si Si3 0.137130 0.134357 0.906284
Si Si4 0.534053 0.573439 0.249463
Si Si5 0.804983 0.654431 0.299242
Si Si6 0.834792 0.722701 0.135805
Si Si7 0.973820 0.429746 0.592429
O O1 0.033037 0.130501 0.500000
O O2 0.033262 0.096612 0.339940
O O3 0.823663 0.184850 0.399256
O O4 0.152939 0.200813 0.375885
O O5 0.825710 0.193790 0.143949
O O6 0.987746 0.295560 0.094502
O O7 0.767400 0.238986 0.000000
O O8 0.204293 0.203662 0.880500
O O9 0.281970 0.083463 0.912865
O O10 0.026006 0.108106 0.832553
O O11 0.054624 0.138103 0.000000
O O12 0.500000 0.500000 0.256888
O O13 0.725851 0.593503 0.252280
O O14 0.865841 0.706168 0.232265
O O15 0.953678 0.627209 0.352728
O O16 0.054452 0.428384 0.500000
O O17 0.000000 0.500000 0.631857
#
# Coordination Sequence:
#
# PCOD8238479 Si02
#       7
#     8   8   8   8   8   8   8
#     4  10  23  42  65  93 122 157 205 257 310 367
#     4  11  22  38  63  92 122 157 197 251 312 367
#     4  11  22  37  60  87 122 161 196 250 308 361
#     4  11  24  40  59  87 121 163 208 246 296 360
#     4  11  23  36  58  89 118 160 200 251 303 364
#     4  11  23  38  61  94 127 158 196 253 316 365
#     4  10  22  39  59  84 118 164 209 250 300 358
#
# _framework density 20.420739999999999
#
# number of rings (size 3 to 8) (size 9 to 14) (size 15 to 20)
#    0.000    1.286    1.429    4.286    6.000    3.429 
#    0.000    0.000    0.000    0.000    0.000    5.000 
#    0.000    0.000    0.000    0.000    0.000    0.000 
#
# Total GULP energy -693751.680240 kJ/mol
# GULP energy per Si atom -12388.422861 kJ/mol
# Density = 2.037426 g / cm^3
# Si number density = 20.420740 Si / 1000 Ang^3
#
#
#
# Elastic Constant Matrix: (Units=GPa)
#
#
# Indices 1 2 3 4 5 6 
#
# 1 81.0458 4.8218 11.6433 0.0000 0.0000 0.0000
# 2 4.8218 61.9379 56.0635 0.0000 0.0000 0.0000
# 3 11.6433 56.0635 128.6699 0.0000 0.0000 0.0000
# 4 0.0000 0.0000 0.0000 19.9629 0.0000 0.0000
# 5 0.0000 0.0000 0.0000 0.0000 7.9313 0.0000
# 6 0.0000 0.0000 0.0000 0.0000 0.0000 24.5052
#
#
#
# Elastic Compliance Matrix: (Units=1/GPa)
#
#
# Indices 1 2 3 4 5 6 
#
# 1 0.012501 0.000084 -0.001168 0.000000 0.000000 0.000000
# 2 0.000084 0.026660 -0.011624 0.000000 0.000000 0.000000
# 3 -0.001168 -0.011624 0.012942 0.000000 0.000000 0.000000
# 4 0.000000 0.000000 0.000000 0.050093 0.000000 0.000000
# 5 0.000000 0.000000 0.000000 0.000000 0.126083 0.000000
# 6 0.000000 0.000000 0.000000 0.000000 0.000000 0.040808
#
#
# Mechanical properties :
#
#
# Convention : Reuss Voigt Hill
#
# Bulk Modulus (GPa) = 37.46980 46.30118 41.88549
# Shear Modulus (GPa) = 16.47995 23.75488 20.11741
#
# Velocity S-wave (km/s) = 2.84389 3.41438 3.14211
# Velocity P-wave (km/s) = 5.40114 6.18602 5.80686
#
# Compressibility (1/GPa) = 0.02668816
#
# Stress axis : x y z
#
# Youngs Moduli (GPa) = 79.99052 37.50934 77.26691
#
# Poissons Ratio (x) = -0.00314 0.09023
# Poissons Ratio (y) = -0.00670 0.89813
# Poissons Ratio (z) = 0.09341 0.43600
#
# Static dielectric constant tensor:
#      x y z
#    x 3.661060 0.000000 0.000000 
#    y 0.000000 3.602180 0.000000 
#    z 0.000000 0.000000 4.046420 
# 
# 
# High freq. dielectric constant tensor:
#      x y z
#    x 1.799480 0.000000 0.000000 
#    y 0.000000 1.778410 0.000000 
#    z 0.000000 0.000000 1.813540 
# 
# From -- ./inp_files/20114.got.cif
#   From: 2010.06.25/outbox.cif.g09.slc.cpg/sg58_11_cif.got.tgz:20114.got - 2010.06.26 21:38:00.
