data_PCOD8238778
_publ_section_title
;
Structure prediction by ZEFSAII (Michael W. Deem and Ramdas Pophale) SiO2 
 PCOD8238778
Probable space group: P N N M
;
_chemical_formula_sum "Si O2"
_cell_formula_units_Z 48
_cell_length_a 6.385238
_cell_length_b 14.313362
_cell_length_c 25.658048
_cell_angle_alpha 90.000000
_cell_angle_beta 90.000000
_cell_angle_gamma 90.000000
_cell_volume 2344.997359
_symmetry_space_group_name_H-M "P N N M"
_symmetry_group_IT_number 58
_symmetry_cell_setting 'orthorhombic'
loop_
_space_group_symop_operation_xyz
x,y,z
-x,-y,z
1/2+x,1/2-y,1/2-z
1/2-x,1/2+y,1/2-z
-x,-y,-z
x,y,-z
1/2-x,1/2+y,1/2+z
1/2+x,1/2-y,1/2+z
loop_
_atom_site_type_symbol
_atom_site_label
_atom_site_fract_x
_atom_site_fract_y
_atom_site_fract_z
Si Si1 0.274866 0.624743 0.753699
Si Si2 0.229648 0.271386 0.127021
Si Si3 0.402284 0.594055 0.862762
Si Si4 0.952719 0.391746 0.939800
Si Si5 0.983100 0.397223 0.654381
Si Si6 0.872349 0.197404 0.196140
O O1 0.276208 0.570503 0.809044
O O2 0.248255 0.736122 0.763428
O O3 0.502589 0.615301 0.726055
O O4 0.097769 0.588964 0.714109
O O5 0.417723 0.331855 0.151765
O O6 0.148842 0.324139 0.074810
O O7 0.324878 0.166539 0.119510
O O8 0.032943 0.265017 0.165375
O O9 0.500000 0.500000 0.886001
O O10 0.250214 0.637549 0.906359
O O11 0.000000 0.500000 0.927184
O O12 0.900443 0.376397 0.000000
O O13 0.212036 0.350642 0.655979
O O14 0.000000 0.500000 0.628471
#
# Coordination Sequence:
#
# PCOD8238778 Si02
#       6
#     8   8   8   8   8   8
#     4  11  21  33  56  83 122 164 210 251 304 361
#     4  11  22  41  61  86 124 166 205 259 318 373
#     4  12  24  37  60  91 128 168 208 257 318 384
#     4  11  24  42  65  94 125 160 211 269 329 394
#     4  11  25  38  58  88 127 173 217 258 307 374
#     4  11  20  37  57  83 123 164 212 259 302 365
#
# _framework density 20.469107000000001
#
# number of rings (size 3 to 8) (size 9 to 14) (size 15 to 20)
#    0.000    0.833    6.667    1.000    2.333    3.667 
#    0.000    0.000    0.000    0.500    0.000    4.667 
#    0.000    0.000    0.000    0.000    0.000    0.000 
#
# Total GULP energy -595021.129929 kJ/mol
# GULP energy per Si atom -12396.273540 kJ/mol
# Density = 2.042252 g / cm^3
# Si number density = 20.469107 Si / 1000 Ang^3
#
#
#
# Elastic Constant Matrix: (Units=GPa)
#
#
# Indices 1 2 3 4 5 6 
#
# 1 111.0031 41.6059 40.7205 0.0000 0.0000 0.0000
# 2 41.6059 114.1924 24.9150 0.0000 0.0000 0.0000
# 3 40.7205 24.9150 90.7209 0.0000 0.0000 0.0000
# 4 0.0000 0.0000 0.0000 21.8789 0.0000 0.0000
# 5 0.0000 0.0000 0.0000 0.0000 20.3652 0.0000
# 6 0.0000 0.0000 0.0000 0.0000 0.0000 36.3711
#
#
#
# Elastic Compliance Matrix: (Units=1/GPa)
#
#
# Indices 1 2 3 4 5 6 
#
# 1 0.011890 -0.003370 -0.004412 0.000000 0.000000 0.000000
# 2 -0.003370 0.010270 -0.001308 0.000000 0.000000 0.000000
# 3 -0.004412 -0.001308 0.013362 0.000000 0.000000 0.000000
# 4 0.000000 0.000000 0.000000 0.045706 0.000000 0.000000
# 5 0.000000 0.000000 0.000000 0.000000 0.049103 0.000000
# 6 0.000000 0.000000 0.000000 0.000000 0.000000 0.027494
#
#
# Mechanical properties :
#
#
# Convention : Reuss Voigt Hill
#
# Bulk Modulus (GPa) = 57.65647 58.93324 58.29486
# Shear Modulus (GPa) = 27.50483 29.63470 28.56977
#
# Velocity S-wave (km/s) = 3.66966 3.80909 3.74003
# Velocity P-wave (km/s) = 6.79588 6.94258 6.86962
#
# Compressibility (1/GPa) = 0.01734411
#
# Stress axis : x y z
#
# Youngs Moduli (GPa) = 84.10382 97.36843 74.83801
#
# Poissons Ratio (x) = 0.32809 0.33015
# Poissons Ratio (y) = 0.28340 0.09790
# Poissons Ratio (z) = 0.37102 0.12737
#
# Static dielectric constant tensor:
#      x y z
#    x 3.955970 0.000000 0.000000 
#    y 0.000000 3.632480 0.000000 
#    z 0.000000 0.000000 3.259760 
# 
# 
# High freq. dielectric constant tensor:
#      x y z
#    x 1.821390 0.000000 0.000000 
#    y 0.000000 1.790570 0.000000 
#    z 0.000000 0.000000 1.745820 
# 
# From -- ./inp_files/32787.got.cif
#   From: 2010.06.25/outbox.cif.g09.slc.cpg/sg58_17_cif.got.tgz:32787.got - 2010.06.26 21:38:00.
