data_PCOD8238832
_publ_section_title
;
Structure prediction by ZEFSAII (Michael W. Deem and Ramdas Pophale) SiO2 
 PCOD8238832
Probable space group: P N N M
;
_chemical_formula_sum "Si O2"
_cell_formula_units_Z 32
_cell_length_a 7.741188
_cell_length_b 11.174730
_cell_length_c 17.783234
_cell_angle_alpha 90.000000
_cell_angle_beta 90.000000
_cell_angle_gamma 90.000000
_cell_volume 1538.350853
_symmetry_space_group_name_H-M "P N N M"
_symmetry_group_IT_number 58
_symmetry_cell_setting 'orthorhombic'
loop_
_space_group_symop_operation_xyz
x,y,z
-x,-y,z
1/2+x,1/2-y,1/2-z
1/2-x,1/2+y,1/2-z
-x,-y,-z
x,y,-z
1/2-x,1/2+y,1/2+z
1/2+x,1/2-y,1/2+z
loop_
_atom_site_type_symbol
_atom_site_label
_atom_site_fract_x
_atom_site_fract_y
_atom_site_fract_z
Si Si1 0.816771 0.050934 0.843205
Si Si2 0.194190 0.541306 0.500000
Si Si3 0.647119 0.219255 0.500000
Si Si4 0.000000 0.500000 0.239143
Si Si5 0.697666 0.460122 0.000000
Si Si6 0.115195 0.690767 0.123959
O O1 0.795920 0.194683 0.837842
O O2 0.792530 0.009063 0.928336
O O3 0.669550 0.999772 0.789875
O O4 0.000000 0.000000 0.813305
O O5 0.194290 0.687183 0.500000
O O6 0.000000 0.500000 0.500000
O O7 0.534183 0.246626 0.427153
O O8 0.693005 0.080499 0.500000
O O9 0.981482 0.384722 0.187072
O O10 0.500000 0.500000 0.000000
O O11 0.745767 0.385505 0.075032
#
# Coordination Sequence:
#
# PCOD8238832 Si02
#       6
#     8   4   4   4   4   8
#     4  12  27  46  72 102 135 187 230 287 350 406
#     4  12  24  45  72 103 136 174 242 294 339 402
#     4  11  21  45  76  94 139 184 228 296 338 397
#     4  12  28  48  66 104 146 180 228 280 350 430
#     4  11  24  41  73 107 129 183 236 289 340 394
#     4  11  24  48  68  97 143 179 232 285 342 418
#
# _framework density 20.801497000000001
#
# number of rings (size 3 to 8) (size 9 to 14) (size 15 to 20)
#    0.000    0.500    6.250    2.625    7.000    1.000 
#    0.000    0.000    0.000    0.000    0.000    0.000 
#    0.000    0.000    0.000    0.000    0.000    0.000 
#
# Total GULP energy -396882.885984 kJ/mol
# GULP energy per Si atom -12402.590187 kJ/mol
# Density = 2.075415 g / cm^3
# Si number density = 20.801497 Si / 1000 Ang^3
#
#
#
# Elastic Constant Matrix: (Units=GPa)
#
#
# Indices 1 2 3 4 5 6 
#
# 1 145.9991 35.0577 43.9542 0.0000 0.0000 0.0000
# 2 35.0577 137.9395 27.8500 0.0000 0.0000 0.0000
# 3 43.9542 27.8500 113.7093 0.0000 0.0000 0.0000
# 4 0.0000 0.0000 0.0000 -65.7343 0.0000 0.0000
# 5 0.0000 0.0000 0.0000 0.0000 123.4792 0.0000
# 6 0.0000 0.0000 0.0000 0.0000 0.0000 37.3097
#
#
#
# Elastic Compliance Matrix: (Units=1/GPa)
#
#
# Indices 1 2 3 4 5 6 
#
# 1 0.008032 -0.001488 -0.002740 0.000000 0.000000 0.000000
# 2 -0.001488 0.007902 -0.001360 0.000000 0.000000 0.000000
# 3 -0.002740 -0.001360 0.010187 0.000000 0.000000 0.000000
# 4 0.000000 0.000000 0.000000 -0.015213 0.000000 0.000000
# 5 0.000000 0.000000 0.000000 0.000000 0.008099 0.000000
# 6 0.000000 0.000000 0.000000 0.000000 0.000000 0.026803
#
#
# Mechanical properties :
#
#
# Convention : Reuss Voigt Hill
#
# Bulk Modulus (GPa) = 66.91740 67.93020 67.42380
# Shear Modulus (GPa) = 80.68768 38.39666 59.54217
#
# Velocity S-wave (km/s) = 6.23487 4.30101 5.35594
# Velocity P-wave (km/s) = 9.16901 7.57576 8.41020
#
# Compressibility (1/GPa) = 0.01494380
#
# Stress axis : x y z
#
# Youngs Moduli (GPa) = 124.50808 126.54418 98.16705
#
# Poissons Ratio (x) = 0.18830 0.26899
# Poissons Ratio (y) = 0.18527 0.13353
# Poissons Ratio (z) = 0.34117 0.17214
#
# Static dielectric constant tensor:
#      x y z
#    x 3.775830 0.000000 0.000000 
#    y 0.000000 4.073280 0.000000 
#    z 0.000000 0.000000 3.891980 
# 
# 
# High freq. dielectric constant tensor:
#      x y z
#    x 1.813450 0.000000 0.000000 
#    y 0.000000 1.835000 0.000000 
#    z 0.000000 0.000000 1.814370 
# 
# From -- ./inp_files/24907.got.cif
#   From: 2010.06.25/outbox.cif.g09.slc.cpg/sg58_13_cif.got.tgz:24907.got - 2010.06.26 21:38:00.
