data_PCOD8238549
_publ_section_title
;
Structure prediction by ZEFSAII (Michael W. Deem and Ramdas Pophale) SiO2 
 PCOD8238549
Probable space group: P N N M
;
_chemical_formula_sum "Si O2"
_cell_formula_units_Z 36
_cell_length_a 11.892277
_cell_length_b 12.021873
_cell_length_c 13.239437
_cell_angle_alpha 90.000000
_cell_angle_beta 90.000000
_cell_angle_gamma 90.000000
_cell_volume 1892.808465
_symmetry_space_group_name_H-M "P N N M"
_symmetry_group_IT_number 58
_symmetry_cell_setting 'orthorhombic'
loop_
_space_group_symop_operation_xyz
x,y,z
-x,-y,z
1/2+x,1/2-y,1/2-z
1/2-x,1/2+y,1/2-z
-x,-y,-z
x,y,-z
1/2-x,1/2+y,1/2+z
1/2+x,1/2-y,1/2+z
loop_
_atom_site_type_symbol
_atom_site_label
_atom_site_fract_x
_atom_site_fract_y
_atom_site_fract_z
Si Si1 0.917014 0.903416 0.219912
Si Si2 0.976147 0.302321 0.115467
Si Si3 0.217692 0.226530 0.385365
Si Si4 0.791456 0.516210 0.381892
Si Si5 0.500000 0.000000 0.752216
O O1 0.867121 0.843988 0.317923
O O2 0.988296 0.818955 0.152199
O O3 0.820626 0.952712 0.149236
O O4 0.000000 0.000000 0.258233
O O5 0.843007 0.319917 0.126513
O O6 0.036561 0.396578 0.182085
O O7 0.014764 0.316726 0.000000
O O8 0.175372 0.214013 0.500000
O O9 0.217208 0.354738 0.352529
O O10 0.811119 0.498131 0.500000
O O11 0.896377 0.463351 0.322618
#
# Coordination Sequence:
#
# PCOD8238549 Si02
#       5
#     8   8   8   8   4
#     4  12  23  39  67  96 126 159 208 262 307 367
#     4  11  23  39  62  91 122 163 209 255 307 366
#     4  10  22  41  61  86 125 166 202 248 312 369
#     4  11  23  39  62  91 122 163 209 255 307 366
#     4  12  22  40  64  86 128 168 202 252 312 370
#
# _framework density 19.019355999999998
#
# number of rings (size 3 to 8) (size 9 to 14) (size 15 to 20)
#    0.000    0.889    6.667    1.333    0.000    1.333 
#    0.000    0.000    0.000    0.000    0.000    0.000 
#    0.000    0.000    0.000    0.000    0.000    0.000 
#
# Total GULP energy -446594.793547 kJ/mol
# GULP energy per Si atom -12405.410932 kJ/mol
# Density = 1.897607 g / cm^3
# Si number density = 19.019356 Si / 1000 Ang^3
#
#
#
# Elastic Constant Matrix: (Units=GPa)
#
#
# Indices 1 2 3 4 5 6 
#
# 1 79.0428 26.8104 40.8666 0.0000 0.0000 0.0000
# 2 26.8104 102.7843 51.8665 0.0000 0.0000 0.0000
# 3 40.8666 51.8665 115.3456 0.0000 0.0000 0.0000
# 4 0.0000 0.0000 0.0000 28.5509 0.0000 0.0000
# 5 0.0000 0.0000 0.0000 0.0000 23.9683 0.0000
# 6 0.0000 0.0000 0.0000 0.0000 0.0000 29.1128
#
#
#
# Elastic Compliance Matrix: (Units=1/GPa)
#
#
# Indices 1 2 3 4 5 6 
#
# 1 0.015706 -0.001667 -0.004815 0.000000 0.000000 0.000000
# 2 -0.001667 0.012762 -0.005148 0.000000 0.000000 0.000000
# 3 -0.004815 -0.005148 0.012690 0.000000 0.000000 0.000000
# 4 0.000000 0.000000 0.000000 0.035025 0.000000 0.000000
# 5 0.000000 0.000000 0.000000 0.000000 0.041722 0.000000
# 6 0.000000 0.000000 0.000000 0.000000 0.000000 0.034349
#
#
# Mechanical properties :
#
#
# Convention : Reuss Voigt Hill
#
# Bulk Modulus (GPa) = 55.87099 59.58440 57.72769
# Shear Modulus (GPa) = 27.55121 28.16836 27.85979
#
# Velocity S-wave (km/s) = 3.81016 3.85260 3.83144
# Velocity P-wave (km/s) = 6.98542 7.15446 7.07045
#
# Compressibility (1/GPa) = 0.01789838
#
# Stress axis : x y z
#
# Youngs Moduli (GPa) = 63.66868 78.36012 78.80028
#
# Poissons Ratio (x) = 0.13063 0.37943
# Poissons Ratio (y) = 0.10614 0.40564
# Poissons Ratio (z) = 0.30657 0.40338
#
# Static dielectric constant tensor:
#      x y z
#    x 3.424330 0.000000 0.000000 
#    y 0.000000 3.562470 0.000000 
#    z 0.000000 0.000000 3.478220 
# 
# 
# High freq. dielectric constant tensor:
#      x y z
#    x 1.739550 0.000000 0.000000 
#    y 0.000000 1.744300 0.000000 
#    z 0.000000 0.000000 1.747980 
# 
# From -- ./inp_files/13859.got.cif
#   From: 2010.06.25/outbox.cif.g09.slc.cpg/sg58_7_cif.got.tgz:13859.got - 2010.06.26 21:38:00.
