data_PCOD8238660
_publ_section_title
;
Structure prediction by ZEFSAII (Michael W. Deem and Ramdas Pophale) SiO2 
 PCOD8238660
Probable space group: P N N M
;
_chemical_formula_sum "Si O2"
_cell_formula_units_Z 40
_cell_length_a 8.045208
_cell_length_b 11.833930
_cell_length_c 18.525508
_cell_angle_alpha 90.000000
_cell_angle_beta 90.000000
_cell_angle_gamma 90.000000
_cell_volume 1763.747449
_symmetry_space_group_name_H-M "P N N M"
_symmetry_group_IT_number 58
_symmetry_cell_setting 'orthorhombic'
loop_
_space_group_symop_operation_xyz
x,y,z
-x,-y,z
1/2+x,1/2-y,1/2-z
1/2-x,1/2+y,1/2-z
-x,-y,-z
x,y,-z
1/2-x,1/2+y,1/2+z
1/2+x,1/2-y,1/2+z
loop_
_atom_site_type_symbol
_atom_site_label
_atom_site_fract_x
_atom_site_fract_y
_atom_site_fract_z
Si Si1 0.298777 0.140634 0.284010
Si Si2 0.395082 0.846419 0.813668
Si Si3 0.344291 0.253281 0.917980
Si Si4 0.675827 0.452939 0.645586
Si Si5 0.305101 0.994026 0.579467
O O1 0.487638 0.119667 0.254975
O O2 0.265200 0.275104 0.287887
O O3 0.165489 0.090383 0.227749
O O4 0.254513 0.084504 0.360441
O O5 0.498369 0.766555 0.867121
O O6 0.326150 0.955589 0.856100
O O7 0.216560 0.149510 0.908195
O O8 0.253493 0.369598 0.896137
O O9 0.405475 0.257231 0.000000
O O10 0.500000 0.500000 0.619664
O O11 0.227988 0.024261 0.500000
O O12 0.500000 0.000000 0.571932
#
# Coordination Sequence:
#
# PCOD8238660 Si02
#       5
#     8   8   8   8   8
#     4  11  24  40  67  93 141 168 225 279 331 406
#     4  11  25  42  66 101 130 184 218 280 345 396
#     4  10  24  46  67  96 137 177 224 276 338 407
#     4  11  25  41  67 101 127 177 227 276 346 398
#     4  10  23  41  67  97 131 178 221 276 341 397
#
# _framework density 22.678984
#
# number of rings (size 3 to 8) (size 9 to 14) (size 15 to 20)
#    0.000    1.400    0.000    4.800   16.800    2.800 
#    0.000    2.000    0.000    0.000    0.000    0.000 
#    0.000    0.000    0.000    0.000    0.000    0.000 
#
# Total GULP energy -495875.730058 kJ/mol
# GULP energy per Si atom -12396.893251 kJ/mol
# Density = 2.262737 g / cm^3
# Si number density = 22.678984 Si / 1000 Ang^3
#
#
#
# Elastic Constant Matrix: (Units=GPa)
#
#
# Indices 1 2 3 4 5 6 
#
# 1 81.7886 31.1651 12.9529 0.0000 0.0000 0.0000
# 2 31.1651 125.7691 46.9484 0.0000 0.0000 0.0000
# 3 12.9529 46.9484 104.0350 0.0000 0.0000 0.0000
# 4 0.0000 0.0000 0.0000 40.0044 0.0000 0.0000
# 5 0.0000 0.0000 0.0000 0.0000 65.5459 0.0000
# 6 0.0000 0.0000 0.0000 0.0000 0.0000 49.3412
#
#
#
# Elastic Compliance Matrix: (Units=1/GPa)
#
#
# Indices 1 2 3 4 5 6 
#
# 1 0.013505 -0.003270 -0.000206 0.000000 0.000000 0.000000
# 2 -0.003270 0.010353 -0.004265 0.000000 0.000000 0.000000
# 3 -0.000206 -0.004265 0.011563 0.000000 0.000000 0.000000
# 4 0.000000 0.000000 0.000000 0.024997 0.000000 0.000000
# 5 0.000000 0.000000 0.000000 0.000000 0.015256 0.000000
# 6 0.000000 0.000000 0.000000 0.000000 0.000000 0.020267
#
#
# Mechanical properties :
#
#
# Convention : Reuss Voigt Hill
#
# Bulk Modulus (GPa) = 50.15140 54.85837 52.50489
# Shear Modulus (GPa) = 42.34779 45.68006 44.01392
#
# Velocity S-wave (km/s) = 4.32588 4.49286 4.41016
# Velocity P-wave (km/s) = 6.86386 7.15234 7.00958
#
# Compressibility (1/GPa) = 0.01993962
#
# Stress axis : x y z
#
# Youngs Moduli (GPa) = 74.04586 96.58639 86.48615
#
# Poissons Ratio (x) = 0.31580 0.01781
# Poissons Ratio (y) = 0.24210 0.36888
# Poissons Ratio (z) = 0.01525 0.41196
#
# Static dielectric constant tensor:
#      x y z
#    x 3.842380 0.000000 0.000000 
#    y 0.000000 4.268030 0.000000 
#    z 0.000000 0.000000 4.241170 
# 
# 
# High freq. dielectric constant tensor:
#      x y z
#    x 1.885040 0.000000 0.000000 
#    y 0.000000 1.910310 0.000000 
#    z 0.000000 0.000000 1.888730 
# 
# From -- ./inp_files/24968.got.cif
#   From: 2010.06.25/outbox.cif.g09.slc.cpg/sg58_13_cif.got.tgz:24968.got - 2010.06.26 21:38:00.
