data_PCOD8238918
_publ_section_title
;
Structure prediction by ZEFSAII (Michael W. Deem and Ramdas Pophale) SiO2 
 PCOD8238918
Probable space group: P N N M
;
_chemical_formula_sum "Si O2"
_cell_formula_units_Z 32
_cell_length_a 15.637698
_cell_length_b 9.660197
_cell_length_c 10.301595
_cell_angle_alpha 90.000000
_cell_angle_beta 90.000000
_cell_angle_gamma 90.000000
_cell_volume 1556.192352
_symmetry_space_group_name_H-M "P N N M"
_symmetry_group_IT_number 58
_symmetry_cell_setting 'orthorhombic'
loop_
_space_group_symop_operation_xyz
x,y,z
-x,-y,z
1/2+x,1/2-y,1/2-z
1/2-x,1/2+y,1/2-z
-x,-y,-z
x,y,-z
1/2-x,1/2+y,1/2+z
1/2+x,1/2-y,1/2+z
loop_
_atom_site_type_symbol
_atom_site_label
_atom_site_fract_x
_atom_site_fract_y
_atom_site_fract_z
Si Si1 0.747859 0.846338 0.000000
Si Si2 0.637313 0.932435 0.755530
Si Si3 0.763385 0.515423 0.000000
Si Si4 0.424256 0.605151 0.000000
Si Si5 0.965148 0.710791 0.257273
Si Si6 0.433235 0.624583 0.500000
O O1 0.699124 0.893744 0.127724
O O2 0.767846 0.681941 0.000000
O O3 0.836473 0.932683 0.000000
O O4 0.690796 0.946908 0.623817
O O5 0.567274 0.810325 0.750639
O O6 0.586567 0.071768 0.782384
O O7 0.665028 0.473715 0.000000
O O8 0.500000 0.500000 0.000000
O O9 0.434294 0.693343 0.128133
O O10 0.941448 0.777997 0.122652
O O11 0.500000 0.500000 0.500000
#
# Coordination Sequence:
#
# PCOD8238918 Si02
#       6
#     4   8   4   4   8   4
#     4  12  25  45  67 107 137 177 239 281 343 411
#     4  11  24  44  72  96 135 184 226 292 338 411
#     4  12  25  43  70 103 139 179 235 285 345 412
#     4  12  25  43  66 102 140 178 222 290 350 411
#     4  11  23  46  68  98 135 180 234 271 353 415
#     4  12  25  45  66 100 142 177 226 285 333 412
#
# _framework density 20.563012000000001
#
# number of rings (size 3 to 8) (size 9 to 14) (size 15 to 20)
#    0.000    0.500    2.500    6.000    0.000    6.000 
#    4.500    0.000    0.000    0.000    0.000    0.000 
#    0.000    0.000    0.000    0.000    0.000    0.000 
#
# Total GULP energy -396810.980647 kJ/mol
# GULP energy per Si atom -12400.343145 kJ/mol
# Density = 2.051621 g / cm^3
# Si number density = 20.563012 Si / 1000 Ang^3
#
#
#
# Elastic Constant Matrix: (Units=GPa)
#
#
# Indices 1 2 3 4 5 6 
#
# 1 190.5537 42.1150 62.8698 0.0000 0.0000 0.0000
# 2 42.1150 62.2872 36.4067 0.0000 0.0000 0.0000
# 3 62.8698 36.4067 171.8535 0.0000 0.0000 0.0000
# 4 0.0000 0.0000 0.0000 56.9456 0.0000 0.0000
# 5 0.0000 0.0000 0.0000 0.0000 47.5846 0.0000
# 6 0.0000 0.0000 0.0000 0.0000 0.0000 40.8600
#
#
#
# Elastic Compliance Matrix: (Units=1/GPa)
#
#
# Indices 1 2 3 4 5 6 
#
# 1 0.006563 -0.003463 -0.001667 0.000000 0.000000 0.000000
# 2 -0.003463 0.020151 -0.003002 0.000000 0.000000 0.000000
# 3 -0.001667 -0.003002 0.007065 0.000000 0.000000 0.000000
# 4 0.000000 0.000000 0.000000 0.017561 0.000000 0.000000
# 5 0.000000 0.000000 0.000000 0.000000 0.021015 0.000000
# 6 0.000000 0.000000 0.000000 0.000000 0.000000 0.024474
#
#
# Mechanical properties :
#
#
# Convention : Reuss Voigt Hill
#
# Bulk Modulus (GPa) = 57.09720 78.60860 67.85290
# Shear Modulus (GPa) = 42.04083 47.96491 45.00287
#
# Velocity S-wave (km/s) = 4.52651 4.83492 4.68325
# Velocity P-wave (km/s) = 7.42605 8.33545 7.89386
#
# Compressibility (1/GPa) = 0.01751399
#
# Stress axis : x y z
#
# Youngs Moduli (GPa) = 152.35955 49.62560 141.54519
#
# Poissons Ratio (x) = 0.17186 0.23602
# Poissons Ratio (y) = 0.52765 0.42491
# Poissons Ratio (z) = 0.25405 0.14897
#
# Static dielectric constant tensor:
#      x y z
#    x 3.605290 0.000000 0.000000 
#    y 0.000000 3.907070 0.000000 
#    z 0.000000 0.000000 3.769960 
# 
# 
# High freq. dielectric constant tensor:
#      x y z
#    x 1.833210 0.000000 0.000000 
#    y 0.000000 1.806870 0.000000 
#    z 0.000000 0.000000 1.826920 
# 
# From -- ./inp_files/15211.got.cif
#   From: 2010.06.25/outbox.cif.g09.slc.cpg/sg58_8_cif.got.tgz:15211.got - 2010.06.26 21:38:00.
