data_PCOD8238437
_publ_section_title
;
Structure prediction by ZEFSAII (Michael W. Deem and Ramdas Pophale) SiO2 
 PCOD8238437
Probable space group: P N N M
;
_chemical_formula_sum "Si O2"
_cell_formula_units_Z 48
_cell_length_a 23.663518
_cell_length_b 11.634477
_cell_length_c 9.373889
_cell_angle_alpha 90.000000
_cell_angle_beta 90.000000
_cell_angle_gamma 90.000000
_cell_volume 2580.750277
_symmetry_space_group_name_H-M "P N N M"
_symmetry_group_IT_number 58
_symmetry_cell_setting 'orthorhombic'
loop_
_space_group_symop_operation_xyz
x,y,z
-x,-y,z
1/2+x,1/2-y,1/2-z
1/2-x,1/2+y,1/2-z
-x,-y,-z
x,y,-z
1/2-x,1/2+y,1/2+z
1/2+x,1/2-y,1/2+z
loop_
_atom_site_type_symbol
_atom_site_label
_atom_site_fract_x
_atom_site_fract_y
_atom_site_fract_z
Si Si1 0.171298 0.115881 0.165796
Si Si2 0.898805 0.474016 0.664020
Si Si3 0.704546 0.825798 0.830640
Si Si4 0.138453 0.892557 0.666893
Si Si5 0.423714 0.798881 0.334374
Si Si6 0.528956 0.749348 0.838474
O O1 0.233222 0.146450 0.227850
O O2 0.132649 0.226237 0.191838
O O3 0.145706 0.009317 0.248653
O O4 0.174870 0.083190 0.000000
O O5 0.894871 0.515065 0.500000
O O6 0.838587 0.425287 0.719429
O O7 0.916508 0.578600 0.761937
O O8 0.945907 0.376365 0.680337
O O9 0.683874 0.701027 0.775444
O O10 0.702596 0.820422 0.000000
O O11 0.147192 0.916391 0.500000
O O12 0.075732 0.845945 0.697960
O O13 0.435993 0.817712 0.500000
O O14 0.476550 0.731117 0.266982
O O15 0.507406 0.733185 0.000000
#
# Coordination Sequence:
#
# PCOD8238437 Si02
#       6
#     8   8   8   8   8   8
#     4  10  22  37  52  77 113 146 172 212 272 325
#     4   9  18  35  59  81 102 138 183 224 266 311
#     4   8  17  36  58  77 104 139 175 220 270 316
#     4   9  19  37  60  80 100 137 186 226 261 309
#     4  11  23  34  50  81 116 145 173 215 271 323
#     4   9  19  37  58  79 105 140 182 227 267 307
#
# _framework density 18.599242
#
# number of rings (size 3 to 8) (size 9 to 14) (size 15 to 20)
#    0.000    2.667    0.000    3.000    2.333    5.333 
#    0.000    6.667    0.000    0.000    0.000    0.000 
#    0.000    0.000    0.000    0.000    0.000    0.000 
#
# Total GULP energy -595228.533504 kJ/mol
# GULP energy per Si atom -12400.594448 kJ/mol
# Density = 1.855691 g / cm^3
# Si number density = 18.599242 Si / 1000 Ang^3
#
#
#
# Elastic Constant Matrix: (Units=GPa)
#
#
# Indices 1 2 3 4 5 6 
#
# 1 100.6381 3.5187 38.2437 0.0000 0.0000 0.0000
# 2 3.5187 35.4728 22.9831 0.0000 0.0000 0.0000
# 3 38.2437 22.9831 63.6213 0.0000 0.0000 0.0000
# 4 0.0000 0.0000 0.0000 26.4194 0.0000 0.0000
# 5 0.0000 0.0000 0.0000 0.0000 27.3221 0.0000
# 6 0.0000 0.0000 0.0000 0.0000 0.0000 16.3223
#
#
#
# Elastic Compliance Matrix: (Units=1/GPa)
#
#
# Indices 1 2 3 4 5 6 
#
# 1 0.013560 0.005139 -0.010007 0.000000 0.000000 0.000000
# 2 0.005139 0.038753 -0.017088 0.000000 0.000000 0.000000
# 3 -0.010007 -0.017088 0.027907 0.000000 0.000000 0.000000
# 4 0.000000 0.000000 0.000000 0.037851 0.000000 0.000000
# 5 0.000000 0.000000 0.000000 0.000000 0.036600 0.000000
# 6 0.000000 0.000000 0.000000 0.000000 0.000000 0.061266
#
#
# Mechanical properties :
#
#
# Convention : Reuss Voigt Hill
#
# Bulk Modulus (GPa) = 27.54418 36.58037 32.06227
# Shear Modulus (GPa) = 18.38559 23.01187 20.69873
#
# Velocity S-wave (km/s) = 3.14747 3.52127 3.33961
# Velocity P-wave (km/s) = 5.29625 6.02020 5.66979
#
# Compressibility (1/GPa) = 0.03630531
#
# Stress axis : x y z
#
# Youngs Moduli (GPa) = 73.74705 25.80471 35.83359
#
# Poissons Ratio (x) = -0.13261 0.35860
# Poissons Ratio (y) = -0.37897 0.61234
# Poissons Ratio (z) = 0.73802 0.44096
#
# Static dielectric constant tensor:
#      x y z
#    x 3.728820 0.000000 0.000000 
#    y 0.000000 3.277310 0.000000 
#    z 0.000000 0.000000 3.210850 
# 
# 
# High freq. dielectric constant tensor:
#      x y z
#    x 1.734200 0.000000 0.000000 
#    y 0.000000 1.720610 0.000000 
#    z 0.000000 0.000000 1.699980 
# 
# From -- ./inp_files/4243.got.cif
#   From: 2010.06.25/outbox.cif.g09.slc.cpg/sg58_3_cif.got.tgz:4243.got - 2010.06.26 21:38:00.
