data_PCOD8238709
_publ_section_title
;
Structure prediction by ZEFSAII (Michael W. Deem and Ramdas Pophale) SiO2 
 PCOD8238709
Probable space group: P N N M
;
_chemical_formula_sum "Si O2"
_cell_formula_units_Z 48
_cell_length_a 18.198104
_cell_length_b 9.659059
_cell_length_c 14.307123
_cell_angle_alpha 90.000000
_cell_angle_beta 90.000000
_cell_angle_gamma 90.000000
_cell_volume 2514.856868
_symmetry_space_group_name_H-M "P N N M"
_symmetry_group_IT_number 58
_symmetry_cell_setting 'orthorhombic'
loop_
_space_group_symop_operation_xyz
x,y,z
-x,-y,z
1/2+x,1/2-y,1/2-z
1/2-x,1/2+y,1/2-z
-x,-y,-z
x,y,-z
1/2-x,1/2+y,1/2+z
1/2+x,1/2-y,1/2+z
loop_
_atom_site_type_symbol
_atom_site_label
_atom_site_fract_x
_atom_site_fract_y
_atom_site_fract_z
Si Si1 0.675407 0.695035 0.701626
Si Si2 0.791020 0.505790 0.798201
Si Si3 0.871852 0.498604 0.500000
Si Si4 0.604312 0.678082 0.000000
Si Si5 0.255092 0.511280 0.000000
Si Si6 0.066267 0.406240 0.305191
Si Si7 0.730251 0.678816 0.500000
Si Si8 0.471957 0.351296 0.804612
O O1 0.718277 0.574782 0.755987
O O2 0.678625 0.666476 0.590824
O O3 0.591137 0.697309 0.733387
O O4 0.710837 0.843364 0.727858
O O5 0.792807 0.527733 0.909557
O O6 0.862692 0.579387 0.758646
O O7 0.864210 0.333276 0.500000
O O8 0.916610 0.549742 0.410780
O O9 0.789561 0.556794 0.500000
O O10 0.669385 0.569264 0.000000
O O11 0.555532 0.649547 0.910220
O O12 0.273722 0.675185 0.000000
O O13 0.000000 0.500000 0.266409
O O14 0.042377 0.247667 0.298713
O O15 0.500000 0.500000 0.773201
#
# Coordination Sequence:
#
# PCOD8238709 Si02
#       8
#     8   8   4   4   4   8   4   8
#     4  11  23  43  64  93 126 168 212 259 307 380
#     4  11  23  41  66  90 128 167 214 257 309 381
#     4  12  22  37  64  96 126 162 206 265 317 379
#     4  12  22  40  60  97 132 157 204 266 317 383
#     4  10  24  40  62  96 128 161 214 261 311 369
#     4  12  23  42  63  92 127 165 209 257 319 376
#     4  10  24  40  66  94 124 167 212 259 311 367
#     4  12  27  41  63  94 131 167 208 264 324 375
#
# _framework density 19.086575
#
# number of rings (size 3 to 8) (size 9 to 14) (size 15 to 20)
#    0.000    0.667    6.667    1.000    4.667    0.000 
#    0.000    1.667    0.000    0.000    0.000    0.000 
#    0.000    0.000    0.000    0.000    0.000    0.000 
#
# Total GULP energy -595451.727984 kJ/mol
# GULP energy per Si atom -12405.244333 kJ/mol
# Density = 1.904313 g / cm^3
# Si number density = 19.086575 Si / 1000 Ang^3
#
#
#
# Elastic Constant Matrix: (Units=GPa)
#
#
# Indices 1 2 3 4 5 6 
#
# 1 59.7275 12.3817 34.9750 0.0000 0.0000 0.0000
# 2 12.3817 95.9914 38.7687 0.0000 0.0000 0.0000
# 3 34.9750 38.7687 109.9504 0.0000 0.0000 0.0000
# 4 0.0000 0.0000 0.0000 10.6755 0.0000 0.0000
# 5 0.0000 0.0000 0.0000 0.0000 -17.7850 0.0000
# 6 0.0000 0.0000 0.0000 0.0000 0.0000 42.4816
#
#
#
# Elastic Compliance Matrix: (Units=1/GPa)
#
#
# Indices 1 2 3 4 5 6 
#
# 1 0.020575 -0.000012 -0.006541 0.000000 0.000000 0.000000
# 2 -0.000012 0.012148 -0.004279 0.000000 0.000000 0.000000
# 3 -0.006541 -0.004279 0.012684 0.000000 0.000000 0.000000
# 4 0.000000 0.000000 0.000000 0.093672 0.000000 0.000000
# 5 0.000000 0.000000 0.000000 0.000000 -0.056227 0.000000
# 6 0.000000 0.000000 0.000000 0.000000 0.000000 0.023540
#
#
# Mechanical properties :
#
#
# Convention : Reuss Voigt Hill
#
# Bulk Modulus (GPa) = 42.11819 48.65781 45.38800
# Shear Modulus (GPa) = 36.77259 19.04401 27.90830
#
# Velocity S-wave (km/s) = 4.39409 3.16218 3.82801
# Velocity P-wave (km/s) = 6.91801 6.23547 6.58559
#
# Compressibility (1/GPa) = 0.02374271
#
# Stress axis : x y z
#
# Youngs Moduli (GPa) = 48.60202 82.32139 78.83670
#
# Poissons Ratio (x) = 0.00102 0.51564
# Poissons Ratio (y) = 0.00060 0.33737
# Poissons Ratio (z) = 0.31789 0.35228
#
# Static dielectric constant tensor:
#      x y z
#    x 3.441170 0.000000 0.000000 
#    y 0.000000 3.755830 0.000000 
#    z 0.000000 0.000000 4.103600 
# 
# 
# High freq. dielectric constant tensor:
#      x y z
#    x 1.736240 0.000000 0.000000 
#    y 0.000000 1.757910 0.000000 
#    z 0.000000 0.000000 1.744740 
# 
# From -- ./inp_files/19883.got.cif
#   From: 2010.06.25/outbox.cif.g09.slc.cpg/sg58_10_cif.got.tgz:19883.got - 2010.06.26 21:38:00.
