data_PCOD8238969
_publ_section_title
;
Structure prediction by ZEFSAII (Michael W. Deem and Ramdas Pophale) SiO2 
 PCOD8238969
Probable space group: P N N M
;
_chemical_formula_sum "Si O2"
_cell_formula_units_Z 64
_cell_length_a 18.913521
_cell_length_b 21.676719
_cell_length_c 9.740546
_cell_angle_alpha 90.000000
_cell_angle_beta 90.000000
_cell_angle_gamma 90.000000
_cell_volume 3993.459050
_symmetry_space_group_name_H-M "P N N M"
_symmetry_group_IT_number 58
_symmetry_cell_setting 'orthorhombic'
loop_
_space_group_symop_operation_xyz
x,y,z
-x,-y,z
1/2+x,1/2-y,1/2-z
1/2-x,1/2+y,1/2-z
-x,-y,-z
x,y,-z
1/2-x,1/2+y,1/2+z
1/2+x,1/2-y,1/2+z
loop_
_atom_site_type_symbol
_atom_site_label
_atom_site_fract_x
_atom_site_fract_y
_atom_site_fract_z
Si Si1 0.030527 0.825838 0.846331
Si Si2 0.578421 0.014954 0.663486
Si Si3 0.627119 0.274653 0.652541
Si Si4 0.577291 0.802395 0.663353
Si Si5 0.929335 0.649920 0.837211
Si Si6 0.481473 0.569326 0.160303
Si Si7 0.823220 0.408008 0.837804
Si Si8 0.669573 0.378334 0.840638
O O1 0.952862 0.797650 0.851232
O O2 0.032384 0.884307 0.744143
O O3 0.081321 0.770088 0.790633
O O4 0.052717 0.847568 0.000000
O O5 0.580281 0.011515 0.500000
O O6 0.598449 0.083695 0.716445
O O7 0.500000 0.000000 0.717127
O O8 0.634325 0.966037 0.726294
O O9 0.660347 0.280667 0.500000
O O10 0.626653 0.203373 0.703536
O O11 0.672115 0.314262 0.758834
O O12 0.572793 0.801769 0.500000
O O13 0.507021 0.835301 0.724098
O O14 0.644278 0.842662 0.715819
O O15 0.937039 0.648129 0.000000
O O16 0.500000 0.500000 0.204800
O O17 0.398891 0.580643 0.196471
O O18 0.496498 0.580295 0.000000
O O19 0.740717 0.414753 0.797909
O O20 0.832750 0.409547 0.000000
O O21 0.670018 0.360808 0.000000
#
# Coordination Sequence:
#
# PCOD8238969 Si02
#       8
#     8   8   8   8   8   8   8   8
#     4   8  14  24  41  64  82  98 127 168 206 241
#     4   9  13  18  32  58  89 113 132 159 202 250
#     4   8  14  25  41  59  81 105 130 165 204 237
#     4   8  12  20  35  57  82 104 126 161 206 239
#     4   8  12  19  34  57  83 106 130 161 198 240
#     4   9  17  29  44  59  80 111 141 172 208 241
#     4   9  15  22  36  58  84 111 136 167 204 245
#     4   9  17  28  42  61  81 105 141 174 203 242
#
# _framework density 16.026205999999998
#
# number of rings (size 3 to 8) (size 9 to 14) (size 15 to 20)
#    0.000    3.500    1.250    1.500    0.000    0.250 
#    0.000    0.000    2.750    0.750    0.000    0.875 
#    0.000    1.000    0.000    0.000    0.000    0.000 
#
# Total GULP energy -792852.136291 kJ/mol
# GULP energy per Si atom -12388.314630 kJ/mol
# Density = 1.598973 g / cm^3
# Si number density = 16.026206 Si / 1000 Ang^3
#
#
#
# Elastic Constant Matrix: (Units=GPa)
#
#
# Indices 1 2 3 4 5 6 
#
# 1 66.5617 52.1170 18.8499 0.0000 0.0000 0.0000
# 2 52.1170 156.8530 36.2287 0.0000 0.0000 0.0000
# 3 18.8499 36.2287 26.3403 0.0000 0.0000 0.0000
# 4 0.0000 0.0000 0.0000 11.6768 0.0000 0.0000
# 5 0.0000 0.0000 0.0000 0.0000 9.2321 0.0000
# 6 0.0000 0.0000 0.0000 0.0000 0.0000 22.3407
#
#
#
# Elastic Compliance Matrix: (Units=1/GPa)
#
#
# Indices 1 2 3 4 5 6 
#
# 1 0.021430 -0.005244 -0.008123 0.000000 0.000000 0.000000
# 2 -0.005244 0.010627 -0.010864 0.000000 0.000000 0.000000
# 3 -0.008123 -0.010864 0.058720 0.000000 0.000000 0.000000
# 4 0.000000 0.000000 0.000000 0.085640 0.000000 0.000000
# 5 0.000000 0.000000 0.000000 0.000000 0.108317 0.000000
# 6 0.000000 0.000000 0.000000 0.000000 0.000000 0.044761
#
#
# Mechanical properties :
#
#
# Convention : Reuss Voigt Hill
#
# Bulk Modulus (GPa) = 23.63226 51.57182 37.60204
# Shear Modulus (GPa) = 12.75306 18.15390 15.45348
#
# Velocity S-wave (km/s) = 2.82399 3.36931 3.10863
# Velocity P-wave (km/s) = 5.04096 6.88374 6.03312
#
# Compressibility (1/GPa) = 0.04231504
#
# Stress axis : x y z
#
# Youngs Moduli (GPa) = 46.66280 94.09897 17.03009
#
# Poissons Ratio (x) = 0.49349 0.13834
# Poissons Ratio (y) = 0.24472 0.18501
# Poissons Ratio (z) = 0.37904 1.02225
#
# Static dielectric constant tensor:
#      x y z
#    x 2.919570 0.000000 0.000000 
#    y 0.000000 3.487860 0.000000 
#    z 0.000000 0.000000 2.656750 
# 
# 
# High freq. dielectric constant tensor:
#      x y z
#    x 1.584700 0.000000 0.000000 
#    y 0.000000 1.626310 0.000000 
#    z 0.000000 0.000000 1.559810 
# 
# From -- ./inp_files/16685.got.cif
#   From: 2010.06.25/outbox.cif.g09.slc.cpg/sg58_9_cif.got.tgz:16685.got - 2010.06.26 21:38:00.
