data_PCOD8238172
_publ_section_title
;
Structure prediction by ZEFSAII (Michael W. Deem and Ramdas Pophale) SiO2 
 PCOD8238172
Probable space group: P N N M
;
_chemical_formula_sum "Si O2"
_cell_formula_units_Z 56
_cell_length_a 14.491877
_cell_length_b 9.445392
_cell_length_c 20.134175
_cell_angle_alpha 90.000000
_cell_angle_beta 90.000000
_cell_angle_gamma 90.000000
_cell_volume 2755.995251
_symmetry_space_group_name_H-M "P N N M"
_symmetry_group_IT_number 58
_symmetry_cell_setting 'orthorhombic'
loop_
_space_group_symop_operation_xyz
x,y,z
-x,-y,z
1/2+x,1/2-y,1/2-z
1/2-x,1/2+y,1/2-z
-x,-y,-z
x,y,-z
1/2-x,1/2+y,1/2+z
1/2+x,1/2-y,1/2+z
loop_
_atom_site_type_symbol
_atom_site_label
_atom_site_fract_x
_atom_site_fract_y
_atom_site_fract_z
Si Si1 0.719316 0.090484 0.074488
Si Si2 0.085579 0.916252 0.865559
Si Si3 0.908411 0.168513 0.573176
Si Si4 0.388313 0.640615 0.107852
Si Si5 0.163615 0.637303 0.322845
Si Si6 0.357226 0.635831 0.741233
Si Si7 0.515124 0.843839 0.290630
O O1 0.829316 0.081131 0.084275
O O2 0.687131 0.252496 0.079012
O O3 0.667551 0.006587 0.133489
O O4 0.697581 0.033211 0.000000
O O5 0.063972 0.754067 0.845961
O O6 0.105720 0.999150 0.797255
O O7 0.000000 0.000000 0.900204
O O8 0.898268 0.236164 0.500000
O O9 0.835905 0.237182 0.623493
O O10 0.009662 0.205989 0.601582
O O11 0.887088 0.002753 0.565678
O O12 0.364481 0.596631 0.182374
O O13 0.251668 0.664992 0.276928
O O14 0.074170 0.637344 0.276507
O O15 0.415898 0.776822 0.726546
O O16 0.500000 0.000000 0.321726
#
# Coordination Sequence:
#
# PCOD8238172 Si02
#       7
#     8   8   8   8   8   8   8
#     4  11  23  39  59  86 121 161 203 245 297 361
#     4   9  21  39  61  86 116 158 201 249 302 363
#     4  11  23  38  58  85 121 167 201 235 295 369
#     4  11  21  37  58  86 117 158 203 247 292 362
#     4  11  23  38  59  88 121 160 194 254 298 354
#     4  10  21  38  60  86 119 155 202 242 308 354
#     4  11  21  36  58  90 118 145 194 253 308 349
#
# _framework density 20.319338999999999
#
# number of rings (size 3 to 8) (size 9 to 14) (size 15 to 20)
#    0.000    1.429    1.429    4.714    4.000    4.857 
#    0.000    1.429    0.000    0.429    0.000    0.000 
#    0.000    0.000    0.000    0.000    0.000    0.000 
#
# Total GULP energy -694443.388555 kJ/mol
# GULP energy per Si atom -12400.774796 kJ/mol
# Density = 2.027309 g / cm^3
# Si number density = 20.319339 Si / 1000 Ang^3
#
#
#
# Elastic Constant Matrix: (Units=GPa)
#
#
# Indices 1 2 3 4 5 6 
#
# 1 70.2845 33.3518 11.6928 0.0000 0.0000 0.0000
# 2 33.3518 104.8738 8.0181 0.0000 0.0000 0.0000
# 3 11.6928 8.0181 66.6472 0.0000 0.0000 0.0000
# 4 0.0000 0.0000 0.0000 17.4420 0.0000 0.0000
# 5 0.0000 0.0000 0.0000 0.0000********** 0.0000
# 6 0.0000 0.0000 0.0000 0.0000 0.0000 30.8882
#
#
#
# Elastic Compliance Matrix: (Units=1/GPa)
#
#
# Indices 1 2 3 4 5 6 
#
# 1 0.017120 -0.005263 -0.002370 0.000000 0.000000 0.000000
# 2 -0.005263 0.011242 -0.000429 0.000000 0.000000 0.000000
# 3 -0.002370 -0.000429 0.015472 0.000000 0.000000 0.000000
# 4 0.000000 0.000000 0.000000 0.057333 0.000000 0.000000
# 5 0.000000 0.000000 0.000000 0.000000 -0.000066 0.000000
# 6 0.000000 0.000000 0.000000 0.000000 0.000000 0.032375
#
#
# Mechanical properties :
#
#
# Convention : Reuss Voigt Hill
#
# Bulk Modulus (GPa) = 36.09029 38.65896 37.37463
# Shear Modulus (GPa) = 31.47885 -3022.96515 -1495.74315
#
# Velocity S-wave (km/s) = 3.94027 -38.61292 -27.16093
# Velocity P-wave (km/s) = 6.20492 44.37203 31.06747
#
# Compressibility (1/GPa) = 0.02770829
#
# Stress axis : x y z
#
# Youngs Moduli (GPa) = 58.41211 88.95327 64.63341
#
# Poissons Ratio (x) = 0.46818 0.15320
# Poissons Ratio (y) = 0.30743 0.02773
# Poissons Ratio (z) = 0.13846 0.03817
#
# Static dielectric constant tensor:
#      x y z
#    x 3.835750 0.000000 0.000000 
#    y 0.000000 3.693750 0.000000 
#    z 0.000000 0.000000 3.509090 
# 
# 
# High freq. dielectric constant tensor:
#      x y z
#    x 1.793700 0.000000 0.000000 
#    y 0.000000 1.795620 0.000000 
#    z 0.000000 0.000000 1.784120 
# 
# From -- ./inp_files/30034.got.cif
#   From: 2010.06.25/outbox.cif.g09.slc.cpg/sg58_16_cif.got.tgz:30034.got - 2010.06.26 21:38:00.
