data_PCOD8238639
_publ_section_title
;
Structure prediction by ZEFSAII (Michael W. Deem and Ramdas Pophale) SiO2 
 PCOD8238639
Probable space group: P N N M
;
_chemical_formula_sum "Si O2"
_cell_formula_units_Z 48
_cell_length_a 30.250110
_cell_length_b 9.017394
_cell_length_c 8.850830
_cell_angle_alpha 90.000000
_cell_angle_beta 90.000000
_cell_angle_gamma 90.000000
_cell_volume 2414.304275
_symmetry_space_group_name_H-M "P N N M"
_symmetry_group_IT_number 58
_symmetry_cell_setting 'orthorhombic'
loop_
_space_group_symop_operation_xyz
x,y,z
-x,-y,z
1/2+x,1/2-y,1/2-z
1/2-x,1/2+y,1/2-z
-x,-y,-z
x,y,-z
1/2-x,1/2+y,1/2+z
1/2+x,1/2-y,1/2+z
loop_
_atom_site_type_symbol
_atom_site_label
_atom_site_fract_x
_atom_site_fract_y
_atom_site_fract_z
Si Si1 0.206202 0.314580 0.673760
Si Si2 0.554067 0.855428 0.678751
Si Si3 0.636309 0.670297 0.679141
Si Si4 0.619919 0.361896 0.826126
Si Si5 0.784468 0.345264 0.676992
Si Si6 0.955800 0.687370 0.821285
O O1 0.220941 0.293543 0.500000
O O2 0.155354 0.269022 0.697260
O O3 0.211296 0.483971 0.725386
O O4 0.235908 0.210692 0.779372
O O5 0.556695 0.860413 0.500000
O O6 0.593546 0.756331 0.746419
O O7 0.506864 0.785757 0.725701
O O8 0.558581 0.024263 0.736965
O O9 0.634948 0.667527 0.500000
O O10 0.637203 0.504229 0.738240
O O11 0.680388 0.750654 0.731158
O O12 0.572984 0.310803 0.761481
O O13 0.614115 0.404392 0.000000
O O14 0.792789 0.323765 0.500000
O O15 0.949140 0.703658 0.000000
#
# Coordination Sequence:
#
# PCOD8238639 Si02
#       6
#     8   8   8   8   8   8
#     4  10  23  41  59  81 112 148 183 221 270 329
#     4   8  17  34  58  84 109 142 187 234 276 331
#     4  11  22  37  57  82 112 147 186 226 274 329
#     4  11  23  38  55  81 116 150 187 231 277 326
#     4  11  23  39  60  85 111 140 179 227 274 321
#     4   9  17  35  60  83 108 143 188 233 280 332
#
# _framework density 19.881504
#
# number of rings (size 3 to 8) (size 9 to 14) (size 15 to 20)
#    0.000    2.000    0.000    4.500    0.000    6.000 
#    0.000    7.500    0.000    0.000    0.000    0.000 
#    0.000    0.000    0.000    0.000    0.000    0.000 
#
# Total GULP energy -595363.013529 kJ/mol
# GULP energy per Si atom -12403.396115 kJ/mol
# Density = 1.983625 g / cm^3
# Si number density = 19.881504 Si / 1000 Ang^3
#
#
#
# Elastic Constant Matrix: (Units=GPa)
#
#
# Indices 1 2 3 4 5 6 
#
# 1 75.8680 6.7415 15.0388 0.0000 0.0000 0.0000
# 2 6.7415 70.7566 14.0114 0.0000 0.0000 0.0000
# 3 15.0388 14.0114 52.8212 0.0000 0.0000 0.0000
# 4 0.0000 0.0000 0.0000 27.6896 0.0000 0.0000
# 5 0.0000 0.0000 0.0000 0.0000 27.2097 0.0000
# 6 0.0000 0.0000 0.0000 0.0000 0.0000 41.3027
#
#
#
# Elastic Compliance Matrix: (Units=1/GPa)
#
#
# Indices 1 2 3 4 5 6 
#
# 1 0.013991 -0.000574 -0.003831 0.000000 0.000000 0.000000
# 2 -0.000574 0.014940 -0.003799 0.000000 0.000000 0.000000
# 3 -0.003831 -0.003799 0.021030 0.000000 0.000000 0.000000
# 4 0.000000 0.000000 0.000000 0.036115 0.000000 0.000000
# 5 0.000000 0.000000 0.000000 0.000000 0.036752 0.000000
# 6 0.000000 0.000000 0.000000 0.000000 0.000000 0.024211
#
#
# Mechanical properties :
#
#
# Convention : Reuss Voigt Hill
#
# Bulk Modulus (GPa) = 29.80472 30.11437 29.95954
# Shear Modulus (GPa) = 28.63141 30.15067 29.39104
#
# Velocity S-wave (km/s) = 3.79899 3.89847 3.84905
# Velocity P-wave (km/s) = 5.85378 5.95348 5.90384
#
# Compressibility (1/GPa) = 0.03355173
#
# Stress axis : x y z
#
# Youngs Moduli (GPa) = 71.47328 66.93411 47.55017
#
# Poissons Ratio (x) = 0.03845 0.18217
# Poissons Ratio (y) = 0.04105 0.18067
# Poissons Ratio (z) = 0.27382 0.25431
#
# Static dielectric constant tensor:
#      x y z
#    x 3.790640 0.000000 0.000000 
#    y 0.000000 3.713440 0.000000 
#    z 0.000000 0.000000 3.414980 
# 
# 
# High freq. dielectric constant tensor:
#      x y z
#    x 1.788390 0.000000 0.000000 
#    y 0.000000 1.780830 0.000000 
#    z 0.000000 0.000000 1.758830 
# 
# From -- ./inp_files/2874.got.cif
#   From: 2010.06.25/outbox.cif.g09.slc.cpg/sg58_2_cif.got.tgz:2874.got - 2010.06.26 21:38:00.
