data_PCOD8238421
_publ_section_title
;
Structure prediction by ZEFSAII (Michael W. Deem and Ramdas Pophale) SiO2 
 PCOD8238421
Probable space group: P N N M
;
_chemical_formula_sum "Si O2"
_cell_formula_units_Z 48
_cell_length_a 16.269495
_cell_length_b 9.184994
_cell_length_c 14.675271
_cell_angle_alpha 90.000000
_cell_angle_beta 90.000000
_cell_angle_gamma 90.000000
_cell_volume 2193.002262
_symmetry_space_group_name_H-M "P N N M"
_symmetry_group_IT_number 58
_symmetry_cell_setting 'orthorhombic'
loop_
_space_group_symop_operation_xyz
x,y,z
-x,-y,z
1/2+x,1/2-y,1/2-z
1/2-x,1/2+y,1/2-z
-x,-y,-z
x,y,-z
1/2-x,1/2+y,1/2+z
1/2+x,1/2-y,1/2+z
loop_
_atom_site_type_symbol
_atom_site_label
_atom_site_fract_x
_atom_site_fract_y
_atom_site_fract_z
Si Si1 0.462271 0.158659 0.000000
Si Si2 0.381507 0.713085 0.500000
Si Si3 0.159140 0.644366 0.190912
Si Si4 0.495339 0.174248 0.196094
Si Si5 0.075539 0.104703 0.812277
Si Si6 0.096819 0.535450 0.000000
Si Si7 0.753950 0.065561 0.811171
Si Si8 0.787410 0.451729 0.500000
O O1 0.492403 0.236211 0.907422
O O2 0.500000 0.000000 0.000000
O O3 0.363829 0.156990 0.000000
O O4 0.436120 0.667620 0.586296
O O5 0.294345 0.639252 0.500000
O O6 0.357791 0.882018 0.500000
O O7 0.087586 0.715756 0.251230
O O8 0.124822 0.625407 0.088694
O O9 0.232208 0.762226 0.197418
O O10 0.192912 0.492377 0.232108
O O11 0.571909 0.256028 0.243874
O O12 0.500000 0.000000 0.201263
O O13 0.161265 0.022468 0.803699
O O14 0.000000 0.000000 0.788335
O O15 0.000000 0.500000 0.000000
O O16 0.709032 0.047744 0.908618
#
# Coordination Sequence:
#
# PCOD8238421 Si02
#       8
#     4   4   8   8   8   4   8   4
#     4  10  22  39  65  97 120 176 228 280 319 390
#     4  10  23  38  70  98 137 176 213 278 351 415
#     4  12  25  43  67 100 138 178 225 284 347 417
#     4  11  23  41  68  93 132 174 233 281 340 408
#     4  11  22  42  65 100 134 176 222 281 340 413
#     4  12  27  44  71 108 141 176 234 295 356 410
#     4  11  26  41  70  97 137 180 226 281 346 410
#     4  10  21  43  65  96 134 170 227 271 335 406
#
# _framework density 21.887802000000001
#
# number of rings (size 3 to 8) (size 9 to 14) (size 15 to 20)
#    0.000    1.000    3.333    3.250    7.000    0.000 
#    0.000    1.250    0.000    0.000    0.000    0.000 
#    0.000    0.000    0.000    0.000    0.000    0.000 
#
# Total GULP energy -595180.143979 kJ/mol
# GULP energy per Si atom -12399.586333 kJ/mol
# Density = 2.183798 g / cm^3
# Si number density = 21.887802 Si / 1000 Ang^3
#
#
#
# Elastic Constant Matrix: (Units=GPa)
#
#
# Indices 1 2 3 4 5 6 
#
# 1 54.3006 1.7229 36.8672 0.0000 0.0000 0.0000
# 2 1.7229 80.0525 36.8279 0.0000 0.0000 0.0000
# 3 36.8672 36.8279 184.7259 0.0000 0.0000 0.0000
# 4 0.0000 0.0000 0.0000 22.9027 0.0000 0.0000
# 5 0.0000 0.0000 0.0000 0.0000 31.0080 0.0000
# 6 0.0000 0.0000 0.0000 0.0000 0.0000 34.5120
#
#
#
# Elastic Compliance Matrix: (Units=1/GPa)
#
#
# Indices 1 2 3 4 5 6 
#
# 1 0.021502 0.001664 -0.004623 0.000000 0.000000 0.000000
# 2 0.001664 0.013882 -0.003100 0.000000 0.000000 0.000000
# 3 -0.004623 -0.003100 0.006954 0.000000 0.000000 0.000000
# 4 0.000000 0.000000 0.000000 0.043663 0.000000 0.000000
# 5 0.000000 0.000000 0.000000 0.000000 0.032250 0.000000
# 6 0.000000 0.000000 0.000000 0.000000 0.000000 0.028975
#
#
# Mechanical properties :
#
#
# Convention : Reuss Voigt Hill
#
# Bulk Modulus (GPa) = 33.08994 52.21277 42.65135
# Shear Modulus (GPa) = 29.51296 33.92863 31.72079
#
# Velocity S-wave (km/s) = 3.67601 3.94142 3.81103
# Velocity P-wave (km/s) = 5.75918 6.67979 6.23650
#
# Compressibility (1/GPa) = 0.03022066
#
# Stress axis : x y z
#
# Youngs Moduli (GPa) = 46.50724 72.03575 143.80087
#
# Poissons Ratio (x) = -0.11987 0.66480
# Poissons Ratio (y) = -0.07739 0.44574
# Poissons Ratio (z) = 0.21501 0.22329
#
# Static dielectric constant tensor:
#      x y z
#    x 3.942300 0.000000 0.000000 
#    y 0.000000 3.534580 0.000000 
#    z 0.000000 0.000000 4.471060 
# 
# 
# High freq. dielectric constant tensor:
#      x y z
#    x 1.866430 0.000000 0.000000 
#    y 0.000000 1.845830 0.000000 
#    z 0.000000 0.000000 1.873500 
# 
# From -- ./inp_files/22807.got.cif
#   From: 2010.06.25/outbox.cif.g09.slc.cpg/sg58_12_cif.got.tgz:22807.got - 2010.06.26 21:38:00.
