data_PCOD8238310
_publ_section_title
;
Structure prediction by ZEFSAII (Michael W. Deem and Ramdas Pophale) SiO2 
 PCOD8238310
Probable space group: P N N M
;
_chemical_formula_sum "Si O2"
_cell_formula_units_Z 56
_cell_length_a 15.881834
_cell_length_b 9.262211
_cell_length_c 18.732710
_cell_angle_alpha 90.000000
_cell_angle_beta 90.000000
_cell_angle_gamma 90.000000
_cell_volume 2755.598455
_symmetry_space_group_name_H-M "P N N M"
_symmetry_group_IT_number 58
_symmetry_cell_setting 'orthorhombic'
loop_
_space_group_symop_operation_xyz
x,y,z
-x,-y,z
1/2+x,1/2-y,1/2-z
1/2-x,1/2+y,1/2-z
-x,-y,-z
x,y,-z
1/2-x,1/2+y,1/2+z
1/2+x,1/2-y,1/2+z
loop_
_atom_site_type_symbol
_atom_site_label
_atom_site_fract_x
_atom_site_fract_y
_atom_site_fract_z
Si Si1 0.926317 0.899806 0.082935
Si Si2 0.326360 0.237618 0.797547
Si Si3 0.261991 0.041495 0.082114
Si Si4 0.013678 0.341806 0.683439
Si Si5 0.753778 0.465189 0.176770
Si Si6 0.351250 0.741998 0.083926
Si Si7 0.574813 0.105145 0.664329
O O1 0.837052 0.975159 0.098573
O O2 0.934387 0.749111 0.120959
O O3 0.940540 0.871326 0.000000
O O4 0.000000 0.000000 0.114265
O O5 0.301864 0.173734 0.874514
O O6 0.426901 0.227276 0.788345
O O7 0.302110 0.405281 0.790773
O O8 0.275185 0.148967 0.738336
O O9 0.304745 0.891037 0.102981
O O10 0.278115 0.080380 0.000000
O O11 0.058477 0.241821 0.624271
O O12 0.075321 0.360557 0.751251
O O13 0.000000 0.500000 0.648718
O O14 0.703906 0.390190 0.112416
O O15 0.838325 0.529413 0.142874
O O16 0.366308 0.721557 0.000000
O O17 0.500000 0.000000 0.642107
#
# Coordination Sequence:
#
# PCOD8238310 Si02
#       7
#     8   8   8   8   8   8   8
#     4  10  23  40  61  96 134 172 221 267 322 393
#     4  12  23  42  71  95 132 175 215 274 328 394
#     4  10  21  39  64  94 126 171 217 261 327 393
#     4  11  22  44  67 100 133 166 227 273 335 397
#     4  12  25  42  66  96 133 173 222 270 334 397
#     4  11  26  45  68  98 134 177 226 277 334 400
#     4  11  22  41  65  96 132 172 217 278 330 394
#
# _framework density 20.322264000000001
#
# number of rings (size 3 to 8) (size 9 to 14) (size 15 to 20)
#    0.000    1.000    5.714    1.714    2.000    4.000 
#    0.000    0.714    0.000    0.000    0.000    0.000 
#    0.000    0.000    0.000    0.000    0.000    0.000 
#
# Total GULP energy -694697.771343 kJ/mol
# GULP energy per Si atom -12405.317345 kJ/mol
# Density = 2.027601 g / cm^3
# Si number density = 20.322264 Si / 1000 Ang^3
#
#
#
# Elastic Constant Matrix: (Units=GPa)
#
#
# Indices 1 2 3 4 5 6 
#
# 1 107.8076 43.6792 34.9909 0.0000 0.0000 0.0000
# 2 43.6792 106.0945 45.8369 0.0000 0.0000 0.0000
# 3 34.9909 45.8369 62.0034 0.0000 0.0000 0.0000
# 4 0.0000 0.0000 0.0000 46.1014 0.0000 0.0000
# 5 0.0000 0.0000 0.0000 0.0000 -30.7761 0.0000
# 6 0.0000 0.0000 0.0000 0.0000 0.0000 32.5705
#
#
#
# Elastic Compliance Matrix: (Units=1/GPa)
#
#
# Indices 1 2 3 4 5 6 
#
# 1 0.011952 -0.002948 -0.004566 0.000000 0.000000 0.000000
# 2 -0.002948 0.014576 -0.009112 0.000000 0.000000 0.000000
# 3 -0.004566 -0.009112 0.025441 0.000000 0.000000 0.000000
# 4 0.000000 0.000000 0.000000 0.021691 0.000000 0.000000
# 5 0.000000 0.000000 0.000000 0.000000 -0.032493 0.000000
# 6 0.000000 0.000000 0.000000 0.000000 0.000000 0.030703
#
#
# Mechanical properties :
#
#
# Convention : Reuss Voigt Hill
#
# Bulk Modulus (GPa) = 53.42510 58.32439 55.87475
# Shear Modulus (GPa) = 44.89945 19.67239 32.28592
#
# Velocity S-wave (km/s) = 4.70550 3.11468 3.99017
# Velocity P-wave (km/s) = 7.47451 6.45732 6.98446
#
# Compressibility (1/GPa) = 0.01871779
#
# Stress axis : x y z
#
# Youngs Moduli (GPa) = 83.66731 68.60620 39.30726
#
# Poissons Ratio (x) = 0.20227 0.17946
# Poissons Ratio (y) = 0.24667 0.35816
# Poissons Ratio (z) = 0.38198 0.62512
#
# Static dielectric constant tensor:
#      x y z
#    x 3.794630 0.000000 0.000000 
#    y 0.000000 3.766890 0.000000 
#    z 0.000000 0.000000 3.584070 
# 
# 
# High freq. dielectric constant tensor:
#      x y z
#    x 1.807780 0.000000 0.000000 
#    y 0.000000 1.792610 0.000000 
#    z 0.000000 0.000000 1.787860 
# 
# From -- ./inp_files/30001.got.cif
#   From: 2010.06.25/outbox.cif.g09.slc.cpg/sg58_16_cif.got.tgz:30001.got - 2010.06.26 21:38:00.
