data_PCOD8238481
_publ_section_title
;
Structure prediction by ZEFSAII (Michael W. Deem and Ramdas Pophale) SiO2 
 PCOD8238481
Probable space group: P N N M
;
_chemical_formula_sum "Si O2"
_cell_formula_units_Z 48
_cell_length_a 14.348693
_cell_length_b 20.082383
_cell_length_c 8.650074
_cell_angle_alpha 90.000000
_cell_angle_beta 90.000000
_cell_angle_gamma 90.000000
_cell_volume 2492.570277
_symmetry_space_group_name_H-M "P N N M"
_symmetry_group_IT_number 58
_symmetry_cell_setting 'orthorhombic'
loop_
_space_group_symop_operation_xyz
x,y,z
-x,-y,z
1/2+x,1/2-y,1/2-z
1/2-x,1/2+y,1/2-z
-x,-y,-z
x,y,-z
1/2-x,1/2+y,1/2+z
1/2+x,1/2-y,1/2+z
loop_
_atom_site_type_symbol
_atom_site_label
_atom_site_fract_x
_atom_site_fract_y
_atom_site_fract_z
Si Si1 0.716289 0.300821 0.821789
Si Si2 0.989884 0.764315 0.677165
Si Si3 0.180787 0.579167 0.322269
Si Si4 0.183440 0.823145 0.677955
Si Si5 0.309678 0.927619 0.822491
Si Si6 0.496027 0.876844 0.678663
O O1 0.606153 0.302226 0.787567
O O2 0.756622 0.372965 0.782215
O O3 0.764523 0.245254 0.717669
O O4 0.737060 0.284298 0.000000
O O5 0.993646 0.738932 0.500000
O O6 0.073478 0.815570 0.710767
O O7 0.001156 0.701389 0.787884
O O8 0.192872 0.599911 0.500000
O O9 0.215401 0.504272 0.291990
O O10 0.072266 0.583674 0.277984
O O11 0.203472 0.839740 0.500000
O O12 0.219336 0.884065 0.781362
O O13 0.394690 0.904704 0.716685
O O14 0.337627 0.915274 0.000000
O O15 0.517856 0.888977 0.500000
#
# Coordination Sequence:
#
# PCOD8238481 Si02
#       6
#     8   8   8   8   8   8
#     4  11  22  38  62  89 119 157 200 246 296 355
#     4  10  22  39  60  87 122 157 194 243 299 354
#     4  11  24  41  60  85 122 163 199 245 304 359
#     4  11  22  38  62  89 119 157 200 246 296 355
#     4  11  24  41  60  85 122 163 199 245 304 359
#     4  12  23  35  60  92 121 155 196 248 300 358
#
# _framework density 19.257231000000001
#
# number of rings (size 3 to 8) (size 9 to 14) (size 15 to 20)
#    0.000    1.000    3.333    4.000    0.000    6.000 
#    0.000    0.833    0.000    5.000    0.000    0.000 
#    0.000    0.000    0.000    0.000    0.000    0.000 
#
# Total GULP energy -595532.249721 kJ/mol
# GULP energy per Si atom -12406.921869 kJ/mol
# Density = 1.921340 g / cm^3
# Si number density = 19.257231 Si / 1000 Ang^3
#
#
#
# Elastic Constant Matrix: (Units=GPa)
#
#
# Indices 1 2 3 4 5 6 
#
# 1 83.2670 3.1645 14.4448 0.0000 0.0000 0.0000
# 2 3.1645 63.7981 22.1821 0.0000 0.0000 0.0000
# 3 14.4448 22.1821 51.0514 0.0000 0.0000 0.0000
# 4 0.0000 0.0000 0.0000 29.0416 0.0000 0.0000
# 5 0.0000 0.0000 0.0000 0.0000 29.4405 0.0000
# 6 0.0000 0.0000 0.0000 0.0000 0.0000 15.8411
#
#
#
# Elastic Compliance Matrix: (Units=1/GPa)
#
#
# Indices 1 2 3 4 5 6 
#
# 1 0.012658 0.000727 -0.003898 0.000000 0.000000 0.000000
# 2 0.000727 0.018506 -0.008247 0.000000 0.000000 0.000000
# 3 -0.003898 -0.008247 0.024274 0.000000 0.000000 0.000000
# 4 0.000000 0.000000 0.000000 0.034433 0.000000 0.000000
# 5 0.000000 0.000000 0.000000 0.000000 0.033967 0.000000
# 6 0.000000 0.000000 0.000000 0.000000 0.000000 0.063127
#
#
# Mechanical properties :
#
#
# Convention : Reuss Voigt Hill
#
# Bulk Modulus (GPa) = 30.67101 30.85547 30.76324
# Shear Modulus (GPa) = 22.65860 25.41964 24.03912
#
# Velocity S-wave (km/s) = 3.43392 3.63713 3.53699
# Velocity P-wave (km/s) = 5.62886 5.80481 5.71751
#
# Compressibility (1/GPa) = 0.03260408
#
# Stress axis : x y z
#
# Youngs Moduli (GPa) = 79.00111 54.03750 41.19618
#
# Poissons Ratio (x) = -0.03930 0.16056
# Poissons Ratio (y) = -0.05746 0.33973
# Poissons Ratio (z) = 0.30791 0.44563
#
# Static dielectric constant tensor:
#      x y z
#    x 3.627470 0.000000 0.000000 
#    y 0.000000 3.464700 0.000000 
#    z 0.000000 0.000000 3.604160 
# 
# 
# High freq. dielectric constant tensor:
#      x y z
#    x 1.750950 0.000000 0.000000 
#    y 0.000000 1.740990 0.000000 
#    z 0.000000 0.000000 1.760800 
# 
# From -- ./inp_files/5744.got.cif
#   From: 2010.06.25/outbox.cif.g09.slc.cpg/sg58_3_cif.got.tgz:5744.got - 2010.06.26 21:38:00.
