data_PCOD8238772
_publ_section_title
;
Structure prediction by ZEFSAII (Michael W. Deem and Ramdas Pophale) SiO2 
 PCOD8238772
Probable space group: P N N M
;
_chemical_formula_sum "Si O2"
_cell_formula_units_Z 64
_cell_length_a 23.747388
_cell_length_b 15.533450
_cell_length_c 8.383872
_cell_angle_alpha 90.000000
_cell_angle_beta 90.000000
_cell_angle_gamma 90.000000
_cell_volume 3092.633180
_symmetry_space_group_name_H-M "P N N M"
_symmetry_group_IT_number 58
_symmetry_cell_setting 'orthorhombic'
loop_
_space_group_symop_operation_xyz
x,y,z
-x,-y,z
1/2+x,1/2-y,1/2-z
1/2-x,1/2+y,1/2-z
-x,-y,-z
x,y,-z
1/2-x,1/2+y,1/2+z
1/2+x,1/2-y,1/2+z
loop_
_atom_site_type_symbol
_atom_site_label
_atom_site_fract_x
_atom_site_fract_y
_atom_site_fract_z
Si Si1 0.248699 0.355220 0.189278
Si Si2 0.370000 0.914357 0.313032
Si Si3 0.247968 0.158902 0.184962
Si Si4 0.133606 0.917961 0.689063
Si Si5 0.062848 0.757314 0.314374
Si Si6 0.058603 0.256125 0.185389
Si Si7 0.635264 0.894194 0.684736
Si Si8 0.866555 0.891521 0.315299
O O1 0.192372 0.399101 0.260500
O O2 0.250322 0.256736 0.244238
O O3 0.304069 0.401297 0.261425
O O4 0.249636 0.362448 0.000000
O O5 0.366002 0.896423 0.500000
O O6 0.414343 0.844576 0.245473
O O7 0.390114 0.011257 0.274200
O O8 0.308696 0.117257 0.212574
O O9 0.200569 0.110832 0.287972
O O10 0.231870 0.152300 0.000000
O O11 0.137028 0.911498 0.500000
O O12 0.090807 0.845090 0.753304
O O13 0.112365 0.013170 0.737640
O O14 0.076424 0.746077 0.500000
O O15 0.087724 0.675233 0.223366
O O16 0.996616 0.763607 0.286854
O O17 0.102669 0.178679 0.206892
O O18 0.042641 0.264258 0.000000
O O19 0.651973 0.888874 0.500000
O O20 0.880321 0.874043 0.500000
#
# Coordination Sequence:
#
# PCOD8238772 Si02
#       8
#     8   8   8   8   8   8   8   8
#     4   9  15  31  59  86 111 151 194 228 275 350
#     4   9  19  36  61  86 115 157 197 231 286 364
#     4  11  20  35  61  90 123 159 192 234 295 354
#     4   9  19  36  61  86 115 157 197 231 286 364
#     4  11  23  42  63  85 116 157 201 246 297 351
#     4  11  23  42  63  85 116 157 201 246 297 351
#     4  11  22  38  62  91 118 151 199 246 288 346
#     4  11  22  38  62  91 118 151 199 246 288 346
#
# _framework density 20.694337999999998
#
# number of rings (size 3 to 8) (size 9 to 14) (size 15 to 20)
#    0.000    1.750    2.500    2.625    0.000    3.000 
#    0.000   10.000    0.000    0.000    0.000    0.000 
#    0.000    0.000    0.000    0.000    0.000    0.000 
#
# Total GULP energy -793666.482533 kJ/mol
# GULP energy per Si atom -12401.038790 kJ/mol
# Density = 2.064724 g / cm^3
# Si number density = 20.694338 Si / 1000 Ang^3
#
#
#
# Elastic Constant Matrix: (Units=GPa)
#
#
# Indices 1 2 3 4 5 6 
#
# 1 101.0785 40.8119 3.4196 0.0000 0.0000 0.0000
# 2 40.8119 155.9809 25.0331 0.0000 0.0000 0.0000
# 3 3.4196 25.0331 32.3757 0.0000 0.0000 0.0000
# 4 0.0000 0.0000 0.0000 23.4198 0.0000 0.0000
# 5 0.0000 0.0000 0.0000 0.0000 24.3988 0.0000
# 6 0.0000 0.0000 0.0000 0.0000 0.0000 17.5467
#
#
#
# Elastic Compliance Matrix: (Units=1/GPa)
#
#
# Indices 1 2 3 4 5 6 
#
# 1 0.011104 -0.003102 0.001226 0.000000 0.000000 0.000000
# 2 -0.003102 0.008186 -0.006002 0.000000 0.000000 0.000000
# 3 0.001226 -0.006002 0.035398 0.000000 0.000000 0.000000
# 4 0.000000 0.000000 0.000000 0.042699 0.000000 0.000000
# 5 0.000000 0.000000 0.000000 0.000000 0.040986 0.000000
# 6 0.000000 0.000000 0.000000 0.000000 0.000000 0.056991
#
#
# Mechanical properties :
#
#
# Convention : Reuss Voigt Hill
#
# Bulk Modulus (GPa) = 25.68552 47.55158 36.61855
# Shear Modulus (GPa) = 22.31166 27.75108 25.03137
#
# Velocity S-wave (km/s) = 3.28709 3.66594 3.48167
# Velocity P-wave (km/s) = 5.18125 6.39896 5.82203
#
# Compressibility (1/GPa) = 0.03893244
#
# Stress axis : x y z
#
# Youngs Moduli (GPa) = 90.05469 122.16108 28.24982
#
# Poissons Ratio (x) = 0.37896 -0.03463
# Poissons Ratio (y) = 0.27936 0.16955
# Poissons Ratio (z) = -0.11038 0.73318
#
# Static dielectric constant tensor:
#      x y z
#    x 3.681240 0.000000 0.000000 
#    y 0.000000 3.981990 0.000000 
#    z 0.000000 0.000000 3.328120 
# 
# 
# High freq. dielectric constant tensor:
#      x y z
#    x 1.805360 0.000000 0.000000 
#    y 0.000000 1.825620 0.000000 
#    z 0.000000 0.000000 1.775630 
# 
# From -- ./inp_files/9976.got.cif
#   From: 2010.06.25/outbox.cif.g09.slc.cpg/sg58_5_cif.got.tgz:9976.got - 2010.06.26 21:38:00.
