data_PCOD8238915
_publ_section_title
;
Structure prediction by ZEFSAII (Michael W. Deem and Ramdas Pophale) SiO2 
 PCOD8238915
Probable space group: P N N M
;
_chemical_formula_sum "Si O2"
_cell_formula_units_Z 48
_cell_length_a 9.079639
_cell_length_b 14.206898
_cell_length_c 17.622502
_cell_angle_alpha 90.000000
_cell_angle_beta 90.000000
_cell_angle_gamma 90.000000
_cell_volume 2273.188302
_symmetry_space_group_name_H-M "P N N M"
_symmetry_group_IT_number 58
_symmetry_cell_setting 'orthorhombic'
loop_
_space_group_symop_operation_xyz
x,y,z
-x,-y,z
1/2+x,1/2-y,1/2-z
1/2-x,1/2+y,1/2-z
-x,-y,-z
x,y,-z
1/2-x,1/2+y,1/2+z
1/2+x,1/2-y,1/2+z
loop_
_atom_site_type_symbol
_atom_site_label
_atom_site_fract_x
_atom_site_fract_y
_atom_site_fract_z
Si Si1 0.256484 0.754309 0.711505
Si Si2 0.462542 0.871649 0.000000
Si Si3 0.852075 0.949092 0.164949
Si Si4 0.567958 0.246196 0.144314
Si Si5 0.165369 0.466749 0.206773
Si Si6 0.642714 0.439654 0.083124
Si Si7 0.746618 0.956282 0.000000
O O1 0.348849 0.664007 0.680099
O O2 0.289341 0.759095 0.801261
O O3 0.313254 0.857015 0.682152
O O4 0.084124 0.737841 0.693008
O O5 0.410648 0.831296 0.919676
O O6 0.642628 0.863157 0.000000
O O7 0.384584 0.970672 0.000000
O O8 0.725418 0.005786 0.209764
O O9 0.845753 0.963455 0.074584
O O10 0.000000 0.000000 0.194698
O O11 0.571923 0.339694 0.096930
O O12 0.239468 0.532992 0.145112
O O13 0.000000 0.500000 0.207827
O O14 0.500000 0.500000 0.089126
O O15 0.717463 0.445002 0.000000
#
# Coordination Sequence:
#
# PCOD8238915 Si02
#       7
#     8   4   8   8   8   8   4
#     4  12  25  41  71 103 136 183 234 287 348 419
#     4  11  24  42  71 102 138 181 233 282 359 421
#     4  12  25  46  72 102 142 186 234 292 345 420
#     4  12  23  44  69 103 135 182 235 285 344 425
#     4  12  26  45  69 102 142 184 233 292 353 415
#     4  11  23  44  72  97 133 178 229 287 340 412
#     4  11  25  44  68 104 139 180 229 292 347 415
#
# _framework density 21.115717
#
# number of rings (size 3 to 8) (size 9 to 14) (size 15 to 20)
#    0.000    0.333    5.833    3.750    2.333    0.333 
#    1.500    0.000    0.000    0.000    0.000    0.000 
#    0.000    0.000    0.000    0.000    0.000    0.000 
#
# Total GULP energy -594717.302758 kJ/mol
# GULP energy per Si atom -12389.943807 kJ/mol
# Density = 2.106766 g / cm^3
# Si number density = 21.115717 Si / 1000 Ang^3
#
#
#
# Elastic Constant Matrix: (Units=GPa)
#
#
# Indices 1 2 3 4 5 6 
#
# 1 91.2686 18.5124 43.6228 0.0000 0.0000 0.0000
# 2 18.5124 108.3868 16.1176 0.0000 0.0000 0.0000
# 3 43.6228 16.1176 148.9593 0.0000 0.0000 0.0000
# 4 0.0000 0.0000 0.0000 33.6647 0.0000 0.0000
# 5 0.0000 0.0000 0.0000 0.0000 16.6919 0.0000
# 6 0.0000 0.0000 0.0000 0.0000 0.0000 37.1662
#
#
#
# Elastic Compliance Matrix: (Units=1/GPa)
#
#
# Indices 1 2 3 4 5 6 
#
# 1 0.013036 -0.001686 -0.003635 0.000000 0.000000 0.000000
# 2 -0.001686 0.009595 -0.000544 0.000000 0.000000 0.000000
# 3 -0.003635 -0.000544 0.007837 0.000000 0.000000 0.000000
# 4 0.000000 0.000000 0.000000 0.029705 0.000000 0.000000
# 5 0.000000 0.000000 0.000000 0.000000 0.059909 0.000000
# 6 0.000000 0.000000 0.000000 0.000000 0.000000 0.026906
#
#
# Mechanical properties :
#
#
# Convention : Reuss Voigt Hill
#
# Bulk Modulus (GPa) = 53.37128 56.12449 54.74789
# Shear Modulus (GPa) = 30.30944 35.52867 32.91906
#
# Velocity S-wave (km/s) = 3.79277 4.10636 3.95268
# Velocity P-wave (km/s) = 6.67163 7.00858 6.84218
#
# Compressibility (1/GPa) = 0.01873667
#
# Stress axis : x y z
#
# Youngs Moduli (GPa) = 76.70986 104.21934 127.60422
#
# Poissons Ratio (x) = 0.17571 0.46387
# Poissons Ratio (y) = 0.12933 0.06948
# Poissons Ratio (z) = 0.27886 0.05674
#
# Static dielectric constant tensor:
#      x y z
#    x 3.653570 0.000000 0.000000 
#    y 0.000000 4.101780 0.000000 
#    z 0.000000 0.000000 4.052780 
# 
# 
# High freq. dielectric constant tensor:
#      x y z
#    x 1.817980 0.000000 0.000000 
#    y 0.000000 1.848460 0.000000 
#    z 0.000000 0.000000 1.836160 
# 
# From -- ./inp_files/25351.got.cif
#   From: 2010.06.25/outbox.cif.g09.slc.cpg/sg58_13_cif.got.tgz:25351.got - 2010.06.26 21:38:00.
