data_PCOD8238339
_publ_section_title
;
Structure prediction by ZEFSAII (Michael W. Deem and Ramdas Pophale) SiO2 
 PCOD8238339
Probable space group: P N N M
;
_chemical_formula_sum "Si O2"
_cell_formula_units_Z 64
_cell_length_a 9.128155
_cell_length_b 28.016253
_cell_length_c 12.615954
_cell_angle_alpha 90.000000
_cell_angle_beta 90.000000
_cell_angle_gamma 90.000000
_cell_volume 3226.362442
_symmetry_space_group_name_H-M "P N N M"
_symmetry_group_IT_number 58
_symmetry_cell_setting 'orthorhombic'
loop_
_space_group_symop_operation_xyz
x,y,z
-x,-y,z
1/2+x,1/2-y,1/2-z
1/2-x,1/2+y,1/2-z
-x,-y,-z
x,y,-z
1/2-x,1/2+y,1/2+z
1/2+x,1/2-y,1/2+z
loop_
_atom_site_type_symbol
_atom_site_label
_atom_site_fract_x
_atom_site_fract_y
_atom_site_fract_z
Si Si1 0.663611 0.223530 0.876472
Si Si2 0.490077 0.127904 0.119300
Si Si3 0.340061 0.380173 0.120310
Si Si4 0.342998 0.637501 0.622718
Si Si5 0.038810 0.052866 0.752097
Si Si6 0.298747 0.024426 0.618754
Si Si7 0.075767 0.429933 0.811724
Si Si8 0.950461 0.206303 0.746341
O O1 0.610312 0.169182 0.869518
O O2 0.822465 0.228651 0.820219
O O3 0.540392 0.253589 0.815556
O O4 0.676615 0.239609 0.000000
O O5 0.327477 0.145822 0.151299
O O6 0.539571 0.084031 0.191412
O O7 0.485580 0.108066 0.000000
O O8 0.402152 0.420254 0.200003
O O9 0.165297 0.388090 0.128655
O O10 0.378233 0.327159 0.157344
O O11 0.395129 0.386961 0.000000
O O12 0.374632 0.645102 0.500000
O O13 0.393072 0.583874 0.652896
O O14 0.435816 0.676848 0.683619
O O15 0.152190 0.049646 0.655807
O O16 0.000000 0.000000 0.795474
O O17 0.278264 0.004935 0.500000
O O18 0.427251 0.063552 0.621736
O O19 0.336021 0.979718 0.693699
#
# Coordination Sequence:
#
# PCOD8238339 Si02
#       8
#     8   8   8   8   8   8   8   8
#     4  11  23  42  67  95 125 157 199 248 307 371
#     4  10  21  40  64  87 117 158 197 249 307 358
#     4  11  22  37  59  88 123 160 198 244 298 356
#     4  10  22  42  64  85 117 160 204 250 304 356
#     4  11  22  36  57  85 120 160 204 250 296 356
#     4  11  22  36  58  83 120 164 206 252 299 351
#     4  11  20  37  57  86 117 157 202 246 293 357
#     4  11  23  41  67  91 125 157 200 250 304 368
#
# _framework density 19.836582
#
# number of rings (size 3 to 8) (size 9 to 14) (size 15 to 20)
#    0.000    1.250    3.750    3.375    0.000    0.750 
#    0.000    3.750    0.000    0.000    0.000    0.000 
#    0.000    0.000    0.000    0.000    0.000    0.000 
#
# Total GULP energy -793600.145296 kJ/mol
# GULP energy per Si atom -12400.002270 kJ/mol
# Density = 1.979143 g / cm^3
# Si number density = 19.836582 Si / 1000 Ang^3
#
#
#
# Elastic Constant Matrix: (Units=GPa)
#
#
# Indices 1 2 3 4 5 6 
#
# 1 98.5808 24.4338 39.8875 0.0000 0.0000 0.0000
# 2 24.4338 63.4254 37.0665 0.0000 0.0000 0.0000
# 3 39.8875 37.0665 107.3875 0.0000 0.0000 0.0000
# 4 0.0000 0.0000 0.0000 26.4030 0.0000 0.0000
# 5 0.0000 0.0000 0.0000 0.0000 21.9294 0.0000
# 6 0.0000 0.0000 0.0000 0.0000 0.0000 34.4858
#
#
#
# Elastic Compliance Matrix: (Units=1/GPa)
#
#
# Indices 1 2 3 4 5 6 
#
# 1 0.012267 -0.002584 -0.003664 0.000000 0.000000 0.000000
# 2 -0.002584 0.020295 -0.006045 0.000000 0.000000 0.000000
# 3 -0.003664 -0.006045 0.012760 0.000000 0.000000 0.000000
# 4 0.000000 0.000000 0.000000 0.037874 0.000000 0.000000
# 5 0.000000 0.000000 0.000000 0.000000 0.045601 0.000000
# 6 0.000000 0.000000 0.000000 0.000000 0.000000 0.028997
#
#
# Mechanical properties :
#
#
# Convention : Reuss Voigt Hill
#
# Bulk Modulus (GPa) = 48.22978 52.46324 50.34651
# Shear Modulus (GPa) = 26.41392 27.76403 27.08897
#
# Velocity S-wave (km/s) = 3.65304 3.74523 3.69942
# Velocity P-wave (km/s) = 6.49301 6.72365 6.60934
#
# Compressibility (1/GPa) = 0.02073408
#
# Stress axis : x y z
#
# Youngs Moduli (GPa) = 81.51825 49.27321 78.37106
#
# Poissons Ratio (x) = 0.12733 0.28719
# Poissons Ratio (y) = 0.21066 0.47377
# Poissons Ratio (z) = 0.29872 0.29787
#
# Static dielectric constant tensor:
#      x y z
#    x 3.841810 0.000000 0.000000 
#    y 0.000000 3.480610 0.000000 
#    z 0.000000 0.000000 3.551560 
# 
# 
# High freq. dielectric constant tensor:
#      x y z
#    x 1.792600 0.000000 0.000000 
#    y 0.000000 1.761490 0.000000 
#    z 0.000000 0.000000 1.769960 
# 
# From -- ./inp_files/13434.got.cif
#   From: 2010.06.25/outbox.cif.g09.slc.cpg/sg58_7_cif.got.tgz:13434.got - 2010.06.26 21:38:00.
