data_PCOD8238153
_publ_section_title
;
Structure prediction by ZEFSAII (Michael W. Deem and Ramdas Pophale) SiO2 
 PCOD8238153
Probable space group: P N N M
;
_chemical_formula_sum "Si O2"
_cell_formula_units_Z 32
_cell_length_a 40.441300
_cell_length_b 5.081729
_cell_length_c 7.428159
_cell_angle_alpha 90.000000
_cell_angle_beta 90.000000
_cell_angle_gamma 90.000000
_cell_volume 1526.573785
_symmetry_space_group_name_H-M "P N N M"
_symmetry_group_IT_number 58
_symmetry_cell_setting 'orthorhombic'
loop_
_space_group_symop_operation_xyz
x,y,z
-x,-y,z
1/2+x,1/2-y,1/2-z
1/2-x,1/2+y,1/2-z
-x,-y,-z
x,y,-z
1/2-x,1/2+y,1/2+z
1/2+x,1/2-y,1/2+z
loop_
_atom_site_type_symbol
_atom_site_label
_atom_site_fract_x
_atom_site_fract_y
_atom_site_fract_z
Si Si1 0.036516 0.018123 0.210169
Si Si2 0.675665 0.472867 0.000000
Si Si3 0.770792 0.950263 0.206110
Si Si4 0.577646 0.970912 0.710939
Si Si5 0.632113 0.972870 0.000000
O O1 0.051562 0.300428 0.253093
O O2 0.060871 0.794582 0.286781
O O3 0.033144 0.961126 0.000000
O O4 0.000000 0.000000 0.298581
O O5 0.697386 0.523879 0.822931
O O6 0.645628 0.676916 0.000000
O O7 0.662209 0.176709 0.000000
O O8 0.757465 0.667506 0.267515
O O9 0.782136 0.939005 0.000000
O O10 0.586854 0.959282 0.500000
O O11 0.611068 0.021015 0.819725
#
# Coordination Sequence:
#
# PCOD8238153 Si02
#       5
#     8   4   8   8   4
#     4   9  17  33  59  88 114 152 204 261 322 372
#     4  12  26  42  66  94 127 166 206 258 300 376
#     4  12  23  43  71 100 132 162 201 253 320 377
#     4  10  21  38  59  81 120 163 202 257 310 366
#     4  12  26  42  59  88 126 166 216 246 300 368
#
# _framework density 20.961974999999999
#
# number of rings (size 3 to 8) (size 9 to 14) (size 15 to 20)
#    0.000    1.250    2.500    3.750    0.000    5.000 
#    0.000    3.750    0.000    0.000    0.000    0.000 
#    0.000    0.000    0.000    0.000    0.000    0.000 
#
# Total GULP energy -396976.209314 kJ/mol
# GULP energy per Si atom -12405.506541 kJ/mol
# Density = 2.091427 g / cm^3
# Si number density = 20.961975 Si / 1000 Ang^3
#
#
#
# Elastic Constant Matrix: (Units=GPa)
#
#
# Indices 1 2 3 4 5 6 
#
# 1 94.1381 10.8999 40.1616 0.0000 0.0000 0.0000
# 2 10.8999 81.7908 26.3190 0.0000 0.0000 0.0000
# 3 40.1616 26.3190 106.2634 0.0000 0.0000 0.0000
# 4 0.0000 0.0000 0.0000 15.7765 0.0000 0.0000
# 5 0.0000 0.0000 0.0000 0.0000 56.3968 0.0000
# 6 0.0000 0.0000 0.0000 0.0000 0.0000 45.5779
#
#
#
# Elastic Compliance Matrix: (Units=1/GPa)
#
#
# Indices 1 2 3 4 5 6 
#
# 1 0.012667 -0.000160 -0.004748 0.000000 0.000000 0.000000
# 2 -0.000160 0.013287 -0.003230 0.000000 0.000000 0.000000
# 3 -0.004748 -0.003230 0.012005 0.000000 0.000000 0.000000
# 4 0.000000 0.000000 0.000000 0.063385 0.000000 0.000000
# 5 0.000000 0.000000 0.000000 0.000000 0.017731 0.000000
# 6 0.000000 0.000000 0.000000 0.000000 0.000000 0.021940
#
#
# Mechanical properties :
#
#
# Convention : Reuss Voigt Hill
#
# Bulk Modulus (GPa) = 46.12051 48.55036 47.33544
# Shear Modulus (GPa) = 30.39143 37.20437 33.79790
#
# Velocity S-wave (km/s) = 3.81180 4.21747 4.01976
# Velocity P-wave (km/s) = 6.43606 6.85036 6.64644
#
# Compressibility (1/GPa) = 0.02168233
#
# Stress axis : x y z
#
# Youngs Moduli (GPa) = 78.94725 75.26071 83.29879
#
# Poissons Ratio (x) = 0.01207 0.39547
# Poissons Ratio (y) = 0.01266 0.26908
# Poissons Ratio (z) = 0.37481 0.24312
#
# Static dielectric constant tensor:
#      x y z
#    x 3.703020 0.000000 0.000000 
#    y 0.000000 3.892070 0.000000 
#    z 0.000000 0.000000 3.834800 
# 
# 
# High freq. dielectric constant tensor:
#      x y z
#    x 1.817320 0.000000 0.000000 
#    y 0.000000 1.838000 0.000000 
#    z 0.000000 0.000000 1.820570 
# 
# From -- ./inp_files/1355.got.cif
#   From: 2010.06.25/outbox.cif.g09.slc.cpg/sg58_1_cif.got.tgz:1355.got - 2010.06.26 21:38:00.
