data_PCOD8238822
_publ_section_title
;
Structure prediction by ZEFSAII (Michael W. Deem and Ramdas Pophale) SiO2 
 PCOD8238822
Probable space group: P N N M
;
_chemical_formula_sum "Si O2"
_cell_formula_units_Z 48
_cell_length_a 8.886259
_cell_length_b 14.372047
_cell_length_c 18.223197
_cell_angle_alpha 90.000000
_cell_angle_beta 90.000000
_cell_angle_gamma 90.000000
_cell_volume 2327.352498
_symmetry_space_group_name_H-M "P N N M"
_symmetry_group_IT_number 58
_symmetry_cell_setting 'orthorhombic'
loop_
_space_group_symop_operation_xyz
x,y,z
-x,-y,z
1/2+x,1/2-y,1/2-z
1/2-x,1/2+y,1/2-z
-x,-y,-z
x,y,-z
1/2-x,1/2+y,1/2+z
1/2+x,1/2-y,1/2+z
loop_
_atom_site_type_symbol
_atom_site_label
_atom_site_fract_x
_atom_site_fract_y
_atom_site_fract_z
Si Si1 0.346968 0.252002 0.342408
Si Si2 0.148735 0.873222 0.303306
Si Si3 0.867697 0.611320 0.416169
Si Si4 0.306210 0.581051 0.785820
Si Si5 0.164500 0.262135 0.081569
Si Si6 0.694411 0.912693 0.126134
O O1 0.324411 0.307598 0.266587
O O2 0.236827 0.300415 0.400894
O O3 0.304363 0.143845 0.334385
O O4 0.514913 0.249929 0.371211
O O5 0.214656 0.825941 0.376090
O O6 0.972871 0.892906 0.311995
O O7 0.233146 0.972216 0.295075
O O8 0.922397 0.614255 0.500000
O O9 0.773565 0.516928 0.401915
O O10 0.015926 0.608830 0.364992
O O11 0.281153 0.606429 0.701477
O O12 0.235026 0.160167 0.069395
O O13 0.133218 0.303519 0.000000
#
# Coordination Sequence:
#
# PCOD8238822 Si02
#       6
#     8   8   8   8   8   8
#     4  12  23  41  67  97 132 172 219 272 321 396
#     4  11  23  45  66  95 129 170 227 269 326 392
#     4  11  24  39  61  98 138 176 211 264 333 401
#     4  11  24  41  68  99 121 171 229 277 317 385
#     4  12  26  43  67 100 138 177 216 274 340 395
#     4  11  21  39  65  94 134 169 220 269 327 391
#
# _framework density 20.624293000000002
#
# number of rings (size 3 to 8) (size 9 to 14) (size 15 to 20)
#    0.000    0.667    5.000    3.500    2.333    1.333 
#    0.000    6.667    0.000    0.000    0.000    0.000 
#    0.000    0.000    0.000    0.000    0.000    0.000 
#
# Total GULP energy -595246.903613 kJ/mol
# GULP energy per Si atom -12400.977159 kJ/mol
# Density = 2.057735 g / cm^3
# Si number density = 20.624293 Si / 1000 Ang^3
#
#
#
# Elastic Constant Matrix: (Units=GPa)
#
#
# Indices 1 2 3 4 5 6 
#
# 1 88.9741 53.2727 43.5529 0.0000 0.0000 0.0000
# 2 53.2727 124.9018 54.7635 0.0000 0.0000 0.0000
# 3 43.5529 54.7635 106.8696 0.0000 0.0000 0.0000
# 4 0.0000 0.0000 0.0000 -124.9465 0.0000 0.0000
# 5 0.0000 0.0000 0.0000 0.0000 18.9649 0.0000
# 6 0.0000 0.0000 0.0000 0.0000 0.0000 35.6724
#
#
#
# Elastic Compliance Matrix: (Units=1/GPa)
#
#
# Indices 1 2 3 4 5 6 
#
# 1 0.016305 -0.005212 -0.003974 0.000000 0.000000 0.000000
# 2 -0.005212 0.011992 -0.004021 0.000000 0.000000 0.000000
# 3 -0.003974 -0.004021 0.013037 0.000000 0.000000 0.000000
# 4 0.000000 0.000000 0.000000 -0.008003 0.000000 0.000000
# 5 0.000000 0.000000 0.000000 0.000000 0.052729 0.000000
# 6 0.000000 0.000000 0.000000 0.000000 0.000000 0.028033
#
#
# Mechanical properties :
#
#
# Convention : Reuss Voigt Hill
#
# Bulk Modulus (GPa) = 67.02270 69.32486 68.17378
# Shear Modulus (GPa) = 34.36861 -2.78475 15.79193
#
# Velocity S-wave (km/s) = 4.08660 -1.16325 2.77012
# Velocity P-wave (km/s) = 7.40504 5.64641 6.58470
#
# Compressibility (1/GPa) = 0.01492032
#
# Stress axis : x y z
#
# Youngs Moduli (GPa) = 61.33018 83.38601 76.70242
#
# Poissons Ratio (x) = 0.43461 0.30482
# Poissons Ratio (y) = 0.31965 0.30844
# Poissons Ratio (z) = 0.24373 0.33532
#
# Static dielectric constant tensor:
#      x y z
#    x 3.639080 0.000000 0.000000 
#    y 0.000000 4.032160 0.000000 
#    z 0.000000 0.000000 3.551610 
# 
# 
# High freq. dielectric constant tensor:
#      x y z
#    x 1.809560 0.000000 0.000000 
#    y 0.000000 1.816620 0.000000 
#    z 0.000000 0.000000 1.793940 
# 
# From -- ./inp_files/25255.got.cif
#   From: 2010.06.25/outbox.cif.g09.slc.cpg/sg58_13_cif.got.tgz:25255.got - 2010.06.26 21:38:00.
