data_PCOD8238777
_publ_section_title
;
Structure prediction by ZEFSAII (Michael W. Deem and Ramdas Pophale) SiO2 
 PCOD8238777
Probable space group: P N N M
;
_chemical_formula_sum "Si O2"
_cell_formula_units_Z 48
_cell_length_a 14.484135
_cell_length_b 14.819728
_cell_length_c 11.069089
_cell_angle_alpha 90.000000
_cell_angle_beta 90.000000
_cell_angle_gamma 90.000000
_cell_volume 2375.990370
_symmetry_space_group_name_H-M "P N N M"
_symmetry_group_IT_number 58
_symmetry_cell_setting 'orthorhombic'
loop_
_space_group_symop_operation_xyz
x,y,z
-x,-y,z
1/2+x,1/2-y,1/2-z
1/2-x,1/2+y,1/2-z
-x,-y,-z
x,y,-z
1/2-x,1/2+y,1/2+z
1/2+x,1/2-y,1/2+z
loop_
_atom_site_type_symbol
_atom_site_label
_atom_site_fract_x
_atom_site_fract_y
_atom_site_fract_z
Si Si1 0.164501 0.859755 0.143105
Si Si2 0.013805 0.355772 0.000000
Si Si3 0.753651 0.969089 0.744133
Si Si4 0.851229 0.480715 0.000000
Si Si5 0.994463 0.259631 0.764211
Si Si6 0.179015 0.211929 0.640598
Si Si7 0.073423 0.571125 0.637943
O O1 0.175797 0.955636 0.209339
O O2 0.071145 0.823941 0.204836
O O3 0.251783 0.794468 0.168980
O O4 0.149729 0.871989 0.000000
O O5 0.041244 0.295319 0.113875
O O6 0.070558 0.445738 0.000000
O O7 0.903323 0.382450 0.000000
O O8 0.711141 0.995879 0.616164
O O9 0.801681 0.872025 0.729161
O O10 0.675594 0.967940 0.847626
O O11 0.928981 0.337273 0.712266
O O12 0.073667 0.239507 0.666654
O O13 0.188312 0.182965 0.500000
O O14 0.048950 0.590213 0.500000
O O15 0.000000 0.500000 0.692951
#
# Coordination Sequence:
#
# PCOD8238777 Si02
#       7
#     8   4   8   4   8   8   8
#     4  11  24  46  69  95 137 182 223 277 345 407
#     4  11  20  36  66  99 128 163 225 298 349 383
#     4  12  23  42  66  99 132 179 226 274 338 408
#     4  11  20  36  66  99 128 163 225 298 349 383
#     4  12  23  42  66  99 132 179 226 274 338 408
#     4  11  24  46  69  95 137 182 223 277 345 407
#     4  11  22  39  65  99 133 169 225 290 343 391
#
# _framework density 20.202102
#
# number of rings (size 3 to 8) (size 9 to 14) (size 15 to 20)
#    0.000    0.667    5.000    4.000    0.000    3.333 
#    6.000    1.667    0.000    0.000    0.000    0.000 
#    0.000    0.000    0.000    0.000    0.000    0.000 
#
# Total GULP energy -595340.613472 kJ/mol
# GULP energy per Si atom -12402.929447 kJ/mol
# Density = 2.015612 g / cm^3
# Si number density = 20.202102 Si / 1000 Ang^3
#
#
#
# Elastic Constant Matrix: (Units=GPa)
#
#
# Indices 1 2 3 4 5 6 
#
# 1 60.6489 5.4792 9.9567 0.0000 0.0000 0.0000
# 2 5.4792 83.6114 21.6694 0.0000 0.0000 0.0000
# 3 9.9567 21.6694 75.1233 0.0000 0.0000 0.0000
# 4 0.0000 0.0000 0.0000 12.9285 0.0000 0.0000
# 5 0.0000 0.0000 0.0000 0.0000 -16.6240 0.0000
# 6 0.0000 0.0000 0.0000 0.0000 0.0000 36.4602
#
#
#
# Elastic Compliance Matrix: (Units=1/GPa)
#
#
# Indices 1 2 3 4 5 6 
#
# 1 0.016880 -0.000569 -0.002073 0.000000 0.000000 0.000000
# 2 -0.000569 0.012946 -0.003659 0.000000 0.000000 0.000000
# 3 -0.002073 -0.003659 0.014642 0.000000 0.000000 0.000000
# 4 0.000000 0.000000 0.000000 0.077349 0.000000 0.000000
# 5 0.000000 0.000000 0.000000 0.000000 -0.060154 0.000000
# 6 0.000000 0.000000 0.000000 0.000000 0.000000 0.027427
#
#
# Mechanical properties :
#
#
# Convention : Reuss Voigt Hill
#
# Bulk Modulus (GPa) = 31.38176 32.62159 32.00168
# Shear Modulus (GPa) = 44.51860 18.70482 31.61171
#
# Velocity S-wave (km/s) = 4.69941 3.04614 3.96001
# Velocity P-wave (km/s) = 6.70922 5.34365 6.06499
#
# Compressibility (1/GPa) = 0.03186564
#
# Stress axis : x y z
#
# Youngs Moduli (GPa) = 59.24142 77.24626 68.29853
#
# Poissons Ratio (x) = 0.04394 0.14159
# Poissons Ratio (y) = 0.03370 0.24989
# Poissons Ratio (z) = 0.12282 0.28263
#
# Static dielectric constant tensor:
#      x y z
#    x 3.570850 0.000000 0.000000 
#    y 0.000000 3.635390 0.000000 
#    z 0.000000 0.000000 3.590430 
# 
# 
# High freq. dielectric constant tensor:
#      x y z
#    x 1.780910 0.000000 0.000000 
#    y 0.000000 1.788110 0.000000 
#    z 0.000000 0.000000 1.797520 
# 
# From -- ./inp_files/15621.got.cif
#   From: 2010.06.25/outbox.cif.g09.slc.cpg/sg58_8_cif.got.tgz:15621.got - 2010.06.26 21:38:00.
