data_PCOD8238116
_publ_section_title
;
Structure prediction by ZEFSAII (Michael W. Deem and Ramdas Pophale) SiO2 
 PCOD8238116
Probable space group: P N N M
;
_chemical_formula_sum "Si O2"
_cell_formula_units_Z 48
_cell_length_a 9.410173
_cell_length_b 29.039042
_cell_length_c 8.695809
_cell_angle_alpha 90.000000
_cell_angle_beta 90.000000
_cell_angle_gamma 90.000000
_cell_volume 2376.237715
_symmetry_space_group_name_H-M "P N N M"
_symmetry_group_IT_number 58
_symmetry_cell_setting 'orthorhombic'
loop_
_space_group_symop_operation_xyz
x,y,z
-x,-y,z
1/2+x,1/2-y,1/2-z
1/2-x,1/2+y,1/2-z
-x,-y,-z
x,y,-z
1/2-x,1/2+y,1/2+z
1/2+x,1/2-y,1/2+z
loop_
_atom_site_type_symbol
_atom_site_label
_atom_site_fract_x
_atom_site_fract_y
_atom_site_fract_z
Si Si1 0.112686 0.460362 0.324631
Si Si2 0.202431 0.119876 0.682250
Si Si3 0.022581 0.368150 0.820697
Si Si4 0.341826 0.517324 0.827284
Si Si5 0.205644 0.288910 0.319461
Si Si6 0.482686 0.703709 0.182560
O O1 0.112822 0.442588 0.500000
O O2 0.077579 0.419386 0.209054
O O3 0.264506 0.481352 0.283010
O O4 0.000000 0.500000 0.296416
O O5 0.194520 0.118968 0.500000
O O6 0.359271 0.135994 0.734698
O O7 0.168322 0.068738 0.745142
O O8 0.085840 0.156035 0.745741
O O9 0.117937 0.334086 0.722096
O O10 0.039020 0.356386 0.000000
O O11 0.500000 0.500000 0.834530
O O12 0.275731 0.517232 0.000000
O O13 0.228254 0.286248 0.500000
O O14 0.359846 0.289797 0.244355
O O15 0.118101 0.244918 0.258374
O O16 0.490138 0.703504 0.000000
#
# Coordination Sequence:
#
# PCOD8238116 Si02
#       6
#     8   8   8   8   8   8
#     4  11  23  39  59  88 126 162 201 251 305 358
#     4   9  19  37  60  88 118 155 205 252 295 355
#     4  11  22  39  65  89 118 161 209 251 301 363
#     4  10  21  37  60  89 120 159 208 253 297 355
#     4  11  24  41  62  93 127 156 199 253 304 360
#     4  10  22  41  64  89 122 161 201 246 301 365
#
# _framework density 20.199999999999999
#
# number of rings (size 3 to 8) (size 9 to 14) (size 15 to 20)
#    0.000    1.667    1.667    2.500    2.333    3.667 
#    0.000    2.500    0.000    0.000    0.000    0.000 
#    0.000    0.000    0.000    0.000    0.000    0.000 
#
# Total GULP energy -595318.527366 kJ/mol
# GULP energy per Si atom -12402.469320 kJ/mol
# Density = 2.015402 g / cm^3
# Si number density = 20.200000 Si / 1000 Ang^3
#
#
#
# Elastic Constant Matrix: (Units=GPa)
#
#
# Indices 1 2 3 4 5 6 
#
# 1 140.0267 54.3009 17.9495 0.0000 0.0000 0.0000
# 2 54.3009 94.5948 15.3331 0.0000 0.0000 0.0000
# 3 17.9495 15.3331 20.7757 0.0000 0.0000 0.0000
# 4 0.0000 0.0000 0.0000 27.6651 0.0000 0.0000
# 5 0.0000 0.0000 0.0000 0.0000 29.4025 0.0000
# 6 0.0000 0.0000 0.0000 0.0000 0.0000 37.3860
#
#
#
# Elastic Compliance Matrix: (Units=1/GPa)
#
#
# Indices 1 2 3 4 5 6 
#
# 1 0.009589 -0.004727 -0.004796 0.000000 0.000000 0.000000
# 2 -0.004727 0.014338 -0.006498 0.000000 0.000000 0.000000
# 3 -0.004796 -0.006498 0.057072 0.000000 0.000000 0.000000
# 4 0.000000 0.000000 0.000000 0.036147 0.000000 0.000000
# 5 0.000000 0.000000 0.000000 0.000000 0.034011 0.000000
# 6 0.000000 0.000000 0.000000 0.000000 0.000000 0.026748
#
#
# Mechanical properties :
#
#
# Convention : Reuss Voigt Hill
#
# Bulk Modulus (GPa) = 20.42581 47.84048 34.13315
# Shear Modulus (GPa) = 22.09776 30.07832 26.08804
#
# Velocity S-wave (km/s) = 3.31108 3.86298 3.59763
# Velocity P-wave (km/s) = 4.97508 6.60542 5.84735
#
# Compressibility (1/GPa) = 0.04895766
#
# Stress axis : x y z
#
# Youngs Moduli (GPa) = 104.28084 69.74328 17.52159
#
# Poissons Ratio (x) = 0.32970 0.08404
# Poissons Ratio (y) = 0.49297 0.11385
# Poissons Ratio (z) = 0.50014 0.45318
#
# Static dielectric constant tensor:
#      x y z
#    x 3.743120 0.000000 0.000000 
#    y 0.000000 3.885190 0.000000 
#    z 0.000000 0.000000 3.495420 
# 
# 
# High freq. dielectric constant tensor:
#      x y z
#    x 1.799860 0.000000 0.000000 
#    y 0.000000 1.803280 0.000000 
#    z 0.000000 0.000000 1.767880 
# 
# From -- ./inp_files/2979.got.cif
#   From: 2010.06.25/outbox.cif.g09.slc.cpg/sg58_2_cif.got.tgz:2979.got - 2010.06.26 21:38:00.
