data_PCOD8238349
_publ_section_title
;
Structure prediction by ZEFSAII (Michael W. Deem and Ramdas Pophale) SiO2 
 PCOD8238349
Probable space group: P N N M
;
_chemical_formula_sum "Si O2"
_cell_formula_units_Z 48
_cell_length_a 8.766140
_cell_length_b 10.621919
_cell_length_c 24.244999
_cell_angle_alpha 90.000000
_cell_angle_beta 90.000000
_cell_angle_gamma 90.000000
_cell_volume 2257.530145
_symmetry_space_group_name_H-M "P N N M"
_symmetry_group_IT_number 58
_symmetry_cell_setting 'orthorhombic'
loop_
_space_group_symop_operation_xyz
x,y,z
-x,-y,z
1/2+x,1/2-y,1/2-z
1/2-x,1/2+y,1/2-z
-x,-y,-z
x,y,-z
1/2-x,1/2+y,1/2+z
1/2+x,1/2-y,1/2+z
loop_
_atom_site_type_symbol
_atom_site_label
_atom_site_fract_x
_atom_site_fract_y
_atom_site_fract_z
Si Si1 0.955844 0.146225 0.132797
Si Si2 0.312592 0.757168 0.564043
Si Si3 0.661031 0.274389 0.844773
Si Si4 0.822677 0.976366 0.438602
Si Si5 0.884192 0.392856 0.354264
Si Si6 0.630309 0.395966 0.730612
O O1 0.775219 0.157560 0.143315
O O2 0.010796 0.232468 0.081347
O O3 0.046316 0.198548 0.187393
O O4 0.000000 0.000000 0.124571
O O5 0.287488 0.735813 0.500000
O O6 0.219897 0.646615 0.594413
O O7 0.263698 0.897472 0.581239
O O8 0.703502 0.370810 0.893160
O O9 0.486495 0.230820 0.841573
O O10 0.694912 0.335264 0.785741
O O11 0.763118 0.935838 0.500000
O O12 0.000000 0.000000 0.443072
O O13 0.784428 0.440492 0.301779
O O14 0.000000 0.500000 0.373777
O O15 0.500000 0.500000 0.744587
#
# Coordination Sequence:
#
# PCOD8238349 Si02
#       6
#     8   8   8   8   8   8
#     4  10  23  44  62  90 135 170 209 271 317 382
#     4  10  22  42  65  90 130 172 213 269 330 383
#     4  12  22  39  68  93 121 174 221 256 326 394
#     4  10  21  40  64  95 128 160 211 280 327 375
#     4  11  23  39  62  93 127 166 215 270 316 383
#     4  10  22  41  63  89 129 165 206 266 320 376
#
# _framework density 21.262174000000002
#
# number of rings (size 3 to 8) (size 9 to 14) (size 15 to 20)
#    0.000    1.500    1.667    4.500    0.000    2.000 
#    9.000    3.333    0.000    0.000    0.000    0.000 
#    0.000    0.000    0.000    0.000    0.000    0.000 
#
# Total GULP energy -594694.390614 kJ/mol
# GULP energy per Si atom -12389.466471 kJ/mol
# Density = 2.121378 g / cm^3
# Si number density = 21.262174 Si / 1000 Ang^3
#
#
#
# Elastic Constant Matrix: (Units=GPa)
#
#
# Indices 1 2 3 4 5 6 
#
# 1 113.0933 34.6453 28.6976 0.0000 0.0000 0.0000
# 2 34.6453 88.9930 54.5854 0.0000 0.0000 0.0000
# 3 28.6976 54.5854 109.3918 0.0000 0.0000 0.0000
# 4 0.0000 0.0000 0.0000 27.9972 0.0000 0.0000
# 5 0.0000 0.0000 0.0000 0.0000 27.3642 0.0000
# 6 0.0000 0.0000 0.0000 0.0000 0.0000 36.5923
#
#
#
# Elastic Compliance Matrix: (Units=1/GPa)
#
#
# Indices 1 2 3 4 5 6 
#
# 1 0.010114 -0.003329 -0.000992 0.000000 0.000000 0.000000
# 2 -0.003329 0.017288 -0.007754 0.000000 0.000000 0.000000
# 3 -0.000992 -0.007754 0.013271 0.000000 0.000000 0.000000
# 4 0.000000 0.000000 0.000000 0.035718 0.000000 0.000000
# 5 0.000000 0.000000 0.000000 0.000000 0.036544 0.000000
# 6 0.000000 0.000000 0.000000 0.000000 0.000000 0.027328
#
#
# Mechanical properties :
#
#
# Convention : Reuss Voigt Hill
#
# Bulk Modulus (GPa) = 60.51811 60.81496 60.66653
# Shear Modulus (GPa) = 29.42560 31.29405 30.35982
#
# Velocity S-wave (km/s) = 3.72417 3.84059 3.78283
# Velocity P-wave (km/s) = 6.85691 6.95208 6.90466
#
# Compressibility (1/GPa) = 0.01652398
#
# Stress axis : x y z
#
# Youngs Moduli (GPa) = 98.87515 57.84192 75.35404
#
# Poissons Ratio (x) = 0.19254 0.07477
# Poissons Ratio (y) = 0.32913 0.58426
# Poissons Ratio (z) = 0.09811 0.44848
#
# Static dielectric constant tensor:
#      x y z
#    x 3.954790 0.000000 0.000000 
#    y 0.000000 3.965290 0.000000 
#    z 0.000000 0.000000 3.981420 
# 
# 
# High freq. dielectric constant tensor:
#      x y z
#    x 1.847720 0.000000 0.000000 
#    y 0.000000 1.819720 0.000000 
#    z 0.000000 0.000000 1.831530 
# 
# From -- ./inp_files/31469.got.cif
#   From: 2010.06.25/outbox.cif.g09.slc.cpg/sg58_16_cif.got.tgz:31469.got - 2010.06.26 21:38:00.
