data_PCOD8238775
_publ_section_title
;
Structure prediction by ZEFSAII (Michael W. Deem and Ramdas Pophale) SiO2 
 PCOD8238775
Probable space group: P N N M
;
_chemical_formula_sum "Si O2"
_cell_formula_units_Z 48
_cell_length_a 23.021112
_cell_length_b 4.964978
_cell_length_c 20.965855
_cell_angle_alpha 90.000000
_cell_angle_beta 90.000000
_cell_angle_gamma 90.000000
_cell_volume 2396.382857
_symmetry_space_group_name_H-M "P N N M"
_symmetry_group_IT_number 58
_symmetry_cell_setting 'orthorhombic'
loop_
_space_group_symop_operation_xyz
x,y,z
-x,-y,z
1/2+x,1/2-y,1/2-z
1/2-x,1/2+y,1/2-z
-x,-y,-z
x,y,-z
1/2-x,1/2+y,1/2+z
1/2+x,1/2-y,1/2+z
loop_
_atom_site_type_symbol
_atom_site_label
_atom_site_fract_x
_atom_site_fract_y
_atom_site_fract_z
Si Si1 0.821234 0.973708 0.500000
Si Si2 0.536954 0.752211 0.782701
Si Si3 0.799072 0.547211 0.312501
Si Si4 0.359547 0.438178 0.134447
Si Si5 0.677173 0.487417 0.368439
Si Si6 0.739339 0.468411 0.500000
Si Si7 0.368465 0.025958 0.690748
O O1 0.862420 0.950234 0.437920
O O2 0.791431 0.261687 0.500000
O O3 0.768597 0.761423 0.500000
O O4 0.500000 0.500000 0.755566
O O5 0.576695 0.617150 0.837402
O O6 0.500000 0.000000 0.813025
O O7 0.571531 0.897618 0.725320
O O8 0.825381 0.343772 0.365118
O O9 0.730343 0.524530 0.319280
O O10 0.816368 0.451537 0.242055
O O11 0.824655 0.845187 0.323299
O O12 0.698156 0.424110 0.439254
O O13 0.631976 0.266443 0.341625
O O14 0.642578 0.767344 0.366983
#
# Coordination Sequence:
#
# PCOD8238775 Si02
#       7
#     4   8   8   8   8   4   8
#     4  12  20  40  54  85 120 173 206 224 282 355
#     4  11  23  42  62  86 115 153 207 272 321 346
#     4  11  20  36  55  88 122 158 188 240 291 364
#     4  11  21  36  60  84 118 163 206 239 288 353
#     4  12  21  37  55  91 121 159 192 230 292 367
#     4  12  24  36  60  81 132 167 194 226 276 361
#     4  11  23  36  60  86 118 150 198 249 307 355
#
# _framework density 20.030186
#
# number of rings (size 3 to 8) (size 9 to 14) (size 15 to 20)
#    0.000    0.667    3.333    8.000    0.000    0.000 
#    0.000    0.833    0.000    0.000    0.000   11.667 
#    0.000    0.000    0.000    0.000    0.000    0.000 
#
# Total GULP energy -595098.096826 kJ/mol
# GULP energy per Si atom -12397.877017 kJ/mol
# Density = 1.998460 g / cm^3
# Si number density = 20.030186 Si / 1000 Ang^3
#
#
#
# Elastic Constant Matrix: (Units=GPa)
#
#
# Indices 1 2 3 4 5 6 
#
# 1 75.6854 36.7818 34.5689 0.0000 0.0000 0.0000
# 2 36.7818 114.2110 21.6873 0.0000 0.0000 0.0000
# 3 34.5689 21.6873 93.4508 0.0000 0.0000 0.0000
# 4 0.0000 0.0000 0.0000 26.9992 0.0000 0.0000
# 5 0.0000 0.0000 0.0000 0.0000 13.6615 0.0000
# 6 0.0000 0.0000 0.0000 0.0000 0.0000 40.9361
#
#
#
# Elastic Compliance Matrix: (Units=1/GPa)
#
#
# Indices 1 2 3 4 5 6 
#
# 1 0.018076 -0.004762 -0.005582 0.000000 0.000000 0.000000
# 2 -0.004762 0.010414 -0.000655 0.000000 0.000000 0.000000
# 3 -0.005582 -0.000655 0.012918 0.000000 0.000000 0.000000
# 4 0.000000 0.000000 0.000000 0.037038 0.000000 0.000000
# 5 0.000000 0.000000 0.000000 0.000000 0.073198 0.000000
# 6 0.000000 0.000000 0.000000 0.000000 0.000000 0.024428
#
#
# Mechanical properties :
#
#
# Convention : Reuss Voigt Hill
#
# Bulk Modulus (GPa) = 51.51897 52.15815 51.83856
# Shear Modulus (GPa) = 24.44521 29.00663 26.72592
#
# Velocity S-wave (km/s) = 3.49724 3.80958 3.65675
# Velocity P-wave (km/s) = 6.48722 6.74143 6.61555
#
# Compressibility (1/GPa) = 0.01941033
#
# Stress axis : x y z
#
# Youngs Moduli (GPa) = 55.32212 96.02810 77.41371
#
# Poissons Ratio (x) = 0.45724 0.43209
# Poissons Ratio (y) = 0.26342 0.05073
# Poissons Ratio (z) = 0.30878 0.06293
#
# Static dielectric constant tensor:
#      x y z
#    x 3.446850 0.000000 0.000000 
#    y 0.000000 3.945330 0.000000 
#    z 0.000000 0.000000 3.544160 
# 
# 
# High freq. dielectric constant tensor:
#      x y z
#    x 1.750820 0.000000 0.000000 
#    y 0.000000 1.813080 0.000000 
#    z 0.000000 0.000000 1.763810 
# 
# From -- ./inp_files/30358.got.cif
#   From: 2010.06.25/outbox.cif.g09.slc.cpg/sg58_16_cif.got.tgz:30358.got - 2010.06.26 21:38:00.
