data_PCOD8238807
_publ_section_title
;
Structure prediction by ZEFSAII (Michael W. Deem and Ramdas Pophale) SiO2 
 PCOD8238807
Probable space group: P N N M
;
_chemical_formula_sum "Si O2"
_cell_formula_units_Z 56
_cell_length_a 15.059110
_cell_length_b 21.659040
_cell_length_c 8.379059
_cell_angle_alpha 90.000000
_cell_angle_beta 90.000000
_cell_angle_gamma 90.000000
_cell_volume 2732.963034
_symmetry_space_group_name_H-M "P N N M"
_symmetry_group_IT_number 58
_symmetry_cell_setting 'orthorhombic'
loop_
_space_group_symop_operation_xyz
x,y,z
-x,-y,z
1/2+x,1/2-y,1/2-z
1/2-x,1/2+y,1/2-z
-x,-y,-z
x,y,-z
1/2-x,1/2+y,1/2+z
1/2+x,1/2-y,1/2+z
loop_
_atom_site_type_symbol
_atom_site_label
_atom_site_fract_x
_atom_site_fract_y
_atom_site_fract_z
Si Si1 0.519051 0.931161 0.689649
Si Si2 0.289171 0.103960 0.688996
Si Si3 0.635303 0.477808 0.189852
Si Si4 0.070338 0.308956 0.815158
Si Si5 0.964594 0.092549 0.689810
Si Si6 0.240250 0.239997 0.686008
Si Si7 0.077552 0.774059 0.313898
O O1 0.525856 0.934922 0.500000
O O2 0.612528 0.905958 0.761445
O O3 0.441787 0.881394 0.735847
O O4 0.500000 0.000000 0.758952
O O5 0.295304 0.100748 0.500000
O O6 0.228350 0.047990 0.756448
O O7 0.241967 0.168162 0.739451
O O8 0.617293 0.548252 0.245279
O O9 0.556348 0.434680 0.256174
O O10 0.634221 0.473700 0.000000
O O11 0.146573 0.273548 0.717849
O O12 0.974545 0.278048 0.784030
O O13 0.095050 0.304295 0.000000
O O14 0.965199 0.095495 0.500000
O O15 0.953345 0.160649 0.758747
O O16 0.261815 0.245916 0.500000
O O17 0.317223 0.272151 0.787224
O O18 0.054997 0.766963 0.500000
#
# Coordination Sequence:
#
# PCOD8238807 Si02
#       7
#     8   8   8   8   8   8   8
#     4   9  18  33  54  81 111 142 186 244 295 338
#     4   9  16  29  50  76 105 142 185 231 283 335
#     4   8  13  24  44  71 105 138 174 227 277 317
#     4  11  22  38  58  86 117 148 191 245 296 347
#     4   8  15  26  43  75 110 137 174 225 275 323
#     4  11  22  37  57  83 113 151 194 237 287 347
#     4  11  21  35  56  84 115 150 185 229 285 347
#
# _framework density 20.490580999999999
#
# number of rings (size 3 to 8) (size 9 to 14) (size 15 to 20)
#    0.000    2.429    1.429    3.000    0.000    3.429 
#    0.000    4.286    0.000    1.714    0.000   22.000 
#    0.000    0.000    0.000    0.000    0.000    0.000 
#
# Total GULP energy -693978.860189 kJ/mol
# GULP energy per Si atom -12392.479646 kJ/mol
# Density = 2.044394 g / cm^3
# Si number density = 20.490581 Si / 1000 Ang^3
#
#
#
# Elastic Constant Matrix: (Units=GPa)
#
#
# Indices 1 2 3 4 5 6 
#
# 1 100.0386 45.8101 1.1855 0.0000 0.0000 0.0000
# 2 45.8101 149.9491 14.2337 0.0000 0.0000 0.0000
# 3 1.1855 14.2337 21.4995 0.0000 0.0000 0.0000
# 4 0.0000 0.0000 0.0000 17.3452 0.0000 0.0000
# 5 0.0000 0.0000 0.0000 0.0000 26.0610 0.0000
# 6 0.0000 0.0000 0.0000 0.0000 0.0000 38.1483
#
#
#
# Elastic Compliance Matrix: (Units=1/GPa)
#
#
# Indices 1 2 3 4 5 6 
#
# 1 0.011689 -0.003745 0.001835 0.000000 0.000000 0.000000
# 2 -0.003745 0.008316 -0.005299 0.000000 0.000000 0.000000
# 3 0.001835 -0.005299 0.049920 0.000000 0.000000 0.000000
# 4 0.000000 0.000000 0.000000 0.057653 0.000000 0.000000
# 5 0.000000 0.000000 0.000000 0.000000 0.038372 0.000000
# 6 0.000000 0.000000 0.000000 0.000000 0.000000 0.026213
#
#
# Mechanical properties :
#
#
# Convention : Reuss Voigt Hill
#
# Bulk Modulus (GPa) = 18.01595 43.77174 30.89385
# Shear Modulus (GPa) = 22.21389 30.32809 26.27099
#
# Velocity S-wave (km/s) = 3.29614 3.85138 3.58453
# Velocity P-wave (km/s) = 4.82675 6.41761 5.67817
#
# Compressibility (1/GPa) = 0.05550637
#
# Stress axis : x y z
#
# Youngs Moduli (GPa) = 85.54686 120.24760 20.03217
#
# Poissons Ratio (x) = 0.45037 -0.03676
# Poissons Ratio (y) = 0.32041 0.10615
# Poissons Ratio (z) = -0.15698 0.63721
#
# Static dielectric constant tensor:
#      x y z
#    x 3.787720 0.000000 0.000000 
#    y 0.000000 4.131080 0.000000 
#    z 0.000000 0.000000 3.076680 
# 
# 
# High freq. dielectric constant tensor:
#      x y z
#    x 1.800650 0.000000 0.000000 
#    y 0.000000 1.815040 0.000000 
#    z 0.000000 0.000000 1.742300 
# 
# From -- ./inp_files/6375.got.cif
#   From: 2010.06.25/outbox.cif.g09.slc.cpg/sg58_4_cif.got.tgz:6375.got - 2010.06.26 21:38:00.
