data_PCOD8238506
_publ_section_title
;
Structure prediction by ZEFSAII (Michael W. Deem and Ramdas Pophale) SiO2 
 PCOD8238506
Probable space group: P N N M
;
_chemical_formula_sum "Si O2"
_cell_formula_units_Z 48
_cell_length_a 20.219710
_cell_length_b 14.287971
_cell_length_c 8.585691
_cell_angle_alpha 90.000000
_cell_angle_beta 90.000000
_cell_angle_gamma 90.000000
_cell_volume 2480.394368
_symmetry_space_group_name_H-M "P N N M"
_symmetry_group_IT_number 58
_symmetry_cell_setting 'orthorhombic'
loop_
_space_group_symop_operation_xyz
x,y,z
-x,-y,z
1/2+x,1/2-y,1/2-z
1/2-x,1/2+y,1/2-z
-x,-y,-z
x,y,-z
1/2-x,1/2+y,1/2+z
1/2+x,1/2-y,1/2+z
loop_
_atom_site_type_symbol
_atom_site_label
_atom_site_fract_x
_atom_site_fract_y
_atom_site_fract_z
Si Si1 0.423933 0.333776 0.679705
Si Si2 0.773647 0.479696 0.320145
Si Si3 0.632851 0.489068 0.820779
Si Si4 0.317811 0.835029 0.679715
Si Si5 0.701890 0.784445 0.319064
Si Si6 0.572278 0.309142 0.321188
O O1 0.416733 0.362764 0.500000
O O2 0.417377 0.427348 0.781643
O O3 0.368927 0.258130 0.727813
O O4 0.495435 0.288504 0.713387
O O5 0.781477 0.453650 0.500000
O O6 0.697522 0.502430 0.284254
O O7 0.816371 0.571532 0.282346
O O8 0.800183 0.394154 0.217599
O O9 0.597642 0.391111 0.789477
O O10 0.654197 0.493295 0.000000
O O11 0.311083 0.863318 0.500000
O O12 0.258799 0.764179 0.719366
O O13 0.387514 0.785192 0.715467
O O14 0.717781 0.768704 0.500000
O O15 0.583647 0.340217 0.500000
#
# Coordination Sequence:
#
# PCOD8238506 Si02
#       6
#     8   8   8   8   8   8
#     4  10  22  40  61  86 120 160 197 237 294 360
#     4  12  24  39  60  87 120 157 200 249 296 348
#     4  12  23  35  58  90 123 155 194 246 301 354
#     4  11  22  38  62  89 119 155 198 244 294 351
#     4  11  22  38  62  89 119 155 198 244 294 351
#     4  10  22  40  61  86 120 160 197 237 294 360
#
# _framework density 19.351761
#
# number of rings (size 3 to 8) (size 9 to 14) (size 15 to 20)
#    0.000    1.000    3.333    4.500    0.000    4.000 
#    0.000    0.833    0.000    5.000    0.000    0.000 
#    0.000    0.000    0.000    0.000    0.000    0.000 
#
# Total GULP energy -595540.383488 kJ/mol
# GULP energy per Si atom -12407.091323 kJ/mol
# Density = 1.930772 g / cm^3
# Si number density = 19.351761 Si / 1000 Ang^3
#
#
#
# Elastic Constant Matrix: (Units=GPa)
#
#
# Indices 1 2 3 4 5 6 
#
# 1 72.5524 8.2473 16.6929 0.0000 0.0000 0.0000
# 2 8.2473 76.9610 5.9928 0.0000 0.0000 0.0000
# 3 16.6929 5.9928 60.5555 0.0000 0.0000 0.0000
# 4 0.0000 0.0000 0.0000 30.3598 0.0000 0.0000
# 5 0.0000 0.0000 0.0000 0.0000 23.9325 0.0000
# 6 0.0000 0.0000 0.0000 0.0000 0.0000 29.3711
#
#
#
# Elastic Compliance Matrix: (Units=1/GPa)
#
#
# Indices 1 2 3 4 5 6 
#
# 1 0.014841 -0.001282 -0.003964 0.000000 0.000000 0.000000
# 2 -0.001282 0.013205 -0.000954 0.000000 0.000000 0.000000
# 3 -0.003964 -0.000954 0.017701 0.000000 0.000000 0.000000
# 4 0.000000 0.000000 0.000000 0.032938 0.000000 0.000000
# 5 0.000000 0.000000 0.000000 0.000000 0.041784 0.000000
# 6 0.000000 0.000000 0.000000 0.000000 0.000000 0.034047
#
#
# Mechanical properties :
#
#
# Convention : Reuss Voigt Hill
#
# Bulk Modulus (GPa) = 29.98669 30.21499 30.10084
# Shear Modulus (GPa) = 28.08491 28.67508 28.38000
#
# Velocity S-wave (km/s) = 3.81371 3.85357 3.83369
# Velocity P-wave (km/s) = 5.90946 5.95377 5.93166
#
# Compressibility (1/GPa) = 0.03334813
#
# Stress axis : x y z
#
# Youngs Moduli (GPa) = 67.38122 75.72775 56.49423
#
# Poissons Ratio (x) = 0.09706 0.22396
# Poissons Ratio (y) = 0.08636 0.05387
# Poissons Ratio (z) = 0.26712 0.07221
#
# Static dielectric constant tensor:
#      x y z
#    x 3.618000 0.000000 0.000000 
#    y 0.000000 3.514320 0.000000 
#    z 0.000000 0.000000 3.527220 
# 
# 
# High freq. dielectric constant tensor:
#      x y z
#    x 1.748230 0.000000 0.000000 
#    y 0.000000 1.752310 0.000000 
#    z 0.000000 0.000000 1.757810 
# 
# From -- ./inp_files/5767.got.cif
#   From: 2010.06.25/outbox.cif.g09.slc.cpg/sg58_3_cif.got.tgz:5767.got - 2010.06.26 21:38:00.
