data_PCOD8238352
_publ_section_title
;
Structure prediction by ZEFSAII (Michael W. Deem and Ramdas Pophale) SiO2 
 PCOD8238352
Probable space group: P N N M
;
_chemical_formula_sum "Si O2"
_cell_formula_units_Z 64
_cell_length_a 30.510703
_cell_length_b 11.923074
_cell_length_c 8.518125
_cell_angle_alpha 90.000000
_cell_angle_beta 90.000000
_cell_angle_gamma 90.000000
_cell_volume 3098.735179
_symmetry_space_group_name_H-M "P N N M"
_symmetry_group_IT_number 58
_symmetry_cell_setting 'orthorhombic'
loop_
_space_group_symop_operation_xyz
x,y,z
-x,-y,z
1/2+x,1/2-y,1/2-z
1/2-x,1/2+y,1/2-z
-x,-y,-z
x,y,-z
1/2-x,1/2+y,1/2+z
1/2+x,1/2-y,1/2+z
loop_
_atom_site_type_symbol
_atom_site_label
_atom_site_fract_x
_atom_site_fract_y
_atom_site_fract_z
Si Si1 0.671578 0.005401 0.180104
Si Si2 0.875499 0.134156 0.813759
Si Si3 0.295981 0.214567 0.682801
Si Si4 0.874505 0.879466 0.815795
Si Si5 0.551520 0.224573 0.818498
Si Si6 0.080029 0.504830 0.820065
Si Si7 0.538792 0.762695 0.317924
Si Si8 0.206255 0.273233 0.819872
O O1 0.702640 0.901673 0.222925
O O2 0.621405 0.971798 0.209335
O O3 0.682102 0.110025 0.290350
O O4 0.678952 0.038925 0.000000
O O5 0.833080 0.201135 0.750510
O O6 0.919716 0.193260 0.751828
O O7 0.873561 0.006718 0.753250
O O8 0.874479 0.136641 0.000000
O O9 0.303772 0.190675 0.500000
O O10 0.248449 0.267807 0.708882
O O11 0.911801 0.815348 0.720802
O O12 0.827186 0.826721 0.778532
O O13 0.885453 0.871420 0.000000
O O14 0.503972 0.275870 0.778128
O O15 0.557374 0.112890 0.716152
O O16 0.554895 0.192516 0.000000
O O17 0.045793 0.604729 0.790787
O O18 0.096133 0.506062 0.000000
O O19 0.531155 0.734654 0.500000
O O20 0.221206 0.266131 0.000000
#
# Coordination Sequence:
#
# PCOD8238352 Si02
#       8
#     8   8   8   8   8   8   8   8
#     4  12  24  40  65  95 130 169 209 257 314 373
#     4   9  20  41  66  91 118 161 211 256 305 368
#     4  11  23  42  67  96 130 165 208 261 315 373
#     4  10  22  42  66  87 120 165 212 258 307 372
#     4  12  25  39  59  91 128 162 205 256 315 375
#     4  11  21  39  65  93 124 161 207 259 314 372
#     4  10  21  40  65  90 121 161 207 254 311 376
#     4  11  24  41  64  96 129 166 212 260 313 371
#
# _framework density 20.653589
#
# number of rings (size 3 to 8) (size 9 to 14) (size 15 to 20)
#    0.000    1.250    2.500    3.750    1.750    3.500 
#    0.000    4.375    0.000    0.000    0.000    0.000 
#    0.000    0.000    0.000    0.000    0.000    0.000 
#
# Total GULP energy -794007.687248 kJ/mol
# GULP energy per Si atom -12406.370113 kJ/mol
# Density = 2.060658 g / cm^3
# Si number density = 20.653589 Si / 1000 Ang^3
#
#
#
# Elastic Constant Matrix: (Units=GPa)
#
#
# Indices 1 2 3 4 5 6 
#
# 1 116.5892 31.2380 36.4050 0.0000 0.0000 0.0000
# 2 31.2380 119.4366 31.5773 0.0000 0.0000 0.0000
# 3 36.4050 31.5773 52.9834 0.0000 0.0000 0.0000
# 4 0.0000 0.0000 0.0000 18.9869 0.0000 0.0000
# 5 0.0000 0.0000 0.0000 0.0000 33.2553 0.0000
# 6 0.0000 0.0000 0.0000 0.0000 0.0000 23.3000
#
#
#
# Elastic Compliance Matrix: (Units=1/GPa)
#
#
# Indices 1 2 3 4 5 6 
#
# 1 0.011029 -0.001046 -0.006955 0.000000 0.000000 0.000000
# 2 -0.001046 0.010038 -0.005264 0.000000 0.000000 0.000000
# 3 -0.006955 -0.005264 0.026790 0.000000 0.000000 0.000000
# 4 0.000000 0.000000 0.000000 0.052668 0.000000 0.000000
# 5 0.000000 0.000000 0.000000 0.000000 0.030070 0.000000
# 6 0.000000 0.000000 0.000000 0.000000 0.000000 0.042918
#
#
# Mechanical properties :
#
#
# Convention : Reuss Voigt Hill
#
# Bulk Modulus (GPa) = 46.88745 54.16109 50.52427
# Shear Modulus (GPa) = 24.13695 27.76101 25.94898
#
# Velocity S-wave (km/s) = 3.42227 3.67021 3.54841
# Velocity P-wave (km/s) = 6.19411 6.65140 6.42682
#
# Compressibility (1/GPa) = 0.02132767
#
# Stress axis : x y z
#
# Youngs Moduli (GPa) = 90.67039 99.62295 37.32788
#
# Poissons Ratio (x) = 0.10419 0.25961
# Poissons Ratio (y) = 0.09483 0.19649
# Poissons Ratio (z) = 0.63059 0.52440
#
# Static dielectric constant tensor:
#      x y z
#    x 3.770570 0.000000 0.000000 
#    y 0.000000 3.806320 0.000000 
#    z 0.000000 0.000000 3.492530 
# 
# 
# High freq. dielectric constant tensor:
#      x y z
#    x 1.817710 0.000000 0.000000 
#    y 0.000000 1.810610 0.000000 
#    z 0.000000 0.000000 1.791790 
# 
# From -- ./inp_files/10957.got.cif
#   From: 2010.06.25/outbox.cif.g09.slc.cpg/sg58_6_cif.got.tgz:10957.got - 2010.06.26 21:38:00.
