data_PCOD8238323
_publ_section_title
;
Structure prediction by ZEFSAII (Michael W. Deem and Ramdas Pophale) SiO2 
 PCOD8238323
Probable space group: P N N M
;
_chemical_formula_sum "Si O2"
_cell_formula_units_Z 40
_cell_length_a 17.808053
_cell_length_b 13.384877
_cell_length_c 8.570297
_cell_angle_alpha 90.000000
_cell_angle_beta 90.000000
_cell_angle_gamma 90.000000
_cell_volume 2042.803986
_symmetry_space_group_name_H-M "P N N M"
_symmetry_group_IT_number 58
_symmetry_cell_setting 'orthorhombic'
loop_
_space_group_symop_operation_xyz
x,y,z
-x,-y,z
1/2+x,1/2-y,1/2-z
1/2-x,1/2+y,1/2-z
-x,-y,-z
x,y,-z
1/2-x,1/2+y,1/2+z
1/2+x,1/2-y,1/2+z
loop_
_atom_site_type_symbol
_atom_site_label
_atom_site_fract_x
_atom_site_fract_y
_atom_site_fract_z
Si Si1 0.040370 0.899627 0.681151
Si Si2 0.368039 0.123872 0.180209
Si Si3 0.688856 0.679239 0.319723
Si Si4 0.332957 0.916425 0.679090
Si Si5 0.968960 0.691266 0.321633
O O1 0.063499 0.905887 0.500000
O O2 0.115424 0.885668 0.780867
O O3 0.983575 0.808168 0.709384
O O4 0.000000 0.000000 0.738773
O O5 0.323931 0.204289 0.283462
O O6 0.456593 0.127826 0.218664
O O7 0.337244 0.014529 0.214686
O O8 0.354977 0.151858 0.000000
O O9 0.709497 0.666444 0.500000
O O10 0.757092 0.641515 0.215654
O O11 0.333904 0.949492 0.500000
O O12 0.402728 0.843389 0.709637
O O13 0.944406 0.672560 0.500000
#
# Coordination Sequence:
#
# PCOD8238323 Si02
#       5
#     8   8   8   8   8
#     4   9  19  38  62  85 114 152 191 234 285 338
#     4  10  21  40  62  83 112 147 186 235 290 342
#     4  11  23  39  58  83 117 152 190 235 283 336
#     4  12  24  37  57  85 117 152 192 235 282 337
#     4   9  19  36  58  84 114 148 188 235 286 339
#
# _framework density 19.580929000000001
#
# number of rings (size 3 to 8) (size 9 to 14) (size 15 to 20)
#    0.000    1.800    0.000    6.000    0.000    8.400 
#    0.000    6.000    0.000    0.000    0.000    0.000 
#    0.000    0.000    0.000    0.000    0.000    0.000 
#
# Total GULP energy -496235.113457 kJ/mol
# GULP energy per Si atom -12405.877836 kJ/mol
# Density = 1.953636 g / cm^3
# Si number density = 19.580929 Si / 1000 Ang^3
#
#
#
# Elastic Constant Matrix: (Units=GPa)
#
#
# Indices 1 2 3 4 5 6 
#
# 1 95.5888 54.4203 22.7014 0.0000 0.0000 0.0000
# 2 54.4203 97.2089 19.4398 0.0000 0.0000 0.0000
# 3 22.7014 19.4398 65.2649 0.0000 0.0000 0.0000
# 4 0.0000 0.0000 0.0000 30.1036 0.0000 0.0000
# 5 0.0000 0.0000 0.0000 0.0000 32.6600 0.0000
# 6 0.0000 0.0000 0.0000 0.0000 0.0000 22.2638
#
#
#
# Elastic Compliance Matrix: (Units=1/GPa)
#
#
# Indices 1 2 3 4 5 6 
#
# 1 0.015912 -0.008295 -0.003064 0.000000 0.000000 0.000000
# 2 -0.008295 0.015263 -0.001661 0.000000 0.000000 0.000000
# 3 -0.003064 -0.001661 0.016883 0.000000 0.000000 0.000000
# 4 0.000000 0.000000 0.000000 0.033219 0.000000 0.000000
# 5 0.000000 0.000000 0.000000 0.000000 0.030618 0.000000
# 6 0.000000 0.000000 0.000000 0.000000 0.000000 0.044916
#
#
# Mechanical properties :
#
#
# Convention : Reuss Voigt Hill
#
# Bulk Modulus (GPa) = 45.41821 50.13174 47.77497
# Shear Modulus (GPa) = 26.28957 27.77221 27.03089
#
# Velocity S-wave (km/s) = 3.66814 3.77016 3.71950
# Velocity P-wave (km/s) = 6.41762 6.67907 6.54965
#
# Compressibility (1/GPa) = 0.02201760
#
# Stress axis : x y z
#
# Youngs Moduli (GPa) = 62.84706 65.51751 59.23250
#
# Poissons Ratio (x) = 0.54347 0.18148
# Poissons Ratio (y) = 0.52132 0.09838
# Poissons Ratio (z) = 0.19255 0.10882
#
# Static dielectric constant tensor:
#      x y z
#    x 3.493780 0.000000 0.000000 
#    y 0.000000 3.571790 0.000000 
#    z 0.000000 0.000000 3.470550 
# 
# 
# High freq. dielectric constant tensor:
#      x y z
#    x 1.759850 0.000000 0.000000 
#    y 0.000000 1.769540 0.000000 
#    z 0.000000 0.000000 1.762660 
# 
# From -- ./inp_files/3781.got.cif
#   From: 2010.06.25/outbox.cif.g09.slc.cpg/sg58_2_cif.got.tgz:3781.got - 2010.06.26 21:38:00.
