data_PCOD8238115
_publ_section_title
;
Structure prediction by ZEFSAII (Michael W. Deem and Ramdas Pophale) SiO2 
 PCOD8238115
Probable space group: P N N M
;
_chemical_formula_sum "Si O2"
_cell_formula_units_Z 48
_cell_length_a 13.850086
_cell_length_b 14.324363
_cell_length_c 12.241293
_cell_angle_alpha 90.000000
_cell_angle_beta 90.000000
_cell_angle_gamma 90.000000
_cell_volume 2428.594915
_symmetry_space_group_name_H-M "P N N M"
_symmetry_group_IT_number 58
_symmetry_cell_setting 'orthorhombic'
loop_
_space_group_symop_operation_xyz
x,y,z
-x,-y,z
1/2+x,1/2-y,1/2-z
1/2-x,1/2+y,1/2-z
-x,-y,-z
x,y,-z
1/2-x,1/2+y,1/2+z
1/2+x,1/2-y,1/2+z
loop_
_atom_site_type_symbol
_atom_site_label
_atom_site_fract_x
_atom_site_fract_y
_atom_site_fract_z
Si Si1 0.586919 0.771327 0.879896
Si Si2 0.233302 0.953790 0.202819
Si Si3 0.215434 0.172907 0.795901
Si Si4 0.083253 0.937651 0.620373
Si Si5 0.877804 0.691249 0.368719
Si Si6 0.909407 0.856369 0.000000
Si Si7 0.389401 0.422213 0.500000
O O1 0.680869 0.776260 0.803962
O O2 0.545211 0.666836 0.886568
O O3 0.491086 0.825353 0.840879
O O4 0.619422 0.806832 0.000000
O O5 0.184954 0.936404 0.319179
O O6 0.334690 0.900725 0.190580
O O7 0.169743 0.904142 0.109727
O O8 0.244204 0.064596 0.197098
O O9 0.165965 0.213514 0.686105
O O10 0.140845 0.191053 0.895111
O O11 0.101378 0.980413 0.500000
O O12 0.000000 0.000000 0.680584
O O13 0.860037 0.695289 0.500000
O O14 0.025456 0.843629 0.000000
O O15 0.911145 0.968116 0.000000
#
# Coordination Sequence:
#
# PCOD8238115 Si02
#       7
#     8   8   8   8   8   4   4
#     4  10  21  38  60  85 121 159 203 254 302 371
#     4  11  22  37  61  89 125 162 205 257 312 380
#     4  11  22  38  62  91 121 161 211 254 311 370
#     4  10  21  37  60  89 119 159 208 260 315 364
#     4  11  24  41  61  90 126 166 206 256 320 375
#     4   9  20  34  57  87 117 154 199 263 311 366
#     4   9  20  34  55  89 120 154 206 257 321 362
#
# _framework density 19.764513999999998
#
# number of rings (size 3 to 8) (size 9 to 14) (size 15 to 20)
#    0.000    1.667    3.333    1.000    7.000    2.667 
#    0.000    1.667    0.000    0.000    0.000    2.333 
#    0.000    0.000    0.000    0.000    0.000    0.000 
#
# Total GULP energy -594662.994065 kJ/mol
# GULP energy per Si atom -12388.812376 kJ/mol
# Density = 1.971953 g / cm^3
# Si number density = 19.764514 Si / 1000 Ang^3
#
#
#
# Elastic Constant Matrix: (Units=GPa)
#
#
# Indices 1 2 3 4 5 6 
#
# 1 114.7078 22.9325 36.4217 0.0000 0.0000 0.0000
# 2 22.9325 60.5987 17.8430 0.0000 0.0000 0.0000
# 3 36.4217 17.8430 84.4530 0.0000 0.0000 0.0000
# 4 0.0000 0.0000 0.0000 20.1073 0.0000 0.0000
# 5 0.0000 0.0000 0.0000 0.0000 27.1750 0.0000
# 6 0.0000 0.0000 0.0000 0.0000 0.0000 31.8680
#
#
#
# Elastic Compliance Matrix: (Units=1/GPa)
#
#
# Indices 1 2 3 4 5 6 
#
# 1 0.010536 -0.002825 -0.003947 0.000000 0.000000 0.000000
# 2 -0.002825 0.018354 -0.002660 0.000000 0.000000 0.000000
# 3 -0.003947 -0.002660 0.014105 0.000000 0.000000 0.000000
# 4 0.000000 0.000000 0.000000 0.049733 0.000000 0.000000
# 5 0.000000 0.000000 0.000000 0.000000 0.036798 0.000000
# 6 0.000000 0.000000 0.000000 0.000000 0.000000 0.031379
#
#
# Mechanical properties :
#
#
# Convention : Reuss Voigt Hill
#
# Bulk Modulus (GPa) = 41.43839 46.01710 43.72774
# Shear Modulus (GPa) = 26.62228 28.00090 27.31159
#
# Velocity S-wave (km/s) = 3.67410 3.76803 3.72136
# Velocity P-wave (km/s) = 6.24581 6.50107 6.37472
#
# Compressibility (1/GPa) = 0.02413221
#
# Stress axis : x y z
#
# Youngs Moduli (GPa) = 94.91484 54.48362 70.89717
#
# Poissons Ratio (x) = 0.15391 0.27982
# Poissons Ratio (y) = 0.26813 0.18855
# Poissons Ratio (z) = 0.37462 0.14490
#
# Static dielectric constant tensor:
#      x y z
#    x 3.697410 0.000000 0.000000 
#    y 0.000000 3.595230 0.000000 
#    z 0.000000 0.000000 3.616830 
# 
# 
# High freq. dielectric constant tensor:
#      x y z
#    x 1.773880 0.000000 0.000000 
#    y 0.000000 1.753780 0.000000 
#    z 0.000000 0.000000 1.763900 
# 
# From -- ./inp_files/15610.got.cif
#   From: 2010.06.25/outbox.cif.g09.slc.cpg/sg58_8_cif.got.tgz:15610.got - 2010.06.26 21:38:00.
