data_PCOD8238390
_publ_section_title
;
Structure prediction by ZEFSAII (Michael W. Deem and Ramdas Pophale) SiO2 
 PCOD8238390
Probable space group: P N N M
;
_chemical_formula_sum "Si O2"
_cell_formula_units_Z 56
_cell_length_a 24.141905
_cell_length_b 13.615497
_cell_length_c 8.488129
_cell_angle_alpha 90.000000
_cell_angle_beta 90.000000
_cell_angle_gamma 90.000000
_cell_volume 2790.082253
_symmetry_space_group_name_H-M "P N N M"
_symmetry_group_IT_number 58
_symmetry_cell_setting 'orthorhombic'
loop_
_space_group_symop_operation_xyz
x,y,z
-x,-y,z
1/2+x,1/2-y,1/2-z
1/2-x,1/2+y,1/2-z
-x,-y,-z
x,y,-z
1/2-x,1/2+y,1/2+z
1/2+x,1/2-y,1/2+z
loop_
_atom_site_type_symbol
_atom_site_label
_atom_site_fract_x
_atom_site_fract_y
_atom_site_fract_z
Si Si1 0.878900 0.373320 0.317174
Si Si2 0.553570 0.054380 0.184376
Si Si3 0.057492 0.804356 0.183105
Si Si4 0.558744 0.273852 0.815045
Si Si5 0.659365 0.586615 0.813912
Si Si6 0.229095 0.733255 0.315714
Si Si7 0.335053 0.624930 0.685623
O O1 0.891002 0.349007 0.500000
O O2 0.892592 0.487108 0.279570
O O3 0.919079 0.303933 0.217126
O O4 0.815111 0.352751 0.274405
O O5 0.561943 0.162834 0.255513
O O6 0.500000 0.000000 0.258552
O O7 0.543104 0.068525 0.000000
O O8 0.100463 0.887966 0.236053
O O9 0.000764 0.820725 0.278513
O O10 0.044708 0.815971 0.000000
O O11 0.604408 0.337363 0.726245
O O12 0.571018 0.277898 0.000000
O O13 0.706178 0.663002 0.748622
O O14 0.677541 0.478239 0.768205
O O15 0.652618 0.598220 0.000000
O O16 0.236001 0.745198 0.500000
O O17 0.288747 0.701315 0.246622
O O18 0.328827 0.610074 0.500000
#
# Coordination Sequence:
#
# PCOD8238390 Si02
#       7
#     8   8   8   8   8   8   8
#     4   9  16  33  58  83 113 156 199 234 278 341
#     4   9  16  29  54  85 113 145 189 237 275 326
#     4  11  21  35  56  86 117 149 189 241 296 344
#     4  11  22  37  57  83 116 157 198 238 287 352
#     4  10  21  41  65  86 110 152 198 235 279 346
#     4   8  18  36  60  83 111 150 190 231 280 336
#     4  11  23  40  58  86 122 151 186 243 298 335
#
# _framework density 20.071093999999999
#
# number of rings (size 3 to 8) (size 9 to 14) (size 15 to 20)
#    0.000    2.143    1.429    3.429    0.000    1.714 
#    0.000   13.571    0.000    0.000    0.000    0.000 
#    0.000    0.000    0.000    0.000    0.000    0.000 
#
# Total GULP energy -694313.879858 kJ/mol
# GULP energy per Si atom -12398.462140 kJ/mol
# Density = 2.002541 g / cm^3
# Si number density = 20.071094 Si / 1000 Ang^3
#
#
#
# Elastic Constant Matrix: (Units=GPa)
#
#
# Indices 1 2 3 4 5 6 
#
# 1 114.2413 45.6202 1.2941 0.0000 0.0000 0.0000
# 2 45.6202 116.2059 11.4791 0.0000 0.0000 0.0000
# 3 1.2941 11.4791 38.6294 0.0000 0.0000 0.0000
# 4 0.0000 0.0000 0.0000 23.5983 0.0000 0.0000
# 5 0.0000 0.0000 0.0000 0.0000 21.9387 0.0000
# 6 0.0000 0.0000 0.0000 0.0000 0.0000 29.3817
#
#
#
# Elastic Compliance Matrix: (Units=1/GPa)
#
#
# Indices 1 2 3 4 5 6 
#
# 1 0.010411 -0.004175 0.000892 0.000000 0.000000 0.000000
# 2 -0.004175 0.010540 -0.002992 0.000000 0.000000 0.000000
# 3 0.000892 -0.002992 0.026746 0.000000 0.000000 0.000000
# 4 0.000000 0.000000 0.000000 0.042376 0.000000 0.000000
# 5 0.000000 0.000000 0.000000 0.000000 0.045582 0.000000
# 6 0.000000 0.000000 0.000000 0.000000 0.000000 0.034035
#
#
# Mechanical properties :
#
#
# Convention : Reuss Voigt Hill
#
# Bulk Modulus (GPa) = 28.45262 42.87370 35.66316
# Shear Modulus (GPa) = 25.77914 29.02929 27.40421
#
# Velocity S-wave (km/s) = 3.58773 3.80718 3.69908
# Velocity P-wave (km/s) = 5.60081 6.38228 6.00427
#
# Compressibility (1/GPa) = 0.03514615
#
# Stress axis : x y z
#
# Youngs Moduli (GPa) = 96.05646 94.87627 37.38832
#
# Poissons Ratio (x) = 0.39612 -0.03335
# Poissons Ratio (y) = 0.40104 0.11187
# Poissons Ratio (z) = -0.08567 0.28389
#
# Static dielectric constant tensor:
#      x y z
#    x 3.782470 0.000000 0.000000 
#    y 0.000000 3.742750 0.000000 
#    z 0.000000 0.000000 3.328050 
# 
# 
# High freq. dielectric constant tensor:
#      x y z
#    x 1.784220 0.000000 0.000000 
#    y 0.000000 1.782200 0.000000 
#    z 0.000000 0.000000 1.756200 
# 
# From -- ./inp_files/9012.got.cif
#   From: 2010.06.25/outbox.cif.g09.slc.cpg/sg58_5_cif.got.tgz:9012.got - 2010.06.26 21:38:00.
