data_PCOD8238373
_publ_section_title
;
Structure prediction by ZEFSAII (Michael W. Deem and Ramdas Pophale) SiO2 
 PCOD8238373
Probable space group: P N N M
;
_chemical_formula_sum "Si O2"
_cell_formula_units_Z 48
_cell_length_a 7.464046
_cell_length_b 10.557198
_cell_length_c 29.284503
_cell_angle_alpha 90.000000
_cell_angle_beta 90.000000
_cell_angle_gamma 90.000000
_cell_volume 2307.601603
_symmetry_space_group_name_H-M "P N N M"
_symmetry_group_IT_number 58
_symmetry_cell_setting 'orthorhombic'
loop_
_space_group_symop_operation_xyz
x,y,z
-x,-y,z
1/2+x,1/2-y,1/2-z
1/2-x,1/2+y,1/2-z
-x,-y,-z
x,y,-z
1/2-x,1/2+y,1/2+z
1/2+x,1/2-y,1/2+z
loop_
_atom_site_type_symbol
_atom_site_label
_atom_site_fract_x
_atom_site_fract_y
_atom_site_fract_z
Si Si1 0.867248 0.881136 0.782291
Si Si2 0.891993 0.779370 0.947368
Si Si3 0.751538 0.244260 0.889745
Si Si4 0.454560 0.355423 0.049749
Si Si5 0.902693 0.366016 0.200002
Si Si6 0.204510 0.031501 0.874229
O O1 0.742248 0.883956 0.738843
O O2 0.741895 0.892732 0.828096
O O3 0.964047 0.745565 0.785123
O O4 0.000000 0.000000 0.776731
O O5 0.759684 0.659073 0.942121
O O6 0.783433 0.891135 0.921430
O O7 0.082985 0.750121 0.925032
O O8 0.922827 0.818434 0.000000
O O9 0.569054 0.292654 0.910950
O O10 0.800936 0.327000 0.846121
O O11 0.691886 0.100953 0.877539
O O12 0.500000 0.500000 0.049580
O O13 0.501690 0.295508 0.000000
O O14 0.000000 0.500000 0.191627
O O15 0.000000 0.000000 0.864694
#
# Coordination Sequence:
#
# PCOD8238373 Si02
#       6
#     8   8   8   8   8   8
#     4  11  22  47  63  91 138 171 221 280 330 396
#     4  10  21  40  67  96 129 169 217 273 328 394
#     4  11  23  42  66  95 130 170 220 274 330 396
#     4  10  24  41  61  95 135 176 218 266 333 400
#     4  12  26  40  69 100 128 176 228 272 337 406
#     4   9  19  40  64  89 126 169 212 269 332 393
#
# _framework density 20.800816999999999
#
# number of rings (size 3 to 8) (size 9 to 14) (size 15 to 20)
#    0.000    1.500    5.000    1.500    2.333    6.333 
#    0.000    4.167    0.000    0.000    0.000    0.000 
#    0.000    0.000    0.000    0.000    0.000    0.000 
#
# Total GULP energy -594905.111895 kJ/mol
# GULP energy per Si atom -12393.856498 kJ/mol
# Density = 2.075347 g / cm^3
# Si number density = 20.800817 Si / 1000 Ang^3
#
#
#
# Elastic Constant Matrix: (Units=GPa)
#
#
# Indices 1 2 3 4 5 6 
#
# 1 41.7156 6.7163 33.0073 0.0000 0.0000 0.0000
# 2 6.7163 85.4689 30.1288 0.0000 0.0000 0.0000
# 3 33.0073 30.1288 169.6846 0.0000 0.0000 0.0000
# 4 0.0000 0.0000 0.0000 33.5276 0.0000 0.0000
# 5 0.0000 0.0000 0.0000 0.0000 125.0267 0.0000
# 6 0.0000 0.0000 0.0000 0.0000 0.0000 6.3847
#
#
#
# Elastic Compliance Matrix: (Units=1/GPa)
#
#
# Indices 1 2 3 4 5 6 
#
# 1 0.028340 -0.000303 -0.005459 0.000000 0.000000 0.000000
# 2 -0.000303 0.012485 -0.002158 0.000000 0.000000 0.000000
# 3 -0.005459 -0.002158 0.007338 0.000000 0.000000 0.000000
# 4 0.000000 0.000000 0.000000 0.029826 0.000000 0.000000
# 5 0.000000 0.000000 0.000000 0.000000 0.007998 0.000000
# 6 0.000000 0.000000 0.000000 0.000000 0.000000 0.156624
#
#
# Mechanical properties :
#
#
# Convention : Reuss Voigt Hill
#
# Bulk Modulus (GPa) = 30.93684 48.50819 39.72251
# Shear Modulus (GPa) = 18.57184 48.12227 33.34706
#
# Velocity S-wave (km/s) = 2.99129 4.81508 4.00829
# Velocity P-wave (km/s) = 5.18031 7.36779 6.36867
#
# Compressibility (1/GPa) = 0.03232392
#
# Stress axis : x y z
#
# Youngs Moduli (GPa) = 35.28585 80.09855 136.27092
#
# Poissons Ratio (x) = 0.02424 0.74390
# Poissons Ratio (y) = 0.01068 0.29405
# Poissons Ratio (z) = 0.19263 0.17284
#
# Static dielectric constant tensor:
#      x y z
#    x 3.570270 0.000000 0.000000 
#    y 0.000000 3.223810 0.000000 
#    z 0.000000 0.000000 4.393310 
# 
# 
# High freq. dielectric constant tensor:
#      x y z
#    x 1.801450 0.000000 0.000000 
#    y 0.000000 1.818470 0.000000 
#    z 0.000000 0.000000 1.836780 
# 
# From -- ./inp_files/34583.got.cif
#   From: 2010.06.25/outbox.cif.g09.slc.cpg/sg58_18_cif.got.tgz:34583.got - 2010.06.26 21:38:00.
