data_PCOD8238977
_publ_section_title
;
Structure prediction by ZEFSAII (Michael W. Deem and Ramdas Pophale) SiO2 
 PCOD8238977
Probable space group: P N N M
;
_chemical_formula_sum "Si O2"
_cell_formula_units_Z 48
_cell_length_a 19.360175
_cell_length_b 15.494513
_cell_length_c 9.776691
_cell_angle_alpha 90.000000
_cell_angle_beta 90.000000
_cell_angle_gamma 90.000000
_cell_volume 2932.777384
_symmetry_space_group_name_H-M "P N N M"
_symmetry_group_IT_number 58
_symmetry_cell_setting 'orthorhombic'
loop_
_space_group_symop_operation_xyz
x,y,z
-x,-y,z
1/2+x,1/2-y,1/2-z
1/2-x,1/2+y,1/2-z
-x,-y,-z
x,y,-z
1/2-x,1/2+y,1/2+z
1/2+x,1/2-y,1/2+z
loop_
_atom_site_type_symbol
_atom_site_label
_atom_site_fract_x
_atom_site_fract_y
_atom_site_fract_z
Si Si1 0.543054 0.763308 0.652026
Si Si2 0.792723 0.266835 0.847429
Si Si3 0.449564 0.427171 0.662786
Si Si4 0.795739 0.077585 0.837570
Si Si5 0.957838 0.416553 0.657947
Si Si6 0.203340 0.579217 0.341041
O O1 0.513244 0.781704 0.500000
O O2 0.625137 0.766195 0.646758
O O3 0.521295 0.667647 0.703590
O O4 0.514301 0.835144 0.755797
O O5 0.768654 0.172600 0.792342
O O6 0.766493 0.339656 0.742861
O O7 0.763360 0.285601 0.000000
O O8 0.500000 0.500000 0.725513
O O9 0.447110 0.433945 0.500000
O O10 0.372291 0.441604 0.722381
O O11 0.742242 0.005694 0.785447
O O12 0.800269 0.077739 0.000000
O O13 0.972140 0.395359 0.500000
O O14 0.877501 0.434851 0.685670
O O15 0.000000 0.500000 0.706288
O O16 0.219023 0.596377 0.500000
#
# Coordination Sequence:
#
# PCOD8238977 Si02
#       6
#     8   8   8   8   8   8
#     4   8  14  25  42  61  78 101 132 161 193 234
#     4   8  14  26  42  58  78 104 132 160 193 236
#     4   8  13  23  41  63  83 102 127 160 196 235
#     4   8  14  25  41  59  79 105 133 159 193 237
#     4   9  17  28  41  57  78 106 137 165 194 229
#     4   9  16  27  43  60  78 103 135 166 193 227
#
# _framework density 16.366738999999999
#
# number of rings (size 3 to 8) (size 9 to 14) (size 15 to 20)
#    0.000    3.667    0.000    2.000    0.000    0.333 
#    0.000    2.500    0.000    1.500    0.000    0.000 
#    0.000    0.000    0.000    0.000    0.000    0.000 
#
# Total GULP energy -594841.903378 kJ/mol
# GULP energy per Si atom -12392.539654 kJ/mol
# Density = 1.632949 g / cm^3
# Si number density = 16.366739 Si / 1000 Ang^3
#
#
#
# Elastic Constant Matrix: (Units=GPa)
#
#
# Indices 1 2 3 4 5 6 
#
# 1 41.8508 54.0668 23.0223 0.0000 0.0000 0.0000
# 2 54.0668 182.4992 63.1680 0.0000 0.0000 0.0000
# 3 23.0223 63.1680 49.0304 0.0000 0.0000 0.0000
# 4 0.0000 0.0000 0.0000 26.7463 0.0000 0.0000
# 5 0.0000 0.0000 0.0000 0.0000 9.9770 0.0000
# 6 0.0000 0.0000 0.0000 0.0000 0.0000 29.8621
#
#
#
# Elastic Compliance Matrix: (Units=1/GPa)
#
#
# Indices 1 2 3 4 5 6 
#
# 1 0.039762 -0.009597 -0.006306 0.000000 0.000000 0.000000
# 2 -0.009597 0.012206 -0.011219 0.000000 0.000000 0.000000
# 3 -0.006306 -0.011219 0.037810 0.000000 0.000000 0.000000
# 4 0.000000 0.000000 0.000000 0.037388 0.000000 0.000000
# 5 0.000000 0.000000 0.000000 0.000000 0.100230 0.000000
# 6 0.000000 0.000000 0.000000 0.000000 0.000000 0.033487
#
#
# Mechanical properties :
#
#
# Convention : Reuss Voigt Hill
#
# Bulk Modulus (GPa) = 28.14201 61.54384 44.84293
# Shear Modulus (GPa) = 15.29180 22.19198 18.74189
#
# Velocity S-wave (km/s) = 3.05998 3.68628 3.38763
# Velocity P-wave (km/s) = 5.45130 7.47013 6.53909
#
# Compressibility (1/GPa) = 0.03553406
#
# Stress axis : x y z
#
# Youngs Moduli (GPa) = 25.14983 81.92746 26.44775
#
# Poissons Ratio (x) = 0.78627 0.16677
# Poissons Ratio (y) = 0.24137 0.29672
# Poissons Ratio (z) = 0.15859 0.91915
#
# Static dielectric constant tensor:
#      x y z
#    x 2.909090 0.000000 0.000000 
#    y 0.000000 3.570620 0.000000 
#    z 0.000000 0.000000 2.925330 
# 
# 
# High freq. dielectric constant tensor:
#      x y z
#    x 1.593390 0.000000 0.000000 
#    y 0.000000 1.644080 0.000000 
#    z 0.000000 0.000000 1.594050 
# 
# From -- ./inp_files/6038.got.cif
#   From: 2010.06.25/outbox.cif.g09.slc.cpg/sg58_4_cif.got.tgz:6038.got - 2010.06.26 21:38:00.
