data_PCOD8238719
_publ_section_title
;
Structure prediction by ZEFSAII (Michael W. Deem and Ramdas Pophale) SiO2 
 PCOD8238719
Probable space group: P N N M
;
_chemical_formula_sum "Si O2"
_cell_formula_units_Z 48
_cell_length_a 8.671165
_cell_length_b 18.295085
_cell_length_c 14.692796
_cell_angle_alpha 90.000000
_cell_angle_beta 90.000000
_cell_angle_gamma 90.000000
_cell_volume 2330.860760
_symmetry_space_group_name_H-M "P N N M"
_symmetry_group_IT_number 58
_symmetry_cell_setting 'orthorhombic'
loop_
_space_group_symop_operation_xyz
x,y,z
-x,-y,z
1/2+x,1/2-y,1/2-z
1/2-x,1/2+y,1/2-z
-x,-y,-z
x,y,-z
1/2-x,1/2+y,1/2+z
1/2+x,1/2-y,1/2+z
loop_
_atom_site_type_symbol
_atom_site_label
_atom_site_fract_x
_atom_site_fract_y
_atom_site_fract_z
Si Si1 0.150728 0.459588 0.328158
Si Si2 0.725256 0.330166 0.500000
Si Si3 0.599858 0.426265 0.000000
Si Si4 0.181061 0.003618 0.000000
Si Si5 0.059742 0.186072 0.813227
Si Si6 0.460073 0.738153 0.000000
Si Si7 0.806039 0.702017 0.321388
Si Si8 0.152037 0.047267 0.695895
O O1 0.273770 0.460293 0.409453
O O2 0.110063 0.375736 0.310211
O O3 0.211125 0.498390 0.236576
O O4 0.000000 0.500000 0.363693
O O5 0.759514 0.416652 0.500000
O O6 0.621740 0.310746 0.585489
O O7 0.882550 0.284063 0.500000
O O8 0.500000 0.500000 0.000000
O O9 0.503162 0.349379 0.000000
O O10 0.700631 0.426457 0.093635
O O11 0.000000 0.000000 0.000000
O O12 0.134221 0.254841 0.764909
O O13 0.117472 0.113493 0.763315
O O14 0.876443 0.191630 0.814733
O O15 0.356888 0.757685 0.086922
O O16 0.000000 0.000000 0.686867
#
# Coordination Sequence:
#
# PCOD8238719 Si02
#       8
#     8   4   4   4   8   4   8   8
#     4  12  25  41  67 101 137 176 226 285 343 403
#     4  12  25  41  70 102 136 181 218 285 345 419
#     4  10  24  42  75  96 125 176 243 282 329 407
#     4  12  22  41  69  97 138 180 223 270 335 418
#     4  12  25  43  67  97 139 177 232 275 348 413
#     4  12  24  44  68 102 144 179 230 287 357 408
#     4  12  26  43  67  99 138 184 226 285 343 416
#     4  11  22  46  70  95 128 180 230 279 341 411
#
# _framework density 20.593250000000001
#
# number of rings (size 3 to 8) (size 9 to 14) (size 15 to 20)
#    0.000    0.333    5.000    4.750    2.333    0.000 
#    0.000    0.417    0.000    0.000    0.000    0.000 
#    0.000    0.000    0.000    0.000    0.000    0.000 
#
# Total GULP energy -595268.281825 kJ/mol
# GULP energy per Si atom -12401.422538 kJ/mol
# Density = 2.054638 g / cm^3
# Si number density = 20.593250 Si / 1000 Ang^3
#
#
#
# Elastic Constant Matrix: (Units=GPa)
#
#
# Indices 1 2 3 4 5 6 
#
# 1 54.0165 19.3326 24.9482 0.0000 0.0000 0.0000
# 2 19.3326 159.6240 47.8920 0.0000 0.0000 0.0000
# 3 24.9482 47.8920 170.6989 0.0000 0.0000 0.0000
# 4 0.0000 0.0000 0.0000 33.8866 0.0000 0.0000
# 5 0.0000 0.0000 0.0000 0.0000 25.6538 0.0000
# 6 0.0000 0.0000 0.0000 0.0000 0.0000 -22.7038
#
#
#
# Elastic Compliance Matrix: (Units=1/GPa)
#
#
# Indices 1 2 3 4 5 6 
#
# 1 0.020272 -0.001710 -0.002483 0.000000 0.000000 0.000000
# 2 -0.001710 0.006985 -0.001710 0.000000 0.000000 0.000000
# 3 -0.002483 -0.001710 0.006701 0.000000 0.000000 0.000000
# 4 0.000000 0.000000 0.000000 0.029510 0.000000 0.000000
# 5 0.000000 0.000000 0.000000 0.000000 0.038981 0.000000
# 6 0.000000 0.000000 0.000000 0.000000 0.000000 -0.044045
#
#
# Mechanical properties :
#
#
# Convention : Reuss Voigt Hill
#
# Bulk Modulus (GPa) = 45.14348 63.18722 54.16535
# Shear Modulus (GPa) = 64.43934 26.84510 45.64222
#
# Velocity S-wave (km/s) = 5.59995 3.61444 4.71294
# Velocity P-wave (km/s) = 7.98634 6.94039 7.48166
#
# Compressibility (1/GPa) = 0.02215159
#
# Stress axis : x y z
#
# Youngs Moduli (GPa) = 49.32978 143.16753 149.23483
#
# Poissons Ratio (x) = 0.24485 0.37054
# Poissons Ratio (y) = 0.08436 0.25515
# Poissons Ratio (z) = 0.12248 0.24478
#
# Static dielectric constant tensor:
#      x y z
#    x 3.557170 0.000000 0.000000 
#    y 0.000000 4.105730 0.000000 
#    z 0.000000 0.000000 4.308830 
# 
# 
# High freq. dielectric constant tensor:
#      x y z
#    x 1.790650 0.000000 0.000000 
#    y 0.000000 1.826040 0.000000 
#    z 0.000000 0.000000 1.826990 
# 
# From -- ./inp_files/19907.got.cif
#   From: 2010.06.25/outbox.cif.g09.slc.cpg/sg58_10_cif.got.tgz:19907.got - 2010.06.26 21:38:00.
