data_PCOD8238994
_publ_section_title
;
Structure prediction by ZEFSAII (Michael W. Deem and Ramdas Pophale) SiO2 
 PCOD8238994
Probable space group: P N N M
;
_chemical_formula_sum "Si O2"
_cell_formula_units_Z 56
_cell_length_a 16.620157
_cell_length_b 20.077139
_cell_length_c 9.595053
_cell_angle_alpha 90.000000
_cell_angle_beta 90.000000
_cell_angle_gamma 90.000000
_cell_volume 3201.727201
_symmetry_space_group_name_H-M "P N N M"
_symmetry_group_IT_number 58
_symmetry_cell_setting 'orthorhombic'
loop_
_space_group_symop_operation_xyz
x,y,z
-x,-y,z
1/2+x,1/2-y,1/2-z
1/2-x,1/2+y,1/2-z
-x,-y,-z
x,y,-z
1/2-x,1/2+y,1/2+z
1/2+x,1/2-y,1/2+z
loop_
_atom_site_type_symbol
_atom_site_label
_atom_site_fract_x
_atom_site_fract_y
_atom_site_fract_z
Si Si1 0.695001 0.129545 0.663108
Si Si2 0.243291 0.251143 0.340928
Si Si3 0.934601 0.800817 0.658979
Si Si4 0.931174 0.950911 0.665809
Si Si5 0.978855 0.680334 0.837992
Si Si6 0.648691 0.866939 0.335784
Si Si7 0.745576 0.486613 0.833856
O O1 0.712047 0.138787 0.500000
O O2 0.746873 0.183957 0.744829
O O3 0.600643 0.138263 0.698144
O O4 0.722815 0.057875 0.718296
O O5 0.259170 0.273179 0.500000
O O6 0.159941 0.211911 0.328038
O O7 0.311252 0.201459 0.282522
O O8 0.963709 0.791949 0.500000
O O9 0.951402 0.875648 0.713382
O O10 0.983609 0.749245 0.753630
O O11 0.928574 0.953888 0.500000
O O12 0.844244 0.973721 0.724392
O O13 0.000000 0.000000 0.725353
O O14 0.054457 0.633940 0.795525
O O15 0.982220 0.699673 0.000000
O O16 0.661510 0.870250 0.500000
O O17 0.693275 0.931274 0.270916
O O18 0.745912 0.484207 0.000000
#
# Coordination Sequence:
#
# PCOD8238994 Si02
#       7
#     8   8   8   8   8   8   8
#     4   9  18  30  46  70  98 121 145 191 244 275
#     4   9  16  29  49  66  85 122 163 191 219 271
#     4   9  16  29  48  67  88 118 155 189 227 272
#     4   9  16  26  43  68  94 118 149 193 237 272
#     4   9  18  30  45  69  95 120 151 189 232 271
#     4   9  16  28  47  67  89 122 162 192 220 272
#     4   9  16  28  45  66  92 122 156 191 229 275
#
# _framework density 17.490559000000001
#
# number of rings (size 3 to 8) (size 9 to 14) (size 15 to 20)
#    0.000    3.000    1.429    0.000    0.000    1.714 
#    0.000    5.000    0.000    3.000    0.000    4.000 
#    0.000    0.000    0.000    0.000    0.000    0.000 
#
# Total GULP energy -694256.807199 kJ/mol
# GULP energy per Si atom -12397.442986 kJ/mol
# Density = 1.745075 g / cm^3
# Si number density = 17.490559 Si / 1000 Ang^3
#
#
#
# Elastic Constant Matrix: (Units=GPa)
#
#
# Indices 1 2 3 4 5 6 
#
# 1 85.6272 71.2500 19.0306 0.0000 0.0000 0.0000
# 2 71.2500 159.1682 34.9533 0.0000 0.0000 0.0000
# 3 19.0306 34.9533 27.7783 0.0000 0.0000 0.0000
# 4 0.0000 0.0000 0.0000 23.8053 0.0000 0.0000
# 5 0.0000 0.0000 0.0000 0.0000 12.7154 0.0000
# 6 0.0000 0.0000 0.0000 0.0000 0.0000 28.1144
#
#
#
# Elastic Compliance Matrix: (Units=1/GPa)
#
#
# Indices 1 2 3 4 5 6 
#
# 1 0.018810 -0.007725 -0.003166 0.000000 0.000000 0.000000
# 2 -0.007725 0.011854 -0.009624 0.000000 0.000000 0.000000
# 3 -0.003166 -0.009624 0.050278 0.000000 0.000000 0.000000
# 4 0.000000 0.000000 0.000000 0.042007 0.000000 0.000000
# 5 0.000000 0.000000 0.000000 0.000000 0.078645 0.000000
# 6 0.000000 0.000000 0.000000 0.000000 0.000000 0.035569
#
#
# Mechanical properties :
#
#
# Convention : Reuss Voigt Hill
#
# Bulk Modulus (GPa) = 25.05499 58.11571 41.58535
# Shear Modulus (GPa) = 17.15285 22.74968 19.95126
#
# Velocity S-wave (km/s) = 3.13500 3.61041 3.38107
# Velocity P-wave (km/s) = 5.24025 7.11893 6.25057
#
# Compressibility (1/GPa) = 0.03991220
#
# Stress axis : x y z
#
# Youngs Moduli (GPa) = 53.16326 84.36043 19.88944
#
# Poissons Ratio (x) = 0.65166 0.06298
# Poissons Ratio (y) = 0.41067 0.19141
# Poissons Ratio (z) = 0.16834 0.81185
#
# Static dielectric constant tensor:
#      x y z
#    x 3.339250 0.000000 0.000000 
#    y 0.000000 3.400730 0.000000 
#    z 0.000000 0.000000 2.836470 
# 
# 
# High freq. dielectric constant tensor:
#      x y z
#    x 1.678250 0.000000 0.000000 
#    y 0.000000 1.682380 0.000000 
#    z 0.000000 0.000000 1.621210 
# 
# From -- ./inp_files/8183.got.cif
#   From: 2010.06.25/outbox.cif.g09.slc.cpg/sg58_5_cif.got.tgz:8183.got - 2010.06.26 21:38:00.
