data_PCOD8238997
_publ_section_title
;
Structure prediction by ZEFSAII (Michael W. Deem and Ramdas Pophale) SiO2 
 PCOD8238997
Probable space group: P N N M
;
_chemical_formula_sum "Si O2"
_cell_formula_units_Z 48
_cell_length_a 13.969600
_cell_length_b 10.928704
_cell_length_c 13.357674
_cell_angle_alpha 90.000000
_cell_angle_beta 90.000000
_cell_angle_gamma 90.000000
_cell_volume 2039.311059
_symmetry_space_group_name_H-M "P N N M"
_symmetry_group_IT_number 58
_symmetry_cell_setting 'orthorhombic'
loop_
_space_group_symop_operation_xyz
x,y,z
-x,-y,z
1/2+x,1/2-y,1/2-z
1/2-x,1/2+y,1/2-z
-x,-y,-z
x,y,-z
1/2-x,1/2+y,1/2+z
1/2+x,1/2-y,1/2+z
loop_
_atom_site_type_symbol
_atom_site_label
_atom_site_fract_x
_atom_site_fract_y
_atom_site_fract_z
Si Si1 0.092358 0.923549 0.383436
Si Si2 0.407642 0.576451 0.383436
Si Si3 0.206604 0.547675 0.114452
Si Si4 0.293396 0.952325 0.885548
Si Si5 0.344767 0.190604 0.800286
Si Si6 0.155233 0.309396 0.800286
O O1 0.095545 0.890062 0.500000
O O2 0.186129 0.004486 0.354592
O O3 0.077941 0.796769 0.320567
O O4 0.000000 0.000000 0.353642
O O5 0.500000 0.500000 0.353642
O O6 0.404455 0.609938 0.500000
O O7 0.313871 0.495514 0.354592
O O8 0.422059 0.703231 0.320567
O O9 0.172295 0.661738 0.182300
O O10 0.134448 0.434461 0.138518
O O11 0.198784 0.589821 0.000000
O O12 0.327705 0.838262 0.817701
O O13 0.365552 0.065539 0.861482
O O14 0.301216 0.910179 0.000000
O O15 0.250000 0.250000 0.848764
#
# Coordination Sequence:
#
# PCOD8238997 Si02
#       6
#     8   8   8   8   8   8
#     4   9  17  31  54  85 119 153 196 255 307 346
#     4   9  17  31  54  85 119 153 196 255 307 346
#     4   9  17  30  50  78 114 160 208 245 290 357
#     4   9  17  30  50  78 114 160 208 245 290 357
#     4   9  17  30  48  78 116 156 201 243 293 350
#     4   9  17  30  48  78 116 156 201 243 293 350
#
# _framework density 23.53736
#
# number of rings (size 3 to 8) (size 9 to 14) (size 15 to 20)
#    0.000    3.000    0.000    1.000    0.000    4.667 
#    0.000   13.333    0.000    1.000    0.000   39.667 
#    0.000   98.667    0.000    0.000    0.000   11.667 
#
# Total GULP energy -594764.088233 kJ/mol
# GULP energy per Si atom -12390.918505 kJ/mol
# Density = 2.348379 g / cm^3
# Si number density = 23.537360 Si / 1000 Ang^3
#
#
#
# Elastic Constant Matrix: (Units=GPa)
#
#
# Indices 1 2 3 4 5 6 
#
# 1 68.8929 65.6399 42.9488 0.0000 0.0000 0.0000
# 2 65.6399 160.2374 77.1268 0.0000 0.0000 0.0000
# 3 42.9488 77.1268 150.6391 0.0000 0.0000 0.0000
# 4 0.0000 0.0000 0.0000 44.6921 0.0000 0.0000
# 5 0.0000 0.0000 0.0000 0.0000 15.3048 0.0000
# 6 0.0000 0.0000 0.0000 0.0000 0.0000 33.8880
#
#
#
# Elastic Compliance Matrix: (Units=1/GPa)
#
#
# Indices 1 2 3 4 5 6 
#
# 1 0.024469 -0.008845 -0.002448 0.000000 0.000000 0.000000
# 2 -0.008845 0.011479 -0.003355 0.000000 0.000000 0.000000
# 3 -0.002448 -0.003355 0.009054 0.000000 0.000000 0.000000
# 4 0.000000 0.000000 0.000000 0.022375 0.000000 0.000000
# 5 0.000000 0.000000 0.000000 0.000000 0.065339 0.000000
# 6 0.000000 0.000000 0.000000 0.000000 0.000000 0.029509
#
#
# Mechanical properties :
#
#
# Convention : Reuss Voigt Hill
#
# Bulk Modulus (GPa) = 63.67166 83.46671 73.56918
# Shear Modulus (GPa) = 25.41201 31.71390 28.56295
#
# Velocity S-wave (km/s) = 3.28936 3.67466 3.48733
# Velocity P-wave (km/s) = 6.44489 7.31727 6.89489
#
# Compressibility (1/GPa) = 0.01570558
#
# Stress axis : x y z
#
# Youngs Moduli (GPa) = 40.86834 87.11383 110.44649
#
# Poissons Ratio (x) = 0.77056 0.27032
# Poissons Ratio (y) = 0.36150 0.37059
# Poissons Ratio (z) = 0.10003 0.29230
#
# Static dielectric constant tensor:
#      x y z
#    x 3.846260 0.000000 0.000000 
#    y 0.000000 4.475510 0.000000 
#    z 0.000000 0.000000 4.118800 
# 
# 
# High freq. dielectric constant tensor:
#      x y z
#    x 1.880160 0.000000 0.000000 
#    y 0.000000 1.940870 0.000000 
#    z 0.000000 0.000000 1.939320 
# 
# From -- ./inp_files/22105.got.cif
#   From: 2010.06.25/outbox.cif.g09.slc.cpg/sg58_12_cif.got.tgz:22105.got - 2010.06.26 21:38:00.
