data_PCOD8238142
_publ_section_title
;
Structure prediction by ZEFSAII (Michael W. Deem and Ramdas Pophale) SiO2 
 PCOD8238142
Probable space group: P N N M
;
_chemical_formula_sum "Si O2"
_cell_formula_units_Z 48
_cell_length_a 20.182450
_cell_length_b 14.892879
_cell_length_c 8.466587
_cell_angle_alpha 90.000000
_cell_angle_beta 90.000000
_cell_angle_gamma 90.000000
_cell_volume 2544.842574
_symmetry_space_group_name_H-M "P N N M"
_symmetry_group_IT_number 58
_symmetry_cell_setting 'orthorhombic'
loop_
_space_group_symop_operation_xyz
x,y,z
-x,-y,z
1/2+x,1/2-y,1/2-z
1/2-x,1/2+y,1/2-z
-x,-y,-z
x,y,-z
1/2-x,1/2+y,1/2+z
1/2+x,1/2-y,1/2+z
loop_
_atom_site_type_symbol
_atom_site_label
_atom_site_fract_x
_atom_site_fract_y
_atom_site_fract_z
Si Si1 0.456470 0.579351 0.313438
Si Si2 0.167121 0.301560 0.683871
Si Si3 0.973904 0.723663 0.814664
Si Si4 0.804531 0.511996 0.185453
Si Si5 0.691412 0.388640 0.685308
Si Si6 0.057931 0.562054 0.813986
O O1 0.500000 0.500000 0.234290
O O2 0.457998 0.569042 0.500000
O O3 0.488756 0.674326 0.262341
O O4 0.380508 0.576354 0.256478
O O5 0.176423 0.283469 0.500000
O O6 0.089984 0.315455 0.725525
O O7 0.206359 0.391736 0.732074
O O8 0.198372 0.216847 0.775860
O O9 0.038813 0.665085 0.772434
O O10 0.956573 0.718427 0.000000
O O11 0.743945 0.446619 0.219716
O O12 0.870702 0.464251 0.256539
O O13 0.810707 0.528163 0.000000
O O14 0.701833 0.403003 0.500000
O O15 0.000000 0.500000 0.741383
O O16 0.061000 0.547361 0.000000
#
# Coordination Sequence:
#
# PCOD8238142 Si02
#       6
#     8   8   8   8   8   8
#     4   8  15  30  54  80 103 135 180 225 267 320
#     4  11  21  35  56  80 106 144 189 227 279 336
#     4   9  16  31  54  77 105 140 180 224 273 327
#     4  11  21  36  57  81 113 148 186 231 279 334
#     4  10  21  38  57  80 112 146 185 232 281 334
#     4   9  16  29  52  80 106 141 184 220 265 330
#
# _framework density 18.861678000000001
#
# number of rings (size 3 to 8) (size 9 to 14) (size 15 to 20)
#    0.000    2.333    1.667    3.500    0.000    0.000 
#    3.000    2.500    0.000   12.500    0.000    0.000 
#    0.000    0.000    0.000    0.000    0.000    0.000 
#
# Total GULP energy -595078.224136 kJ/mol
# GULP energy per Si atom -12397.463003 kJ/mol
# Density = 1.881875 g / cm^3
# Si number density = 18.861678 Si / 1000 Ang^3
#
#
#
# Elastic Constant Matrix: (Units=GPa)
#
#
# Indices 1 2 3 4 5 6 
#
# 1 99.1631 73.2900 5.6246 0.0000 0.0000 0.0000
# 2 73.2900 137.3531 6.1850 0.0000 0.0000 0.0000
# 3 5.6246 6.1850 37.6031 0.0000 0.0000 0.0000
# 4 0.0000 0.0000 0.0000 22.6917 0.0000 0.0000
# 5 0.0000 0.0000 0.0000 0.0000 20.7449 0.0000
# 6 0.0000 0.0000 0.0000 0.0000 0.0000 32.2064
#
#
#
# Elastic Compliance Matrix: (Units=1/GPa)
#
#
# Indices 1 2 3 4 5 6 
#
# 1 0.016691 -0.008859 -0.001039 0.000000 0.000000 0.000000
# 2 -0.008859 0.012037 -0.000655 0.000000 0.000000 0.000000
# 3 -0.001039 -0.000655 0.026857 0.000000 0.000000 0.000000
# 4 0.000000 0.000000 0.000000 0.044069 0.000000 0.000000
# 5 0.000000 0.000000 0.000000 0.000000 0.048205 0.000000
# 6 0.000000 0.000000 0.000000 0.000000 0.000000 0.031050
#
#
# Mechanical properties :
#
#
# Convention : Reuss Voigt Hill
#
# Bulk Modulus (GPa) = 29.00395 49.36871 39.18633
# Shear Modulus (GPa) = 23.63971 27.72991 25.68481
#
# Velocity S-wave (km/s) = 3.54407 3.83844 3.69419
# Velocity P-wave (km/s) = 5.67078 6.77316 6.24634
#
# Compressibility (1/GPa) = 0.03447806
#
# Stress axis : x y z
#
# Youngs Moduli (GPa) = 59.91165 83.07520 37.23460
#
# Poissons Ratio (x) = 0.73600 0.03870
# Poissons Ratio (y) = 0.53078 0.02438
# Poissons Ratio (z) = 0.06227 0.05439
#
# Static dielectric constant tensor:
#      x y z
#    x 3.440660 0.000000 0.000000 
#    y 0.000000 3.768170 0.000000 
#    z 0.000000 0.000000 3.133820 
# 
# 
# High freq. dielectric constant tensor:
#      x y z
#    x 1.714850 0.000000 0.000000 
#    y 0.000000 1.746100 0.000000 
#    z 0.000000 0.000000 1.703920 
# 
# From -- ./inp_files/7719.got.cif
#   From: 2010.06.25/outbox.cif.g09.slc.cpg/sg58_4_cif.got.tgz:7719.got - 2010.06.26 21:38:00.
