data_PCOD8238897
_publ_section_title
;
Structure prediction by ZEFSAII (Michael W. Deem and Ramdas Pophale) SiO2 
 PCOD8238897
Probable space group: P N N M
;
_chemical_formula_sum "Si O2"
_cell_formula_units_Z 32
_cell_length_a 18.223252
_cell_length_b 9.788316
_cell_length_c 8.512310
_cell_angle_alpha 90.000000
_cell_angle_beta 90.000000
_cell_angle_gamma 90.000000
_cell_volume 1518.382863
_symmetry_space_group_name_H-M "P N N M"
_symmetry_group_IT_number 58
_symmetry_cell_setting 'orthorhombic'
loop_
_space_group_symop_operation_xyz
x,y,z
-x,-y,z
1/2+x,1/2-y,1/2-z
1/2-x,1/2+y,1/2-z
-x,-y,-z
x,y,-z
1/2-x,1/2+y,1/2+z
1/2+x,1/2-y,1/2+z
loop_
_atom_site_type_symbol
_atom_site_label
_atom_site_fract_x
_atom_site_fract_y
_atom_site_fract_z
Si Si1 0.791041 0.479426 0.682279
Si Si2 0.671694 0.699499 0.682644
Si Si3 0.514868 0.653835 0.817239
Si Si4 0.065482 0.399400 0.181963
O O1 0.787304 0.441687 0.500000
O O2 0.722425 0.572928 0.732183
O O3 0.786218 0.340771 0.782093
O O4 0.864754 0.563406 0.714431
O O5 0.650873 0.694748 0.500000
O O6 0.598195 0.695836 0.784033
O O7 0.500000 0.500000 0.762448
O O8 0.458643 0.745338 0.718139
O O9 0.498308 0.674903 0.000000
O O10 0.000000 0.500000 0.230202
O O11 0.086295 0.415059 0.000000
#
# Coordination Sequence:
#
# PCOD8238897 Si02
#       4
#     8   8   8   8
#     4  11  25  43  66  95 128 169 213 262 319 379
#     4  11  25  44  65  95 129 167 214 261 316 380
#     4  11  25  43  66  96 129 168 213 264 319 376
#     4  11  23  41  67  96 125 166 212 261 316 374
#
# _framework density 21.075054999999999
#
# number of rings (size 3 to 8) (size 9 to 14) (size 15 to 20)
#    0.000    1.000    2.500    3.000    3.500    7.000 
#    0.000    0.000    0.000    0.000    0.000    0.000 
#    0.000    0.000    0.000    0.000    0.000    0.000 
#
# Total GULP energy -397077.680639 kJ/mol
# GULP energy per Si atom -12408.677520 kJ/mol
# Density = 2.102709 g / cm^3
# Si number density = 21.075055 Si / 1000 Ang^3
#
#
#
# Elastic Constant Matrix: (Units=GPa)
#
#
# Indices 1 2 3 4 5 6 
#
# 1 45.9803 11.2464 10.7557 0.0000 0.0000 0.0000
# 2 11.2464 125.2856 14.7463 0.0000 0.0000 0.0000
# 3 10.7557 14.7463 35.1315 0.0000 0.0000 0.0000
# 4 0.0000 0.0000 0.0000 36.0507 0.0000 0.0000
# 5 0.0000 0.0000 0.0000 0.0000 20.2191 0.0000
# 6 0.0000 0.0000 0.0000 0.0000 0.0000 40.2597
#
#
#
# Elastic Compliance Matrix: (Units=1/GPa)
#
#
# Indices 1 2 3 4 5 6 
#
# 1 0.023637 -0.001336 -0.006676 0.000000 0.000000 0.000000
# 2 -0.001336 0.008472 -0.003147 0.000000 0.000000 0.000000
# 3 -0.006676 -0.003147 0.031829 0.000000 0.000000 0.000000
# 4 0.000000 0.000000 0.000000 0.027739 0.000000 0.000000
# 5 0.000000 0.000000 0.000000 0.000000 0.049458 0.000000
# 6 0.000000 0.000000 0.000000 0.000000 0.000000 0.024839
#
#
# Mechanical properties :
#
#
# Convention : Reuss Voigt Hill
#
# Bulk Modulus (GPa) = 24.02663 31.09934 27.56299
# Shear Modulus (GPa) = 24.73226 30.61582 27.67404
#
# Velocity S-wave (km/s) = 3.42940 3.81557 3.62763
# Velocity P-wave (km/s) = 5.20637 5.84807 5.53653
#
# Compressibility (1/GPa) = 0.04162049
#
# Stress axis : x y z
#
# Youngs Moduli (GPa) = 42.30685 118.03425 31.41760
#
# Poissons Ratio (x) = 0.15770 0.20974
# Poissons Ratio (y) = 0.05652 0.09887
# Poissons Ratio (z) = 0.28243 0.37147
#
# Static dielectric constant tensor:
#      x y z
#    x 3.766500 0.000000 0.000000 
#    y 0.000000 4.022930 0.000000 
#    z 0.000000 0.000000 3.712550 
# 
# 
# High freq. dielectric constant tensor:
#      x y z
#    x 1.826290 0.000000 0.000000 
#    y 0.000000 1.842360 0.000000 
#    z 0.000000 0.000000 1.831140 
# 
# From -- ./inp_files/2136.got.cif
#   From: 2010.06.25/outbox.cif.g09.slc.cpg/sg58_2_cif.got.tgz:2136.got - 2010.06.26 21:38:00.
