data_PCOD8238364
_publ_section_title
;
Structure prediction by ZEFSAII (Michael W. Deem and Ramdas Pophale) SiO2 
 PCOD8238364
Probable space group: P N N M
;
_chemical_formula_sum "Si O2"
_cell_formula_units_Z 48
_cell_length_a 26.015015
_cell_length_b 8.853084
_cell_length_c 9.796736
_cell_angle_alpha 90.000000
_cell_angle_beta 90.000000
_cell_angle_gamma 90.000000
_cell_volume 2256.316766
_symmetry_space_group_name_H-M "P N N M"
_symmetry_group_IT_number 58
_symmetry_cell_setting 'orthorhombic'
loop_
_space_group_symop_operation_xyz
x,y,z
-x,-y,z
1/2+x,1/2-y,1/2-z
1/2-x,1/2+y,1/2-z
-x,-y,-z
x,y,-z
1/2-x,1/2+y,1/2+z
1/2+x,1/2-y,1/2+z
loop_
_atom_site_type_symbol
_atom_site_label
_atom_site_fract_x
_atom_site_fract_y
_atom_site_fract_z
Si Si1 0.944267 0.172420 0.650415
Si Si2 0.218193 0.457130 0.157825
Si Si3 0.625668 0.945213 0.845658
Si Si4 0.533296 0.134968 0.250248
Si Si5 0.299817 0.607509 0.344639
Si Si6 0.082767 0.080722 0.849529
O O1 0.938091 0.103306 0.500000
O O2 0.895488 0.277765 0.686252
O O3 0.995694 0.272899 0.650646
O O4 0.948149 0.032606 0.752916
O O5 0.168759 0.524330 0.233585
O O6 0.269178 0.509110 0.235515
O O7 0.219093 0.278055 0.164745
O O8 0.217953 0.512690 0.000000
O O9 0.579779 0.066194 0.837119
O O10 0.648298 0.953511 0.000000
O O11 0.556563 0.253760 0.357743
O O12 0.500000 0.000000 0.322605
O O13 0.292017 0.547736 0.500000
O O14 0.358939 0.598356 0.299246
O O15 0.080602 0.010282 0.000000
#
# Coordination Sequence:
#
# PCOD8238364 Si02
#       6
#     8   8   8   8   8   8
#     4  10  23  40  62  94 130 169 213 260 307 370
#     4  11  24  43  67  95 126 163 210 261 317 376
#     4  10  21  40  66  94 127 166 211 260 315 371
#     4  10  21  40  66  95 126 166 214 262 313 371
#     4  10  24  45  65  91 129 165 207 260 313 377
#     4  11  24  43  63  92 131 168 208 261 319 374
#
# _framework density 21.273609
#
# number of rings (size 3 to 8) (size 9 to 14) (size 15 to 20)
#    0.000    1.667    1.667    1.500    2.333    8.333 
#    0.000    3.333    0.000    0.000    0.000    0.000 
#    0.000    0.000    0.000    0.000    0.000    0.000 
#
# Total GULP energy -595121.973399 kJ/mol
# GULP energy per Si atom -12398.374446 kJ/mol
# Density = 2.122519 g / cm^3
# Si number density = 21.273609 Si / 1000 Ang^3
#
#
#
# Elastic Constant Matrix: (Units=GPa)
#
#
# Indices 1 2 3 4 5 6 
#
# 1 107.4740 40.0346 50.0817 0.0000 0.0000 0.0000
# 2 40.0346 103.2249 49.8156 0.0000 0.0000 0.0000
# 3 50.0817 49.8156 125.1119 0.0000 0.0000 0.0000
# 4 0.0000 0.0000 0.0000 28.7738 0.0000 0.0000
# 5 0.0000 0.0000 0.0000 0.0000 18.9935 0.0000
# 6 0.0000 0.0000 0.0000 0.0000 0.0000 37.3380
#
#
#
# Elastic Compliance Matrix: (Units=1/GPa)
#
#
# Indices 1 2 3 4 5 6 
#
# 1 0.012109 -0.002918 -0.003685 0.000000 0.000000 0.000000
# 2 -0.002918 0.012695 -0.003887 0.000000 0.000000 0.000000
# 3 -0.003685 -0.003887 0.011016 0.000000 0.000000 0.000000
# 4 0.000000 0.000000 0.000000 0.034754 0.000000 0.000000
# 5 0.000000 0.000000 0.000000 0.000000 0.052650 0.000000
# 6 0.000000 0.000000 0.000000 0.000000 0.000000 0.026782
#
#
# Mechanical properties :
#
#
# Convention : Reuss Voigt Hill
#
# Bulk Modulus (GPa) = 67.38690 68.40831 67.89760
# Shear Modulus (GPa) = 28.42017 30.07964 29.24991
#
# Velocity S-wave (km/s) = 3.65901 3.76432 3.71204
# Velocity P-wave (km/s) = 7.04246 7.14981 7.09633
#
# Compressibility (1/GPa) = 0.01483968
#
# Stress axis : x y z
#
# Youngs Moduli (GPa) = 82.58477 78.77170 90.77994
#
# Poissons Ratio (x) = 0.22983 0.33455
# Poissons Ratio (y) = 0.24096 0.35284
# Poissons Ratio (z) = 0.30435 0.30617
#
# Static dielectric constant tensor:
#      x y z
#    x 3.923870 0.000000 0.000000 
#    y 0.000000 3.900410 0.000000 
#    z 0.000000 0.000000 3.681630 
# 
# 
# High freq. dielectric constant tensor:
#      x y z
#    x 1.845130 0.000000 0.000000 
#    y 0.000000 1.837240 0.000000 
#    z 0.000000 0.000000 1.823820 
# 
# From -- ./inp_files/10730.got.cif
#   From: 2010.06.25/outbox.cif.g09.slc.cpg/sg58_6_cif.got.tgz:10730.got - 2010.06.26 21:38:00.
