data_PCOD8238220
_publ_section_title
;
Structure prediction by ZEFSAII (Michael W. Deem and Ramdas Pophale) SiO2 
 PCOD8238220
Probable space group: P N N M
;
_chemical_formula_sum "Si O2"
_cell_formula_units_Z 64
_cell_length_a 23.527088
_cell_length_b 8.876022
_cell_length_c 14.643937
_cell_angle_alpha 90.000000
_cell_angle_beta 90.000000
_cell_angle_gamma 90.000000
_cell_volume 3058.048710
_symmetry_space_group_name_H-M "P N N M"
_symmetry_group_IT_number 58
_symmetry_cell_setting 'orthorhombic'
loop_
_space_group_symop_operation_xyz
x,y,z
-x,-y,z
1/2+x,1/2-y,1/2-z
1/2-x,1/2+y,1/2-z
-x,-y,-z
x,y,-z
1/2-x,1/2+y,1/2+z
1/2+x,1/2-y,1/2+z
loop_
_atom_site_type_symbol
_atom_site_label
_atom_site_fract_x
_atom_site_fract_y
_atom_site_fract_z
Si Si1 0.937106 0.440485 0.098337
Si Si2 0.293200 0.244386 0.397524
Si Si3 0.250750 0.063086 0.097872
Si Si4 0.978410 0.156754 0.810714
Si Si5 0.304465 0.633713 0.225198
Si Si6 0.086133 0.340632 0.746557
Si Si7 0.364004 0.323068 0.234509
Si Si8 0.623329 0.943467 0.897296
O O1 0.902562 0.543116 0.170192
O O2 0.000000 0.500000 0.093716
O O3 0.945485 0.263172 0.118467
O O4 0.906495 0.456583 0.000000
O O5 0.306133 0.178844 0.500000
O O6 0.292102 0.424067 0.404923
O O7 0.233569 0.175750 0.362047
O O8 0.343914 0.218050 0.322852
O O9 0.233557 0.167197 0.183734
O O10 0.313133 0.988572 0.106956
O O11 0.246183 0.151621 0.000000
O O12 0.028475 0.245744 0.758372
O O13 0.927601 0.109086 0.742781
O O14 0.000000 0.000000 0.856246
O O15 0.361024 0.730726 0.234740
O O16 0.319614 0.457295 0.216534
O O17 0.080456 0.446806 0.657223
O O18 0.368668 0.221588 0.144960
O O19 0.599773 0.929534 0.000000
#
# Coordination Sequence:
#
# PCOD8238220 Si02
#       8
#     8   8   8   8   8   8   8   8
#     4   9  20  38  61  89 124 166 214 261 304 365
#     4  10  21  38  62  91 125 162 207 256 314 383
#     4   9  19  36  58  87 123 160 201 252 307 374
#     4  11  22  41  64  93 129 170 210 258 318 370
#     4  11  21  36  65  95 127 164 207 259 323 373
#     4  11  22  39  66  91 124 170 213 259 311 380
#     4  11  23  41  63  93 129 164 208 262 315 375
#     4  11  22  40  65  90 120 164 210 258 317 380
#
# _framework density 20.928377999999999
#
# number of rings (size 3 to 8) (size 9 to 14) (size 15 to 20)
#    0.000    1.625    5.000    0.000    0.000    1.750 
#    0.000    1.250    0.000    0.750    0.000    0.000 
#    0.000    0.000    0.000    0.000    0.000    0.000 
#
# Total GULP energy -792843.566350 kJ/mol
# GULP energy per Si atom -12388.180724 kJ/mol
# Density = 2.088074 g / cm^3
# Si number density = 20.928378 Si / 1000 Ang^3
#
#
#
# Elastic Constant Matrix: (Units=GPa)
#
#
# Indices 1 2 3 4 5 6 
#
# 1 84.5382 21.8858 27.2676 0.0000 0.0000 0.0000
# 2 21.8858 95.4390 43.4875 0.0000 0.0000 0.0000
# 3 27.2676 43.4875 146.5346 0.0000 0.0000 0.0000
# 4 0.0000 0.0000 0.0000 17.9687 0.0000 0.0000
# 5 0.0000 0.0000 0.0000 0.0000 189.6824 0.0000
# 6 0.0000 0.0000 0.0000 0.0000 0.0000 21.5173
#
#
#
# Elastic Compliance Matrix: (Units=1/GPa)
#
#
# Indices 1 2 3 4 5 6 
#
# 1 0.012960 -0.002166 -0.001769 0.000000 0.000000 0.000000
# 2 -0.002166 0.012478 -0.003300 0.000000 0.000000 0.000000
# 3 -0.001769 -0.003300 0.008133 0.000000 0.000000 0.000000
# 4 0.000000 0.000000 0.000000 0.055652 0.000000 0.000000
# 5 0.000000 0.000000 0.000000 0.000000 0.005272 0.000000
# 6 0.000000 0.000000 0.000000 0.000000 0.000000 0.046474
#
#
# Mechanical properties :
#
#
# Convention : Reuss Voigt Hill
#
# Bulk Modulus (GPa) = 52.35224 56.86596 54.60910
# Shear Modulus (GPa) = 30.90092 61.42506 46.16299
#
# Velocity S-wave (km/s) = 3.84670 5.42345 4.70165
# Velocity P-wave (km/s) = 6.69319 8.15163 7.45815
#
# Compressibility (1/GPa) = 0.01910138
#
# Stress axis : x y z
#
# Youngs Moduli (GPa) = 77.15891 80.13872 122.95752
#
# Poissons Ratio (x) = 0.17358 0.21750
# Poissons Ratio (y) = 0.16713 0.40578
# Poissons Ratio (z) = 0.13648 0.26447
#
# Static dielectric constant tensor:
#      x y z
#    x 4.088810 0.000000 0.000000 
#    y 0.000000 3.724840 0.000000 
#    z 0.000000 0.000000 4.174350 
# 
# 
# High freq. dielectric constant tensor:
#      x y z
#    x 1.826450 0.000000 0.000000 
#    y 0.000000 1.809830 0.000000 
#    z 0.000000 0.000000 1.808540 
# 
# From -- ./inp_files/23529.got.cif
#   From: 2010.06.25/outbox.cif.g09.slc.cpg/sg58_12_cif.got.tgz:23529.got - 2010.06.26 21:38:00.
