data_PCOD8238014
_publ_section_title
;
Structure prediction by ZEFSAII (Michael W. Deem and Ramdas Pophale) SiO2 
 PCOD8238014
Probable space group: P N N M
;
_chemical_formula_sum "Si O2"
_cell_formula_units_Z 48
_cell_length_a 9.004524
_cell_length_b 13.973739
_cell_length_c 19.436520
_cell_angle_alpha 90.000000
_cell_angle_beta 90.000000
_cell_angle_gamma 90.000000
_cell_volume 2445.636440
_symmetry_space_group_name_H-M "P N N M"
_symmetry_group_IT_number 58
_symmetry_cell_setting 'orthorhombic'
loop_
_space_group_symop_operation_xyz
x,y,z
-x,-y,z
1/2+x,1/2-y,1/2-z
1/2-x,1/2+y,1/2-z
-x,-y,-z
x,y,-z
1/2-x,1/2+y,1/2+z
1/2+x,1/2-y,1/2+z
loop_
_atom_site_type_symbol
_atom_site_label
_atom_site_fract_x
_atom_site_fract_y
_atom_site_fract_z
Si Si1 0.661530 0.501787 0.761808
Si Si2 0.419724 0.094154 0.662968
Si Si3 0.675549 0.192369 0.736674
Si Si4 0.703457 0.906811 0.000000
Si Si5 0.629030 0.365981 0.359736
Si Si6 0.313862 0.281883 0.622830
Si Si7 0.139047 0.370941 0.500000
O O1 0.500000 0.500000 0.794864
O O2 0.763585 0.434799 0.806813
O O3 0.699811 0.612262 0.769451
O O4 0.662602 0.462825 0.682946
O O5 0.516386 0.140150 0.725774
O O6 0.388920 0.177396 0.606544
O O7 0.500000 0.000000 0.630599
O O8 0.697150 0.274858 0.680257
O O9 0.702730 0.233687 0.812556
O O10 0.793739 0.871593 0.933664
O O11 0.538977 0.861779 0.000000
O O12 0.692907 0.020548 0.000000
O O13 0.450045 0.356167 0.366610
O O14 0.204631 0.316772 0.564742
#
# Coordination Sequence:
#
# PCOD8238014 Si02
#       7
#     8   8   8   4   8   8   4
#     4  11  20  34  58  93 119 155 202 250 301 357
#     4   9  21  37  58  89 128 155 201 261 312 359
#     4  10  21  36  61  90 119 159 202 252 308 355
#     4  11  27  43  57  86 127 164 203 249 321 374
#     4  11  23  39  60  88 125 162 199 252 301 367
#     4  11  21  40  61  89 123 162 211 247 308 373
#     4  11  27  41  60  86 122 168 204 253 311 375
#
# _framework density 19.626792999999999
#
# number of rings (size 3 to 8) (size 9 to 14) (size 15 to 20)
#    0.000    1.500    3.333    1.500    2.333    2.000 
#    0.000    0.417    0.000    3.000    0.000   11.667 
#    0.000    0.000    0.000    0.000    0.000    0.000 
#
# Total GULP energy -594806.510162 kJ/mol
# GULP energy per Si atom -12391.802295 kJ/mol
# Density = 1.958212 g / cm^3
# Si number density = 19.626793 Si / 1000 Ang^3
#
#
#
# Elastic Constant Matrix: (Units=GPa)
#
#
# Indices 1 2 3 4 5 6 
#
# 1 128.9835 51.2406 55.3480 0.0000 0.0000 0.0000
# 2 51.2406 112.2317 44.6778 0.0000 0.0000 0.0000
# 3 55.3480 44.6778 102.2858 0.0000 0.0000 0.0000
# 4 0.0000 0.0000 0.0000 20.3058 0.0000 0.0000
# 5 0.0000 0.0000 0.0000 0.0000 28.7115 0.0000
# 6 0.0000 0.0000 0.0000 0.0000 0.0000 31.0525
#
#
#
# Elastic Compliance Matrix: (Units=1/GPa)
#
#
# Indices 1 2 3 4 5 6 
#
# 1 0.010973 -0.003203 -0.004538 0.000000 0.000000 0.000000
# 2 -0.003203 0.011721 -0.003386 0.000000 0.000000 0.000000
# 3 -0.004538 -0.003386 0.013711 0.000000 0.000000 0.000000
# 4 0.000000 0.000000 0.000000 0.049247 0.000000 0.000000
# 5 0.000000 0.000000 0.000000 0.000000 0.034829 0.000000
# 6 0.000000 0.000000 0.000000 0.000000 0.000000 0.032204
#
#
# Mechanical properties :
#
#
# Convention : Reuss Voigt Hill
#
# Bulk Modulus (GPa) = 70.67494 71.78155 71.22824
# Shear Modulus (GPa) = 27.83086 28.82960 28.33023
#
# Velocity S-wave (km/s) = 3.76972 3.83677 3.80339
# Velocity P-wave (km/s) = 7.41858 7.50202 7.46042
#
# Compressibility (1/GPa) = 0.01414929
#
# Stress axis : x y z
#
# Youngs Moduli (GPa) = 91.13354 85.32019 72.93192
#
# Poissons Ratio (x) = 0.27329 0.33100
# Poissons Ratio (y) = 0.29191 0.24696
# Poissons Ratio (z) = 0.41361 0.28891
#
# Static dielectric constant tensor:
#      x y z
#    x 3.801550 0.000000 0.000000 
#    y 0.000000 3.948860 0.000000 
#    z 0.000000 0.000000 3.332840 
# 
# 
# High freq. dielectric constant tensor:
#      x y z
#    x 1.779700 0.000000 0.000000 
#    y 0.000000 1.788940 0.000000 
#    z 0.000000 0.000000 1.722530 
# 
# From -- ./inp_files/25318.got.cif
#   From: 2010.06.25/outbox.cif.g09.slc.cpg/sg58_13_cif.got.tgz:25318.got - 2010.06.26 21:38:00.
