data_PCOD8238573
_publ_section_title
;
Structure prediction by ZEFSAII (Michael W. Deem and Ramdas Pophale) SiO2 
 PCOD8238573
Probable space group: P N N M
;
_chemical_formula_sum "Si O2"
_cell_formula_units_Z 32
_cell_length_a 18.317748
_cell_length_b 9.722081
_cell_length_c 9.023163
_cell_angle_alpha 90.000000
_cell_angle_beta 90.000000
_cell_angle_gamma 90.000000
_cell_volume 1606.904689
_symmetry_space_group_name_H-M "P N N M"
_symmetry_group_IT_number 58
_symmetry_cell_setting 'orthorhombic'
loop_
_space_group_symop_operation_xyz
x,y,z
-x,-y,z
1/2+x,1/2-y,1/2-z
1/2-x,1/2+y,1/2-z
-x,-y,-z
x,y,-z
1/2-x,1/2+y,1/2+z
1/2+x,1/2-y,1/2+z
loop_
_atom_site_type_symbol
_atom_site_label
_atom_site_fract_x
_atom_site_fract_y
_atom_site_fract_z
Si Si1 0.438237 0.894510 0.175061
Si Si2 0.015376 0.843078 0.828270
Si Si3 0.318190 0.307705 0.328767
Si Si4 0.206844 0.496100 0.827744
O O1 0.458488 0.743766 0.232409
O O2 0.361076 0.937889 0.238718
O O3 0.500000 0.000000 0.230783
O O4 0.431754 0.891768 0.000000
O O5 0.097322 0.803133 0.782121
O O6 0.001396 0.810449 0.000000
O O7 0.000000 0.000000 0.789752
O O8 0.310061 0.351609 0.500000
O O9 0.279527 0.421135 0.227764
O O10 0.283221 0.158464 0.298948
O O11 0.194186 0.465711 0.000000
#
# Coordination Sequence:
#
# PCOD8238573 Si02
#       4
#     8   8   8   8
#     4  11  23  40  64  92 122 159 203 253 305 362
#     4  10  22  41  65  92 123 162 206 254 308 363
#     4  10  23  42  61  90 127 160 205 255 302 366
#     4  11  24  41  64  89 122 165 204 251 308 365
#
# _framework density 19.914062999999999
#
# number of rings (size 3 to 8) (size 9 to 14) (size 15 to 20)
#    0.000    1.500    2.500    1.500    3.500    4.500 
#    0.000    0.000    0.000    0.000    0.000    0.000 
#    0.000    0.000    0.000    0.000    0.000    0.000 
#
# Total GULP energy -397025.988309 kJ/mol
# GULP energy per Si atom -12407.062135 kJ/mol
# Density = 1.986874 g / cm^3
# Si number density = 19.914063 Si / 1000 Ang^3
#
#
#
# Elastic Constant Matrix: (Units=GPa)
#
#
# Indices 1 2 3 4 5 6 
#
# 1 34.3510 20.3409 13.9524 0.0000 0.0000 0.0000
# 2 20.3409 90.3905 41.5080 0.0000 0.0000 0.0000
# 3 13.9524 41.5080 61.3604 0.0000 0.0000 0.0000
# 4 0.0000 0.0000 0.0000 36.3527 0.0000 0.0000
# 5 0.0000 0.0000 0.0000 0.0000 36.4185 0.0000
# 6 0.0000 0.0000 0.0000 0.0000 0.0000 40.1208
#
#
#
# Elastic Compliance Matrix: (Units=1/GPa)
#
#
# Indices 1 2 3 4 5 6 
#
# 1 0.034164 -0.005978 -0.003725 0.000000 0.000000 0.000000
# 2 -0.005978 0.017094 -0.010204 0.000000 0.000000 0.000000
# 3 -0.003725 -0.010204 0.024047 0.000000 0.000000 0.000000
# 4 0.000000 0.000000 0.000000 0.027508 0.000000 0.000000
# 5 0.000000 0.000000 0.000000 0.000000 0.027459 0.000000
# 6 0.000000 0.000000 0.000000 0.000000 0.000000 0.024925
#
#
# Mechanical properties :
#
#
# Convention : Reuss Voigt Hill
#
# Bulk Modulus (GPa) = 28.17569 37.52271 32.84920
# Shear Modulus (GPa) = 24.17326 29.93178 27.05252
#
# Velocity S-wave (km/s) = 3.48786 3.88112 3.68973
# Velocity P-wave (km/s) = 5.51358 6.24238 5.88927
#
# Compressibility (1/GPa) = 0.03549159
#
# Stress axis : x y z
#
# Youngs Moduli (GPa) = 29.27084 58.49943 41.58531
#
# Poissons Ratio (x) = 0.34968 0.15489
# Poissons Ratio (y) = 0.17497 0.42435
# Poissons Ratio (z) = 0.10902 0.59695
#
# Static dielectric constant tensor:
#      x y z
#    x 3.622660 0.000000 0.000000 
#    y 0.000000 3.766160 0.000000 
#    z 0.000000 0.000000 3.579370 
# 
# 
# High freq. dielectric constant tensor:
#      x y z
#    x 1.782340 0.000000 0.000000 
#    y 0.000000 1.788150 0.000000 
#    z 0.000000 0.000000 1.776500 
# 
# From -- ./inp_files/2137.got.cif
#   From: 2010.06.25/outbox.cif.g09.slc.cpg/sg58_2_cif.got.tgz:2137.got - 2010.06.26 21:38:00.
