data_PCOD8238130
_publ_section_title
;
Structure prediction by ZEFSAII (Michael W. Deem and Ramdas Pophale) SiO2 
 PCOD8238130
Probable space group: P N N M
;
_chemical_formula_sum "Si O2"
_cell_formula_units_Z 48
_cell_length_a 10.053709
_cell_length_b 27.615169
_cell_length_c 8.524241
_cell_angle_alpha 90.000000
_cell_angle_beta 90.000000
_cell_angle_gamma 90.000000
_cell_volume 2366.626568
_symmetry_space_group_name_H-M "P N N M"
_symmetry_group_IT_number 58
_symmetry_cell_setting 'orthorhombic'
loop_
_space_group_symop_operation_xyz
x,y,z
-x,-y,z
1/2+x,1/2-y,1/2-z
1/2-x,1/2+y,1/2-z
-x,-y,-z
x,y,-z
1/2-x,1/2+y,1/2+z
1/2+x,1/2-y,1/2+z
loop_
_atom_site_type_symbol
_atom_site_label
_atom_site_fract_x
_atom_site_fract_y
_atom_site_fract_z
Si Si1 0.776411 0.706048 0.181207
Si Si2 0.968938 0.139008 0.681832
Si Si3 0.396642 0.461620 0.316193
Si Si4 0.258947 0.690128 0.182008
Si Si5 0.504146 0.855170 0.816846
Si Si6 0.900222 0.540932 0.686823
O O1 0.643675 0.677442 0.226081
O O2 0.748248 0.761890 0.214704
O O3 0.897106 0.686890 0.286652
O O4 0.814358 0.699034 0.000000
O O5 0.963849 0.124418 0.500000
O O6 0.108575 0.161945 0.729747
O O7 0.949474 0.091817 0.785703
O O8 0.500000 0.500000 0.239909
O O9 0.388305 0.470701 0.500000
O O10 0.248083 0.468729 0.245166
O O11 0.136771 0.655073 0.219840
O O12 0.259339 0.704566 0.000000
O O13 0.447786 0.906396 0.755264
O O14 0.538722 0.856743 0.000000
O O15 0.897982 0.539819 0.500000
O O16 0.000000 0.500000 0.753267
#
# Coordination Sequence:
#
# PCOD8238130 Si02
#       6
#     8   8   8   8   8   8
#     4  11  22  40  64  89 119 159 204 251 304 362
#     4  10  23  41  60  85 123 160 196 245 303 357
#     4  10  21  37  62  91 117 151 199 247 295 355
#     4  11  24  40  60  89 123 160 205 253 297 356
#     4  11  22  38  62  90 123 162 200 245 304 360
#     4   9  19  36  58  87 120 153 193 246 298 351
#
# _framework density 20.282033999999999
#
# number of rings (size 3 to 8) (size 9 to 14) (size 15 to 20)
#    0.000    1.667    1.667    2.500    2.333    3.667 
#    0.000    0.000    0.000    2.500    0.000    0.000 
#    0.000    0.000    0.000    0.000    0.000    0.000 
#
# Total GULP energy -595447.530535 kJ/mol
# GULP energy per Si atom -12405.156886 kJ/mol
# Density = 2.023587 g / cm^3
# Si number density = 20.282034 Si / 1000 Ang^3
#
#
#
# Elastic Constant Matrix: (Units=GPa)
#
#
# Indices 1 2 3 4 5 6 
#
# 1 163.1025 69.9664 26.0242 0.0000 0.0000 0.0000
# 2 69.9664 128.2242 16.3813 0.0000 0.0000 0.0000
# 3 26.0242 16.3813 21.6075 0.0000 0.0000 0.0000
# 4 0.0000 0.0000 0.0000 28.6049 0.0000 0.0000
# 5 0.0000 0.0000 0.0000 0.0000 34.7682 0.0000
# 6 0.0000 0.0000 0.0000 0.0000 0.0000 42.5362
#
#
#
# Elastic Compliance Matrix: (Units=1/GPa)
#
#
# Indices 1 2 3 4 5 6 
#
# 1 0.009094 -0.003945 -0.007962 0.000000 0.000000 0.000000
# 2 -0.003945 0.010347 -0.003093 0.000000 0.000000 0.000000
# 3 -0.007962 -0.003093 0.058214 0.000000 0.000000 0.000000
# 4 0.000000 0.000000 0.000000 0.034959 0.000000 0.000000
# 5 0.000000 0.000000 0.000000 0.000000 0.028762 0.000000
# 6 0.000000 0.000000 0.000000 0.000000 0.000000 0.023509
#
#
# Mechanical properties :
#
#
# Convention : Reuss Voigt Hill
#
# Bulk Modulus (GPa) = 20.98391 59.74199 40.36295
# Shear Modulus (GPa) = 23.72268 34.55268 29.13768
#
# Velocity S-wave (km/s) = 3.42371 4.13196 3.79440
# Velocity P-wave (km/s) = 5.09878 7.23075 6.25625
#
# Compressibility (1/GPa) = 0.04765555
#
# Stress axis : x y z
#
# Youngs Moduli (GPa) = 109.96584 96.65088 17.17795
#
# Poissons Ratio (x) = 0.38128 0.13677
# Poissons Ratio (y) = 0.43380 0.05313
# Poissons Ratio (z) = 0.87553 0.29891
#
# Static dielectric constant tensor:
#      x y z
#    x 3.999390 0.000000 0.000000 
#    y 0.000000 3.706910 0.000000 
#    z 0.000000 0.000000 3.397930 
# 
# 
# High freq. dielectric constant tensor:
#      x y z
#    x 1.811440 0.000000 0.000000 
#    y 0.000000 1.799030 0.000000 
#    z 0.000000 0.000000 1.769650 
# 
# From -- ./inp_files/2945.got.cif
#   From: 2010.06.25/outbox.cif.g09.slc.cpg/sg58_2_cif.got.tgz:2945.got - 2010.06.26 21:38:00.
