data_PCOD8238344
_publ_section_title
;
Structure prediction by ZEFSAII (Michael W. Deem and Ramdas Pophale) SiO2 
 PCOD8238344
Probable space group: P N N M
;
_chemical_formula_sum "Si O2"
_cell_formula_units_Z 64
_cell_length_a 15.015508
_cell_length_b 23.847844
_cell_length_c 8.710827
_cell_angle_alpha 90.000000
_cell_angle_beta 90.000000
_cell_angle_gamma 90.000000
_cell_volume 3119.238197
_symmetry_space_group_name_H-M "P N N M"
_symmetry_group_IT_number 58
_symmetry_cell_setting 'orthorhombic'
loop_
_space_group_symop_operation_xyz
x,y,z
-x,-y,z
1/2+x,1/2-y,1/2-z
1/2-x,1/2+y,1/2-z
-x,-y,-z
x,y,-z
1/2-x,1/2+y,1/2+z
1/2+x,1/2-y,1/2+z
loop_
_atom_site_type_symbol
_atom_site_label
_atom_site_fract_x
_atom_site_fract_y
_atom_site_fract_z
Si Si1 0.261554 0.795766 0.319108
Si Si2 0.643559 0.873763 0.828515
Si Si3 0.101271 0.000836 0.818977
Si Si4 0.748174 0.575556 0.819900
Si Si5 0.152361 0.123025 0.172160
Si Si6 0.398300 0.010458 0.320362
Si Si7 0.905003 0.265049 0.821462
Si Si8 0.417565 0.728616 0.177783
O O1 0.243550 0.789292 0.500000
O O2 0.259627 0.860452 0.265810
O O3 0.188652 0.761983 0.223512
O O4 0.357946 0.770282 0.280130
O O5 0.746462 0.857002 0.830691
O O6 0.635076 0.936717 0.773038
O O7 0.593725 0.831497 0.714064
O O8 0.603658 0.867968 0.000000
O O9 0.144446 0.059607 0.766253
O O10 0.158378 0.949993 0.750768
O O11 0.103583 0.993372 0.000000
O O12 0.000000 0.000000 0.757189
O O13 0.837042 0.541932 0.768919
O O14 0.736688 0.572285 0.000000
O O15 0.100818 0.163591 0.287068
O O16 0.111417 0.127190 0.000000
O O17 0.388747 0.022822 0.500000
O O18 0.500000 0.000000 0.273991
O O19 0.979842 0.236592 0.718622
O O20 0.924557 0.255714 0.000000
O O21 0.399795 0.741017 0.000000
#
# Coordination Sequence:
#
# PCOD8238344 Si02
#       8
#     8   8   8   8   8   8   8   8
#     4  11  24  44  65  93 132 170 213 263 316 380
#     4  11  22  40  66  94 126 162 209 268 320 374
#     4  10  22  40  63  92 124 163 210 256 307 371
#     4  10  23  41  62  90 126 166 206 256 312 370
#     4  10  21  40  64  91 127 166 207 263 317 367
#     4  10  22  40  63  92 126 168 214 256 310 380
#     4  12  26  44  67  93 125 169 215 266 323 379
#     4  12  26  43  66  97 128 167 213 261 320 384
#
# _framework density 20.517828999999999
#
# number of rings (size 3 to 8) (size 9 to 14) (size 15 to 20)
#    0.000    1.250    2.500    3.000    3.500    2.500 
#    0.000    0.000    0.000    0.000    0.000    0.000 
#    0.000    0.000    0.000    0.000    0.000    0.000 
#
# Total GULP energy -793910.808623 kJ/mol
# GULP energy per Si atom -12404.856385 kJ/mol
# Density = 2.047113 g / cm^3
# Si number density = 20.517829 Si / 1000 Ang^3
#
#
#
# Elastic Constant Matrix: (Units=GPa)
#
#
# Indices 1 2 3 4 5 6 
#
# 1 79.8827 12.8969 16.8213 0.0000 0.0000 0.0000
# 2 12.8969 110.6922 37.3312 0.0000 0.0000 0.0000
# 3 16.8213 37.3312 63.2353 0.0000 0.0000 0.0000
# 4 0.0000 0.0000 0.0000 30.5464 0.0000 0.0000
# 5 0.0000 0.0000 0.0000 0.0000 28.9872 0.0000
# 6 0.0000 0.0000 0.0000 0.0000 0.0000 34.0681
#
#
#
# Elastic Compliance Matrix: (Units=1/GPa)
#
#
# Indices 1 2 3 4 5 6 
#
# 1 0.013279 -0.000444 -0.003270 0.000000 0.000000 0.000000
# 2 -0.000444 0.011295 -0.006550 0.000000 0.000000 0.000000
# 3 -0.003270 -0.006550 0.020550 0.000000 0.000000 0.000000
# 4 0.000000 0.000000 0.000000 0.032737 0.000000 0.000000
# 5 0.000000 0.000000 0.000000 0.000000 0.034498 0.000000
# 6 0.000000 0.000000 0.000000 0.000000 0.000000 0.029353
#
#
# Mechanical properties :
#
#
# Convention : Reuss Voigt Hill
#
# Bulk Modulus (GPa) = 40.65724 43.10101 41.87912
# Shear Modulus (GPa) = 29.33610 31.17105 30.25357
#
# Velocity S-wave (km/s) = 3.78535 3.90194 3.84409
# Velocity P-wave (km/s) = 6.24210 6.43059 6.33704
#
# Compressibility (1/GPa) = 0.02459587
#
# Stress axis : x y z
#
# Youngs Moduli (GPa) = 75.30875 88.53691 48.66078
#
# Poissons Ratio (x) = 0.03934 0.15912
# Poissons Ratio (y) = 0.03346 0.31871
# Poissons Ratio (z) = 0.24626 0.57989
#
# Static dielectric constant tensor:
#      x y z
#    x 3.808420 0.000000 0.000000 
#    y 0.000000 3.845350 0.000000 
#    z 0.000000 0.000000 3.610110 
# 
# 
# High freq. dielectric constant tensor:
#      x y z
#    x 1.805860 0.000000 0.000000 
#    y 0.000000 1.814500 0.000000 
#    z 0.000000 0.000000 1.797100 
# 
# From -- ./inp_files/6926.got.cif
#   From: 2010.06.25/outbox.cif.g09.slc.cpg/sg58_4_cif.got.tgz:6926.got - 2010.06.26 21:38:00.
