data_PCOD8238429
_publ_section_title
;
Structure prediction by ZEFSAII (Michael W. Deem and Ramdas Pophale) SiO2 
 PCOD8238429
Probable space group: P N N M
;
_chemical_formula_sum "Si O2"
_cell_formula_units_Z 64
_cell_length_a 16.279753
_cell_length_b 9.645259
_cell_length_c 23.148831
_cell_angle_alpha 90.000000
_cell_angle_beta 90.000000
_cell_angle_gamma 90.000000
_cell_volume 3634.885791
_symmetry_space_group_name_H-M "P N N M"
_symmetry_group_IT_number 58
_symmetry_cell_setting 'orthorhombic'
loop_
_space_group_symop_operation_xyz
x,y,z
-x,-y,z
1/2+x,1/2-y,1/2-z
1/2-x,1/2+y,1/2-z
-x,-y,-z
x,y,-z
1/2-x,1/2+y,1/2+z
1/2+x,1/2-y,1/2+z
loop_
_atom_site_type_symbol
_atom_site_label
_atom_site_fract_x
_atom_site_fract_y
_atom_site_fract_z
Si Si1 0.132772 0.057840 0.138615
Si Si2 0.390032 0.806564 0.566911
Si Si3 0.066909 0.809337 0.934856
Si Si4 0.228657 0.468791 0.715512
Si Si5 0.196835 0.161155 0.306693
Si Si6 0.036411 0.144233 0.747613
Si Si7 0.425213 0.101025 0.265550
Si Si8 0.830062 0.407839 0.883045
O O1 0.154896 0.169311 0.089464
O O2 0.222740 0.005196 0.156857
O O3 0.082455 0.133247 0.190237
O O4 0.077588 0.934983 0.110424
O O5 0.372470 0.829674 0.500000
O O6 0.486567 0.782541 0.580141
O O7 0.351460 0.936014 0.600403
O O8 0.141518 0.700158 0.931807
O O9 0.061927 0.869898 0.000000
O O10 0.231943 0.303024 0.720812
O O11 0.280987 0.528441 0.768059
O O12 0.135951 0.532908 0.717496
O O13 0.098844 0.181307 0.304643
O O14 0.233167 0.123676 0.370401
O O15 0.962082 0.252795 0.745922
O O16 0.000000 0.000000 0.729471
O O17 0.374763 0.130042 0.323306
O O18 0.500000 0.000000 0.279180
#
# Coordination Sequence:
#
# PCOD8238429 Si02
#       8
#     8   8   8   8   8   8   8   8
#     4  11  21  36  53  73 109 147 182 216 263 318
#     4  11  23  35  50  77 107 142 185 227 257 300
#     4  11  21  35  53  75 106 144 185 227 259 297
#     4  10  22  35  52  76 106 138 179 218 265 314
#     4  10  22  36  51  77 105 140 177 220 263 318
#     4  11  22  33  53  78 109 139 180 215 258 319
#     4  11  20  33  53  75 104 140 174 214 257 313
#     4  11  21  34  53  73 107 144 181 213 268 313
#
# _framework density 17.607154999999999
#
# number of rings (size 3 to 8) (size 9 to 14) (size 15 to 20)
#    0.000    1.250    2.500    5.250   10.500    2.000 
#    0.000    0.000    0.000    0.000    0.000    0.000 
#    0.000   20.000    0.000    0.000    0.000    0.000 
#
# Total GULP energy -793197.987185 kJ/mol
# GULP energy per Si atom -12393.718550 kJ/mol
# Density = 1.756708 g / cm^3
# Si number density = 17.607155 Si / 1000 Ang^3
#
#
#
# Elastic Constant Matrix: (Units=GPa)
#
#
# Indices 1 2 3 4 5 6 
#
# 1 71.0555 17.8771 41.2178 0.0000 0.0000 0.0000
# 2 17.8771 97.2957 22.6107 0.0000 0.0000 0.0000
# 3 41.2178 22.6107 55.4136 0.0000 0.0000 0.0000
# 4 0.0000 0.0000 0.0000 22.7348 0.0000 0.0000
# 5 0.0000 0.0000 0.0000 0.0000 59.8667 0.0000
# 6 0.0000 0.0000 0.0000 0.0000 0.0000 27.6324
#
#
#
# Elastic Compliance Matrix: (Units=1/GPa)
#
#
# Indices 1 2 3 4 5 6 
#
# 1 0.024762 -0.000298 -0.018297 0.000000 0.000000 0.000000
# 2 -0.000298 0.011358 -0.004413 0.000000 0.000000 0.000000
# 3 -0.018297 -0.004413 0.033457 0.000000 0.000000 0.000000
# 4 0.000000 0.000000 0.000000 0.043985 0.000000 0.000000
# 5 0.000000 0.000000 0.000000 0.000000 0.016704 0.000000
# 6 0.000000 0.000000 0.000000 0.000000 0.000000 0.036189
#
#
# Mechanical properties :
#
#
# Convention : Reuss Voigt Hill
#
# Bulk Modulus (GPa) = 42.44288 43.01956 42.73122
# Shear Modulus (GPa) = 22.69373 31.51741 27.10557
#
# Velocity S-wave (km/s) = 3.59401 4.23547 3.92786
# Velocity P-wave (km/s) = 6.43276 6.95737 6.70020
#
# Compressibility (1/GPa) = 0.02356108
#
# Stress axis : x y z
#
# Youngs Moduli (GPa) = 40.38415 88.04199 29.88948
#
# Poissons Ratio (x) = 0.02621 0.54689
# Poissons Ratio (y) = 0.01202 0.13191
# Poissons Ratio (z) = 0.73891 0.38854
#
# Static dielectric constant tensor:
#      x y z
#    x 3.875160 0.000000 0.000000 
#    y 0.000000 3.966620 0.000000 
#    z 0.000000 0.000000 3.179130 
# 
# 
# High freq. dielectric constant tensor:
#      x y z
#    x 1.667620 0.000000 0.000000 
#    y 0.000000 1.706500 0.000000 
#    z 0.000000 0.000000 1.640090 
# 
# From -- ./inp_files/32334.got.cif
#   From: 2010.06.25/outbox.cif.g09.slc.cpg/sg58_17_cif.got.tgz:32334.got - 2010.06.26 21:38:00.
