data_PCOD8238651
_publ_section_title
;
Structure prediction by ZEFSAII (Michael W. Deem and Ramdas Pophale) SiO2 
 PCOD8238651
Probable space group: P N N M
;
_chemical_formula_sum "Si O2"
_cell_formula_units_Z 56
_cell_length_a 21.563132
_cell_length_b 14.489087
_cell_length_c 8.565335
_cell_angle_alpha 90.000000
_cell_angle_beta 90.000000
_cell_angle_gamma 90.000000
_cell_volume 2676.068432
_symmetry_space_group_name_H-M "P N N M"
_symmetry_group_IT_number 58
_symmetry_cell_setting 'orthorhombic'
loop_
_space_group_symop_operation_xyz
x,y,z
-x,-y,z
1/2+x,1/2-y,1/2-z
1/2-x,1/2+y,1/2-z
-x,-y,-z
x,y,-z
1/2-x,1/2+y,1/2+z
1/2+x,1/2-y,1/2+z
loop_
_atom_site_type_symbol
_atom_site_label
_atom_site_fract_x
_atom_site_fract_y
_atom_site_fract_z
Si Si1 0.180453 0.946763 0.319881
Si Si2 0.746932 0.381109 0.681629
Si Si3 0.886949 0.418464 0.681728
Si Si4 0.481965 0.215359 0.679924
Si Si5 0.773232 0.689241 0.680716
Si Si6 0.104507 0.390483 0.181549
Si Si7 0.951288 0.077538 0.819773
O O1 0.191086 0.971058 0.500000
O O2 0.216305 0.852659 0.278499
O O3 0.108314 0.931925 0.288490
O O4 0.205939 0.029462 0.214653
O O5 0.743535 0.356976 0.500000
O O6 0.817060 0.398522 0.736860
O O7 0.718385 0.296063 0.776661
O O8 0.889545 0.442949 0.500000
O O9 0.927945 0.328842 0.716316
O O10 0.913983 0.504319 0.779797
O O11 0.468347 0.191374 0.500000
O O12 0.548256 0.175507 0.731562
O O13 0.483659 0.324305 0.710002
O O14 0.757435 0.677394 0.500000
O O15 0.836107 0.635038 0.716443
O O16 0.120631 0.379128 0.000000
O O17 0.931444 0.065902 0.000000
O O18 0.000000 0.000000 0.768919
#
# Coordination Sequence:
#
# PCOD8238651 Si02
#       7
#     8   8   8   8   8   8   8
#     4  12  25  43  67  98 132 172 216 269 327 386
#     4  11  24  42  66  95 130 171 215 267 325 388
#     4  11  23  40  64  95 128 168 214 265 324 385
#     4  10  23  41  63  93 127 171 217 263 324 389
#     4  12  25  42  65  97 132 171 218 272 329 389
#     4  11  23  40  64  94 129 169 215 267 324 390
#     4  10  23  44  69  95 129 174 220 270 327 387
#
# _framework density 20.926221000000002
#
# number of rings (size 3 to 8) (size 9 to 14) (size 15 to 20)
#    0.000    1.000    1.429    5.143    2.000    7.714 
#    0.000    0.000    0.000    0.000    0.000    0.000 
#    0.000    0.000    0.000    0.000    0.000    0.000 
#
# Total GULP energy -694955.315906 kJ/mol
# GULP energy per Si atom -12409.916355 kJ/mol
# Density = 2.087859 g / cm^3
# Si number density = 20.926221 Si / 1000 Ang^3
#
#
#
# Elastic Constant Matrix: (Units=GPa)
#
#
# Indices 1 2 3 4 5 6 
#
# 1 102.4052 36.1385 31.6044 0.0000 0.0000 0.0000
# 2 36.1385 119.9529 20.7058 0.0000 0.0000 0.0000
# 3 31.6044 20.7058 67.2884 0.0000 0.0000 0.0000
# 4 0.0000 0.0000 0.0000 32.8464 0.0000 0.0000
# 5 0.0000 0.0000 0.0000 0.0000 33.2227 0.0000
# 6 0.0000 0.0000 0.0000 0.0000 0.0000 30.3897
#
#
#
# Elastic Compliance Matrix: (Units=1/GPa)
#
#
# Indices 1 2 3 4 5 6 
#
# 1 0.012282 -0.002856 -0.004890 0.000000 0.000000 0.000000
# 2 -0.002856 0.009468 -0.001572 0.000000 0.000000 0.000000
# 3 -0.004890 -0.001572 0.017642 0.000000 0.000000 0.000000
# 4 0.000000 0.000000 0.000000 0.030445 0.000000 0.000000
# 5 0.000000 0.000000 0.000000 0.000000 0.030100 0.000000
# 6 0.000000 0.000000 0.000000 0.000000 0.000000 0.032906
#
#
# Mechanical properties :
#
#
# Convention : Reuss Voigt Hill
#
# Bulk Modulus (GPa) = 48.17840 51.83821 50.00831
# Shear Modulus (GPa) = 31.56602 32.70494 32.13548
#
# Velocity S-wave (km/s) = 3.88808 3.95760 3.92300
# Velocity P-wave (km/s) = 6.57489 6.76086 6.66852
#
# Compressibility (1/GPa) = 0.02075619
#
# Stress axis : x y z
#
# Youngs Moduli (GPa) = 81.41866 105.61365 56.68335
#
# Poissons Ratio (x) = 0.30166 0.27717
# Poissons Ratio (y) = 0.23255 0.08911
# Poissons Ratio (z) = 0.39813 0.16603
#
# Static dielectric constant tensor:
#      x y z
#    x 3.746530 0.000000 0.000000 
#    y 0.000000 3.884190 0.000000 
#    z 0.000000 0.000000 3.682420 
# 
# 
# High freq. dielectric constant tensor:
#      x y z
#    x 1.823100 0.000000 0.000000 
#    y 0.000000 1.833190 0.000000 
#    z 0.000000 0.000000 1.819160 
# 
# From -- ./inp_files/9033.got.cif
#   From: 2010.06.25/outbox.cif.g09.slc.cpg/sg58_5_cif.got.tgz:9033.got - 2010.06.26 21:38:00.
