data_PCOD8238686
_publ_section_title
;
Structure prediction by ZEFSAII (Michael W. Deem and Ramdas Pophale) SiO2 
 PCOD8238686
Probable space group: P N N M
;
_chemical_formula_sum "Si O2"
_cell_formula_units_Z 56
_cell_length_a 14.600643
_cell_length_b 10.108380
_cell_length_c 19.341642
_cell_angle_alpha 90.000000
_cell_angle_beta 90.000000
_cell_angle_gamma 90.000000
_cell_volume 2854.610655
_symmetry_space_group_name_H-M "P N N M"
_symmetry_group_IT_number 58
_symmetry_cell_setting 'orthorhombic'
loop_
_space_group_symop_operation_xyz
x,y,z
-x,-y,z
1/2+x,1/2-y,1/2-z
1/2-x,1/2+y,1/2-z
-x,-y,-z
x,y,-z
1/2-x,1/2+y,1/2+z
1/2+x,1/2-y,1/2+z
loop_
_atom_site_type_symbol
_atom_site_label
_atom_site_fract_x
_atom_site_fract_y
_atom_site_fract_z
Si Si1 0.077407 0.189744 0.807557
Si Si2 0.459921 0.855405 0.078035
Si Si3 0.272657 0.539327 0.075598
Si Si4 0.187953 0.272584 0.674710
Si Si5 0.417994 0.905571 0.420078
Si Si6 0.423958 0.386927 0.128579
Si Si7 0.122315 0.893798 0.218390
O O1 0.130765 0.262119 0.745376
O O2 0.092281 0.269529 0.878119
O O3 0.968497 0.190857 0.796629
O O4 0.114765 0.040661 0.813598
O O5 0.367044 0.866699 0.122200
O O6 0.530597 0.753852 0.113398
O O7 0.500000 0.000000 0.077379
O O8 0.439075 0.806705 0.000000
O O9 0.305400 0.631895 0.137521
O O10 0.172909 0.487865 0.092800
O O11 0.347256 0.420417 0.071279
O O12 0.271823 0.609246 0.000000
O O13 0.289117 0.328222 0.684686
O O14 0.432533 0.866238 0.500000
O O15 0.500000 0.000000 0.393597
O O16 0.500000 0.500000 0.132441
O O17 0.366848 0.389616 0.199589
#
# Coordination Sequence:
#
# PCOD8238686 Si02
#       7
#     8   8   8   8   8   8   8
#     4  11  22  43  62  93 130 161 218 267 319 392
#     4  11  25  43  62  94 137 173 216 275 334 394
#     4  11  22  38  64  95 122 165 221 264 314 386
#     4  12  23  38  63  96 127 173 212 266 326 389
#     4  10  23  43  65  92 126 165 218 275 326 382
#     4  12  20  43  65  92 126 166 216 268 317 386
#     4  11  22  40  63  92 131 166 214 263 325 391
#
# _framework density 19.617387000000001
#
# number of rings (size 3 to 8) (size 9 to 14) (size 15 to 20)
#    0.000    0.857    5.714    2.571    0.000    3.429 
#    0.000    5.000    0.000    0.000    0.000    0.000 
#    0.000    0.000    0.000    0.000    0.000    0.000 
#
# Total GULP energy -694313.864559 kJ/mol
# GULP energy per Si atom -12398.461867 kJ/mol
# Density = 1.957274 g / cm^3
# Si number density = 19.617387 Si / 1000 Ang^3
#
#
#
# Elastic Constant Matrix: (Units=GPa)
#
#
# Indices 1 2 3 4 5 6 
#
# 1 137.6053 32.6896 40.6110 0.0000 0.0000 0.0000
# 2 32.6896 82.7207 44.7312 0.0000 0.0000 0.0000
# 3 40.6110 44.7312 103.0222 0.0000 0.0000 0.0000
# 4 0.0000 0.0000 0.0000 34.7933 0.0000 0.0000
# 5 0.0000 0.0000 0.0000 0.0000 82.5564 0.0000
# 6 0.0000 0.0000 0.0000 0.0000 0.0000 29.5389
#
#
#
# Elastic Compliance Matrix: (Units=1/GPa)
#
#
# Indices 1 2 3 4 5 6 
#
# 1 0.008473 -0.002016 -0.002465 0.000000 0.000000 0.000000
# 2 -0.002016 0.016278 -0.006273 0.000000 0.000000 0.000000
# 3 -0.002465 -0.006273 0.013402 0.000000 0.000000 0.000000
# 4 0.000000 0.000000 0.000000 0.028741 0.000000 0.000000
# 5 0.000000 0.000000 0.000000 0.000000 0.012113 0.000000
# 6 0.000000 0.000000 0.000000 0.000000 0.000000 0.033854
#
#
# Mechanical properties :
#
#
# Convention : Reuss Voigt Hill
#
# Bulk Modulus (GPa) = 60.07542 62.15688 61.11615
# Shear Modulus (GPa) = 35.73556 43.06549 39.40053
#
# Velocity S-wave (km/s) = 4.27268 4.69046 4.48643
# Velocity P-wave (km/s) = 7.41830 7.81583 7.61966
#
# Compressibility (1/GPa) = 0.01664574
#
# Stress axis : x y z
#
# Youngs Moduli (GPa) = 118.01512 61.43446 74.61539
#
# Poissons Ratio (x) = 0.12383 0.18393
# Poissons Ratio (y) = 0.23787 0.46806
# Poissons Ratio (z) = 0.29092 0.38538
#
# Static dielectric constant tensor:
#      x y z
#    x 3.931410 0.000000 0.000000 
#    y 0.000000 3.700660 0.000000 
#    z 0.000000 0.000000 3.908260 
# 
# 
# High freq. dielectric constant tensor:
#      x y z
#    x 1.782110 0.000000 0.000000 
#    y 0.000000 1.753170 0.000000 
#    z 0.000000 0.000000 1.770460 
# 
# From -- ./inp_files/30003.got.cif
#   From: 2010.06.25/outbox.cif.g09.slc.cpg/sg58_16_cif.got.tgz:30003.got - 2010.06.26 21:38:00.
