data_PCOD8238219
_publ_section_title
;
Structure prediction by ZEFSAII (Michael W. Deem and Ramdas Pophale) SiO2 
 PCOD8238219
Probable space group: P N N M
;
_chemical_formula_sum "Si O2"
_cell_formula_units_Z 40
_cell_length_a 8.763016
_cell_length_b 29.068451
_cell_length_c 7.791139
_cell_angle_alpha 90.000000
_cell_angle_beta 90.000000
_cell_angle_gamma 90.000000
_cell_volume 1984.615811
_symmetry_space_group_name_H-M "P N N M"
_symmetry_group_IT_number 58
_symmetry_cell_setting 'orthorhombic'
loop_
_space_group_symop_operation_xyz
x,y,z
-x,-y,z
1/2+x,1/2-y,1/2-z
1/2-x,1/2+y,1/2-z
-x,-y,-z
x,y,-z
1/2-x,1/2+y,1/2+z
1/2+x,1/2-y,1/2+z
loop_
_atom_site_type_symbol
_atom_site_label
_atom_site_fract_x
_atom_site_fract_y
_atom_site_fract_z
Si Si1 0.569017 0.050102 0.500000
Si Si2 0.931323 0.050463 0.500000
Si Si3 0.937041 0.389951 0.301693
Si Si4 0.095185 0.298572 0.694860
Si Si5 0.071208 0.790610 0.196484
Si Si6 0.895431 0.877828 0.689889
O O1 0.750493 0.048354 0.500000
O O2 0.512829 0.073504 0.324795
O O3 0.500000 0.000000 0.500000
O O4 0.991980 0.077986 0.669162
O O5 0.000000 0.000000 0.500000
O O6 0.984369 0.399840 0.500000
O O7 0.991136 0.339788 0.232463
O O8 0.754435 0.392869 0.292076
O O9 0.128125 0.311188 0.500000
O O10 0.012829 0.249881 0.704333
O O11 0.261975 0.296811 0.784494
O O12 0.979390 0.837915 0.206644
O O13 0.083433 0.774861 0.000000
O O14 0.849167 0.859402 0.500000
#
# Coordination Sequence:
#
# PCOD8238219 Si02
#       6
#     4   4   8   8   8   8
#     4  12  24  44  72  98 132 168 220 270 331 394
#     4  10  22  42  68  96 126 170 216 268 327 392
#     4  11  23  42  67  96 131 171 216 270 326 391
#     4  10  23  38  55  85 124 167 220 264 319 383
#     4  11  22  36  56  85 123 168 216 267 316 382
#     4  10  21  38  62  91 124 164 210 262 322 383
#
# _framework density 20.155034000000001
#
# number of rings (size 3 to 8) (size 9 to 14) (size 15 to 20)
#    0.600    0.800    1.000    4.800    1.400    5.200 
#    0.000    1.000    0.000    4.200    0.000    0.000 
#    0.000    0.000    0.000    0.000    0.000    0.000 
#
# Total GULP energy -495903.676721 kJ/mol
# GULP energy per Si atom -12397.591918 kJ/mol
# Density = 2.010916 g / cm^3
# Si number density = 20.155034 Si / 1000 Ang^3
#
#
#
# Elastic Constant Matrix: (Units=GPa)
#
#
# Indices 1 2 3 4 5 6 
#
# 1 185.5533 79.9988 32.5187 0.0000 0.0000 0.0000
# 2 79.9988 160.6600 31.9704 0.0000 0.0000 0.0000
# 3 32.5187 31.9704 77.1757 0.0000 0.0000 0.0000
# 4 0.0000 0.0000 0.0000 30.5610 0.0000 0.0000
# 5 0.0000 0.0000 0.0000 0.0000 24.0452 0.0000
# 6 0.0000 0.0000 0.0000 0.0000 0.0000 43.0643
#
#
#
# Elastic Compliance Matrix: (Units=1/GPa)
#
#
# Indices 1 2 3 4 5 6 
#
# 1 0.007051 -0.003182 -0.001653 0.000000 0.000000 0.000000
# 2 -0.003182 0.008220 -0.002064 0.000000 0.000000 0.000000
# 3 -0.001653 -0.002064 0.014509 0.000000 0.000000 0.000000
# 4 0.000000 0.000000 0.000000 0.032721 0.000000 0.000000
# 5 0.000000 0.000000 0.000000 0.000000 0.041588 0.000000
# 6 0.000000 0.000000 0.000000 0.000000 0.000000 0.023221
#
#
# Mechanical properties :
#
#
# Convention : Reuss Voigt Hill
#
# Bulk Modulus (GPa) = 62.57291 79.15165 70.86228
# Shear Modulus (GPa) = 34.14480 38.12752 36.13616
#
# Velocity S-wave (km/s) = 4.12042 4.35410 4.23887
# Velocity P-wave (km/s) = 7.33146 8.03954 7.69365
#
# Compressibility (1/GPa) = 0.01598136
#
# Stress axis : x y z
#
# Youngs Moduli (GPa) = 141.82774 121.66162 68.92287
#
# Poissons Ratio (x) = 0.38712 0.11391
# Poissons Ratio (y) = 0.45129 0.14227
# Poissons Ratio (z) = 0.23441 0.25114
#
# Static dielectric constant tensor:
#      x y z
#    x 3.823580 0.000000 0.000000 
#    y 0.000000 3.567850 0.000000 
#    z 0.000000 0.000000 3.524320 
# 
# 
# High freq. dielectric constant tensor:
#      x y z
#    x 1.804330 0.000000 0.000000 
#    y 0.000000 1.783010 0.000000 
#    z 0.000000 0.000000 1.775710 
# 
# From -- ./inp_files/2662.got.cif
#   From: 2010.06.25/outbox.cif.g09.slc.cpg/sg58_2_cif.got.tgz:2662.got - 2010.06.26 21:38:00.
