data_PCOD8238735
_publ_section_title
;
Structure prediction by ZEFSAII (Michael W. Deem and Ramdas Pophale) SiO2 
 PCOD8238735
Probable space group: P N N M
;
_chemical_formula_sum "Si O2"
_cell_formula_units_Z 32
_cell_length_a 13.974473
_cell_length_b 5.674746
_cell_length_c 17.135806
_cell_angle_alpha 90.000000
_cell_angle_beta 90.000000
_cell_angle_gamma 90.000000
_cell_volume 1358.896572
_symmetry_space_group_name_H-M "P N N M"
_symmetry_group_IT_number 58
_symmetry_cell_setting 'orthorhombic'
loop_
_space_group_symop_operation_xyz
x,y,z
-x,-y,z
1/2+x,1/2-y,1/2-z
1/2-x,1/2+y,1/2-z
-x,-y,-z
x,y,-z
1/2-x,1/2+y,1/2+z
1/2+x,1/2-y,1/2+z
loop_
_atom_site_type_symbol
_atom_site_label
_atom_site_fract_x
_atom_site_fract_y
_atom_site_fract_z
Si Si1 0.184629 0.073236 0.361340
Si Si2 0.138859 0.847555 0.208907
Si Si3 0.000000 0.500000 0.135795
Si Si4 0.059656 0.247574 0.500000
Si Si5 0.331932 0.728838 0.582220
O O1 0.262135 0.210575 0.307923
O O2 0.124194 0.242101 0.420268
O O3 0.122061 0.933133 0.297608
O O4 0.233476 0.871746 0.413072
O O5 0.044249 0.698247 0.192264
O O6 0.144058 0.071973 0.154674
O O7 0.082127 0.414213 0.077977
O O8 0.000000 0.500000 0.500000
O O9 0.000000 0.000000 0.500000
O O10 0.328943 0.585978 0.500000
#
# Coordination Sequence:
#
# PCOD8238735 Si02
#       5
#     8   8   4   4   8
#     4  11  25  47  73 107 145 205 257 315 394 461
#     4  11  24  45  75 105 146 193 258 320 391 466
#     4  10  25  42  68 109 142 190 242 323 388 462
#     4  12  32  54  80 115 160 213 264 326 390 468
#     4  11  23  43  73 101 148 190 247 306 392 465
#
# _framework density 23.54852
#
# number of rings (size 3 to 8) (size 9 to 14) (size 15 to 20)
#    0.000    1.000    3.750    1.125    5.250    5.000 
#    4.500    0.000    0.000    0.000    0.000    0.000 
#    0.000    0.000    0.000    0.000    0.000    0.000 
#
# Total GULP energy -396485.106694 kJ/mol
# GULP energy per Si atom -12390.159584 kJ/mol
# Density = 2.349492 g / cm^3
# Si number density = 23.548520 Si / 1000 Ang^3
#
#
#
# Elastic Constant Matrix: (Units=GPa)
#
#
# Indices 1 2 3 4 5 6 
#
# 1 84.1991 39.3386 50.4938 0.0000 0.0000 0.0000
# 2 39.3386 102.1766 33.5145 0.0000 0.0000 0.0000
# 3 50.4938 33.5145 154.8280 0.0000 0.0000 0.0000
# 4 0.0000 0.0000 0.0000 109.2296 0.0000 0.0000
# 5 0.0000 0.0000 0.0000 0.0000 33.7858 0.0000
# 6 0.0000 0.0000 0.0000 0.0000 0.0000 47.9387
#
#
#
# Elastic Compliance Matrix: (Units=1/GPa)
#
#
# Indices 1 2 3 4 5 6 
#
# 1 0.016883 -0.005053 -0.004412 0.000000 0.000000 0.000000
# 2 -0.005053 0.012047 -0.000960 0.000000 0.000000 0.000000
# 3 -0.004412 -0.000960 0.008106 0.000000 0.000000 0.000000
# 4 0.000000 0.000000 0.000000 0.009155 0.000000 0.000000
# 5 0.000000 0.000000 0.000000 0.000000 0.029598 0.000000
# 6 0.000000 0.000000 0.000000 0.000000 0.000000 0.020860
#
#
# Mechanical properties :
#
#
# Convention : Reuss Voigt Hill
#
# Bulk Modulus (GPa) = 61.78239 65.32194 63.55217
# Shear Modulus (GPa) = 40.68507 52.71462 46.69985
#
# Velocity S-wave (km/s) = 4.16109 4.73647 4.45807
# Velocity P-wave (km/s) = 7.02704 7.59682 7.31748
#
# Compressibility (1/GPa) = 0.01618584
#
# Stress axis : x y z
#
# Youngs Moduli (GPa) = 59.22949 83.00660 123.37206
#
# Poissons Ratio (x) = 0.41943 0.54437
# Poissons Ratio (y) = 0.29928 0.11842
# Poissons Ratio (z) = 0.26134 0.07968
#
# Static dielectric constant tensor:
#      x y z
#    x 4.544750 0.000000 0.000000 
#    y 0.000000 4.464100 0.000000 
#    z 0.000000 0.000000 4.178370 
# 
# 
# High freq. dielectric constant tensor:
#      x y z
#    x 1.935930 0.000000 0.000000 
#    y 0.000000 1.930820 0.000000 
#    z 0.000000 0.000000 1.943390 
# 
# From -- ./inp_files/26557.got.cif
#   From: 2010.06.25/outbox.cif.g09.slc.cpg/sg58_14_cif.got.tgz:26557.got - 2010.06.26 21:38:00.
