data_PCOD8238133
_publ_section_title
;
Structure prediction by ZEFSAII (Michael W. Deem and Ramdas Pophale) SiO2 
 PCOD8238133
Probable space group: P N N M
;
_chemical_formula_sum "Si O2"
_cell_formula_units_Z 48
_cell_length_a 9.259834
_cell_length_b 7.937855
_cell_length_c 29.927376
_cell_angle_alpha 90.000000
_cell_angle_beta 90.000000
_cell_angle_gamma 90.000000
_cell_volume 2199.758491
_symmetry_space_group_name_H-M "P N N M"
_symmetry_group_IT_number 58
_symmetry_cell_setting 'orthorhombic'
loop_
_space_group_symop_operation_xyz
x,y,z
-x,-y,z
1/2+x,1/2-y,1/2-z
1/2-x,1/2+y,1/2-z
-x,-y,-z
x,y,-z
1/2-x,1/2+y,1/2+z
1/2+x,1/2-y,1/2+z
loop_
_atom_site_type_symbol
_atom_site_label
_atom_site_fract_x
_atom_site_fract_y
_atom_site_fract_z
Si Si1 0.131848 0.385901 0.719308
Si Si2 0.169535 0.699087 0.049368
Si Si3 0.630935 0.383410 0.290390
Si Si4 0.843372 0.806476 0.365750
Si Si5 0.654887 0.200688 0.548868
Si Si6 0.684897 0.695226 0.865718
O O1 0.259800 0.501876 0.739087
O O2 0.071254 0.257408 0.756400
O O3 0.210604 0.298377 0.676786
O O4 0.000000 0.500000 0.702756
O O5 0.278617 0.766288 0.087723
O O6 0.166502 0.499177 0.048059
O O7 0.007532 0.761821 0.060282
O O8 0.218293 0.765175 0.000000
O O9 0.500000 0.500000 0.308364
O O10 0.723578 0.298274 0.329622
O O11 0.014683 0.780229 0.363786
O O12 0.785891 0.996531 0.359911
O O13 0.700164 0.271460 0.500000
O O14 0.763123 0.267867 0.586528
#
# Coordination Sequence:
#
# PCOD8238133 Si02
#       6
#     8   8   8   8   8   8
#     4  12  25  46  65  89 125 163 206 259 320 376
#     4   8  15  30  54  88 123 161 205 251 302 357
#     4  12  27  43  66  93 122 163 211 260 317 383
#     4  10  21  37  63  88 126 165 205 258 306 371
#     4   8  15  30  54  87 126 160 202 254 299 356
#     4  10  21  38  59  93 125 162 209 255 312 365
#
# _framework density 21.820575999999999
#
# number of rings (size 3 to 8) (size 9 to 14) (size 15 to 20)
#    0.000    2.000    1.667    3.000    4.667    0.667 
#    3.000    3.333    0.000    2.000    0.000    0.000 
#    0.000    0.000    0.000    0.000    0.000    0.000 
#
# Total GULP energy -594805.013329 kJ/mol
# GULP energy per Si atom -12391.771111 kJ/mol
# Density = 2.177091 g / cm^3
# Si number density = 21.820576 Si / 1000 Ang^3
#
#
#
# Elastic Constant Matrix: (Units=GPa)
#
#
# Indices 1 2 3 4 5 6 
#
# 1 89.8064 44.3790 50.7067 0.0000 0.0000 0.0000
# 2 44.3790 67.9958 45.9551 0.0000 0.0000 0.0000
# 3 50.7067 45.9551 146.1693 0.0000 0.0000 0.0000
# 4 0.0000 0.0000 0.0000 15.3379 0.0000 0.0000
# 5 0.0000 0.0000 0.0000 0.0000 42.9398 0.0000
# 6 0.0000 0.0000 0.0000 0.0000 0.0000 29.6828
#
#
#
# Elastic Compliance Matrix: (Units=1/GPa)
#
#
# Indices 1 2 3 4 5 6 
#
# 1 0.017509 -0.009298 -0.003151 0.000000 0.000000 0.000000
# 2 -0.009298 0.023613 -0.004198 0.000000 0.000000 0.000000
# 3 -0.003151 -0.004198 0.009254 0.000000 0.000000 0.000000
# 4 0.000000 0.000000 0.000000 0.065198 0.000000 0.000000
# 5 0.000000 0.000000 0.000000 0.000000 0.023288 0.000000
# 6 0.000000 0.000000 0.000000 0.000000 0.000000 0.033690
#
#
# Mechanical properties :
#
#
# Convention : Reuss Voigt Hill
#
# Bulk Modulus (GPa) = 58.54139 65.11700 61.82920
# Shear Modulus (GPa) = 23.63625 28.45415 26.04520
#
# Velocity S-wave (km/s) = 3.29478 3.61502 3.45861
# Velocity P-wave (km/s) = 6.43125 6.87977 6.65929
#
# Compressibility (1/GPa) = 0.01708193
#
# Stress axis : x y z
#
# Youngs Moduli (GPa) = 57.11435 42.34991 108.05883
#
# Poissons Ratio (x) = 0.39378 0.34044
# Poissons Ratio (y) = 0.53106 0.45365
# Poissons Ratio (z) = 0.17994 0.17779
#
# Static dielectric constant tensor:
#      x y z
#    x 3.899720 0.000000 0.000000 
#    y 0.000000 3.888280 0.000000 
#    z 0.000000 0.000000 4.252760 
# 
# 
# High freq. dielectric constant tensor:
#      x y z
#    x 1.851980 0.000000 0.000000 
#    y 0.000000 1.839140 0.000000 
#    z 0.000000 0.000000 1.861970 
# 
# From -- ./inp_files/34537.got.cif
#   From: 2010.06.25/outbox.cif.g09.slc.cpg/sg58_18_cif.got.tgz:34537.got - 2010.06.26 21:38:00.
