data_PCOD8238687
_publ_section_title
;
Structure prediction by ZEFSAII (Michael W. Deem and Ramdas Pophale) SiO2 
 PCOD8238687
Probable space group: P N N M
;
_chemical_formula_sum "Si O2"
_cell_formula_units_Z 64
_cell_length_a 23.875099
_cell_length_b 15.296521
_cell_length_c 8.603222
_cell_angle_alpha 90.000000
_cell_angle_beta 90.000000
_cell_angle_gamma 90.000000
_cell_volume 3141.947891
_symmetry_space_group_name_H-M "P N N M"
_symmetry_group_IT_number 58
_symmetry_cell_setting 'orthorhombic'
loop_
_space_group_symop_operation_xyz
x,y,z
-x,-y,z
1/2+x,1/2-y,1/2-z
1/2-x,1/2+y,1/2-z
-x,-y,-z
x,y,-z
1/2-x,1/2+y,1/2+z
1/2+x,1/2-y,1/2+z
loop_
_atom_site_type_symbol
_atom_site_label
_atom_site_fract_x
_atom_site_fract_y
_atom_site_fract_z
Si Si1 0.178979 0.251635 0.181444
Si Si2 0.943458 0.756319 0.318704
Si Si3 0.368584 0.349696 0.822833
Si Si4 0.479019 0.402253 0.675241
Si Si5 0.764644 0.400834 0.681104
Si Si6 0.127002 0.672078 0.825070
Si Si7 0.007918 0.596731 0.177659
Si Si8 0.745459 0.600608 0.320813
O O1 0.121622 0.247035 0.275507
O O2 0.215506 0.166596 0.227433
O O3 0.212200 0.340617 0.220693
O O4 0.164832 0.251686 0.000000
O O5 0.949601 0.773699 0.500000
O O6 0.973272 0.836182 0.231533
O O7 0.972599 0.664918 0.277929
O O8 0.424066 0.403109 0.781616
O O9 0.382525 0.248404 0.798945
O O10 0.318057 0.372637 0.709648
O O11 0.351261 0.368137 0.000000
O O12 0.500000 0.500000 0.681157
O O13 0.462936 0.374205 0.500000
O O14 0.779374 0.390063 0.500000
O O15 0.818398 0.382561 0.784556
O O16 0.747934 0.499068 0.724531
O O17 0.073941 0.610220 0.810620
O O18 0.132618 0.709549 0.000000
O O19 0.000000 0.500000 0.246280
O O20 0.986542 0.603441 0.000000
O O21 0.760426 0.616181 0.500000
#
# Coordination Sequence:
#
# PCOD8238687 Si02
#       8
#     8   8   8   8   8   8   8   8
#     4  11  24  44  66  91 128 174 215 260 319 380
#     4  12  26  43  65  96 132 170 211 264 323 382
#     4  12  24  41  66  96 130 167 211 265 321 378
#     4  11  25  45  69  95 127 170 216 265 321 380
#     4  10  24  43  65  93 129 168 210 263 322 377
#     4  11  22  39  67  95 126 167 214 265 317 373
#     4  10  23  43  66  95 128 169 217 264 316 379
#     4  11  24  43  66  97 130 167 215 264 319 380
#
# _framework density 20.369529
#
# number of rings (size 3 to 8) (size 9 to 14) (size 15 to 20)
#    0.000    1.000    2.500    3.750    3.500    3.250 
#    0.000    0.000    0.000    0.000    0.000    0.000 
#    0.000    0.000    0.000    0.000    0.000    0.000 
#
# Total GULP energy -793894.185828 kJ/mol
# GULP energy per Si atom -12404.596654 kJ/mol
# Density = 2.032317 g / cm^3
# Si number density = 20.369529 Si / 1000 Ang^3
#
#
#
# Elastic Constant Matrix: (Units=GPa)
#
#
# Indices 1 2 3 4 5 6 
#
# 1 112.3749 34.6435 24.1539 0.0000 0.0000 0.0000
# 2 34.6435 120.1348 42.1046 0.0000 0.0000 0.0000
# 3 24.1539 42.1046 72.0675 0.0000 0.0000 0.0000
# 4 0.0000 0.0000 0.0000 16.6411 0.0000 0.0000
# 5 0.0000 0.0000 0.0000 0.0000 34.7102 0.0000
# 6 0.0000 0.0000 0.0000 0.0000 0.0000 27.3184
#
#
#
# Elastic Compliance Matrix: (Units=1/GPa)
#
#
# Indices 1 2 3 4 5 6 
#
# 1 0.010013 -0.002152 -0.002099 0.000000 0.000000 0.000000
# 2 -0.002152 0.010930 -0.005664 0.000000 0.000000 0.000000
# 3 -0.002099 -0.005664 0.017889 0.000000 0.000000 0.000000
# 4 0.000000 0.000000 0.000000 0.060092 0.000000 0.000000
# 5 0.000000 0.000000 0.000000 0.000000 0.028810 0.000000
# 6 0.000000 0.000000 0.000000 0.000000 0.000000 0.036605
#
#
# Mechanical properties :
#
#
# Convention : Reuss Voigt Hill
#
# Bulk Modulus (GPa) = 52.62729 56.26456 54.44593
# Shear Modulus (GPa) = 26.24625 29.31229 27.77927
#
# Velocity S-wave (km/s) = 3.59347 3.79757 3.69693
# Velocity P-wave (km/s) = 6.56580 6.84913 6.70896
#
# Compressibility (1/GPa) = 0.01900155
#
# Stress axis : x y z
#
# Youngs Moduli (GPa) = 99.86703 91.49314 55.90144
#
# Poissons Ratio (x) = 0.19689 0.11732
# Poissons Ratio (y) = 0.21491 0.31665
# Poissons Ratio (z) = 0.20960 0.51825
#
# Static dielectric constant tensor:
#      x y z
#    x 3.699630 0.000000 0.000000 
#    y 0.000000 3.834630 0.000000 
#    z 0.000000 0.000000 3.968630 
# 
# 
# High freq. dielectric constant tensor:
#      x y z
#    x 1.807770 0.000000 0.000000 
#    y 0.000000 1.805120 0.000000 
#    z 0.000000 0.000000 1.800700 
# 
# From -- ./inp_files/10032.got.cif
#   From: 2010.06.25/outbox.cif.g09.slc.cpg/sg58_6_cif.got.tgz:10032.got - 2010.06.26 21:38:00.
