data_PCOD8238548
_publ_section_title
;
Structure prediction by ZEFSAII (Michael W. Deem and Ramdas Pophale) SiO2 
 PCOD8238548
Probable space group: P N N M
;
_chemical_formula_sum "Si O2"
_cell_formula_units_Z 32
_cell_length_a 8.730583
_cell_length_b 5.114635
_cell_length_c 32.497086
_cell_angle_alpha 90.000000
_cell_angle_beta 90.000000
_cell_angle_gamma 90.000000
_cell_volume 1451.116604
_symmetry_space_group_name_H-M "P N N M"
_symmetry_group_IT_number 58
_symmetry_cell_setting 'orthorhombic'
loop_
_space_group_symop_operation_xyz
x,y,z
-x,-y,z
1/2+x,1/2-y,1/2-z
1/2-x,1/2+y,1/2-z
-x,-y,-z
x,y,-z
1/2-x,1/2+y,1/2+z
1/2+x,1/2-y,1/2+z
loop_
_atom_site_type_symbol
_atom_site_label
_atom_site_fract_x
_atom_site_fract_y
_atom_site_fract_z
Si Si1 0.891912 0.249056 0.897894
Si Si2 0.095489 0.250707 0.548625
Si Si3 0.675256 0.573359 0.687196
Si Si4 0.603243 0.750575 0.228255
O O1 0.766190 0.259808 0.933432
O O2 0.797083 0.233601 0.854724
O O3 0.000000 0.500000 0.898942
O O4 0.000000 0.000000 0.904625
O O5 0.117067 0.259383 0.500000
O O6 0.000000 0.500000 0.564528
O O7 0.000000 0.000000 0.563044
O O8 0.500000 0.500000 0.688062
O O9 0.705049 0.732996 0.729626
O O10 0.781620 0.312773 0.689942
O O11 0.500000 0.500000 0.217165
O O12 0.500000 0.000000 0.234620
#
# Coordination Sequence:
#
# PCOD8238548 Si02
#       4
#     8   8   8   8
#     4  11  24  41  64  95 130 166 206 258 315 373
#     4  10  22  43  69  96 129 166 204 252 310 373
#     4  10  22  41  61  86 124 165 208 260 315 363
#     4  11  23  39  61  87 117 162 217 262 305 363
#
# _framework density 22.051984000000001
#
# number of rings (size 3 to 8) (size 9 to 14) (size 15 to 20)
#    0.000    1.500    0.000    5.250    0.000    8.000 
#    0.000    6.250    0.000    0.000    0.000    0.000 
#    0.000    0.000    0.000    0.000    0.000    0.000 
#
# Total GULP energy -396657.205532 kJ/mol
# GULP energy per Si atom -12395.537673 kJ/mol
# Density = 2.200179 g / cm^3
# Si number density = 22.051984 Si / 1000 Ang^3
#
#
#
# Elastic Constant Matrix: (Units=GPa)
#
#
# Indices 1 2 3 4 5 6 
#
# 1 135.0904 79.3643 57.2883 0.0000 0.0000 0.0000
# 2 79.3643 182.7344 46.5096 0.0000 0.0000 0.0000
# 3 57.2883 46.5096 72.3142 0.0000 0.0000 0.0000
# 4 0.0000 0.0000 0.0000 25.2303 0.0000 0.0000
# 5 0.0000 0.0000 0.0000 0.0000 -76.2145 0.0000
# 6 0.0000 0.0000 0.0000 0.0000 0.0000 49.4733
#
#
#
# Elastic Compliance Matrix: (Units=1/GPa)
#
#
# Indices 1 2 3 4 5 6 
#
# 1 0.012841 -0.003573 -0.007875 0.000000 0.000000 0.000000
# 2 -0.003573 0.007538 -0.002018 0.000000 0.000000 0.000000
# 3 -0.007875 -0.002018 0.021365 0.000000 0.000000 0.000000
# 4 0.000000 0.000000 0.000000 0.039635 0.000000 0.000000
# 5 0.000000 0.000000 0.000000 0.000000 -0.013121 0.000000
# 6 0.000000 0.000000 0.000000 0.000000 0.000000 0.020213
#
#
# Mechanical properties :
#
#
# Convention : Reuss Voigt Hill
#
# Bulk Modulus (GPa) = 67.50850 84.05148 75.77999
# Shear Modulus (GPa) = 41.54955 13.49629 27.52292
#
# Velocity S-wave (km/s) = 4.34540 2.47659 3.53667
# Velocity P-wave (km/s) = 7.47372 6.80999 7.14956
#
# Compressibility (1/GPa) = 0.01481295
#
# Stress axis : x y z
#
# Youngs Moduli (GPa) = 77.87606 132.66824 46.80596
#
# Poissons Ratio (x) = 0.47398 0.36859
# Poissons Ratio (y) = 0.27823 0.09443
# Poissons Ratio (z) = 0.61327 0.26767
#
# Static dielectric constant tensor:
#      x y z
#    x 7.414290 0.000000 0.000000 
#    y 0.000000 4.198140 0.000000 
#    z 0.000000 0.000000 4.516150 
# 
# 
# High freq. dielectric constant tensor:
#      x y z
#    x 1.886530 0.000000 0.000000 
#    y 0.000000 1.881550 0.000000 
#    z 0.000000 0.000000 1.848430 
# 
# From -- ./inp_files/34333.got.cif
#   From: 2010.06.25/outbox.cif.g09.slc.cpg/sg58_18_cif.got.tgz:34333.got - 2010.06.26 21:38:00.
