data_PCOD8238637
_publ_section_title
;
Structure prediction by ZEFSAII (Michael W. Deem and Ramdas Pophale) SiO2 
 PCOD8238637
Probable space group: P N N M
;
_chemical_formula_sum "Si O2"
_cell_formula_units_Z 40
_cell_length_a 11.660321
_cell_length_b 20.264526
_cell_length_c 9.002976
_cell_angle_alpha 90.000000
_cell_angle_beta 90.000000
_cell_angle_gamma 90.000000
_cell_volume 2127.321104
_symmetry_space_group_name_H-M "P N N M"
_symmetry_group_IT_number 58
_symmetry_cell_setting 'orthorhombic'
loop_
_space_group_symop_operation_xyz
x,y,z
-x,-y,z
1/2+x,1/2-y,1/2-z
1/2-x,1/2+y,1/2-z
-x,-y,-z
x,y,-z
1/2-x,1/2+y,1/2+z
1/2+x,1/2-y,1/2+z
loop_
_atom_site_type_symbol
_atom_site_label
_atom_site_fract_x
_atom_site_fract_y
_atom_site_fract_z
Si Si1 0.872352 0.022740 0.827304
Si Si2 0.795333 0.405894 0.325224
Si Si3 0.008624 0.374851 0.167113
Si Si4 0.180720 0.721366 0.832634
Si Si5 0.235324 0.855940 0.676114
O O1 0.849188 0.087399 0.731311
O O2 0.785543 0.965663 0.776481
O O3 0.856487 0.040085 0.000000
O O4 0.000000 0.000000 0.791478
O O5 0.794285 0.394816 0.500000
O O6 0.748998 0.338657 0.246445
O O7 0.925833 0.421223 0.268572
O O8 0.136036 0.371257 0.234316
O O9 0.953629 0.300794 0.165716
O O10 0.010685 0.403945 0.000000
O O11 0.191548 0.787571 0.740779
O O12 0.227230 0.731584 0.000000
O O13 0.233093 0.851002 0.500000
#
# Coordination Sequence:
#
# PCOD8238637 Si02
#       5
#     8   8   8   8   8
#     4  10  23  41  58  82 118 158 192 234 295 349
#     4   9  18  36  60  83 109 148 195 235 280 345
#     4   8  19  37  56  81 113 149 184 232 295 340
#     4   9  19  37  57  81 115 153 187 232 294 342
#     4  11  22  37  59  88 117 149 196 241 284 346
#
# _framework density 18.802990000000001
#
# number of rings (size 3 to 8) (size 9 to 14) (size 15 to 20)
#    1.200    1.400    0.000    1.200    0.000    6.000 
#    0.000   12.000    0.000    0.000    0.000    0.000 
#    0.000    0.000    0.000    0.000    0.000    0.000 
#
# Total GULP energy -495726.931558 kJ/mol
# GULP energy per Si atom -12393.173289 kJ/mol
# Density = 1.876019 g / cm^3
# Si number density = 18.802990 Si / 1000 Ang^3
#
#
#
# Elastic Constant Matrix: (Units=GPa)
#
#
# Indices 1 2 3 4 5 6 
#
# 1 60.4032 -4.1545 8.4067 0.0000 0.0000 0.0000
# 2 -4.1545 64.7504 18.6967 0.0000 0.0000 0.0000
# 3 8.4067 18.6967 63.6732 0.0000 0.0000 0.0000
# 4 0.0000 0.0000 0.0000 27.6682 0.0000 0.0000
# 5 0.0000 0.0000 0.0000 0.0000 13.9134 0.0000
# 6 0.0000 0.0000 0.0000 0.0000 0.0000 25.4979
#
#
#
# Elastic Compliance Matrix: (Units=1/GPa)
#
#
# Indices 1 2 3 4 5 6 
#
# 1 0.017079 0.001909 -0.002815 0.000000 0.000000 0.000000
# 2 0.001909 0.017088 -0.005270 0.000000 0.000000 0.000000
# 3 -0.002815 -0.005270 0.017624 0.000000 0.000000 0.000000
# 4 0.000000 0.000000 0.000000 0.036143 0.000000 0.000000
# 5 0.000000 0.000000 0.000000 0.000000 0.071873 0.000000
# 6 0.000000 0.000000 0.000000 0.000000 0.000000 0.039219
#
#
# Mechanical properties :
#
#
# Convention : Reuss Voigt Hill
#
# Bulk Modulus (GPa) = 25.35609 26.08051 25.71830
# Shear Modulus (GPa) = 22.26933 24.47443 23.37188
#
# Velocity S-wave (km/s) = 3.44517 3.61172 3.52943
# Velocity P-wave (km/s) = 5.41664 5.59403 5.50605
#
# Compressibility (1/GPa) = 0.03943826
#
# Stress axis : x y z
#
# Youngs Moduli (GPa) = 58.55313 58.52061 56.73995
#
# Poissons Ratio (x) = -0.11170 0.15974
# Poissons Ratio (y) = -0.11176 0.29900
# Poissons Ratio (z) = 0.16485 0.30838
#
# Static dielectric constant tensor:
#      x y z
#    x 3.392900 0.000000 0.000000 
#    y 0.000000 3.280540 0.000000 
#    z 0.000000 0.000000 3.413910 
# 
# 
# High freq. dielectric constant tensor:
#      x y z
#    x 1.717790 0.000000 0.000000 
#    y 0.000000 1.722340 0.000000 
#    z 0.000000 0.000000 1.735880 
# 
# From -- ./inp_files/4021.got.cif
#   From: 2010.06.25/outbox.cif.g09.slc.cpg/sg58_3_cif.got.tgz:4021.got - 2010.06.26 21:38:00.
