data_PCOD8238640
_publ_section_title
;
Structure prediction by ZEFSAII (Michael W. Deem and Ramdas Pophale) SiO2 
 PCOD8238640
Probable space group: P N N M
;
_chemical_formula_sum "Si O2"
_cell_formula_units_Z 40
_cell_length_a 17.794035
_cell_length_b 9.069300
_cell_length_c 12.302916
_cell_angle_alpha 90.000000
_cell_angle_beta 90.000000
_cell_angle_gamma 90.000000
_cell_volume 1985.437714
_symmetry_space_group_name_H-M "P N N M"
_symmetry_group_IT_number 58
_symmetry_cell_setting 'orthorhombic'
loop_
_space_group_symop_operation_xyz
x,y,z
-x,-y,z
1/2+x,1/2-y,1/2-z
1/2-x,1/2+y,1/2-z
-x,-y,-z
x,y,-z
1/2-x,1/2+y,1/2+z
1/2+x,1/2-y,1/2+z
loop_
_atom_site_type_symbol
_atom_site_label
_atom_site_fract_x
_atom_site_fract_y
_atom_site_fract_z
Si Si1 0.695468 0.802555 0.127071
Si Si2 0.539800 0.311902 0.500000
Si Si3 0.439148 0.625980 0.723926
Si Si4 0.797222 0.054905 0.208822
Si Si5 0.381331 0.371408 0.500000
Si Si6 0.020921 0.658302 0.374285
O O1 0.729804 0.667673 0.197455
O O2 0.606935 0.802711 0.147967
O O3 0.727049 0.958612 0.168259
O O4 0.715991 0.780387 0.000000
O O5 0.571775 0.262933 0.618504
O O6 0.451828 0.259381 0.500000
O O7 0.571332 0.479358 0.500000
O O8 0.500000 0.500000 0.691759
O O9 0.360471 0.553648 0.757942
O O10 0.467955 0.717078 0.825347
O O11 0.829950 0.147025 0.106704
O O12 0.001157 0.657901 0.500000
O O13 0.000000 0.500000 0.323354
#
# Coordination Sequence:
#
# PCOD8238640 Si02
#       6
#     8   4   8   8   4   8
#     4  11  24  42  60  89 127 161 203 255 304 363
#     4   9  14  28  57  88 109 134 191 240 281 344
#     4  11  18  35  62  87 112 153 203 243 289 360
#     4  11  22  38  61  88 121 162 200 251 309 362
#     4   9  14  32  56  82 109 149 187 230 297 353
#     4  10  23  41  60  86 122 160 199 250 305 354
#
# _framework density 20.146688999999999
#
# number of rings (size 3 to 8) (size 9 to 14) (size 15 to 20)
#    0.000    1.600    7.000    0.000    2.800    1.200 
#    1.800    0.500    0.000    0.000    0.000    0.000 
#    0.000    0.000    0.000    0.000    0.000    0.000 
#
# Total GULP energy -495550.472741 kJ/mol
# GULP energy per Si atom -12388.761819 kJ/mol
# Density = 2.010083 g / cm^3
# Si number density = 20.146689 Si / 1000 Ang^3
#
#
#
# Elastic Constant Matrix: (Units=GPa)
#
#
# Indices 1 2 3 4 5 6 
#
# 1 17.8676 9.3249 18.6204 0.0000 0.0000 0.0000
# 2 9.3249 57.9373 51.2027 0.0000 0.0000 0.0000
# 3 18.6204 51.2027 107.4284 0.0000 0.0000 0.0000
# 4 0.0000 0.0000 0.0000 22.5606 0.0000 0.0000
# 5 0.0000 0.0000 0.0000 0.0000 27.8149 0.0000
# 6 0.0000 0.0000 0.0000 0.0000 0.0000 24.1213
#
#
#
# Elastic Compliance Matrix: (Units=1/GPa)
#
#
# Indices 1 2 3 4 5 6 
#
# 1 0.068333 -0.000917 -0.011407 0.000000 0.000000 0.000000
# 2 -0.000917 0.029834 -0.014060 0.000000 0.000000 0.000000
# 3 -0.011407 -0.014060 0.017987 0.000000 0.000000 0.000000
# 4 0.000000 0.000000 0.000000 0.044325 0.000000 0.000000
# 5 0.000000 0.000000 0.000000 0.000000 0.035952 0.000000
# 6 0.000000 0.000000 0.000000 0.000000 0.000000 0.041457
#
#
# Mechanical properties :
#
#
# Convention : Reuss Voigt Hill
#
# Bulk Modulus (GPa) = 15.77650 37.94769 26.86210
# Shear Modulus (GPa) = 16.03664 21.83837 18.93750
#
# Velocity S-wave (km/s) = 2.82440 3.29594 3.06924
# Velocity P-wave (km/s) = 4.29931 5.77589 5.09141
#
# Compressibility (1/GPa) = 0.06338540
#
# Stress axis : x y z
#
# Youngs Moduli (GPa) = 14.63412 33.51914 55.59506
#
# Poissons Ratio (x) = 0.03074 0.63418
# Poissons Ratio (y) = 0.01342 0.78169
# Poissons Ratio (z) = 0.16693 0.47129
#
# Static dielectric constant tensor:
#      x y z
#    x 3.653220 0.000000 0.000000 
#    y 0.000000 3.318850 0.000000 
#    z 0.000000 0.000000 4.023000 
# 
# 
# High freq. dielectric constant tensor:
#      x y z
#    x 1.785670 0.000000 0.000000 
#    y 0.000000 1.739560 0.000000 
#    z 0.000000 0.000000 1.800120 
# 
# From -- ./inp_files/16894.got.cif
#   From: 2010.06.25/outbox.cif.g09.slc.cpg/sg58_9_cif.got.tgz:16894.got - 2010.06.26 21:38:00.
