data_PCOD8238321
_publ_section_title
;
Structure prediction by ZEFSAII (Michael W. Deem and Ramdas Pophale) SiO2 
 PCOD8238321
Probable space group: P N N M
;
_chemical_formula_sum "Si O2"
_cell_formula_units_Z 48
_cell_length_a 8.689406
_cell_length_b 9.500222
_cell_length_c 28.997382
_cell_angle_alpha 90.000000
_cell_angle_beta 90.000000
_cell_angle_gamma 90.000000
_cell_volume 2393.771176
_symmetry_space_group_name_H-M "P N N M"
_symmetry_group_IT_number 58
_symmetry_cell_setting 'orthorhombic'
loop_
_space_group_symop_operation_xyz
x,y,z
-x,-y,z
1/2+x,1/2-y,1/2-z
1/2-x,1/2+y,1/2-z
-x,-y,-z
x,y,-z
1/2-x,1/2+y,1/2+z
1/2+x,1/2-y,1/2+z
loop_
_atom_site_type_symbol
_atom_site_label
_atom_site_fract_x
_atom_site_fract_y
_atom_site_fract_z
Si Si1 0.084603 0.859510 0.210601
Si Si2 0.871414 0.622274 0.225058
Si Si3 0.118964 0.709087 0.447102
Si Si4 0.280326 0.904244 0.948126
Si Si5 0.788963 0.598565 0.121284
Si Si6 0.380681 0.203656 0.382913
O O1 0.237086 0.904256 0.238227
O O2 0.133325 0.761198 0.168543
O O3 0.960531 0.766253 0.239225
O O4 0.000000 0.000000 0.193387
O O5 0.784718 0.634606 0.175748
O O6 0.000000 0.500000 0.224390
O O7 0.145727 0.761904 0.500000
O O8 0.219390 0.569980 0.437044
O O9 0.157502 0.826764 0.409027
O O10 0.943657 0.667388 0.439476
O O11 0.156569 0.830533 0.916468
O O12 0.226821 0.879401 0.000000
O O13 0.767850 0.431156 0.113507
O O14 0.951172 0.652897 0.102355
#
# Coordination Sequence:
#
# PCOD8238321 Si02
#       6
#     8   8   8   8   8   8
#     4  11  24  39  66  90 120 165 203 253 308 366
#     4  11  22  45  61  88 128 158 203 254 306 364
#     4   9  20  39  61  87 120 158 197 244 299 355
#     4   9  20  39  60  88 123 153 197 250 293 354
#     4  10  21  40  60  81 123 159 192 247 298 357
#     4  10  22  39  57  87 120 154 198 244 299 354
#
# _framework density 20.052042
#
# number of rings (size 3 to 8) (size 9 to 14) (size 15 to 20)
#    0.000    2.000    3.333    2.000    4.667    3.333 
#    3.000    5.000    0.000    0.000    0.000    0.000 
#    0.000    0.000    0.000    0.000    0.000    0.000 
#
# Total GULP energy -595023.795334 kJ/mol
# GULP energy per Si atom -12396.329069 kJ/mol
# Density = 2.000640 g / cm^3
# Si number density = 20.052042 Si / 1000 Ang^3
#
#
#
# Elastic Constant Matrix: (Units=GPa)
#
#
# Indices 1 2 3 4 5 6 
#
# 1 38.6588 23.2707 31.7801 0.0000 0.0000 0.0000
# 2 23.2707 96.3215 28.8742 0.0000 0.0000 0.0000
# 3 31.7801 28.8742 66.3302 0.0000 0.0000 0.0000
# 4 0.0000 0.0000 0.0000 -17.7649 0.0000 0.0000
# 5 0.0000 0.0000 0.0000 0.0000 19.6467 0.0000
# 6 0.0000 0.0000 0.0000 0.0000 0.0000 37.6588
#
#
#
# Elastic Compliance Matrix: (Units=1/GPa)
#
#
# Indices 1 2 3 4 5 6 
#
# 1 0.044704 -0.005037 -0.019226 0.000000 0.000000 0.000000
# 2 -0.005037 0.012507 -0.003031 0.000000 0.000000 0.000000
# 3 -0.019226 -0.003031 0.025607 0.000000 0.000000 0.000000
# 4 0.000000 0.000000 0.000000 -0.056291 0.000000 0.000000
# 5 0.000000 0.000000 0.000000 0.000000 0.050899 0.000000
# 6 0.000000 0.000000 0.000000 0.000000 0.000000 0.026554
#
#
# Mechanical properties :
#
#
# Convention : Reuss Voigt Hill
#
# Bulk Modulus (GPa) = 35.42280 41.01782 38.22031
# Shear Modulus (GPa) = 29.76532 15.73383 22.74957
#
# Velocity S-wave (km/s) = 3.85698 2.80420 3.37193
# Velocity P-wave (km/s) = 6.12689 5.56640 5.85336
#
# Compressibility (1/GPa) = 0.02823040
#
# Stress axis : x y z
#
# Youngs Moduli (GPa) = 22.36913 79.95210 39.05141
#
# Poissons Ratio (x) = 0.40271 0.75081
# Poissons Ratio (y) = 0.11267 0.11838
# Poissons Ratio (z) = 0.43007 0.24236
#
# Static dielectric constant tensor:
#      x y z
#    x 3.474810 0.000000 0.000000 
#    y 0.000000 3.908950 0.000000 
#    z 0.000000 0.000000 3.513940 
# 
# 
# High freq. dielectric constant tensor:
#      x y z
#    x 1.771490 0.000000 0.000000 
#    y 0.000000 1.797300 0.000000 
#    z 0.000000 0.000000 1.772070 
# 
# From -- ./inp_files/34533.got.cif
#   From: 2010.06.25/outbox.cif.g09.slc.cpg/sg58_18_cif.got.tgz:34533.got - 2010.06.26 21:38:00.
