data_PCOD8238472
_publ_section_title
;
Structure prediction by ZEFSAII (Michael W. Deem and Ramdas Pophale) SiO2 
 PCOD8238472
Probable space group: P N N M
;
_chemical_formula_sum "Si O2"
_cell_formula_units_Z 56
_cell_length_a 14.795554
_cell_length_b 9.187759
_cell_length_c 20.075484
_cell_angle_alpha 90.000000
_cell_angle_beta 90.000000
_cell_angle_gamma 90.000000
_cell_volume 2729.020831
_symmetry_space_group_name_H-M "P N N M"
_symmetry_group_IT_number 58
_symmetry_cell_setting 'orthorhombic'
loop_
_space_group_symop_operation_xyz
x,y,z
-x,-y,z
1/2+x,1/2-y,1/2-z
1/2-x,1/2+y,1/2-z
-x,-y,-z
x,y,-z
1/2-x,1/2+y,1/2+z
1/2+x,1/2-y,1/2+z
loop_
_atom_site_type_symbol
_atom_site_label
_atom_site_fract_x
_atom_site_fract_y
_atom_site_fract_z
Si Si1 0.287338 0.573781 0.576459
Si Si2 0.954759 0.853887 0.161593
Si Si3 0.321579 0.282610 0.172176
Si Si4 0.111446 0.661336 0.195836
Si Si5 0.352130 0.860621 0.258996
Si Si6 0.606486 0.486612 0.927640
Si Si7 0.784992 0.719731 0.625629
O O1 0.276234 0.624643 0.500000
O O2 0.391479 0.610904 0.597635
O O3 0.218874 0.656891 0.625076
O O4 0.264799 0.401281 0.580007
O O5 0.893895 0.795205 0.221812
O O6 0.034550 0.735222 0.149184
O O7 0.000000 0.000000 0.188204
O O8 0.389997 0.221487 0.228116
O O9 0.247352 0.373374 0.211663
O O10 0.370251 0.398509 0.127563
O O11 0.090976 0.489961 0.206286
O O12 0.208505 0.683161 0.161515
O O13 0.345662 0.868349 0.179384
O O14 0.500000 0.500000 0.931751
O O15 0.646368 0.324932 0.913541
O O16 0.646732 0.530246 0.000000
#
# Coordination Sequence:
#
# PCOD8238472 Si02
#       7
#     8   8   8   8   8   8   8
#     4  11  23  44  66  90 131 176 218 264 318 397
#     4  11  24  38  63 101 127 166 213 261 326 387
#     4  10  22  39  66  91 121 170 211 260 322 374
#     4  11  21  39  62  95 133 162 207 269 327 386
#     4  10  22  38  63  91 133 160 207 264 322 384
#     4  11  25  43  63  91 124 165 215 261 312 384
#     4  11  22  40  65  94 123 170 217 262 330 380
#
# _framework density 20.52018
#
# number of rings (size 3 to 8) (size 9 to 14) (size 15 to 20)
#    0.000    1.286    4.286    1.286    4.000    0.286 
#    0.000    0.714    0.000    4.286    0.000    0.000 
#    0.000    0.000    0.000    0.000    0.000    0.000 
#
# Total GULP energy -693931.978860 kJ/mol
# GULP energy per Si atom -12391.642480 kJ/mol
# Density = 2.047347 g / cm^3
# Si number density = 20.520180 Si / 1000 Ang^3
#
#
#
# Elastic Constant Matrix: (Units=GPa)
#
#
# Indices 1 2 3 4 5 6 
#
# 1 72.6539 19.0891 24.2240 0.0000 0.0000 0.0000
# 2 19.0891 92.7679 27.6580 0.0000 0.0000 0.0000
# 3 24.2240 27.6580 96.2302 0.0000 0.0000 0.0000
# 4 0.0000 0.0000 0.0000 7.9777 0.0000 0.0000
# 5 0.0000 0.0000 0.0000 0.0000 16.4722 0.0000
# 6 0.0000 0.0000 0.0000 0.0000 0.0000 42.7116
#
#
#
# Elastic Compliance Matrix: (Units=1/GPa)
#
#
# Indices 1 2 3 4 5 6 
#
# 1 0.015427 -0.002206 -0.003249 0.000000 0.000000 0.000000
# 2 -0.002206 0.012105 -0.002924 0.000000 0.000000 0.000000
# 3 -0.003249 -0.002924 0.012050 0.000000 0.000000 0.000000
# 4 0.000000 0.000000 0.000000 0.125349 0.000000 0.000000
# 5 0.000000 0.000000 0.000000 0.000000 0.060708 0.000000
# 6 0.000000 0.000000 0.000000 0.000000 0.000000 0.023413
#
#
# Mechanical properties :
#
#
# Convention : Reuss Voigt Hill
#
# Bulk Modulus (GPa) = 43.81353 44.84382 44.32867
# Shear Modulus (GPa) = 18.28697 26.14436 22.21566
#
# Velocity S-wave (km/s) = 2.98849 3.57330 3.29390
# Velocity P-wave (km/s) = 5.77112 6.23904 6.00964
#
# Compressibility (1/GPa) = 0.02282400
#
# Stress axis : x y z
#
# Youngs Moduli (GPa) = 64.82217 82.60907 82.98663
#
# Poissons Ratio (x) = 0.18220 0.26966
# Poissons Ratio (y) = 0.14297 0.24265
# Poissons Ratio (z) = 0.21064 0.24155
#
# Static dielectric constant tensor:
#      x y z
#    x 3.793870 0.000000 0.000000 
#    y 0.000000 3.848500 0.000000 
#    z 0.000000 0.000000 3.757080 
# 
# 
# High freq. dielectric constant tensor:
#      x y z
#    x 1.803420 0.000000 0.000000 
#    y 0.000000 1.812120 0.000000 
#    z 0.000000 0.000000 1.785770 
# 
# From -- ./inp_files/30000.got.cif
#   From: 2010.06.25/outbox.cif.g09.slc.cpg/sg58_15_cif.got.tgz:30000.got - 2010.06.26 21:38:00.
