data_PCOD8238277
_publ_section_title
;
Structure prediction by ZEFSAII (Michael W. Deem and Ramdas Pophale) SiO2 
 PCOD8238277
Probable space group: P N N M
;
_chemical_formula_sum "Si O2"
_cell_formula_units_Z 48
_cell_length_a 9.194735
_cell_length_b 28.535536
_cell_length_c 9.259138
_cell_angle_alpha 90.000000
_cell_angle_beta 90.000000
_cell_angle_gamma 90.000000
_cell_volume 2429.381996
_symmetry_space_group_name_H-M "P N N M"
_symmetry_group_IT_number 58
_symmetry_cell_setting 'orthorhombic'
loop_
_space_group_symop_operation_xyz
x,y,z
-x,-y,z
1/2+x,1/2-y,1/2-z
1/2-x,1/2+y,1/2-z
-x,-y,-z
x,y,-z
1/2-x,1/2+y,1/2+z
1/2+x,1/2-y,1/2+z
loop_
_atom_site_type_symbol
_atom_site_label
_atom_site_fract_x
_atom_site_fract_y
_atom_site_fract_z
Si Si1 0.718530 0.716279 0.167472
Si Si2 0.014210 0.697347 0.330245
Si Si3 0.335682 0.014752 0.659848
Si Si4 0.884598 0.040216 0.166829
Si Si5 0.986362 0.130163 0.334241
Si Si6 0.315765 0.120745 0.332458
O O1 0.636992 0.764394 0.203810
O O2 0.607790 0.674991 0.208840
O O3 0.861568 0.713375 0.264014
O O4 0.763624 0.713618 0.000000
O O5 0.991654 0.690239 0.500000
O O6 0.065719 0.648767 0.259963
O O7 0.263475 0.013211 0.500000
O O8 0.317613 0.067107 0.722941
O O9 0.500000 0.000000 0.648582
O O10 0.264751 0.976262 0.762523
O O11 0.938809 0.088020 0.234131
O O12 0.856390 0.049305 0.000000
O O13 0.000000 0.000000 0.197451
O O14 0.961293 0.115458 0.500000
O O15 0.155570 0.142255 0.307405
O O16 0.362526 0.123340 0.500000
#
# Coordination Sequence:
#
# PCOD8238277 Si02
#       6
#     8   8   8   8   8   8
#     4  10  23  42  63  89 119 155 197 242 290 354
#     4  11  24  41  64  92 123 156 194 243 302 356
#     4  10  22  39  61  87 117 161 210 249 291 353
#     4  11  23  38  58  88 124 158 196 249 305 354
#     4  10  21  39  64  87 114 158 208 246 288 354
#     4  10  21  39  62  88 121 160 202 250 297 350
#
# _framework density 19.758112000000001
#
# number of rings (size 3 to 8) (size 9 to 14) (size 15 to 20)
#    0.000    1.667    1.667    2.000    2.333    5.667 
#    0.000    0.000    0.000    0.000    0.000    0.000 
#    0.000    0.000    0.000    0.000    0.000    0.000 
#
# Total GULP energy -595415.340419 kJ/mol
# GULP energy per Si atom -12404.486259 kJ/mol
# Density = 1.971314 g / cm^3
# Si number density = 19.758112 Si / 1000 Ang^3
#
#
#
# Elastic Constant Matrix: (Units=GPa)
#
#
# Indices 1 2 3 4 5 6 
#
# 1 92.1461 17.3118 41.5445 0.0000 0.0000 0.0000
# 2 17.3118 72.2573 38.1674 0.0000 0.0000 0.0000
# 3 41.5445 38.1674 67.5797 0.0000 0.0000 0.0000
# 4 0.0000 0.0000 0.0000 42.5563 0.0000 0.0000
# 5 0.0000 0.0000 0.0000 0.0000 26.2631 0.0000
# 6 0.0000 0.0000 0.0000 0.0000 0.0000 32.0916
#
#
#
# Elastic Compliance Matrix: (Units=1/GPa)
#
#
# Indices 1 2 3 4 5 6 
#
# 1 0.015184 0.001842 -0.010375 0.000000 0.000000 0.000000
# 2 0.001842 0.019947 -0.012398 0.000000 0.000000 0.000000
# 3 -0.010375 -0.012398 0.028177 0.000000 0.000000 0.000000
# 4 0.000000 0.000000 0.000000 0.023498 0.000000 0.000000
# 5 0.000000 0.000000 0.000000 0.000000 0.038076 0.000000
# 6 0.000000 0.000000 0.000000 0.000000 0.000000 0.031161
#
#
# Mechanical properties :
#
#
# Convention : Reuss Voigt Hill
#
# Bulk Modulus (GPa) = 46.62661 47.33674 46.98168
# Shear Modulus (GPa) = 24.38399 29.17951 26.78175
#
# Velocity S-wave (km/s) = 3.51682 3.84713 3.68568
# Velocity P-wave (km/s) = 6.33567 6.61393 6.47629
#
# Compressibility (1/GPa) = 0.02144698
#
# Stress axis : x y z
#
# Youngs Moduli (GPa) = 65.86039 50.13319 35.48974
#
# Poissons Ratio (x) = -0.09236 0.36819
# Poissons Ratio (y) = -0.12133 0.44000
# Poissons Ratio (z) = 0.68327 0.62155
#
# Static dielectric constant tensor:
#      x y z
#    x 3.566540 0.000000 0.000000 
#    y 0.000000 4.127080 0.000000 
#    z 0.000000 0.000000 3.576740 
# 
# 
# High freq. dielectric constant tensor:
#      x y z
#    x 1.777320 0.000000 0.000000 
#    y 0.000000 1.779830 0.000000 
#    z 0.000000 0.000000 1.766500 
# 
# From -- ./inp_files/2958.got.cif
#   From: 2010.06.25/outbox.cif.g09.slc.cpg/sg58_2_cif.got.tgz:2958.got - 2010.06.26 21:38:00.
