data_PCOD8238420
_publ_section_title
;
Structure prediction by ZEFSAII (Michael W. Deem and Ramdas Pophale) SiO2 
 PCOD8238420
Probable space group: P N N M
;
_chemical_formula_sum "Si O2"
_cell_formula_units_Z 64
_cell_length_a 11.583435
_cell_length_b 16.626225
_cell_length_c 15.009994
_cell_angle_alpha 90.000000
_cell_angle_beta 90.000000
_cell_angle_gamma 90.000000
_cell_volume 2890.756681
_symmetry_space_group_name_H-M "P N N M"
_symmetry_group_IT_number 58
_symmetry_cell_setting 'orthorhombic'
loop_
_space_group_symop_operation_xyz
x,y,z
-x,-y,z
1/2+x,1/2-y,1/2-z
1/2-x,1/2+y,1/2-z
-x,-y,-z
x,y,-z
1/2-x,1/2+y,1/2+z
1/2+x,1/2-y,1/2+z
loop_
_atom_site_type_symbol
_atom_site_label
_atom_site_fract_x
_atom_site_fract_y
_atom_site_fract_z
Si Si1 0.893931 0.452542 0.762200
Si Si2 0.524866 0.613120 0.828257
Si Si3 0.551441 0.421396 0.631051
Si Si4 0.025560 0.754971 0.905178
Si Si5 0.225423 0.494828 0.400478
Si Si6 0.685127 0.478420 0.896626
Si Si7 0.510652 0.209076 0.781228
Si Si8 0.231714 0.315994 0.599456
O O1 0.873051 0.505838 0.674002
O O2 0.791500 0.450559 0.834632
O O3 0.920793 0.364129 0.721385
O O4 0.000000 0.500000 0.809333
O O5 0.497952 0.582520 0.730161
O O6 0.637910 0.566267 0.864815
O O7 0.415155 0.589285 0.889451
O O8 0.545846 0.709827 0.824135
O O9 0.500000 0.500000 0.582249
O O10 0.520617 0.343816 0.574575
O O11 0.689091 0.434014 0.630060
O O12 0.954255 0.718550 0.823406
O O13 0.161793 0.756806 0.878185
O O14 0.010138 0.707835 0.000000
O O15 0.176357 0.511583 0.500000
O O16 0.283398 0.406399 0.396388
O O17 0.724088 0.483528 0.000000
O O18 0.629051 0.192828 0.831297
O O19 0.184064 0.298126 0.500000
#
# Coordination Sequence:
#
# PCOD8238420 Si02
#       8
#     8   8   8   8   8   8   8   8
#     4  12  26  46  67  95 140 192 234 275 340 425
#     4  10  21  42  71 103 134 169 229 298 348 395
#     4  11  17  33  64  99 129 156 203 269 340 402
#     4  10  23  39  63 100 136 171 218 277 343 406
#     4  11  22  38  65  96 129 167 214 272 335 407
#     4  11  24  45  73 104 139 184 240 293 343 408
#     4  11  26  40  68  98 137 180 227 286 341 405
#     4  10  22  40  64  97 132 174 219 270 341 413
#
# _framework density 22.139531000000002
#
# number of rings (size 3 to 8) (size 9 to 14) (size 15 to 20)
#    0.000    1.250    5.000    1.125    3.500    3.000 
#    0.000    0.000    0.000    0.750    0.000    0.000 
#    0.000    0.000    0.000    0.000    0.000    0.000 
#
# Total GULP energy -792956.426889 kJ/mol
# GULP energy per Si atom -12389.944170 kJ/mol
# Density = 2.208914 g / cm^3
# Si number density = 22.139531 Si / 1000 Ang^3
#
#
#
# Elastic Constant Matrix: (Units=GPa)
#
#
# Indices 1 2 3 4 5 6 
#
# 1 97.6189 23.4398 45.6833 0.0000 0.0000 0.0000
# 2 23.4398 89.9833 19.7471 0.0000 0.0000 0.0000
# 3 45.6833 19.7471 164.7754 0.0000 0.0000 0.0000
# 4 0.0000 0.0000 0.0000 18.2540 0.0000 0.0000
# 5 0.0000 0.0000 0.0000 0.0000 6.3943 0.0000
# 6 0.0000 0.0000 0.0000 0.0000 0.0000 22.4757
#
#
#
# Elastic Compliance Matrix: (Units=1/GPa)
#
#
# Indices 1 2 3 4 5 6 
#
# 1 0.012305 -0.002523 -0.003109 0.000000 0.000000 0.000000
# 2 -0.002523 0.011931 -0.000730 0.000000 0.000000 0.000000
# 3 -0.003109 -0.000730 0.007018 0.000000 0.000000 0.000000
# 4 0.000000 0.000000 0.000000 0.054783 0.000000 0.000000
# 5 0.000000 0.000000 0.000000 0.000000 0.156389 0.000000
# 6 0.000000 0.000000 0.000000 0.000000 0.000000 0.044492
#
#
# Mechanical properties :
#
#
# Convention : Reuss Voigt Hill
#
# Bulk Modulus (GPa) = 53.96941 58.90200 56.43571
# Shear Modulus (GPa) = 16.34957 26.99197 21.67077
#
# Velocity S-wave (km/s) = 2.72044 3.49546 3.13202
# Velocity P-wave (km/s) = 5.85642 6.55390 6.21495
#
# Compressibility (1/GPa) = 0.01852901
#
# Stress axis : x y z
#
# Youngs Moduli (GPa) = 81.26986 83.81770 142.48331
#
# Poissons Ratio (x) = 0.21147 0.44299
# Poissons Ratio (y) = 0.20504 0.10406
# Poissons Ratio (z) = 0.25267 0.06121
#
# Static dielectric constant tensor:
#      x y z
#    x 3.752530 0.000000 0.000000 
#    y 0.000000 4.180700 0.000000 
#    z 0.000000 0.000000 4.071800 
# 
# 
# High freq. dielectric constant tensor:
#      x y z
#    x 1.850280 0.000000 0.000000 
#    y 0.000000 1.862480 0.000000 
#    z 0.000000 0.000000 1.882530 
# 
# From -- ./inp_files/21495.got.cif
#   From: 2010.06.25/outbox.cif.g09.slc.cpg/sg58_11_cif.got.tgz:21495.got - 2010.06.26 21:38:00.
