data_PCOD8238688
_publ_section_title
;
Structure prediction by ZEFSAII (Michael W. Deem and Ramdas Pophale) SiO2 
 PCOD8238688
Probable space group: P N N M
;
_chemical_formula_sum "Si O2"
_cell_formula_units_Z 64
_cell_length_a 11.500803
_cell_length_b 15.137705
_cell_length_c 18.624347
_cell_angle_alpha 90.000000
_cell_angle_beta 90.000000
_cell_angle_gamma 90.000000
_cell_volume 3242.419903
_symmetry_space_group_name_H-M "P N N M"
_symmetry_group_IT_number 58
_symmetry_cell_setting 'orthorhombic'
loop_
_space_group_symop_operation_xyz
x,y,z
-x,-y,z
1/2+x,1/2-y,1/2-z
1/2-x,1/2+y,1/2-z
-x,-y,-z
x,y,-z
1/2-x,1/2+y,1/2+z
1/2+x,1/2-y,1/2+z
loop_
_atom_site_type_symbol
_atom_site_label
_atom_site_fract_x
_atom_site_fract_y
_atom_site_fract_z
Si Si1 0.728269 0.833882 0.188053
Si Si2 0.013923 0.900299 0.619362
Si Si3 0.125701 0.742716 0.169528
Si Si4 0.988154 0.597049 0.081975
Si Si5 0.247631 0.314943 0.921088
Si Si6 0.855350 0.743382 0.582315
Si Si7 0.953959 0.402066 0.581851
Si Si8 0.976226 0.902740 0.215835
O O1 0.649501 0.794476 0.251265
O O2 0.777596 0.755342 0.140078
O O3 0.652625 0.896392 0.136690
O O4 0.837599 0.887721 0.218652
O O5 0.128072 0.860106 0.584511
O O6 0.904455 0.841772 0.594661
O O7 0.028034 0.899246 0.704632
O O8 0.000000 0.000000 0.590561
O O9 0.244841 0.772549 0.132434
O O10 0.064397 0.665953 0.125433
O O11 0.041956 0.828051 0.169982
O O12 0.851226 0.612573 0.087531
O O13 0.000000 0.500000 0.115826
O O14 0.033126 0.600103 0.000000
O O15 0.240058 0.270059 0.000000
O O16 0.817607 0.730843 0.500000
O O17 0.950362 0.670252 0.604716
O O18 0.913204 0.383350 0.500000
O O19 0.000000 0.500000 0.589436
O O20 0.000000 0.000000 0.182358
#
# Coordination Sequence:
#
# PCOD8238688 Si02
#       8
#     8   8   8   8   8   8   8   8
#     4  12  23  42  66  91 123 171 213 259 310 374
#     4  11  23  41  62  94 127 164 208 259 321 382
#     4  12  24  42  65  90 130 170 212 255 316 379
#     4  10  24  43  64  94 128 163 207 260 318 380
#     4  11  22  39  65  89 122 167 210 260 311 374
#     4  11  23  40  62  92 127 161 203 259 318 372
#     4  10  23  43  67  94 123 158 210 268 315 365
#     4  11  25  43  63  94 135 170 212 264 315 377
#
# _framework density 19.738344000000001
#
# number of rings (size 3 to 8) (size 9 to 14) (size 15 to 20)
#    0.000    1.000    5.000    1.125    3.500    1.500 
#    0.000    0.000    0.000    3.000    0.000    0.000 
#    0.000    0.000    0.000    0.000    0.000    0.000 
#
# Total GULP energy -793800.225289 kJ/mol
# GULP energy per Si atom -12403.128520 kJ/mol
# Density = 1.969342 g / cm^3
# Si number density = 19.738344 Si / 1000 Ang^3
#
#
#
# Elastic Constant Matrix: (Units=GPa)
#
#
# Indices 1 2 3 4 5 6 
#
# 1 96.7065 36.1272 30.2777 0.0000 0.0000 0.0000
# 2 36.1272 132.6416 33.3550 0.0000 0.0000 0.0000
# 3 30.2777 33.3550 86.5721 0.0000 0.0000 0.0000
# 4 0.0000 0.0000 0.0000 27.5110 0.0000 0.0000
# 5 0.0000 0.0000 0.0000 0.0000 46.0195 0.0000
# 6 0.0000 0.0000 0.0000 0.0000 0.0000 29.3916
#
#
#
# Elastic Compliance Matrix: (Units=1/GPa)
#
#
# Indices 1 2 3 4 5 6 
#
# 1 0.012327 -0.002517 -0.003341 0.000000 0.000000 0.000000
# 2 -0.002517 0.008862 -0.002534 0.000000 0.000000 0.000000
# 3 -0.003341 -0.002534 0.013696 0.000000 0.000000 0.000000
# 4 0.000000 0.000000 0.000000 0.036349 0.000000 0.000000
# 5 0.000000 0.000000 0.000000 0.000000 0.021730 0.000000
# 6 0.000000 0.000000 0.000000 0.000000 0.000000 0.034023
#
#
# Mechanical properties :
#
#
# Convention : Reuss Voigt Hill
#
# Bulk Modulus (GPa) = 55.24944 57.27112 56.26028
# Shear Modulus (GPa) = 33.37650 34.99510 34.18580
#
# Velocity S-wave (km/s) = 4.11657 4.21521 4.16618
# Velocity P-wave (km/s) = 7.11664 7.26421 7.19081
#
# Compressibility (1/GPa) = 0.01809973
#
# Stress axis : x y z
#
# Youngs Moduli (GPa) = 81.12204 112.84208 73.01397
#
# Poissons Ratio (x) = 0.28405 0.24397
# Poissons Ratio (y) = 0.20420 0.18502
# Poissons Ratio (z) = 0.27106 0.28594
#
# Static dielectric constant tensor:
#      x y z
#    x 3.588580 0.000000 0.000000 
#    y 0.000000 3.824250 0.000000 
#    z 0.000000 0.000000 3.665710 
# 
# 
# High freq. dielectric constant tensor:
#      x y z
#    x 1.774990 0.000000 0.000000 
#    y 0.000000 1.774790 0.000000 
#    z 0.000000 0.000000 1.774540 
# 
# From -- ./inp_files/26378.got.cif
#   From: 2010.06.25/outbox.cif.g09.slc.cpg/sg58_14_cif.got.tgz:26378.got - 2010.06.26 21:38:00.
