data_PCOD8238690
_publ_section_title
;
Structure prediction by ZEFSAII (Michael W. Deem and Ramdas Pophale) SiO2 
 PCOD8238690
Probable space group: P N N M
;
_chemical_formula_sum "Si O2"
_cell_formula_units_Z 32
_cell_length_a 7.903702
_cell_length_b 19.010826
_cell_length_c 9.813396
_cell_angle_alpha 90.000000
_cell_angle_beta 90.000000
_cell_angle_gamma 90.000000
_cell_volume 1474.520682
_symmetry_space_group_name_H-M "P N N M"
_symmetry_group_IT_number 58
_symmetry_cell_setting 'orthorhombic'
loop_
_space_group_symop_operation_xyz
x,y,z
-x,-y,z
1/2+x,1/2-y,1/2-z
1/2-x,1/2+y,1/2-z
-x,-y,-z
x,y,-z
1/2-x,1/2+y,1/2+z
1/2+x,1/2-y,1/2+z
loop_
_atom_site_type_symbol
_atom_site_label
_atom_site_fract_x
_atom_site_fract_y
_atom_site_fract_z
Si Si1 0.839326 0.596996 0.653731
Si Si2 0.834271 0.713025 0.849964
Si Si3 0.307038 0.514573 0.153928
Si Si4 0.662218 0.845702 0.254314
O O1 0.767127 0.591107 0.500000
O O2 0.748370 0.660747 0.738022
O O3 0.810439 0.525648 0.737963
O O4 0.041159 0.613002 0.646469
O O5 0.794158 0.794092 0.818617
O O6 0.037776 0.700814 0.850421
O O7 0.762719 0.694669 0.000000
O O8 0.500000 0.500000 0.193347
O O9 0.270186 0.597767 0.161097
O O10 0.267169 0.488594 0.000000
#
# Coordination Sequence:
#
# PCOD8238690 Si02
#       4
#     8   8   8   8
#     4  10  24  43  66  97 131 168 215 269 326 382
#     4  10  23  43  67  95 131 173 216 264 326 389
#     4  11  25  44  68  97 130 173 221 269 323 387
#     4  10  24  41  67  97 129 171 216 271 318 391
#
# _framework density 21.701969999999999
#
# number of rings (size 3 to 8) (size 9 to 14) (size 15 to 20)
#    1.500    0.250    0.000    3.000    3.500    6.500 
#    0.000    0.000    0.000    0.000    0.000    0.000 
#    0.000    0.000    0.000    0.000    0.000    0.000 
#
# Total GULP energy -396458.562636 kJ/mol
# GULP energy per Si atom -12389.330082 kJ/mol
# Density = 2.165257 g / cm^3
# Si number density = 21.701970 Si / 1000 Ang^3
#
#
#
# Elastic Constant Matrix: (Units=GPa)
#
#
# Indices 1 2 3 4 5 6 
#
# 1 82.4498 65.7479 31.0343 0.0000 0.0000 0.0000
# 2 65.7479 146.4043 67.9868 0.0000 0.0000 0.0000
# 3 31.0343 67.9868 169.5732 0.0000 0.0000 0.0000
# 4 0.0000 0.0000 0.0000 28.2296 0.0000 0.0000
# 5 0.0000 0.0000 0.0000 0.0000 12.6658 0.0000
# 6 0.0000 0.0000 0.0000 0.0000 0.0000 54.3423
#
#
#
# Elastic Compliance Matrix: (Units=1/GPa)
#
#
# Indices 1 2 3 4 5 6 
#
# 1 0.018896 -0.008454 -0.000069 0.000000 0.000000 0.000000
# 2 -0.008454 0.012175 -0.003334 0.000000 0.000000 0.000000
# 3 -0.000069 -0.003334 0.007247 0.000000 0.000000 0.000000
# 4 0.000000 0.000000 0.000000 0.035424 0.000000 0.000000
# 5 0.000000 0.000000 0.000000 0.000000 0.078953 0.000000
# 6 0.000000 0.000000 0.000000 0.000000 0.000000 0.018402
#
#
# Mechanical properties :
#
#
# Convention : Reuss Voigt Hill
#
# Bulk Modulus (GPa) = 68.47527 80.88505 74.68016
# Shear Modulus (GPa) = 25.04031 34.62476 29.83253
#
# Velocity S-wave (km/s) = 3.40049 3.99866 3.71164
# Velocity P-wave (km/s) = 6.85848 7.65969 7.27013
#
# Compressibility (1/GPa) = 0.01460381
#
# Stress axis : x y z
#
# Youngs Moduli (GPa) = 52.92165 82.13389 137.99688
#
# Poissons Ratio (x) = 0.69435 0.00949
# Poissons Ratio (y) = 0.44739 0.46011
# Poissons Ratio (z) = 0.00364 0.27385
#
# Static dielectric constant tensor:
#      x y z
#    x 3.538580 0.000000 0.000000 
#    y 0.000000 3.793620 0.000000 
#    z 0.000000 0.000000 3.659310 
# 
# 
# High freq. dielectric constant tensor:
#      x y z
#    x 1.824800 0.000000 0.000000 
#    y 0.000000 1.858040 0.000000 
#    z 0.000000 0.000000 1.842170 
# 
# From -- ./inp_files/12600.got.cif
#   From: 2010.06.25/outbox.cif.g09.slc.cpg/sg58_7_cif.got.tgz:12600.got - 2010.06.26 21:38:00.
