data_PCOD8238649
_publ_section_title
;
Structure prediction by ZEFSAII (Michael W. Deem and Ramdas Pophale) SiO2 
 PCOD8238649
Probable space group: P N N M
;
_chemical_formula_sum "Si O2"
_cell_formula_units_Z 40
_cell_length_a 27.120839
_cell_length_b 9.300057
_cell_length_c 7.685225
_cell_angle_alpha 90.000000
_cell_angle_beta 90.000000
_cell_angle_gamma 90.000000
_cell_volume 1938.408555
_symmetry_space_group_name_H-M "P N N M"
_symmetry_group_IT_number 58
_symmetry_cell_setting 'orthorhombic'
loop_
_space_group_symop_operation_xyz
x,y,z
-x,-y,z
1/2+x,1/2-y,1/2-z
1/2-x,1/2+y,1/2-z
-x,-y,-z
x,y,-z
1/2-x,1/2+y,1/2+z
1/2+x,1/2-y,1/2+z
loop_
_atom_site_type_symbol
_atom_site_label
_atom_site_fract_x
_atom_site_fract_y
_atom_site_fract_z
Si Si1 0.384910 0.019754 0.307989
Si Si2 0.707507 0.814638 0.198168
Si Si3 0.454509 0.104237 0.000000
Si Si4 0.104523 0.193123 0.797683
Si Si5 0.473854 0.648313 0.000000
Si Si6 0.801750 0.988346 0.204463
O O1 0.408672 0.034011 0.500000
O O2 0.334842 0.110838 0.310311
O O3 0.422696 0.084510 0.171969
O O4 0.373538 0.852677 0.267795
O O5 0.759616 0.876717 0.265927
O O6 0.706404 0.642437 0.208393
O O7 0.698676 0.860900 0.000000
O O8 0.500000 0.000000 0.000000
O O9 0.476674 0.260266 0.000000
O O10 0.057377 0.173160 0.675040
O O11 0.145915 0.078797 0.738789
O O12 0.089381 0.170091 0.000000
O O13 0.500000 0.500000 0.000000
O O14 0.800212 0.010207 0.000000
#
# Coordination Sequence:
#
# PCOD8238649 Si02
#       6
#     8   8   4   8   4   8
#     4  11  23  42  69  96 133 172 215 275 332 386
#     4  11  23  40  65  97 133 173 218 269 325 396
#     4  12  24  46  68 100 130 170 234 272 322 402
#     4  10  23  44  66  94 131 171 218 269 328 393
#     4  12  28  44  68  96 132 176 220 278 336 378
#     4  10  23  41  62  94 133 171 218 268 324 396
#
# _framework density 20.635484999999999
#
# number of rings (size 3 to 8) (size 9 to 14) (size 15 to 20)
#    0.000    1.200    3.000    1.800    4.200    4.800 
#    0.000    0.000    0.000    0.000    0.000    0.000 
#    0.000    0.000    0.000    0.000    0.000    0.000 
#
# Total GULP energy -496040.427581 kJ/mol
# GULP energy per Si atom -12401.010690 kJ/mol
# Density = 2.058852 g / cm^3
# Si number density = 20.635485 Si / 1000 Ang^3
#
#
#
# Elastic Constant Matrix: (Units=GPa)
#
#
# Indices 1 2 3 4 5 6 
#
# 1 97.2891 48.1947 55.3068 0.0000 0.0000 0.0000
# 2 48.1947 154.4043 39.5146 0.0000 0.0000 0.0000
# 3 55.3068 39.5146 104.7765 0.0000 0.0000 0.0000
# 4 0.0000 0.0000 0.0000 25.6375 0.0000 0.0000
# 5 0.0000 0.0000 0.0000 0.0000 -19.6111 0.0000
# 6 0.0000 0.0000 0.0000 0.0000 0.0000 50.8104
#
#
#
# Elastic Compliance Matrix: (Units=1/GPa)
#
#
# Indices 1 2 3 4 5 6 
#
# 1 0.015939 -0.003123 -0.007236 0.000000 0.000000 0.000000
# 2 -0.003123 0.007780 -0.001286 0.000000 0.000000 0.000000
# 3 -0.007236 -0.001286 0.013848 0.000000 0.000000 0.000000
# 4 0.000000 0.000000 0.000000 0.039005 0.000000 0.000000
# 5 0.000000 0.000000 0.000000 0.000000 -0.050991 0.000000
# 6 0.000000 0.000000 0.000000 0.000000 0.000000 0.019681
#
#
# Mechanical properties :
#
#
# Convention : Reuss Voigt Hill
#
# Bulk Modulus (GPa) = 70.03422 71.38911 70.71167
# Shear Modulus (GPa) = 68.20199 25.59762 46.89981
#
# Velocity S-wave (km/s) = 5.75522 3.52585 4.77253
# Velocity P-wave (km/s) = 8.84171 7.15862 8.04431
#
# Compressibility (1/GPa) = 0.01427873
#
# Stress axis : x y z
#
# Youngs Moduli (GPa) = 62.73831 128.52779 72.21102
#
# Poissons Ratio (x) = 0.40145 0.52249
# Poissons Ratio (y) = 0.19596 0.09283
# Poissons Ratio (z) = 0.45395 0.16523
#
# Static dielectric constant tensor:
#      x y z
#    x 3.692190 0.000000 0.000000 
#    y 0.000000 1.677030 0.000000 
#    z 0.000000 0.000000 3.754070 
# 
# 
# High freq. dielectric constant tensor:
#      x y z
#    x 1.804650 0.000000 0.000000 
#    y 0.000000 1.820090 0.000000 
#    z 0.000000 0.000000 1.817320 
# 
# From -- ./inp_files/10278.got.cif
#   From: 2010.06.25/outbox.cif.g09.slc.cpg/sg58_6_cif.got.tgz:10278.got - 2010.06.26 21:38:00.
