data_PCOD8238325
_publ_section_title
;
Structure prediction by ZEFSAII (Michael W. Deem and Ramdas Pophale) SiO2 
 PCOD8238325
Probable space group: P N N M
;
_chemical_formula_sum "Si O2"
_cell_formula_units_Z 64
_cell_length_a 23.195579
_cell_length_b 15.340484
_cell_length_c 8.913379
_cell_angle_alpha 90.000000
_cell_angle_beta 90.000000
_cell_angle_gamma 90.000000
_cell_volume 3171.660204
_symmetry_space_group_name_H-M "P N N M"
_symmetry_group_IT_number 58
_symmetry_cell_setting 'orthorhombic'
loop_
_space_group_symop_operation_xyz
x,y,z
-x,-y,z
1/2+x,1/2-y,1/2-z
1/2-x,1/2+y,1/2-z
-x,-y,-z
x,y,-z
1/2-x,1/2+y,1/2+z
1/2+x,1/2-y,1/2+z
loop_
_atom_site_type_symbol
_atom_site_label
_atom_site_fract_x
_atom_site_fract_y
_atom_site_fract_z
Si Si1 0.672050 0.010132 0.172574
Si Si2 0.312646 0.787926 0.167689
Si Si3 0.995835 0.901342 0.827694
Si Si4 0.550932 0.938644 0.822357
Si Si5 0.710391 0.502323 0.824555
Si Si6 0.927935 0.244671 0.323035
Si Si7 0.636026 0.363332 0.669965
Si Si8 0.817328 0.181363 0.173331
O O1 0.668244 0.113354 0.188718
O O2 0.726092 0.975650 0.267749
O O3 0.613081 0.970093 0.238966
O O4 0.681870 0.982474 0.000000
O O5 0.346856 0.735466 0.293624
O O6 0.244621 0.774072 0.194037
O O7 0.328990 0.756264 0.000000
O O8 0.931609 0.868644 0.807389
O O9 0.036251 0.837551 0.734092
O O10 0.016582 0.898834 0.000000
O O11 0.000000 0.000000 0.765343
O O12 0.542241 0.836936 0.777019
O O13 0.500000 0.000000 0.754077
O O14 0.550923 0.950058 0.000000
O O15 0.667912 0.423376 0.789722
O O16 0.683635 0.585388 0.742632
O O17 0.712745 0.520977 0.000000
O O18 0.922277 0.238041 0.500000
O O19 0.863876 0.242182 0.254646
O O20 0.653745 0.387702 0.500000
O O21 0.834036 0.170995 0.000000
#
# Coordination Sequence:
#
# PCOD8238325 Si02
#       8
#     8   8   8   8   8   8   8   8
#     4   9  19  38  62  86 118 160 201 241 302 364
#     4   9  20  36  58  87 117 155 197 245 298 355
#     4  10  23  43  63  84 117 164 207 247 304 372
#     4   9  20  38  61  89 121 160 205 252 303 361
#     4  11  22  37  60  91 123 153 197 250 302 360
#     4  11  23  37  63  97 124 158 207 260 303 354
#     4  11  23  37  59  87 119 158 201 246 302 365
#     4  10  21  40  62  85 121 161 197 240 305 368
#
# _framework density 20.178706999999999
#
# number of rings (size 3 to 8) (size 9 to 14) (size 15 to 20)
#    0.000    2.000    0.000    3.750    3.500    4.750 
#    0.000    0.625    0.000    1.875    0.000    0.000 
#    0.000    0.000    0.000    0.000    0.000    0.000 
#
# Total GULP energy -793726.949682 kJ/mol
# GULP energy per Si atom -12401.983589 kJ/mol
# Density = 2.013278 g / cm^3
# Si number density = 20.178707 Si / 1000 Ang^3
#
#
#
# Elastic Constant Matrix: (Units=GPa)
#
#
# Indices 1 2 3 4 5 6 
#
# 1 96.3668 48.8949 44.8169 0.0000 0.0000 0.0000
# 2 48.8949 94.6264 43.1058 0.0000 0.0000 0.0000
# 3 44.8169 43.1058 85.1709 0.0000 0.0000 0.0000
# 4 0.0000 0.0000 0.0000 27.1884 0.0000 0.0000
# 5 0.0000 0.0000 0.0000 0.0000 -29.6435 0.0000
# 6 0.0000 0.0000 0.0000 0.0000 0.0000 36.4789
#
#
#
# Elastic Compliance Matrix: (Units=1/GPa)
#
#
# Indices 1 2 3 4 5 6 
#
# 1 0.015786 -0.005683 -0.005430 0.000000 0.000000 0.000000
# 2 -0.005683 0.015780 -0.004996 0.000000 0.000000 0.000000
# 3 -0.005430 -0.004996 0.017127 0.000000 0.000000 0.000000
# 4 0.000000 0.000000 0.000000 0.036780 0.000000 0.000000
# 5 0.000000 0.000000 0.000000 0.000000 -0.033734 0.000000
# 6 0.000000 0.000000 0.000000 0.000000 0.000000 0.027413
#
#
# Mechanical properties :
#
#
# Convention : Reuss Voigt Hill
#
# Bulk Modulus (GPa) = 60.70047 61.08879 60.89463
# Shear Modulus (GPa) = 42.78502 16.09453 29.43977
#
# Velocity S-wave (km/s) = 4.60967 2.82724 3.82377
# Velocity P-wave (km/s) = 7.64715 6.40292 7.05253
#
# Compressibility (1/GPa) = 0.01647434
#
# Stress axis : x y z
#
# Youngs Moduli (GPa) = 63.34721 63.36987 58.38704
#
# Poissons Ratio (x) = 0.36014 0.31706
# Poissons Ratio (y) = 0.36001 0.29171
# Poissons Ratio (z) = 0.34399 0.31660
#
# Static dielectric constant tensor:
#      x y z
#    x 3.820670 0.000000 0.000000 
#    y 0.000000 3.683150 0.000000 
#    z 0.000000 0.000000 3.555310 
# 
# 
# High freq. dielectric constant tensor:
#      x y z
#    x 1.795090 0.000000 0.000000 
#    y 0.000000 1.793160 0.000000 
#    z 0.000000 0.000000 1.773280 
# 
# From -- ./inp_files/10095.got.cif
#   From: 2010.06.25/outbox.cif.g09.slc.cpg/sg58_6_cif.got.tgz:10095.got - 2010.06.26 21:38:00.
