data_PCOD8238534
_publ_section_title
;
Structure prediction by ZEFSAII (Michael W. Deem and Ramdas Pophale) SiO2 
 PCOD8238534
Probable space group: P N N M
;
_chemical_formula_sum "Si O2"
_cell_formula_units_Z 40
_cell_length_a 13.773308
_cell_length_b 8.710022
_cell_length_c 16.223221
_cell_angle_alpha 90.000000
_cell_angle_beta 90.000000
_cell_angle_gamma 90.000000
_cell_volume 1946.231940
_symmetry_space_group_name_H-M "P N N M"
_symmetry_group_IT_number 58
_symmetry_cell_setting 'orthorhombic'
loop_
_space_group_symop_operation_xyz
x,y,z
-x,-y,z
1/2+x,1/2-y,1/2-z
1/2-x,1/2+y,1/2-z
-x,-y,-z
x,y,-z
1/2-x,1/2+y,1/2+z
1/2+x,1/2-y,1/2+z
loop_
_atom_site_type_symbol
_atom_site_label
_atom_site_fract_x
_atom_site_fract_y
_atom_site_fract_z
Si Si1 0.602504 0.923305 0.500000
Si Si2 0.779697 0.577969 0.137826
Si Si3 0.904475 0.897218 0.402213
Si Si4 0.606196 0.564702 0.500000
Si Si5 0.598920 0.087119 0.201371
Si Si6 0.766003 0.410266 0.413042
O O1 0.594363 0.743484 0.500000
O O2 0.500000 0.000000 0.500000
O O3 0.654889 0.968421 0.416606
O O4 0.679592 0.483393 0.149741
O O5 0.838681 0.630412 0.218680
O O6 0.756748 0.731918 0.090202
O O7 0.877707 0.874759 0.500000
O O8 0.920522 0.732350 0.358249
O O9 0.000000 0.000000 0.393861
O O10 0.500000 0.500000 0.500000
O O11 0.664549 0.506706 0.418078
O O12 0.500000 0.000000 0.225531
O O13 0.665608 0.959955 0.159528
O O14 0.822425 0.436018 0.500000
#
# Coordination Sequence:
#
# PCOD8238534 Si02
#       6
#     4   8   8   4   8   8
#     4  12  22  40  67  92 129 180 228 268 330 402
#     4  12  23  44  67  97 134 176 225 277 336 400
#     4  11  24  44  72 100 131 183 230 276 333 405
#     4  10  22  40  65  96 125 172 226 276 326 386
#     4  12  26  42  65 102 141 177 220 278 340 398
#     4  10  22  42  67  96 131 174 219 276 327 396
#
# _framework density 20.552534999999999
#
# number of rings (size 3 to 8) (size 9 to 14) (size 15 to 20)
#    0.600    0.200    2.000    6.000    0.000    3.200 
#    0.000   10.000    0.000    0.000    0.000    0.000 
#    0.000    0.000    0.000    0.000    0.000    0.000 
#
# Total GULP energy -495739.188012 kJ/mol
# GULP energy per Si atom -12393.479700 kJ/mol
# Density = 2.050576 g / cm^3
# Si number density = 20.552535 Si / 1000 Ang^3
#
#
#
# Elastic Constant Matrix: (Units=GPa)
#
#
# Indices 1 2 3 4 5 6 
#
# 1 127.3018 35.8664 27.7855 0.0000 0.0000 0.0000
# 2 35.8664 140.7375 15.5557 0.0000 0.0000 0.0000
# 3 27.7855 15.5557 86.7393 0.0000 0.0000 0.0000
# 4 0.0000 0.0000 0.0000 3.3963 0.0000 0.0000
# 5 0.0000 0.0000 0.0000 0.0000 9.7534 0.0000
# 6 0.0000 0.0000 0.0000 0.0000 0.0000 37.7827
#
#
#
# Elastic Compliance Matrix: (Units=1/GPa)
#
#
# Indices 1 2 3 4 5 6 
#
# 1 0.008970 -0.002008 -0.002513 0.000000 0.000000 0.000000
# 2 -0.002008 0.007699 -0.000737 0.000000 0.000000 0.000000
# 3 -0.002513 -0.000737 0.012466 0.000000 0.000000 0.000000
# 4 0.000000 0.000000 0.000000 0.294436 0.000000 0.000000
# 5 0.000000 0.000000 0.000000 0.000000 0.102529 0.000000
# 6 0.000000 0.000000 0.000000 0.000000 0.000000 0.026467
#
#
# Mechanical properties :
#
#
# Convention : Reuss Voigt Hill
#
# Bulk Modulus (GPa) = 53.71402 57.02152 55.36777
# Shear Modulus (GPa) = 10.65441 28.55787 19.60614
#
# Velocity S-wave (km/s) = 2.27931 3.73165 3.09196
# Velocity P-wave (km/s) = 5.75489 6.80966 6.30437
#
# Compressibility (1/GPa) = 0.01861711
#
# Stress axis : x y z
#
# Youngs Moduli (GPa) = 111.48710 129.89225 80.21758
#
# Poissons Ratio (x) = 0.26084 0.20160
# Poissons Ratio (y) = 0.22388 0.05915
# Poissons Ratio (z) = 0.28018 0.09578
#
# Static dielectric constant tensor:
#      x y z
#    x -5.866300 0.000000 0.000000 
#    y 0.000000 3.668810 0.000000 
#    z 0.000000 0.000000 3.766420 
# 
# 
# High freq. dielectric constant tensor:
#      x y z
#    x 1.813570 0.000000 0.000000 
#    y 0.000000 1.822260 0.000000 
#    z 0.000000 0.000000 1.796510 
# 
# From -- ./inp_files/25952.got.cif
#   From: 2010.06.25/outbox.cif.g09.slc.cpg/sg58_13_cif.got.tgz:25952.got - 2010.06.26 21:38:00.
