data_PCOD8238501
_publ_section_title
;
Structure prediction by ZEFSAII (Michael W. Deem and Ramdas Pophale) SiO2 
 PCOD8238501
Probable space group: P N N M
;
_chemical_formula_sum "Si O2"
_cell_formula_units_Z 48
_cell_length_a 9.034817
_cell_length_b 9.268238
_cell_length_c 26.164906
_cell_angle_alpha 90.000000
_cell_angle_beta 90.000000
_cell_angle_gamma 90.000000
_cell_volume 2190.966397
_symmetry_space_group_name_H-M "P N N M"
_symmetry_group_IT_number 58
_symmetry_cell_setting 'orthorhombic'
loop_
_space_group_symop_operation_xyz
x,y,z
-x,-y,z
1/2+x,1/2-y,1/2-z
1/2-x,1/2+y,1/2-z
-x,-y,-z
x,y,-z
1/2-x,1/2+y,1/2+z
1/2+x,1/2-y,1/2+z
loop_
_atom_site_type_symbol
_atom_site_label
_atom_site_fract_x
_atom_site_fract_y
_atom_site_fract_z
Si Si1 0.129611 0.892910 0.223525
Si Si2 0.637173 0.212109 0.442780
Si Si3 0.837735 0.208655 0.887364
Si Si4 0.838479 0.945809 0.440847
Si Si5 0.370872 0.105399 0.215425
Si Si6 0.659547 0.940799 0.097031
O O1 0.175595 0.801206 0.173775
O O2 0.103830 0.770246 0.266268
O O3 0.242072 0.015372 0.243222
O O4 0.000000 0.000000 0.208290
O O5 0.572635 0.225163 0.500000
O O6 0.503683 0.247664 0.404045
O O7 0.784054 0.310279 0.437673
O O8 0.701503 0.054251 0.432567
O O9 0.706796 0.313353 0.905410
O O10 0.791656 0.055283 0.910462
O O11 0.848621 0.898883 0.500000
O O12 0.000000 0.000000 0.422313
O O13 0.349366 0.115232 0.154884
O O14 0.500000 0.000000 0.230938
O O15 0.500000 0.000000 0.078260
#
# Coordination Sequence:
#
# PCOD8238501 Si02
#       6
#     8   8   8   8   8   8
#     4  11  23  41  64  93 127 163 209 263 320 387
#     4  11  23  39  62  92 125 164 211 260 313 376
#     4  11  22  38  61  90 125 162 204 260 318 378
#     4  10  22  40  61  88 124 166 214 264 314 376
#     4  10  22  40  61  88 123 164 209 261 319 381
#     4  10  22  40  59  85 122 160 207 261 313 373
#
# _framework density 21.908142000000002
#
# number of rings (size 3 to 8) (size 9 to 14) (size 15 to 20)
#    0.000    1.500    0.000    5.500    0.000    6.333 
#    0.000    1.667    0.000    0.000    0.000    0.000 
#    0.000    0.000    0.000    0.000    0.000    0.000 
#
# Total GULP energy -594788.098167 kJ/mol
# GULP energy per Si atom -12391.418712 kJ/mol
# Density = 2.185828 g / cm^3
# Si number density = 21.908142 Si / 1000 Ang^3
#
#
#
# Elastic Constant Matrix: (Units=GPa)
#
#
# Indices 1 2 3 4 5 6 
#
# 1 97.8606 17.9397 22.9465 0.0000 0.0000 0.0000
# 2 17.9397 96.4978 44.3912 0.0000 0.0000 0.0000
# 3 22.9465 44.3912 54.2003 0.0000 0.0000 0.0000
# 4 0.0000 0.0000 0.0000 36.3943 0.0000 0.0000
# 5 0.0000 0.0000 0.0000 0.0000 23.4526 0.0000
# 6 0.0000 0.0000 0.0000 0.0000 0.0000 46.9544
#
#
#
# Elastic Compliance Matrix: (Units=1/GPa)
#
#
# Indices 1 2 3 4 5 6 
#
# 1 0.011346 0.000161 -0.004936 0.000000 0.000000 0.000000
# 2 0.000161 0.016630 -0.013689 0.000000 0.000000 0.000000
# 3 -0.004936 -0.013689 0.031751 0.000000 0.000000 0.000000
# 4 0.000000 0.000000 0.000000 0.027477 0.000000 0.000000
# 5 0.000000 0.000000 0.000000 0.000000 0.042639 0.000000
# 6 0.000000 0.000000 0.000000 0.000000 0.000000 0.021297
#
#
# Mechanical properties :
#
#
# Convention : Reuss Voigt Hill
#
# Bulk Modulus (GPa) = 43.85738 46.56816 45.21277
# Shear Modulus (GPa) = 25.55361 32.24568 28.89965
#
# Velocity S-wave (km/s) = 3.41896 3.84064 3.63592
# Velocity P-wave (km/s) = 5.97059 6.40075 6.18941
#
# Compressibility (1/GPa) = 0.02280118
#
# Stress axis : x y z
#
# Youngs Moduli (GPa) = 88.13379 60.13218 31.49519
#
# Poissons Ratio (x) = -0.00969 0.15545
# Poissons Ratio (y) = -0.01420 0.43112
# Poissons Ratio (z) = 0.43499 0.82312
#
# Static dielectric constant tensor:
#      x y z
#    x 3.981610 0.000000 0.000000 
#    y 0.000000 4.048070 0.000000 
#    z 0.000000 0.000000 3.671970 
# 
# 
# High freq. dielectric constant tensor:
#      x y z
#    x 1.880490 0.000000 0.000000 
#    y 0.000000 1.873440 0.000000 
#    z 0.000000 0.000000 1.840280 
# 
# From -- ./inp_files/34546.got.cif
#   From: 2010.06.25/outbox.cif.g09.slc.cpg/sg58_18_cif.got.tgz:34546.got - 2010.06.26 21:38:00.
