data_PCOD8238224
_publ_section_title
;
Structure prediction by ZEFSAII (Michael W. Deem and Ramdas Pophale) SiO2 
 PCOD8238224
Probable space group: P N N M
;
_chemical_formula_sum "Si O2"
_cell_formula_units_Z 40
_cell_length_a 7.285691
_cell_length_b 18.662587
_cell_length_c 13.714365
_cell_angle_alpha 90.000000
_cell_angle_beta 90.000000
_cell_angle_gamma 90.000000
_cell_volume 1864.740044
_symmetry_space_group_name_H-M "P N N M"
_symmetry_group_IT_number 58
_symmetry_cell_setting 'orthorhombic'
loop_
_space_group_symop_operation_xyz
x,y,z
-x,-y,z
1/2+x,1/2-y,1/2-z
1/2-x,1/2+y,1/2-z
-x,-y,-z
x,y,-z
1/2-x,1/2+y,1/2+z
1/2+x,1/2-y,1/2+z
loop_
_atom_site_type_symbol
_atom_site_label
_atom_site_fract_x
_atom_site_fract_y
_atom_site_fract_z
Si Si1 0.575363 0.778563 0.108774
Si Si2 0.212159 0.850254 0.111682
Si Si3 0.800607 0.524582 0.261152
Si Si4 0.657913 0.374793 0.719962
Si Si5 0.572858 0.616988 0.889317
O O1 0.354131 0.783766 0.126387
O O2 0.671841 0.825946 0.191217
O O3 0.652601 0.697837 0.114263
O O4 0.617459 0.809337 0.000000
O O5 0.319540 0.920378 0.149632
O O6 0.025314 0.840521 0.172354
O O7 0.155470 0.859791 0.000000
O O8 0.689093 0.457759 0.307445
O O9 0.700478 0.561113 0.168565
O O10 0.000000 0.500000 0.224381
O O11 0.626743 0.377081 0.837191
O O12 0.549367 0.589950 0.000000
#
# Coordination Sequence:
#
# PCOD8238224 Si02
#       5
#     8   8   8   8   8
#     4  10  22  41  64  95 130 165 210 265 323 386
#     4  10  21  38  62  94 129 164 208 258 323 390
#     4  11  23  41  63  95 129 174 220 261 322 381
#     4  11  23  38  68  92 129 169 210 266 317 381
#     4  10  24  43  64  92 130 172 215 268 319 376
#
# _framework density 21.450709
#
# number of rings (size 3 to 8) (size 9 to 14) (size 15 to 20)
#    0.000    1.600    2.000    3.000    5.600    4.800 
#    0.000    0.000    0.000    0.000    0.000    0.000 
#    0.000    0.000    0.000    0.000    0.000    0.000 
#
# Total GULP energy -495700.747411 kJ/mol
# GULP energy per Si atom -12392.518685 kJ/mol
# Density = 2.140189 g / cm^3
# Si number density = 21.450709 Si / 1000 Ang^3
#
#
#
# Elastic Constant Matrix: (Units=GPa)
#
#
# Indices 1 2 3 4 5 6 
#
# 1 96.5315 16.8997 29.8426 0.0000 0.0000 0.0000
# 2 16.8997 67.9230 -4.5841 0.0000 0.0000 0.0000
# 3 29.8426 -4.5841 77.0432 0.0000 0.0000 0.0000
# 4 0.0000 0.0000 0.0000 27.8250 0.0000 0.0000
# 5 0.0000 0.0000 0.0000 0.0000 25.9388 0.0000
# 6 0.0000 0.0000 0.0000 0.0000 0.0000 33.1015
#
#
#
# Elastic Compliance Matrix: (Units=1/GPa)
#
#
# Indices 1 2 3 4 5 6 
#
# 1 0.012529 -0.003459 -0.005059 0.000000 0.000000 0.000000
# 2 -0.003459 0.015737 0.002276 0.000000 0.000000 0.000000
# 3 -0.005059 0.002276 0.015075 0.000000 0.000000 0.000000
# 4 0.000000 0.000000 0.000000 0.035939 0.000000 0.000000
# 5 0.000000 0.000000 0.000000 0.000000 0.038552 0.000000
# 6 0.000000 0.000000 0.000000 0.000000 0.000000 0.030210
#
#
# Mechanical properties :
#
#
# Convention : Reuss Voigt Hill
#
# Bulk Modulus (GPa) = 32.40721 36.20157 34.30439
# Shear Modulus (GPa) = 29.27231 30.66237 29.96734
#
# Velocity S-wave (km/s) = 3.69810 3.78489 3.74174
# Velocity P-wave (km/s) = 5.77712 6.00115 5.89020
#
# Compressibility (1/GPa) = 0.03085733
#
# Stress axis : x y z
#
# Youngs Moduli (GPa) = 79.81656 63.54572 66.33646
#
# Poissons Ratio (x) = 0.21978 0.33558
# Poissons Ratio (y) = 0.27606 -0.15099
# Poissons Ratio (z) = 0.40377 -0.14463
#
# Static dielectric constant tensor:
#      x y z
#    x 3.748020 0.000000 0.000000 
#    y 0.000000 3.986940 0.000000 
#    z 0.000000 0.000000 4.013840 
# 
# 
# High freq. dielectric constant tensor:
#      x y z
#    x 1.829330 0.000000 0.000000 
#    y 0.000000 1.848840 0.000000 
#    z 0.000000 0.000000 1.839660 
# 
# From -- ./inp_files/19664.got.cif
#   From: 2010.06.25/outbox.cif.g09.slc.cpg/sg58_10_cif.got.tgz:19664.got - 2010.06.26 21:38:00.
