data_PCOD8238623
_publ_section_title
;
Structure prediction by ZEFSAII (Michael W. Deem and Ramdas Pophale) SiO2 
 PCOD8238623
Probable space group: P N N M
;
_chemical_formula_sum "Si O2"
_cell_formula_units_Z 32
_cell_length_a 7.472411
_cell_length_b 12.552819
_cell_length_c 14.056085
_cell_angle_alpha 90.000000
_cell_angle_beta 90.000000
_cell_angle_gamma 90.000000
_cell_volume 1318.458282
_symmetry_space_group_name_H-M "P N N M"
_symmetry_group_IT_number 58
_symmetry_cell_setting 'orthorhombic'
loop_
_space_group_symop_operation_xyz
x,y,z
-x,-y,z
1/2+x,1/2-y,1/2-z
1/2-x,1/2+y,1/2-z
-x,-y,-z
x,y,-z
1/2-x,1/2+y,1/2+z
1/2+x,1/2-y,1/2+z
loop_
_atom_site_type_symbol
_atom_site_label
_atom_site_fract_x
_atom_site_fract_y
_atom_site_fract_z
Si Si1 0.794386 0.102912 0.000000
Si Si2 0.565874 0.115138 0.299787
Si Si3 0.468667 0.325731 0.204252
Si Si4 0.500000 0.500000 0.339548
Si Si5 0.429120 0.793384 0.500000
Si Si6 0.014663 0.762288 0.500000
O O1 0.592443 0.149869 0.000000
O O2 0.830848 0.034335 0.905022
O O3 0.937864 0.196170 0.000000
O O4 0.463486 0.204094 0.238159
O O5 0.527863 0.132936 0.410599
O O6 0.774871 0.123878 0.281587
O O7 0.500000 0.000000 0.267061
O O8 0.581726 0.403461 0.273837
O O9 0.537467 0.330084 0.094708
O O10 0.228365 0.743390 0.500000
#
# Coordination Sequence:
#
# PCOD8238623 Si02
#       6
#     4   8   8   4   4   4
#     4  11  22  45  72 102 145 189 246 304 373 421
#     4  11  25  44  72 105 146 193 245 306 368 440
#     4  11  25  44  70 105 146 190 247 300 374 435
#     4  11  24  41  74 104 138 199 238 303 366 434
#     4  10  22  45  72 103 150 187 245 300 372 435
#     4  10  25  45  66 108 144 187 239 307 352 453
#
# _framework density 24.270771
#
# number of rings (size 3 to 8) (size 9 to 14) (size 15 to 20)
#    0.000    1.250    2.500    1.875    3.500    0.500 
#    0.000    3.125    0.000    0.000    0.000    0.000 
#    0.000    0.000    0.000    0.000    0.000    0.000 
#
# Total GULP energy -396779.745763 kJ/mol
# GULP energy per Si atom -12399.367055 kJ/mol
# Density = 2.421553 g / cm^3
# Si number density = 24.270771 Si / 1000 Ang^3
#
#
#
# Elastic Constant Matrix: (Units=GPa)
#
#
# Indices 1 2 3 4 5 6 
#
# 1 73.6842 49.2522 23.2670 0.0000 0.0000 0.0000
# 2 49.2522 192.0328 86.2145 0.0000 0.0000 0.0000
# 3 23.2670 86.2145 198.3104 0.0000 0.0000 0.0000
# 4 0.0000 0.0000 0.0000 43.4761 0.0000 0.0000
# 5 0.0000 0.0000 0.0000 0.0000 24.8691 0.0000
# 6 0.0000 0.0000 0.0000 0.0000 0.0000 19.1206
#
#
#
# Elastic Compliance Matrix: (Units=1/GPa)
#
#
# Indices 1 2 3 4 5 6 
#
# 1 0.016382 -0.004148 -0.000119 0.000000 0.000000 0.000000
# 2 -0.004148 0.007521 -0.002783 0.000000 0.000000 0.000000
# 3 -0.000119 -0.002783 0.006266 0.000000 0.000000 0.000000
# 4 0.000000 0.000000 0.000000 0.023001 0.000000 0.000000
# 5 0.000000 0.000000 0.000000 0.000000 0.040211 0.000000
# 6 0.000000 0.000000 0.000000 0.000000 0.000000 0.052300
#
#
# Mechanical properties :
#
#
# Convention : Reuss Voigt Hill
#
# Bulk Modulus (GPa) = 62.23047 86.83276 74.53162
# Shear Modulus (GPa) = 30.27800 37.84606 34.06203
#
# Velocity S-wave (km/s) = 3.53584 3.95311 3.75029
# Velocity P-wave (km/s) = 6.50886 7.52931 7.03761
#
# Compressibility (1/GPa) = 0.01606930
#
# Stress axis : x y z
#
# Youngs Moduli (GPa) = 61.04370 132.96435 159.58199
#
# Poissons Ratio (x) = 0.55158 0.01892
# Poissons Ratio (y) = 0.25323 0.44411
# Poissons Ratio (z) = 0.00724 0.37003
#
# Static dielectric constant tensor:
#      x y z
#    x 4.207230 0.000000 0.000000 
#    y 0.000000 4.505630 0.000000 
#    z 0.000000 0.000000 5.133640 
# 
# 
# High freq. dielectric constant tensor:
#      x y z
#    x 1.945720 0.000000 0.000000 
#    y 0.000000 1.957530 0.000000 
#    z 0.000000 0.000000 1.991110 
# 
# From -- ./inp_files/19214.got.cif
#   From: 2010.06.25/outbox.cif.g09.slc.cpg/sg58_10_cif.got.tgz:19214.got - 2010.06.26 21:38:00.
