data_PCOD8238595
_publ_section_title
;
Structure prediction by ZEFSAII (Michael W. Deem and Ramdas Pophale) SiO2 
 PCOD8238595
Probable space group: P N N M
;
_chemical_formula_sum "Si O2"
_cell_formula_units_Z 48
_cell_length_a 21.590499
_cell_length_b 12.115153
_cell_length_c 8.911420
_cell_angle_alpha 90.000000
_cell_angle_beta 90.000000
_cell_angle_gamma 90.000000
_cell_volume 2330.979723
_symmetry_space_group_name_H-M "P N N M"
_symmetry_group_IT_number 58
_symmetry_cell_setting 'orthorhombic'
loop_
_space_group_symop_operation_xyz
x,y,z
-x,-y,z
1/2+x,1/2-y,1/2-z
1/2-x,1/2+y,1/2-z
-x,-y,-z
x,y,-z
1/2-x,1/2+y,1/2+z
1/2+x,1/2-y,1/2+z
loop_
_atom_site_type_symbol
_atom_site_label
_atom_site_fract_x
_atom_site_fract_y
_atom_site_fract_z
Si Si1 0.671568 0.127686 0.170652
Si Si2 0.898825 0.258736 0.675573
Si Si3 0.071068 0.514082 0.177651
Si Si4 0.505903 0.370211 0.670164
Si Si5 0.701962 0.581403 0.824289
Si Si6 0.369518 0.635219 0.829295
O O1 0.733474 0.077993 0.239456
O O2 0.676166 0.260290 0.180063
O O3 0.610767 0.086657 0.257765
O O4 0.666177 0.086786 0.000000
O O5 0.902519 0.284010 0.500000
O O6 0.898810 0.372638 0.764887
O O7 0.836669 0.191183 0.716658
O O8 0.957195 0.185377 0.720183
O O9 0.000000 0.500000 0.232314
O O10 0.074829 0.512075 0.000000
O O11 0.500000 0.500000 0.683795
O O12 0.495175 0.328571 0.500000
O O13 0.573687 0.335600 0.722114
O O14 0.664806 0.473577 0.769242
O O15 0.715557 0.574365 0.000000
O O16 0.392751 0.615847 0.000000
#
# Coordination Sequence:
#
# PCOD8238595 Si02
#       6
#     8   8   8   8   8   8
#     4  11  25  42  65  95 126 166 213 260 313 375
#     4  11  23  40  66  95 128 168 213 265 320 380
#     4  11  25  45  68  94 129 170 213 264 323 383
#     4  11  22  36  59  94 129 164 206 256 314 373
#     4  10  23  42  63  92 127 167 209 257 320 377
#     4  10  22  42  65  90 124 165 208 257 312 372
#
# _framework density 20.592198
#
# number of rings (size 3 to 8) (size 9 to 14) (size 15 to 20)
#    0.000    1.333    1.667    3.000    2.333    8.000 
#    0.000    0.000    0.000    0.000    0.000    0.000 
#    0.000    0.000    0.000    0.000    0.000    0.000 
#
# Total GULP energy -595465.720437 kJ/mol
# GULP energy per Si atom -12405.535842 kJ/mol
# Density = 2.054533 g / cm^3
# Si number density = 20.592198 Si / 1000 Ang^3
#
#
#
# Elastic Constant Matrix: (Units=GPa)
#
#
# Indices 1 2 3 4 5 6 
#
# 1 123.3527 33.9636 47.2895 0.0000 0.0000 0.0000
# 2 33.9636 90.1304 39.9264 0.0000 0.0000 0.0000
# 3 47.2895 39.9264 70.1987 0.0000 0.0000 0.0000
# 4 0.0000 0.0000 0.0000 35.1548 0.0000 0.0000
# 5 0.0000 0.0000 0.0000 0.0000 39.3540 0.0000
# 6 0.0000 0.0000 0.0000 0.0000 0.0000 27.9842
#
#
#
# Elastic Compliance Matrix: (Units=1/GPa)
#
#
# Indices 1 2 3 4 5 6 
#
# 1 0.011019 -0.001155 -0.006766 0.000000 0.000000 0.000000
# 2 -0.001155 0.014953 -0.007727 0.000000 0.000000 0.000000
# 3 -0.006766 -0.007727 0.023198 0.000000 0.000000 0.000000
# 4 0.000000 0.000000 0.000000 0.028446 0.000000 0.000000
# 5 0.000000 0.000000 0.000000 0.000000 0.025410 0.000000
# 6 0.000000 0.000000 0.000000 0.000000 0.000000 0.035734
#
#
# Mechanical properties :
#
#
# Convention : Reuss Voigt Hill
#
# Bulk Modulus (GPa) = 55.94571 58.44898 57.19735
# Shear Modulus (GPa) = 28.40698 31.33208 29.86953
#
# Velocity S-wave (km/s) = 3.71819 3.90494 3.81271
# Velocity P-wave (km/s) = 6.75727 6.98406 6.87160
#
# Compressibility (1/GPa) = 0.01787447
#
# Stress axis : x y z
#
# Youngs Moduli (GPa) = 90.75524 66.87594 43.10762
#
# Poissons Ratio (x) = 0.07724 0.29166
# Poissons Ratio (y) = 0.10482 0.33308
# Poissons Ratio (z) = 0.61403 0.51673
#
# Static dielectric constant tensor:
#      x y z
#    x 3.686730 0.000000 0.000000 
#    y 0.000000 3.808430 0.000000 
#    z 0.000000 0.000000 3.799780 
# 
# 
# High freq. dielectric constant tensor:
#      x y z
#    x 1.805510 0.000000 0.000000 
#    y 0.000000 1.818730 0.000000 
#    z 0.000000 0.000000 1.809320 
# 
# From -- ./inp_files/9733.got.cif
#   From: 2010.06.25/outbox.cif.g09.slc.cpg/sg58_5_cif.got.tgz:9733.got - 2010.06.26 21:38:00.
