data_PCOD8238490
_publ_section_title
;
Structure prediction by ZEFSAII (Michael W. Deem and Ramdas Pophale) SiO2 
 PCOD8238490
Probable space group: P N N M
;
_chemical_formula_sum "Si O2"
_cell_formula_units_Z 32
_cell_length_a 5.206039
_cell_length_b 14.033414
_cell_length_c 22.681307
_cell_angle_alpha 90.000000
_cell_angle_beta 90.000000
_cell_angle_gamma 90.000000
_cell_volume 1657.062281
_symmetry_space_group_name_H-M "P N N M"
_symmetry_group_IT_number 58
_symmetry_cell_setting 'orthorhombic'
loop_
_space_group_symop_operation_xyz
x,y,z
-x,-y,z
1/2+x,1/2-y,1/2-z
1/2-x,1/2+y,1/2-z
-x,-y,-z
x,y,-z
1/2-x,1/2+y,1/2+z
1/2+x,1/2-y,1/2+z
loop_
_atom_site_type_symbol
_atom_site_label
_atom_site_fract_x
_atom_site_fract_y
_atom_site_fract_z
Si Si1 0.249512 0.939275 0.729621
Si Si2 0.683805 0.715272 0.133283
Si Si3 0.904290 0.601584 0.358573
Si Si4 0.192501 0.742267 0.069451
O O1 0.239755 0.843196 0.692014
O O2 0.250004 0.910165 0.797873
O O3 0.500000 0.000000 0.712760
O O4 0.000000 0.000000 0.714762
O O5 0.646807 0.826667 0.151827
O O6 0.423690 0.680822 0.099477
O O7 0.919225 0.700615 0.088488
O O8 0.716746 0.647967 0.407718
O O9 0.000000 0.500000 0.382465
O O10 0.220781 0.738340 0.000000
#
# Coordination Sequence:
#
# PCOD8238490 Si02
#       4
#     8   8   8   8
#     4  11  24  39  64  93 124 156 202 255 308 368
#     4  10  23  39  64  86 126 159 202 251 310 350
#     4   9  24  36  62  91 126 155 199 245 305 371
#     4  10  22  39  63  87 123 165 207 247 297 363
#
# _framework density 19.311281999999999
#
# number of rings (size 3 to 8) (size 9 to 14) (size 15 to 20)
#    1.500    0.500    0.000    2.250   10.500    0.500 
#    0.000    1.250    0.000   15.000    0.000    0.000 
#    0.000    0.000    0.000    0.000    0.000    0.000 
#
# Total GULP energy -396585.595518 kJ/mol
# GULP energy per Si atom -12393.299860 kJ/mol
# Density = 1.926733 g / cm^3
# Si number density = 19.311282 Si / 1000 Ang^3
#
#
#
# Elastic Constant Matrix: (Units=GPa)
#
#
# Indices 1 2 3 4 5 6 
#
# 1 125.3350 9.7699 7.1290 0.0000 0.0000 0.0000
# 2 9.7699 20.1898 -4.6663 0.0000 0.0000 0.0000
# 3 7.1290 -4.6663 51.8973 0.0000 0.0000 0.0000
# 4 0.0000 0.0000 0.0000 13.2112 0.0000 0.0000
# 5 0.0000 0.0000 0.0000 0.0000 -50.6360 0.0000
# 6 0.0000 0.0000 0.0000 0.0000 0.0000 19.0703
#
#
#
# Elastic Compliance Matrix: (Units=1/GPa)
#
#
# Indices 1 2 3 4 5 6 
#
# 1 0.008412 -0.004430 -0.001554 0.000000 0.000000 0.000000
# 2 -0.004430 0.052914 0.005366 0.000000 0.000000 0.000000
# 3 -0.001554 0.005366 0.019965 0.000000 0.000000 0.000000
# 4 0.000000 0.000000 0.000000 0.075694 0.000000 0.000000
# 5 0.000000 0.000000 0.000000 0.000000 -0.019749 0.000000
# 6 0.000000 0.000000 0.000000 0.000000 0.000000 0.052437
#
#
# Mechanical properties :
#
#
# Convention : Reuss Voigt Hill
#
# Bulk Modulus (GPa) = 12.49128 24.65412 18.57270
# Shear Modulus (GPa) = 22.97863 8.67508 15.82685
#
# Velocity S-wave (km/s) = 3.45324 2.12179 2.86591
# Velocity P-wave (km/s) = 4.73099 4.33556 4.53758
#
# Compressibility (1/GPa) = 0.08005586
#
# Stress axis : x y z
#
# Youngs Moduli (GPa) = 118.87341 18.89865 50.08825
#
# Poissons Ratio (x) = 0.08372 0.07783
# Poissons Ratio (y) = 0.52659 -0.26878
# Poissons Ratio (z) = 0.18471 -0.10141
#
# Static dielectric constant tensor:
#      x y z
#    x 3.653300 0.000000 0.000000 
#    y 0.000000 3.285590 0.000000 
#    z 0.000000 0.000000 3.249720 
# 
# 
# High freq. dielectric constant tensor:
#      x y z
#    x 1.763110 0.000000 0.000000 
#    y 0.000000 1.730960 0.000000 
#    z 0.000000 0.000000 1.741500 
# 
# From -- ./inp_files/27983.got.cif
#   From: 2010.06.25/outbox.cif.g09.slc.cpg/sg58_14_cif.got.tgz:27983.got - 2010.06.26 21:38:00.
