data_PCOD8238710
_publ_section_title
;
Structure prediction by ZEFSAII (Michael W. Deem and Ramdas Pophale) SiO2 
 PCOD8238710
Probable space group: P N N M
;
_chemical_formula_sum "Si O2"
_cell_formula_units_Z 28
_cell_length_a 17.475533
_cell_length_b 9.056955
_cell_length_c 8.207034
_cell_angle_alpha 90.000000
_cell_angle_beta 90.000000
_cell_angle_gamma 90.000000
_cell_volume 1298.969258
_symmetry_space_group_name_H-M "P N N M"
_symmetry_group_IT_number 58
_symmetry_cell_setting 'orthorhombic'
loop_
_space_group_symop_operation_xyz
x,y,z
-x,-y,z
1/2+x,1/2-y,1/2-z
1/2-x,1/2+y,1/2-z
-x,-y,-z
x,y,-z
1/2-x,1/2+y,1/2+z
1/2+x,1/2-y,1/2+z
loop_
_atom_site_type_symbol
_atom_site_label
_atom_site_fract_x
_atom_site_fract_y
_atom_site_fract_z
Si Si1 0.985226 0.744801 0.000000
Si Si2 0.877542 0.482501 0.000000
Si Si3 0.831109 0.038434 0.677502
Si Si4 0.205464 0.631127 0.687820
Si Si5 0.500000 0.500000 0.250797
O O1 0.908586 0.648861 0.000000
O O2 0.987746 0.849290 0.154350
O O3 0.057650 0.639802 0.000000
O O4 0.833979 0.469985 0.173831
O O5 0.793199 0.015452 0.500000
O O6 0.795332 0.917041 0.801175
O O7 0.808179 0.200785 0.741452
O O8 0.922099 0.022000 0.651151
O O9 0.176654 0.604469 0.500000
#
# Coordination Sequence:
#
# PCOD8238710 Si02
#       5
#     4   4   8   8   4
#     4  10  24  40  74  96 134 178 219 271 341 408
#     4  11  22  50  66 101 136 171 224 278 334 398
#     4  11  25  44  66  98 136 175 225 279 333 401
#     4  11  26  43  68  99 133 176 228 274 333 397
#     4  11  23  42  68 100 132 180 222 274 338 398
#
# _framework density 21.555551999999999
#
# number of rings (size 3 to 8) (size 9 to 14) (size 15 to 20)
#    0.000    1.143    4.286    0.429   10.000    0.000 
#    0.000    4.286    0.000    0.000    0.000    0.000 
#    0.000    0.000    0.000    0.000    0.000    0.000 
#
# Total GULP energy -346898.963079 kJ/mol
# GULP energy per Si atom -12389.248681 kJ/mol
# Density = 2.150649 g / cm^3
# Si number density = 21.555552 Si / 1000 Ang^3
#
#
#
# Elastic Constant Matrix: (Units=GPa)
#
#
# Indices 1 2 3 4 5 6 
#
# 1 107.9025 52.7361 28.8567 0.0000 0.0000 0.0000
# 2 52.7361 116.3642 32.4948 0.0000 0.0000 0.0000
# 3 28.8567 32.4948 110.5339 0.0000 0.0000 0.0000
# 4 0.0000 0.0000 0.0000 17.7249 0.0000 0.0000
# 5 0.0000 0.0000 0.0000 0.0000 28.4294 0.0000
# 6 0.0000 0.0000 0.0000 0.0000 0.0000 40.3619
#
#
#
# Elastic Compliance Matrix: (Units=1/GPa)
#
#
# Indices 1 2 3 4 5 6 
#
# 1 0.012190 -0.005050 -0.001698 0.000000 0.000000 0.000000
# 2 -0.005050 0.011455 -0.002049 0.000000 0.000000 0.000000
# 3 -0.001698 -0.002049 0.010093 0.000000 0.000000 0.000000
# 4 0.000000 0.000000 0.000000 0.056418 0.000000 0.000000
# 5 0.000000 0.000000 0.000000 0.000000 0.035175 0.000000
# 6 0.000000 0.000000 0.000000 0.000000 0.000000 0.024776
#
#
# Mechanical properties :
#
#
# Convention : Reuss Voigt Hill
#
# Bulk Modulus (GPa) = 61.94575 62.55286 62.24931
# Shear Modulus (GPa) = 28.88824 32.01745 30.45285
#
# Velocity S-wave (km/s) = 3.66481 3.85820 3.76275
# Velocity P-wave (km/s) = 6.83432 6.99500 6.91512
#
# Compressibility (1/GPa) = 0.01614316
#
# Stress axis : x y z
#
# Youngs Moduli (GPa) = 82.03477 87.30036 99.08293
#
# Poissons Ratio (x) = 0.44090 0.16821
# Poissons Ratio (y) = 0.41431 0.20302
# Poissons Ratio (z) = 0.13927 0.17888
#
# Static dielectric constant tensor:
#      x y z
#    x 4.103980 0.000000 0.000000 
#    y 0.000000 3.912590 0.000000 
#    z 0.000000 0.000000 3.727070 
# 
# 
# High freq. dielectric constant tensor:
#      x y z
#    x 1.855040 0.000000 0.000000 
#    y 0.000000 1.850470 0.000000 
#    z 0.000000 0.000000 1.846640 
# 
# From -- ./inp_files/2024.got.cif
#   From: 2010.06.25/outbox.cif.g09.slc.cpg/sg58_2_cif.got.tgz:2024.got - 2010.06.26 21:38:00.
