data_PCOD8238601
_publ_section_title
;
Structure prediction by ZEFSAII (Michael W. Deem and Ramdas Pophale) SiO2 
 PCOD8238601
Probable space group: P N N M
;
_chemical_formula_sum "Si O2"
_cell_formula_units_Z 48
_cell_length_a 10.157248
_cell_length_b 8.415416
_cell_length_c 27.201909
_cell_angle_alpha 90.000000
_cell_angle_beta 90.000000
_cell_angle_gamma 90.000000
_cell_volume 2325.150288
_symmetry_space_group_name_H-M "P N N M"
_symmetry_group_IT_number 58
_symmetry_cell_setting 'orthorhombic'
loop_
_space_group_symop_operation_xyz
x,y,z
-x,-y,z
1/2+x,1/2-y,1/2-z
1/2-x,1/2+y,1/2-z
-x,-y,-z
x,y,-z
1/2-x,1/2+y,1/2+z
1/2+x,1/2-y,1/2+z
loop_
_atom_site_type_symbol
_atom_site_label
_atom_site_fract_x
_atom_site_fract_y
_atom_site_fract_z
Si Si1 0.118350 0.379158 0.854408
Si Si2 0.357900 0.556784 0.813312
Si Si3 0.368176 0.899610 0.843424
Si Si4 0.365062 0.575005 0.298274
Si Si5 0.895516 0.861867 0.944267
Si Si6 0.855924 0.569088 0.448519
O O1 0.252751 0.481968 0.850880
O O2 0.120804 0.263626 0.806871
O O3 0.099307 0.284812 0.905782
O O4 0.000000 0.500000 0.847512
O O5 0.500000 0.500000 0.831616
O O6 0.358577 0.747255 0.809481
O O7 0.331356 0.513495 0.756445
O O8 0.353665 0.827547 0.898958
O O9 0.500000 0.000000 0.834812
O O10 0.249273 0.019016 0.834373
O O11 0.500000 0.500000 0.316975
O O12 0.747470 0.926389 0.942647
O O13 0.928255 0.801245 0.000000
O O14 0.000000 0.000000 0.929490
O O15 0.823921 0.663384 0.500000
O O16 0.000000 0.500000 0.453410
#
# Coordination Sequence:
#
# PCOD8238601 Si02
#       6
#     8   8   8   8   8   8
#     4  12  25  40  63  95 131 165 209 273 330 371
#     4  11  26  41  60  92 127 162 208 267 329 372
#     4  11  22  39  66  88 119 167 210 256 307 382
#     4  11  23  42  63  87 122 168 217 257 311 391
#     4  10  22  42  68  96 130 173 216 256 311 393
#     4   9  19  36  64  94 118 157 212 253 292 366
#
# _framework density 20.643827000000002
#
# number of rings (size 3 to 8) (size 9 to 14) (size 15 to 20)
#    0.000    1.333    1.667    3.500    4.667    5.667 
#    0.000    0.833    0.000    1.000    0.000    0.000 
#    0.000    0.000    0.000    0.000    0.000    0.000 
#
# Total GULP energy -594756.751960 kJ/mol
# GULP energy per Si atom -12390.765666 kJ/mol
# Density = 2.059684 g / cm^3
# Si number density = 20.643827 Si / 1000 Ang^3
#
#
#
# Elastic Constant Matrix: (Units=GPa)
#
#
# Indices 1 2 3 4 5 6 
#
# 1 166.4927 63.1587 49.4515 0.0000 0.0000 0.0000
# 2 63.1587 107.2960 27.7539 0.0000 0.0000 0.0000
# 3 49.4515 27.7539 104.5737 0.0000 0.0000 0.0000
# 4 0.0000 0.0000 0.0000 29.9307 0.0000 0.0000
# 5 0.0000 0.0000 0.0000 0.0000 2189.0338 0.0000
# 6 0.0000 0.0000 0.0000 0.0000 0.0000 33.9250
#
#
#
# Elastic Compliance Matrix: (Units=1/GPa)
#
#
# Indices 1 2 3 4 5 6 
#
# 1 0.008471 -0.004241 -0.002880 0.000000 0.000000 0.000000
# 2 -0.004241 0.012131 -0.001214 0.000000 0.000000 0.000000
# 3 -0.002880 -0.001214 0.011247 0.000000 0.000000 0.000000
# 4 0.000000 0.000000 0.000000 0.033410 0.000000 0.000000
# 5 0.000000 0.000000 0.000000 0.000000 0.000457 0.000000
# 6 0.000000 0.000000 0.000000 0.000000 0.000000 0.029477
#
#
# Mechanical properties :
#
#
# Convention : Reuss Voigt Hill
#
# Bulk Modulus (GPa) = 65.88597 73.23230 69.55913
# Shear Modulus (GPa) = 42.76386 466.44445 254.60415
#
# Velocity S-wave (km/s) = 4.55632 15.04790 11.11754
# Velocity P-wave (km/s) = 7.72431 18.37036 14.09140
#
# Compressibility (1/GPa) = 0.01517774
#
# Stress axis : x y z
#
# Youngs Moduli (GPa) = 118.05594 82.43679 88.91483
#
# Poissons Ratio (x) = 0.34963 0.25608
# Poissons Ratio (y) = 0.50069 0.10793
# Poissons Ratio (z) = 0.34000 0.10007
#
# Static dielectric constant tensor:
#      x y z
#    x 3.903510 0.000000 0.000000 
#    y 0.000000 3.467570 0.000000 
#    z 0.000000 0.000000 4.184290 
# 
# 
# High freq. dielectric constant tensor:
#      x y z
#    x 1.829020 0.000000 0.000000 
#    y 0.000000 1.774330 0.000000 
#    z 0.000000 0.000000 1.825790 
# 
# From -- ./inp_files/34542.got.cif
#   From: 2010.06.25/outbox.cif.g09.slc.cpg/sg58_18_cif.got.tgz:34542.got - 2010.06.26 21:38:00.
