data_PCOD8238165
_publ_section_title
;
Structure prediction by ZEFSAII (Michael W. Deem and Ramdas Pophale) SiO2 
 PCOD8238165
Probable space group: P N N M
;
_chemical_formula_sum "Si O2"
_cell_formula_units_Z 48
_cell_length_a 27.980871
_cell_length_b 10.268869
_cell_length_c 8.629554
_cell_angle_alpha 90.000000
_cell_angle_beta 90.000000
_cell_angle_gamma 90.000000
_cell_volume 2479.546137
_symmetry_space_group_name_H-M "P N N M"
_symmetry_group_IT_number 58
_symmetry_cell_setting 'orthorhombic'
loop_
_space_group_symop_operation_xyz
x,y,z
-x,-y,z
1/2+x,1/2-y,1/2-z
1/2-x,1/2+y,1/2-z
-x,-y,-z
x,y,-z
1/2-x,1/2+y,1/2+z
1/2+x,1/2-y,1/2+z
loop_
_atom_site_type_symbol
_atom_site_label
_atom_site_fract_x
_atom_site_fract_y
_atom_site_fract_z
Si Si1 0.640762 0.242958 0.819861
Si Si2 0.691010 0.510300 0.180009
Si Si3 0.302003 0.989900 0.680008
Si Si4 0.140807 0.745925 0.820201
Si Si5 0.952026 0.645163 0.818926
Si Si6 0.448810 0.134042 0.819108
O O1 0.667905 0.373671 0.772119
O O2 0.674536 0.121979 0.781890
O O3 0.591344 0.239776 0.725114
O O4 0.628151 0.239341 0.000000
O O5 0.746529 0.502677 0.221560
O O6 0.666973 0.620521 0.282716
O O7 0.682874 0.541938 0.000000
O O8 0.310966 0.958336 0.500000
O O9 0.324604 0.127759 0.727269
O O10 0.091684 0.738574 0.723226
O O11 0.127740 0.741446 0.000000
O O12 0.937623 0.498278 0.773722
O O13 0.999594 0.690553 0.728900
O O14 0.962380 0.652496 0.000000
O O15 0.448513 0.102487 0.000000
#
# Coordination Sequence:
#
# PCOD8238165 Si02
#       6
#     8   8   8   8   8   8
#     4  11  22  38  60  87 118 156 198 244 293 347
#     4  10  23  40  57  83 120 159 198 242 292 347
#     4  10  21  38  60  85 116 154 199 247 291 344
#     4  11  22  38  60  88 120 156 195 242 294 348
#     4  11  21  36  59  88 119 151 190 241 291 346
#     4  11  21  36  60  89 117 150 192 240 289 346
#
# _framework density 19.358381000000001
#
# number of rings (size 3 to 8) (size 9 to 14) (size 15 to 20)
#    0.000    1.333    1.667    6.000    0.000    4.000 
#    0.000    0.833    0.000    5.000    0.000    0.000 
#    0.000    0.000    0.000    0.000    0.000    0.000 
#
# Total GULP energy -595514.557735 kJ/mol
# GULP energy per Si atom -12406.553286 kJ/mol
# Density = 1.931432 g / cm^3
# Si number density = 19.358381 Si / 1000 Ang^3
#
#
#
# Elastic Constant Matrix: (Units=GPa)
#
#
# Indices 1 2 3 4 5 6 
#
# 1 135.7269 45.5640 33.1159 0.0000 0.0000 0.0000
# 2 45.5640 97.2070 27.4560 0.0000 0.0000 0.0000
# 3 33.1159 27.4560 77.4143 0.0000 0.0000 0.0000
# 4 0.0000 0.0000 0.0000 30.4384 0.0000 0.0000
# 5 0.0000 0.0000 0.0000 0.0000 35.1092 0.0000
# 6 0.0000 0.0000 0.0000 0.0000 0.0000 -41.9465
#
#
#
# Elastic Compliance Matrix: (Units=1/GPa)
#
#
# Indices 1 2 3 4 5 6 
#
# 1 0.009218 -0.003564 -0.002679 0.000000 0.000000 0.000000
# 2 -0.003564 0.012811 -0.003019 0.000000 0.000000 0.000000
# 3 -0.002679 -0.003019 0.015134 0.000000 0.000000 0.000000
# 4 0.000000 0.000000 0.000000 0.032853 0.000000 0.000000
# 5 0.000000 0.000000 0.000000 0.000000 0.028483 0.000000
# 6 0.000000 0.000000 0.000000 0.000000 0.000000 -0.023840
#
#
# Mechanical properties :
#
#
# Convention : Reuss Voigt Hill
#
# Bulk Modulus (GPa) = 53.65182 58.06889 55.86035
# Shear Modulus (GPa) = 50.30413 18.33438 34.31925
#
# Velocity S-wave (km/s) = 5.10315 3.08084 4.21507
# Velocity P-wave (km/s) = 7.90557 6.53585 7.25312
#
# Compressibility (1/GPa) = 0.01863870
#
# Stress axis : x y z
#
# Youngs Moduli (GPa) = 108.48496 78.06064 66.07526
#
# Poissons Ratio (x) = 0.27821 0.17703
# Poissons Ratio (y) = 0.38664 0.19947
# Poissons Ratio (z) = 0.29065 0.23565
#
# Static dielectric constant tensor:
#      x y z
#    x 3.833660 0.000000 0.000000 
#    y 0.000000 3.371050 0.000000 
#    z 0.000000 0.000000 3.515920 
# 
# 
# High freq. dielectric constant tensor:
#      x y z
#    x 1.772820 0.000000 0.000000 
#    y 0.000000 1.733370 0.000000 
#    z 0.000000 0.000000 1.761040 
# 
# From -- ./inp_files/10335.got.cif
#   From: 2010.06.25/outbox.cif.g09.slc.cpg/sg58_6_cif.got.tgz:10335.got - 2010.06.26 21:38:00.
