data_PCOD8238677
_publ_section_title
;
Structure prediction by ZEFSAII (Michael W. Deem and Ramdas Pophale) SiO2 
 PCOD8238677
Probable space group: P N N M
;
_chemical_formula_sum "Si O2"
_cell_formula_units_Z 48
_cell_length_a 18.466079
_cell_length_b 14.634665
_cell_length_c 8.522505
_cell_angle_alpha 90.000000
_cell_angle_beta 90.000000
_cell_angle_gamma 90.000000
_cell_volume 2303.163341
_symmetry_space_group_name_H-M "P N N M"
_symmetry_group_IT_number 58
_symmetry_cell_setting 'orthorhombic'
loop_
_space_group_symop_operation_xyz
x,y,z
-x,-y,z
1/2+x,1/2-y,1/2-z
1/2-x,1/2+y,1/2-z
-x,-y,-z
x,y,-z
1/2-x,1/2+y,1/2+z
1/2+x,1/2-y,1/2+z
loop_
_atom_site_type_symbol
_atom_site_label
_atom_site_fract_x
_atom_site_fract_y
_atom_site_fract_z
Si Si1 0.679076 0.659647 0.681562
Si Si2 0.906443 0.758026 0.680144
Si Si3 0.722063 0.008525 0.319746
Si Si4 0.572141 0.050337 0.817853
Si Si5 0.481564 0.396800 0.683318
Si Si6 0.260299 0.679565 0.680301
O O1 0.681767 0.686489 0.500000
O O2 0.738771 0.582595 0.711591
O O3 0.601039 0.621786 0.731238
O O4 0.695771 0.750314 0.780812
O O5 0.882189 0.767838 0.500000
O O6 0.937725 0.657733 0.714815
O O7 0.968378 0.830488 0.716894
O O8 0.836944 0.772344 0.789144
O O9 0.735460 0.034417 0.500000
O O10 0.755081 0.909422 0.287544
O O11 0.637250 0.008065 0.281955
O O12 0.500000 0.000000 0.759479
O O13 0.587285 0.029806 0.000000
O O14 0.500000 0.500000 0.730497
O O15 0.495759 0.379537 0.500000
O O16 0.254591 0.649921 0.500000
#
# Coordination Sequence:
#
# PCOD8238677 Si02
#       6
#     8   8   8   8   8   8
#     4  11  23  42  66  97 133 168 214 267 318 386
#     4  11  23  41  67  97 132 169 214 267 321 385
#     4  12  25  42  67  98 129 168 216 268 325 385
#     4  10  23  43  65  93 131 173 214 264 326 387
#     4  10  23  42  65  93 129 172 213 259 323 385
#     4  12  25  42  66  93 128 172 216 266 324 382
#
# _framework density 20.840903000000001
#
# number of rings (size 3 to 8) (size 9 to 14) (size 15 to 20)
#    0.000    1.000    1.667    5.000    2.333    4.000 
#    0.000    0.000    0.000    0.000    0.000    0.000 
#    0.000    0.000    0.000    0.000    0.000    0.000 
#
# Total GULP energy -595636.721902 kJ/mol
# GULP energy per Si atom -12409.098373 kJ/mol
# Density = 2.079347 g / cm^3
# Si number density = 20.840903 Si / 1000 Ang^3
#
#
#
# Elastic Constant Matrix: (Units=GPa)
#
#
# Indices 1 2 3 4 5 6 
#
# 1 95.3517 16.7853 31.9273 0.0000 0.0000 0.0000
# 2 16.7853 97.2490 19.9319 0.0000 0.0000 0.0000
# 3 31.9273 19.9319 69.0620 0.0000 0.0000 0.0000
# 4 0.0000 0.0000 0.0000 33.4216 0.0000 0.0000
# 5 0.0000 0.0000 0.0000 0.0000 37.9486 0.0000
# 6 0.0000 0.0000 0.0000 0.0000 0.0000 42.9689
#
#
#
# Elastic Compliance Matrix: (Units=1/GPa)
#
#
# Indices 1 2 3 4 5 6 
#
# 1 0.012505 -0.001035 -0.005483 0.000000 0.000000 0.000000
# 2 -0.001035 0.011015 -0.002701 0.000000 0.000000 0.000000
# 3 -0.005483 -0.002701 0.017794 0.000000 0.000000 0.000000
# 4 0.000000 0.000000 0.000000 0.029921 0.000000 0.000000
# 5 0.000000 0.000000 0.000000 0.000000 0.026351 0.000000
# 6 0.000000 0.000000 0.000000 0.000000 0.000000 0.023273
#
#
# Mechanical properties :
#
#
# Convention : Reuss Voigt Hill
#
# Bulk Modulus (GPa) = 43.70978 44.32795 44.01887
# Shear Modulus (GPa) = 34.03184 35.73570 34.88377
#
# Velocity S-wave (km/s) = 4.04534 4.14537 4.09566
# Velocity P-wave (km/s) = 6.54510 6.65042 6.59797
#
# Compressibility (1/GPa) = 0.02287817
#
# Stress axis : x y z
#
# Youngs Moduli (GPa) = 79.96523 90.78533 56.19935
#
# Poissons Ratio (x) = 0.09394 0.30812
# Poissons Ratio (y) = 0.08274 0.15178
# Poissons Ratio (z) = 0.43842 0.24518
#
# Static dielectric constant tensor:
#      x y z
#    x 3.866000 0.000000 0.000000 
#    y 0.000000 3.881310 0.000000 
#    z 0.000000 0.000000 3.666040 
# 
# 
# High freq. dielectric constant tensor:
#      x y z
#    x 1.823190 0.000000 0.000000 
#    y 0.000000 1.829050 0.000000 
#    z 0.000000 0.000000 1.815200 
# 
# From -- ./inp_files/7728.got.cif
#   From: 2010.06.25/outbox.cif.g09.slc.cpg/sg58_4_cif.got.tgz:7728.got - 2010.06.26 21:38:00.
