data_PCOD8238275
_publ_section_title
;
Structure prediction by ZEFSAII (Michael W. Deem and Ramdas Pophale) SiO2 
 PCOD8238275
Probable space group: P N N M
;
_chemical_formula_sum "Si O2"
_cell_formula_units_Z 48
_cell_length_a 14.995259
_cell_length_b 18.581846
_cell_length_c 8.666454
_cell_angle_alpha 90.000000
_cell_angle_beta 90.000000
_cell_angle_gamma 90.000000
_cell_volume 2414.817219
_symmetry_space_group_name_H-M "P N N M"
_symmetry_group_IT_number 58
_symmetry_cell_setting 'orthorhombic'
loop_
_space_group_symop_operation_xyz
x,y,z
-x,-y,z
1/2+x,1/2-y,1/2-z
1/2-x,1/2+y,1/2-z
-x,-y,-z
x,y,-z
1/2-x,1/2+y,1/2+z
1/2+x,1/2-y,1/2+z
loop_
_atom_site_type_symbol
_atom_site_label
_atom_site_fract_x
_atom_site_fract_y
_atom_site_fract_z
Si Si1 0.092827 0.910360 0.677938
Si Si2 0.256870 0.321829 0.679514
Si Si3 0.760893 0.330303 0.321062
Si Si4 0.413769 0.082388 0.681358
Si Si5 0.611291 0.424799 0.821766
Si Si6 0.101292 0.429784 0.318213
O O1 0.116770 0.896349 0.500000
O O2 0.146462 0.854689 0.783350
O O3 0.988540 0.896542 0.707108
O O4 0.118358 0.991613 0.723943
O O5 0.251204 0.302731 0.500000
O O6 0.237365 0.250859 0.776992
O O7 0.182289 0.378916 0.729895
O O8 0.784470 0.335923 0.500000
O O9 0.847141 0.353589 0.223720
O O10 0.676616 0.380437 0.286494
O O11 0.419056 0.072000 0.500000
O O12 0.511363 0.101873 0.744405
O O13 0.376934 0.008927 0.755235
O O14 0.638381 0.413749 0.000000
O O15 0.088129 0.434272 0.500000
#
# Coordination Sequence:
#
# PCOD8238275 Si02
#       6
#     8   8   8   8   8   8
#     4   9  19  37  62  88 115 149 186 228 279 336
#     4  11  24  39  57  83 116 153 190 233 283 337
#     4  12  25  39  57  82 115 154 192 235 286 338
#     4  11  22  38  62  88 115 149 191 237 284 338
#     4   9  19  38  62  87 115 148 187 230 279 336
#     4  10  21  39  62  88 117 149 190 237 285 337
#
# _framework density 19.877279999999999
#
# number of rings (size 3 to 8) (size 9 to 14) (size 15 to 20)
#    0.000    1.667    0.000    7.000    0.000    8.000 
#    0.000    3.333    0.000    0.000    0.000    0.000 
#    0.000    0.000    0.000    0.000    0.000    0.000 
#
# Total GULP energy -595483.560189 kJ/mol
# GULP energy per Si atom -12405.907504 kJ/mol
# Density = 1.983204 g / cm^3
# Si number density = 19.877280 Si / 1000 Ang^3
#
#
#
# Elastic Constant Matrix: (Units=GPa)
#
#
# Indices 1 2 3 4 5 6 
#
# 1 77.1980 24.3626 31.9851 0.0000 0.0000 0.0000
# 2 24.3626 56.6410 28.6386 0.0000 0.0000 0.0000
# 3 31.9851 28.6386 98.3296 0.0000 0.0000 0.0000
# 4 0.0000 0.0000 0.0000 35.2071 0.0000 0.0000
# 5 0.0000 0.0000 0.0000 0.0000 31.8903 0.0000
# 6 0.0000 0.0000 0.0000 0.0000 0.0000 14.2262
#
#
#
# Elastic Compliance Matrix: (Units=1/GPa)
#
#
# Indices 1 2 3 4 5 6 
#
# 1 0.016101 -0.005016 -0.003777 0.000000 0.000000 0.000000
# 2 -0.005016 0.022267 -0.004854 0.000000 0.000000 0.000000
# 3 -0.003777 -0.004854 0.012812 0.000000 0.000000 0.000000
# 4 0.000000 0.000000 0.000000 0.028403 0.000000 0.000000
# 5 0.000000 0.000000 0.000000 0.000000 0.031357 0.000000
# 6 0.000000 0.000000 0.000000 0.000000 0.000000 0.070293
#
#
# Mechanical properties :
#
#
# Convention : Reuss Voigt Hill
#
# Bulk Modulus (GPa) = 41.86278 44.68235 43.27256
# Shear Modulus (GPa) = 23.09589 26.07688 24.58639
#
# Velocity S-wave (km/s) = 3.41240 3.62594 3.52079
# Velocity P-wave (km/s) = 6.05246 6.32912 6.19234
#
# Compressibility (1/GPa) = 0.02388757
#
# Stress axis : x y z
#
# Youngs Moduli (GPa) = 62.10617 44.91032 78.05220
#
# Poissons Ratio (x) = 0.22527 0.29477
# Poissons Ratio (y) = 0.31153 0.37883
# Poissons Ratio (z) = 0.23455 0.21797
#
# Static dielectric constant tensor:
#      x y z
#    x 3.668390 0.000000 0.000000 
#    y 0.000000 3.563500 0.000000 
#    z 0.000000 0.000000 3.565490 
# 
# 
# High freq. dielectric constant tensor:
#      x y z
#    x 1.785940 0.000000 0.000000 
#    y 0.000000 1.770910 0.000000 
#    z 0.000000 0.000000 1.779700 
# 
# From -- ./inp_files/5820.got.cif
#   From: 2010.06.25/outbox.cif.g09.slc.cpg/sg58_3_cif.got.tgz:5820.got - 2010.06.26 21:38:00.
