data_PCOD8238488
_publ_section_title
;
Structure prediction by ZEFSAII (Michael W. Deem and Ramdas Pophale) SiO2 
 PCOD8238488
Probable space group: P N N M
;
_chemical_formula_sum "Si O2"
_cell_formula_units_Z 32
_cell_length_a 9.101420
_cell_length_b 8.930692
_cell_length_c 18.439321
_cell_angle_alpha 90.000000
_cell_angle_beta 90.000000
_cell_angle_gamma 90.000000
_cell_volume 1498.784498
_symmetry_space_group_name_H-M "P N N M"
_symmetry_group_IT_number 58
_symmetry_cell_setting 'orthorhombic'
loop_
_space_group_symop_operation_xyz
x,y,z
-x,-y,z
1/2+x,1/2-y,1/2-z
1/2-x,1/2+y,1/2-z
-x,-y,-z
x,y,-z
1/2-x,1/2+y,1/2+z
1/2+x,1/2-y,1/2+z
loop_
_atom_site_type_symbol
_atom_site_label
_atom_site_fract_x
_atom_site_fract_y
_atom_site_fract_z
Si Si1 0.635012 0.097169 0.130290
Si Si2 0.472629 0.331799 0.227023
Si Si3 0.634472 0.303648 0.500000
Si Si4 0.186259 0.845252 0.000000
Si Si5 0.300780 0.691157 0.660077
O O1 0.576737 0.218356 0.185110
O O2 0.716068 0.194105 0.069290
O O3 0.500000 0.000000 0.097165
O O4 0.749156 0.981850 0.167730
O O5 0.500000 0.500000 0.199829
O O6 0.530363 0.309085 0.310438
O O7 0.302757 0.291210 0.212559
O O8 0.647427 0.480586 0.500000
O O9 0.464525 0.251215 0.500000
O O10 0.707373 0.248057 0.576226
#
# Coordination Sequence:
#
# PCOD8238488 Si02
#       5
#     8   8   4   4   8
#     4   9  19  36  57  90 117 151 194 249 288 346
#     4  11  23  37  61  89 121 157 191 237 300 355
#     4   9  20  34  60  87 115 148 201 253 286 333
#     4   9  17  32  62  87 112 151 200 245 294 331
#     4  10  22  39  62  88 119 150 200 245 292 342
#
# _framework density 21.350635
#
# number of rings (size 3 to 8) (size 9 to 14) (size 15 to 20)
#    0.000    2.250    0.000    1.875   10.500    3.000 
#    0.000    2.500    0.000    1.500    0.000    0.000 
#    0.000    0.000    0.000    0.000    0.000    0.000 
#
# Total GULP energy -396456.891557 kJ/mol
# GULP energy per Si atom -12389.277861 kJ/mol
# Density = 2.130204 g / cm^3
# Si number density = 21.350635 Si / 1000 Ang^3
#
#
#
# Elastic Constant Matrix: (Units=GPa)
#
#
# Indices 1 2 3 4 5 6 
#
# 1 105.1633 13.4682 54.4897 0.0000 0.0000 0.0000
# 2 13.4682 63.2318 25.0469 0.0000 0.0000 0.0000
# 3 54.4897 25.0469 98.3368 0.0000 0.0000 0.0000
# 4 0.0000 0.0000 0.0000 3.4548 0.0000 0.0000
# 5 0.0000 0.0000 0.0000 0.0000 34.7655 0.0000
# 6 0.0000 0.0000 0.0000 0.0000 0.0000 17.2022
#
#
#
# Elastic Compliance Matrix: (Units=1/GPa)
#
#
# Indices 1 2 3 4 5 6 
#
# 1 0.013339 0.000096 -0.007416 0.000000 0.000000 0.000000
# 2 0.000096 0.017590 -0.004534 0.000000 0.000000 0.000000
# 3 -0.007416 -0.004534 0.015433 0.000000 0.000000 0.000000
# 4 0.000000 0.000000 0.000000 0.289454 0.000000 0.000000
# 5 0.000000 0.000000 0.000000 0.000000 0.028764 0.000000
# 6 0.000000 0.000000 0.000000 0.000000 0.000000 0.058132
#
#
# Mechanical properties :
#
#
# Convention : Reuss Voigt Hill
#
# Bulk Modulus (GPa) = 44.13859 50.30461 47.22160
# Shear Modulus (GPa) = 11.01390 22.66630 16.84010
#
# Velocity S-wave (km/s) = 2.27372 3.26179 2.81150
# Velocity P-wave (km/s) = 5.25463 6.14801 5.71879
#
# Compressibility (1/GPa) = 0.02265591
#
# Stress axis : x y z
#
# Youngs Moduli (GPa) = 74.96691 56.84992 64.79543
#
# Poissons Ratio (x) = -0.00548 0.48052
# Poissons Ratio (y) = -0.00722 0.29376
# Poissons Ratio (z) = 0.55595 0.25774
#
# Static dielectric constant tensor:
#      x y z
#    x 4.224230 0.000000 0.000000 
#    y 0.000000 3.487240 0.000000 
#    z 0.000000 0.000000 3.935420 
# 
# 
# High freq. dielectric constant tensor:
#      x y z
#    x 1.855650 0.000000 0.000000 
#    y 0.000000 1.789690 0.000000 
#    z 0.000000 0.000000 1.837250 
# 
# From -- ./inp_files/28486.got.cif
#   From: 2010.06.25/outbox.cif.g09.slc.cpg/sg58_15_cif.got.tgz:28486.got - 2010.06.26 21:38:00.
