data_PCOD8238228
_publ_section_title
;
Structure prediction by ZEFSAII (Michael W. Deem and Ramdas Pophale) SiO2 
 PCOD8238228
Probable space group: P N N M
;
_chemical_formula_sum "Si O2"
_cell_formula_units_Z 64
_cell_length_a 31.994855
_cell_length_b 10.878963
_cell_length_c 8.920325
_cell_angle_alpha 90.000000
_cell_angle_beta 90.000000
_cell_angle_gamma 90.000000
_cell_volume 3104.905049
_symmetry_space_group_name_H-M "P N N M"
_symmetry_group_IT_number 58
_symmetry_cell_setting 'orthorhombic'
loop_
_space_group_symop_operation_xyz
x,y,z
-x,-y,z
1/2+x,1/2-y,1/2-z
1/2-x,1/2+y,1/2-z
-x,-y,-z
x,y,-z
1/2-x,1/2+y,1/2+z
1/2+x,1/2-y,1/2+z
loop_
_atom_site_type_symbol
_atom_site_label
_atom_site_fract_x
_atom_site_fract_y
_atom_site_fract_z
Si Si1 0.662862 0.739798 0.165468
Si Si2 0.617266 0.346048 0.323525
Si Si3 0.402129 0.127205 0.672612
Si Si4 0.693828 0.476162 0.827907
Si Si5 0.032152 0.107510 0.674718
Si Si6 0.514524 0.859865 0.172281
Si Si7 0.861180 0.599293 0.324420
Si Si8 0.278713 0.028829 0.833060
O O1 0.627404 0.756440 0.291665
O O2 0.687756 0.618346 0.202968
O O3 0.696750 0.845200 0.169483
O O4 0.641883 0.732951 0.000000
O O5 0.613938 0.355488 0.500000
O O6 0.660645 0.403440 0.270074
O O7 0.576635 0.413634 0.255393
O O8 0.618589 0.205227 0.273789
O O9 0.398122 0.087965 0.500000
O O10 0.448665 0.167278 0.711956
O O11 0.388030 0.019967 0.784316
O O12 0.741427 0.452204 0.782320
O O13 0.687864 0.436465 0.000000
O O14 0.040020 0.088111 0.500000
O O15 0.018002 0.249152 0.707276
O O16 0.000000 0.000000 0.730720
O O17 0.500000 0.000000 0.204634
O O18 0.529174 0.849136 0.000000
O O19 0.867336 0.627227 0.500000
O O20 0.811886 0.578374 0.286578
O O21 0.261303 0.001351 0.000000
#
# Coordination Sequence:
#
# PCOD8238228 Si02
#       8
#     8   8   8   8   8   8   8   8
#     4   9  21  41  61  83 119 164 207 250 299 365
#     4  12  26  42  63  92 128 165 206 258 315 370
#     4  11  22  36  61  95 127 159 199 253 312 362
#     4  11  24  40  62  89 121 165 211 253 303 372
#     4  10  23  43  66  92 124 167 215 261 317 387
#     4  10  21  38  63  91 121 162 208 257 311 377
#     4  10  21  41  66  92 127 168 209 253 307 372
#     4   9  20  39  62  91 121 155 200 260 316 358
#
# _framework density 20.612546999999999
#
# number of rings (size 3 to 8) (size 9 to 14) (size 15 to 20)
#    0.000    1.750    0.000    4.500    3.500    5.500 
#    0.000    0.000    0.000    0.000    0.000    0.000 
#    0.000    0.000    0.000    0.000    0.000    0.000 
#
# Total GULP energy -793451.793565 kJ/mol
# GULP energy per Si atom -12397.684274 kJ/mol
# Density = 2.056563 g / cm^3
# Si number density = 20.612547 Si / 1000 Ang^3
#
#
#
# Elastic Constant Matrix: (Units=GPa)
#
#
# Indices 1 2 3 4 5 6 
#
# 1 101.5217 9.5256 44.5980 0.0000 0.0000 0.0000
# 2 9.5256 54.7350 17.5428 0.0000 0.0000 0.0000
# 3 44.5980 17.5428 90.0122 0.0000 0.0000 0.0000
# 4 0.0000 0.0000 0.0000 16.1124 0.0000 0.0000
# 5 0.0000 0.0000 0.0000 0.0000 40.1991 0.0000
# 6 0.0000 0.0000 0.0000 0.0000 0.0000 18.3463
#
#
#
# Elastic Compliance Matrix: (Units=1/GPa)
#
#
# Indices 1 2 3 4 5 6 
#
# 1 0.012593 -0.000205 -0.006199 0.000000 0.000000 0.000000
# 2 -0.000205 0.019490 -0.003697 0.000000 0.000000 0.000000
# 3 -0.006199 -0.003697 0.014902 0.000000 0.000000 0.000000
# 4 0.000000 0.000000 0.000000 0.062064 0.000000 0.000000
# 5 0.000000 0.000000 0.000000 0.000000 0.024876 0.000000
# 6 0.000000 0.000000 0.000000 0.000000 0.000000 0.054507
#
#
# Mechanical properties :
#
#
# Convention : Reuss Voigt Hill
#
# Bulk Modulus (GPa) = 37.33778 43.28908 40.31343
# Shear Modulus (GPa) = 22.98201 26.57174 24.77688
#
# Velocity S-wave (km/s) = 3.34271 3.59431 3.47079
# Velocity P-wave (km/s) = 5.74906 6.18646 5.97177
#
# Compressibility (1/GPa) = 0.02678253
#
# Stress axis : x y z
#
# Youngs Moduli (GPa) = 79.41140 51.30725 67.10627
#
# Poissons Ratio (x) = 0.01050 0.41602
# Poissons Ratio (y) = 0.01625 0.24810
# Poissons Ratio (z) = 0.49230 0.18969
#
# Static dielectric constant tensor:
#      x y z
#    x 3.831510 0.000000 0.000000 
#    y 0.000000 3.939800 0.000000 
#    z 0.000000 0.000000 3.684020 
# 
# 
# High freq. dielectric constant tensor:
#      x y z
#    x 1.810550 0.000000 0.000000 
#    y 0.000000 1.810120 0.000000 
#    z 0.000000 0.000000 1.799250 
# 
# From -- ./inp_files/11090.got.cif
#   From: 2010.06.25/outbox.cif.g09.slc.cpg/sg58_6_cif.got.tgz:11090.got - 2010.06.26 21:38:00.
