data_PCOD8238218
_publ_section_title
;
Structure prediction by ZEFSAII (Michael W. Deem and Ramdas Pophale) SiO2 
 PCOD8238218
Probable space group: P N N M
;
_chemical_formula_sum "Si O2"
_cell_formula_units_Z 56
_cell_length_a 13.181726
_cell_length_b 11.718908
_cell_length_c 16.953219
_cell_angle_alpha 90.000000
_cell_angle_beta 90.000000
_cell_angle_gamma 90.000000
_cell_volume 2618.855867
_symmetry_space_group_name_H-M "P N N M"
_symmetry_group_IT_number 58
_symmetry_cell_setting 'orthorhombic'
loop_
_space_group_symop_operation_xyz
x,y,z
-x,-y,z
1/2+x,1/2-y,1/2-z
1/2-x,1/2+y,1/2-z
-x,-y,-z
x,y,-z
1/2-x,1/2+y,1/2+z
1/2+x,1/2-y,1/2+z
loop_
_atom_site_type_symbol
_atom_site_label
_atom_site_fract_x
_atom_site_fract_y
_atom_site_fract_z
Si Si1 0.959367 0.125395 0.160297
Si Si2 0.675997 0.863354 0.090805
Si Si3 0.946633 0.175356 0.342573
Si Si4 0.766802 0.594607 0.345038
Si Si5 0.750520 0.539650 0.163221
Si Si6 0.871069 0.726243 0.091672
Si Si7 0.840401 0.824416 0.407007
O O1 0.969672 0.155464 0.251594
O O2 0.845745 0.128206 0.126412
O O3 0.020792 0.222655 0.114694
O O4 0.000000 0.000000 0.142233
O O5 0.583804 0.807486 0.140751
O O6 0.783793 0.813530 0.120453
O O7 0.679641 0.998911 0.101940
O O8 0.655735 0.834101 0.000000
O O9 0.850290 0.101187 0.370182
O O10 0.044117 0.134623 0.392576
O O11 0.758432 0.544662 0.257193
O O12 0.833139 0.707662 0.356723
O O13 0.850941 0.602312 0.130460
O O14 0.742238 0.410751 0.130892
O O15 0.867658 0.706571 0.000000
O O16 0.818964 0.808116 0.500000
#
# Coordination Sequence:
#
# PCOD8238218 Si02
#       7
#     8   8   8   8   8   8   8
#     4  11  21  39  66  97 124 164 220 265 315 384
#     4  10  21  39  62  92 127 162 205 254 319 375
#     4  10  22  38  65  94 125 166 210 261 311 383
#     4  11  24  39  65  92 130 165 210 261 315 381
#     4  10  23  40  67  91 125 170 215 259 316 382
#     4  10  21  38  62  91 124 160 208 263 316 369
#     4  12  25  41  63  95 133 167 211 268 326 381
#
# _framework density 21.383384
#
# number of rings (size 3 to 8) (size 9 to 14) (size 15 to 20)
#    0.000    1.429    1.429    4.286    6.000    4.286 
#    0.000    2.143    0.000    1.714    0.000    0.000 
#    0.000    0.000    0.000    0.000    0.000    0.000 
#
# Total GULP energy -694509.717675 kJ/mol
# GULP energy per Si atom -12401.959244 kJ/mol
# Density = 2.133471 g / cm^3
# Si number density = 21.383384 Si / 1000 Ang^3
#
#
#
# Elastic Constant Matrix: (Units=GPa)
#
#
# Indices 1 2 3 4 5 6 
#
# 1 48.2895 4.9492 5.6492 0.0000 0.0000 0.0000
# 2 4.9492 93.6490 13.5812 0.0000 0.0000 0.0000
# 3 5.6492 13.5812 60.1577 0.0000 0.0000 0.0000
# 4 0.0000 0.0000 0.0000 32.2193 0.0000 0.0000
# 5 0.0000 0.0000 0.0000 0.0000 12.8980 0.0000
# 6 0.0000 0.0000 0.0000 0.0000 0.0000 34.7684
#
#
#
# Elastic Compliance Matrix: (Units=1/GPa)
#
#
# Indices 1 2 3 4 5 6 
#
# 1 0.021004 -0.000852 -0.001780 0.000000 0.000000 0.000000
# 2 -0.000852 0.011074 -0.002420 0.000000 0.000000 0.000000
# 3 -0.001780 -0.002420 0.017337 0.000000 0.000000 0.000000
# 4 0.000000 0.000000 0.000000 0.031037 0.000000 0.000000
# 5 0.000000 0.000000 0.000000 0.000000 0.077531 0.000000
# 6 0.000000 0.000000 0.000000 0.000000 0.000000 0.028762
#
#
# Mechanical properties :
#
#
# Convention : Reuss Voigt Hill
#
# Bulk Modulus (GPa) = 25.43846 27.82835 26.63341
# Shear Modulus (GPa) = 23.81490 27.83825 25.82657
#
# Velocity S-wave (km/s) = 3.34085 3.61205 3.47909
# Velocity P-wave (km/s) = 5.17725 5.51708 5.34986
#
# Compressibility (1/GPa) = 0.03931055
#
# Stress axis : x y z
#
# Youngs Moduli (GPa) = 47.61002 90.30036 57.68173
#
# Poissons Ratio (x) = 0.07692 0.10268
# Poissons Ratio (y) = 0.04056 0.13960
# Poissons Ratio (z) = 0.08475 0.21854
#
# Static dielectric constant tensor:
#      x y z
#    x 3.987800 0.000000 0.000000 
#    y 0.000000 3.860690 0.000000 
#    z 0.000000 0.000000 3.637590 
# 
# 
# High freq. dielectric constant tensor:
#      x y z
#    x 1.830070 0.000000 0.000000 
#    y 0.000000 1.840670 0.000000 
#    z 0.000000 0.000000 1.835420 
# 
# From -- ./inp_files/22189.got.cif
#   From: 2010.06.25/outbox.cif.g09.slc.cpg/sg58_12_cif.got.tgz:22189.got - 2010.06.26 21:38:00.
