data_PCOD8238655
_publ_section_title
;
Structure prediction by ZEFSAII (Michael W. Deem and Ramdas Pophale) SiO2 
 PCOD8238655
Probable space group: P N N M
;
_chemical_formula_sum "Si O2"
_cell_formula_units_Z 28
_cell_length_a 4.973646
_cell_length_b 7.447742
_cell_length_c 32.013322
_cell_angle_alpha 90.000000
_cell_angle_beta 90.000000
_cell_angle_gamma 90.000000
_cell_volume 1185.851310
_symmetry_space_group_name_H-M "P N N M"
_symmetry_group_IT_number 58
_symmetry_cell_setting 'orthorhombic'
loop_
_space_group_symop_operation_xyz
x,y,z
-x,-y,z
1/2+x,1/2-y,1/2-z
1/2-x,1/2+y,1/2-z
-x,-y,-z
x,y,-z
1/2-x,1/2+y,1/2+z
1/2+x,1/2-y,1/2+z
loop_
_atom_site_type_symbol
_atom_site_label
_atom_site_fract_x
_atom_site_fract_y
_atom_site_fract_z
Si Si1 0.685817 0.145485 0.259950
Si Si2 0.500000 0.500000 0.833365
Si Si3 0.504116 0.711449 0.454061
Si Si4 0.997830 0.288314 0.598634
O O1 0.475713 0.314870 0.262119
O O2 0.745220 0.058488 0.305162
O O3 0.500000 0.000000 0.234408
O O4 0.573179 0.324801 0.860351
O O5 0.500000 0.500000 0.458772
O O6 0.456104 0.798044 0.500000
O O7 0.286152 0.775507 0.420160
O O8 0.793774 0.766947 0.437225
O O9 0.000000 0.500000 0.609890
#
# Coordination Sequence:
#
# PCOD8238655 Si02
#       4
#     8   4   8   8
#     4  12  26  50  75 103 137 182 239 297 366 441
#     4  12  28  46  77 102 146 180 230 306 363 434
#     4   9  18  37  65  96 138 189 239 283 332 408
#     4  10  23  41  65 101 139 185 232 285 356 411
#
# _framework density 23.611730000000001
#
# number of rings (size 3 to 8) (size 9 to 14) (size 15 to 20)
#    0.000    1.429    2.857    0.857    4.000    4.571 
#    5.143    4.286    0.000    0.000    0.000    0.000 
#    0.000    0.000    0.000    0.000    0.000    0.286 
#
# Total GULP energy -346899.955620 kJ/mol
# GULP energy per Si atom -12389.284129 kJ/mol
# Density = 2.355799 g / cm^3
# Si number density = 23.611730 Si / 1000 Ang^3
#
#
#
# Elastic Constant Matrix: (Units=GPa)
#
#
# Indices 1 2 3 4 5 6 
#
# 1 152.5539 30.6216 56.5872 0.0000 0.0000 0.0000
# 2 30.6216 95.8951 66.2408 0.0000 0.0000 0.0000
# 3 56.5872 66.2408 126.4225 0.0000 0.0000 0.0000
# 4 0.0000 0.0000 0.0000 -1.8867 0.0000 0.0000
# 5 0.0000 0.0000 0.0000 0.0000 -14.8805 0.0000
# 6 0.0000 0.0000 0.0000 0.0000 0.0000 35.8669
#
#
#
# Elastic Compliance Matrix: (Units=1/GPa)
#
#
# Indices 1 2 3 4 5 6 
#
# 1 0.007861 -0.000125 -0.003453 0.000000 0.000000 0.000000
# 2 -0.000125 0.016345 -0.008508 0.000000 0.000000 0.000000
# 3 -0.003453 -0.008508 0.013914 0.000000 0.000000 0.000000
# 4 0.000000 0.000000 0.000000 -0.530014 0.000000 0.000000
# 5 0.000000 0.000000 0.000000 0.000000 -0.067202 0.000000
# 6 0.000000 0.000000 0.000000 0.000000 0.000000 0.027881
#
#
# Mechanical properties :
#
#
# Convention : Reuss Voigt Hill
#
# Bulk Modulus (GPa) = 71.69982 75.75231 73.72607
# Shear Modulus (GPa) = -9.95237 18.58138 4.31450
#
# Velocity S-wave (km/s) = -2.05528 2.80832 1.35323
# Velocity P-wave (km/s) = 4.97995 6.53205 5.80808
#
# Compressibility (1/GPa) = 0.01394704
#
# Stress axis : x y z
#
# Youngs Moduli (GPa) = 127.20981 61.17991 71.87137
#
# Poissons Ratio (x) = 0.00764 0.24819
# Poissons Ratio (y) = 0.01589 0.61151
# Poissons Ratio (z) = 0.43928 0.52054
#
# Static dielectric constant tensor:
#      x y z
#    x 4.740660 0.000000 0.000000 
#    y 0.000000 4.598880 0.000000 
#    z 0.000000 0.000000 4.099330 
# 
# 
# High freq. dielectric constant tensor:
#      x y z
#    x 1.954390 0.000000 0.000000 
#    y 0.000000 1.937570 0.000000 
#    z 0.000000 0.000000 1.907670 
# 
# From -- ./inp_files/32567.got.cif
#   From: 2010.06.25/outbox.cif.g09.slc.cpg/sg58_17_cif.got.tgz:32567.got - 2010.06.26 21:38:00.
