data_PCOD8238433
_publ_section_title
;
Structure prediction by ZEFSAII (Michael W. Deem and Ramdas Pophale) SiO2 
 PCOD8238433
Probable space group: P N N M
;
_chemical_formula_sum "Si O2"
_cell_formula_units_Z 64
_cell_length_a 12.729050
_cell_length_b 15.872365
_cell_length_c 16.529880
_cell_angle_alpha 90.000000
_cell_angle_beta 90.000000
_cell_angle_gamma 90.000000
_cell_volume 3339.699066
_symmetry_space_group_name_H-M "P N N M"
_symmetry_group_IT_number 58
_symmetry_cell_setting 'orthorhombic'
loop_
_space_group_symop_operation_xyz
x,y,z
-x,-y,z
1/2+x,1/2-y,1/2-z
1/2-x,1/2+y,1/2-z
-x,-y,-z
x,y,-z
1/2-x,1/2+y,1/2+z
1/2+x,1/2-y,1/2+z
loop_
_atom_site_type_symbol
_atom_site_label
_atom_site_fract_x
_atom_site_fract_y
_atom_site_fract_z
Si Si1 0.378109 0.003244 0.407437
Si Si2 0.539107 0.909587 0.092536
Si Si3 0.399315 0.776131 0.832387
Si Si4 0.272515 0.904333 0.265607
Si Si5 0.285938 0.164979 0.662847
Si Si6 0.457223 0.592984 0.591834
Si Si7 0.428970 0.305825 0.270643
Si Si8 0.245461 0.573483 0.320520
O O1 0.366397 0.973246 0.500000
O O2 0.333982 0.098501 0.400381
O O3 0.500000 0.000000 0.379984
O O4 0.309972 0.941146 0.351543
O O5 0.450822 0.837966 0.101902
O O6 0.639757 0.884470 0.145150
O O7 0.500000 0.000000 0.124391
O O8 0.573301 0.916674 0.000000
O O9 0.352767 0.830692 0.758506
O O10 0.304447 0.724629 0.876318
O O11 0.483281 0.710974 0.796641
O O12 0.155798 0.866136 0.273049
O O13 0.270971 0.974025 0.194585
O O14 0.380979 0.218517 0.698929
O O15 0.227008 0.116401 0.735493
O O16 0.500000 0.500000 0.600982
O O17 0.468333 0.626259 0.500000
O O18 0.523716 0.652311 0.649573
O O19 0.335351 0.592176 0.615154
#
# Coordination Sequence:
#
# PCOD8238433 Si02
#       8
#     8   8   8   8   8   8   8   8
#     4  10  22  41  64  90 117 149 197 250 297 343
#     4  11  23  37  57  85 117 153 192 240 291 343
#     4  11  21  38  60  86 119 155 197 238 290 353
#     4  10  22  36  61  89 111 156 199 240 283 350
#     4  10  22  35  64  90 114 153 195 245 291 351
#     4  11  23  38  57  86 122 155 192 240 295 348
#     4  11  21  38  59  86 120 155 197 232 292 354
#     4  11  19  38  59  87 116 151 201 240 281 357
#
# _framework density 19.163402999999999
#
# number of rings (size 3 to 8) (size 9 to 14) (size 15 to 20)
#    0.000    1.375    5.000    1.125    1.750    1.000 
#    0.000    3.125    0.000    0.750    0.000    0.000 
#    0.000    0.000    0.000    0.000    0.000    0.000 
#
# Total GULP energy -793717.431149 kJ/mol
# GULP energy per Si atom -12401.834862 kJ/mol
# Density = 1.911979 g / cm^3
# Si number density = 19.163403 Si / 1000 Ang^3
#
#
#
# Elastic Constant Matrix: (Units=GPa)
#
#
# Indices 1 2 3 4 5 6 
#
# 1 116.1545 45.9594 33.0458 0.0000 0.0000 0.0000
# 2 45.9594 87.5157 29.2190 0.0000 0.0000 0.0000
# 3 33.0458 29.2190 69.9459 0.0000 0.0000 0.0000
# 4 0.0000 0.0000 0.0000 21.2485 0.0000 0.0000
# 5 0.0000 0.0000 0.0000 0.0000 28.0776 0.0000
# 6 0.0000 0.0000 0.0000 0.0000 0.0000 35.8705
#
#
#
# Elastic Compliance Matrix: (Units=1/GPa)
#
#
# Indices 1 2 3 4 5 6 
#
# 1 0.011519 -0.004918 -0.003388 0.000000 0.000000 0.000000
# 2 -0.004918 0.015378 -0.004100 0.000000 0.000000 0.000000
# 3 -0.003388 -0.004100 0.017610 0.000000 0.000000 0.000000
# 4 0.000000 0.000000 0.000000 0.047062 0.000000 0.000000
# 5 0.000000 0.000000 0.000000 0.000000 0.035616 0.000000
# 6 0.000000 0.000000 0.000000 0.000000 0.000000 0.027878
#
#
# Mechanical properties :
#
#
# Convention : Reuss Voigt Hill
#
# Bulk Modulus (GPa) = 50.77467 54.45161 52.61314
# Shear Modulus (GPa) = 26.81813 28.06545 27.44179
#
# Velocity S-wave (km/s) = 3.74497 3.83107 3.78827
# Velocity P-wave (km/s) = 6.72703 6.93149 6.83003
#
# Compressibility (1/GPa) = 0.01969486
#
# Stress axis : x y z
#
# Youngs Moduli (GPa) = 86.81288 65.02623 56.78542
#
# Poissons Ratio (x) = 0.31982 0.19237
# Poissons Ratio (y) = 0.42697 0.23285
# Poissons Ratio (z) = 0.29409 0.26664
#
# Static dielectric constant tensor:
#      x y z
#    x 3.571830 0.000000 0.000000 
#    y 0.000000 3.806480 0.000000 
#    z 0.000000 0.000000 3.199190 
# 
# 
# High freq. dielectric constant tensor:
#      x y z
#    x 1.758770 0.000000 0.000000 
#    y 0.000000 1.751180 0.000000 
#    z 0.000000 0.000000 1.722420 
# 
# From -- ./inp_files/26390.got.cif
#   From: 2010.06.25/outbox.cif.g09.slc.cpg/sg58_14_cif.got.tgz:26390.got - 2010.06.26 21:38:00.
