data_PCOD8238920
_publ_section_title
;
Structure prediction by ZEFSAII (Michael W. Deem and Ramdas Pophale) SiO2 
 PCOD8238920
Probable space group: P N N M
;
_chemical_formula_sum "Si O2"
_cell_formula_units_Z 28
_cell_length_a 10.685470
_cell_length_b 8.712998
_cell_length_c 14.215531
_cell_angle_alpha 90.000000
_cell_angle_beta 90.000000
_cell_angle_gamma 90.000000
_cell_volume 1323.501173
_symmetry_space_group_name_H-M "P N N M"
_symmetry_group_IT_number 58
_symmetry_cell_setting 'orthorhombic'
loop_
_space_group_symop_operation_xyz
x,y,z
-x,-y,z
1/2+x,1/2-y,1/2-z
1/2-x,1/2+y,1/2-z
-x,-y,-z
x,y,-z
1/2-x,1/2+y,1/2+z
1/2+x,1/2-y,1/2+z
loop_
_atom_site_type_symbol
_atom_site_label
_atom_site_fract_x
_atom_site_fract_y
_atom_site_fract_z
Si Si1 0.745027 0.179125 0.000000
Si Si2 0.144247 0.995492 0.171472
Si Si3 0.469641 0.178921 0.000000
Si Si4 0.282855 0.300370 0.152195
Si Si5 0.354031 0.997682 0.500000
O O1 0.768749 0.072414 0.089909
O O2 0.606563 0.255124 0.000000
O O3 0.834240 0.322185 0.000000
O O4 0.193235 0.167024 0.192246
O O5 0.154089 0.891946 0.263468
O O6 0.000000 0.000000 0.138427
O O7 0.395711 0.228964 0.907481
O O8 0.500000 0.000000 0.000000
O O9 0.199172 0.417034 0.092522
O O10 0.500000 0.000000 0.500000
#
# Coordination Sequence:
#
# PCOD8238920 Si02
#       5
#     4   8   4   8   4
#     4  12  24  46  74  97 137 188 219 287 344 394
#     4  12  26  43  69 102 139 177 232 282 340 410
#     4  11  23  47  72  98 142 178 232 278 339 409
#     4  11  26  43  68 104 135 181 228 281 341 406
#     4  11  24  46  70  97 135 179 229 279 344 406
#
# _framework density 21.156006000000001
#
# number of rings (size 3 to 8) (size 9 to 14) (size 15 to 20)
#    0.000    0.571    2.857    4.714    8.000    1.143 
#    0.000    0.000    0.000    0.000    0.000    0.000 
#    0.000    0.000    0.000    0.000    0.000    0.000 
#
# Total GULP energy -347335.617803 kJ/mol
# GULP energy per Si atom -12404.843493 kJ/mol
# Density = 2.110785 g / cm^3
# Si number density = 21.156006 Si / 1000 Ang^3
#
#
#
# Elastic Constant Matrix: (Units=GPa)
#
#
# Indices 1 2 3 4 5 6 
#
# 1 135.3417 4.9681 25.6424 0.0000 0.0000 0.0000
# 2 4.9681 95.4942 27.2096 0.0000 0.0000 0.0000
# 3 25.6424 27.2096 122.5559 0.0000 0.0000 0.0000
# 4 0.0000 0.0000 0.0000 29.0639 0.0000 0.0000
# 5 0.0000 0.0000 0.0000 0.0000 14.9508 0.0000
# 6 0.0000 0.0000 0.0000 0.0000 0.0000 40.5562
#
#
#
# Elastic Compliance Matrix: (Units=1/GPa)
#
#
# Indices 1 2 3 4 5 6 
#
# 1 0.007694 0.000062 -0.001624 0.000000 0.000000 0.000000
# 2 0.000062 0.011180 -0.002495 0.000000 0.000000 0.000000
# 3 -0.001624 -0.002495 0.009053 0.000000 0.000000 0.000000
# 4 0.000000 0.000000 0.000000 0.034407 0.000000 0.000000
# 5 0.000000 0.000000 0.000000 0.000000 0.066886 0.000000
# 6 0.000000 0.000000 0.000000 0.000000 0.000000 0.024657
#
#
# Mechanical properties :
#
#
# Convention : Reuss Voigt Hill
#
# Bulk Modulus (GPa) = 50.46944 52.11465 51.29205
# Shear Modulus (GPa) = 29.65697 36.61896 33.13796
#
# Velocity S-wave (km/s) = 3.74815 4.16492 3.96202
# Velocity P-wave (km/s) = 6.52987 6.91489 6.72514
#
# Compressibility (1/GPa) = 0.01981397
#
# Stress axis : x y z
#
# Youngs Moduli (GPa) = 129.97067 89.44909 110.45793
#
# Poissons Ratio (x) = -0.00558 0.17935
# Poissons Ratio (y) = -0.00810 0.27560
# Poissons Ratio (z) = 0.21103 0.22318
#
# Static dielectric constant tensor:
#      x y z
#    x 4.440760 0.000000 0.000000 
#    y 0.000000 4.171700 0.000000 
#    z 0.000000 0.000000 3.788920 
# 
# 
# High freq. dielectric constant tensor:
#      x y z
#    x 1.847390 0.000000 0.000000 
#    y 0.000000 1.849680 0.000000 
#    z 0.000000 0.000000 1.830330 
# 
# From -- ./inp_files/20574.got.cif
#   From: 2010.06.25/outbox.cif.g09.slc.cpg/sg58_11_cif.got.tgz:20574.got - 2010.06.26 21:38:00.
