data_PCOD8238813
_publ_section_title
;
Structure prediction by ZEFSAII (Michael W. Deem and Ramdas Pophale) SiO2 
 PCOD8238813
Probable space group: P N N M
;
_chemical_formula_sum "Si O2"
_cell_formula_units_Z 64
_cell_length_a 14.542152
_cell_length_b 25.099600
_cell_length_c 8.426441
_cell_angle_alpha 90.000000
_cell_angle_beta 90.000000
_cell_angle_gamma 90.000000
_cell_volume 3075.669489
_symmetry_space_group_name_H-M "P N N M"
_symmetry_group_IT_number 58
_symmetry_cell_setting 'orthorhombic'
loop_
_space_group_symop_operation_xyz
x,y,z
-x,-y,z
1/2+x,1/2-y,1/2-z
1/2-x,1/2+y,1/2-z
-x,-y,-z
x,y,-z
1/2-x,1/2+y,1/2+z
1/2+x,1/2-y,1/2+z
loop_
_atom_site_type_symbol
_atom_site_label
_atom_site_fract_x
_atom_site_fract_y
_atom_site_fract_z
Si Si1 0.056772 0.551469 0.184665
Si Si2 0.103593 0.992848 0.188566
Si Si3 0.209022 0.889952 0.188818
Si Si4 0.213729 0.192692 0.684749
Si Si5 0.751172 0.420622 0.314977
Si Si6 0.057648 0.256668 0.815199
Si Si7 0.139418 0.777901 0.188340
Si Si8 0.412693 0.870386 0.815217
O O1 0.151219 0.551478 0.282717
O O2 0.000000 0.500000 0.241342
O O3 0.996185 0.603941 0.217543
O O4 0.081291 0.549064 0.000000
O O5 0.167684 0.041782 0.242359
O O6 0.148845 0.938729 0.257635
O O7 0.100492 0.989334 0.000000
O O8 0.000000 0.000000 0.256578
O O9 0.168503 0.835078 0.260194
O O10 0.315787 0.896349 0.239515
O O11 0.203471 0.888552 0.000000
O O12 0.194006 0.201310 0.500000
O O13 0.246056 0.132917 0.714197
O O14 0.123147 0.206186 0.784960
O O15 0.291775 0.232503 0.747754
O O16 0.742186 0.407600 0.500000
O O17 0.092962 0.307497 0.717743
O O18 0.959720 0.238664 0.746890
O O19 0.053287 0.271260 0.000000
O O20 0.138209 0.781591 0.000000
O O21 0.430563 0.880353 0.000000
#
# Coordination Sequence:
#
# PCOD8238813 Si02
#       8
#     8   8   8   8   8   8   8   8
#     4  11  24  41  62  89 124 165 203 248 314 378
#     4   9  19  34  57  88 119 150 194 251 303 355
#     4   9  17  33  57  84 114 152 194 242 299 358
#     4  11  22  40  61  86 123 166 204 247 308 372
#     4  11  23  39  61  93 123 157 207 259 309 366
#     4  11  22  36  59  90 121 157 203 255 307 368
#     4   9  19  35  57  83 115 155 198 243 301 360
#     4  11  21  37  62  89 121 160 204 253 304 369
#
# _framework density 20.808477
#
# number of rings (size 3 to 8) (size 9 to 14) (size 15 to 20)
#    0.000    1.750    1.250    3.375    1.750    3.000 
#    0.000    1.875    0.000    1.500    0.000    0.000 
#    0.000    0.000    0.000    0.000    0.000    0.000 
#
# Total GULP energy -793843.176248 kJ/mol
# GULP energy per Si atom -12403.799629 kJ/mol
# Density = 2.076112 g / cm^3
# Si number density = 20.808477 Si / 1000 Ang^3
#
#
#
# Elastic Constant Matrix: (Units=GPa)
#
#
# Indices 1 2 3 4 5 6 
#
# 1 169.9371 62.1422 21.6373 0.0000 0.0000 0.0000
# 2 62.1422 130.4808 12.4932 0.0000 0.0000 0.0000
# 3 21.6373 12.4932 31.1517 0.0000 0.0000 0.0000
# 4 0.0000 0.0000 0.0000 27.5150 0.0000 0.0000
# 5 0.0000 0.0000 0.0000 0.0000 20.9746 0.0000
# 6 0.0000 0.0000 0.0000 0.0000 0.0000 43.2860
#
#
#
# Elastic Compliance Matrix: (Units=1/GPa)
#
#
# Indices 1 2 3 4 5 6 
#
# 1 0.007569 -0.003225 -0.003964 0.000000 0.000000 0.000000
# 2 -0.003225 0.009344 -0.001507 0.000000 0.000000 0.000000
# 3 -0.003964 -0.001507 0.035458 0.000000 0.000000 0.000000
# 4 0.000000 0.000000 0.000000 0.036344 0.000000 0.000000
# 5 0.000000 0.000000 0.000000 0.000000 0.047677 0.000000
# 6 0.000000 0.000000 0.000000 0.000000 0.000000 0.023102
#
#
# Mechanical properties :
#
#
# Convention : Reuss Voigt Hill
#
# Bulk Modulus (GPa) = 28.58839 58.23503 43.41171
# Shear Modulus (GPa) = 26.51879 34.04158 30.28019
#
# Velocity S-wave (km/s) = 3.57378 4.04907 3.81883
# Velocity P-wave (km/s) = 5.54958 7.06449 6.35235
#
# Compressibility (1/GPa) = 0.03497923
#
# Stress axis : x y z
#
# Youngs Moduli (GPa) = 132.12626 107.01781 28.20202
#
# Poissons Ratio (x) = 0.34514 0.11178
# Poissons Ratio (y) = 0.42611 0.04251
# Poissons Ratio (z) = 0.52369 0.16132
#
# Static dielectric constant tensor:
#      x y z
#    x 3.981540 0.000000 0.000000 
#    y 0.000000 3.849770 0.000000 
#    z 0.000000 0.000000 3.282940 
# 
# 
# High freq. dielectric constant tensor:
#      x y z
#    x 1.829670 0.000000 0.000000 
#    y 0.000000 1.823780 0.000000 
#    z 0.000000 0.000000 1.779070 
# 
# From -- ./inp_files/6806.got.cif
#   From: 2010.06.25/outbox.cif.g09.slc.cpg/sg58_4_cif.got.tgz:6806.got - 2010.06.26 21:38:00.
