data_PCOD8238334
_publ_section_title
;
Structure prediction by ZEFSAII (Michael W. Deem and Ramdas Pophale) SiO2 
 PCOD8238334
Probable space group: P N N M
;
_chemical_formula_sum "Si O2"
_cell_formula_units_Z 48
_cell_length_a 27.454637
_cell_length_b 9.990854
_cell_length_c 8.493226
_cell_angle_alpha 90.000000
_cell_angle_beta 90.000000
_cell_angle_gamma 90.000000
_cell_volume 2329.651718
_symmetry_space_group_name_H-M "P N N M"
_symmetry_group_IT_number 58
_symmetry_cell_setting 'orthorhombic'
loop_
_space_group_symop_operation_xyz
x,y,z
-x,-y,z
1/2+x,1/2-y,1/2-z
1/2-x,1/2+y,1/2-z
-x,-y,-z
x,y,-z
1/2-x,1/2+y,1/2+z
1/2+x,1/2-y,1/2+z
loop_
_atom_site_type_symbol
_atom_site_label
_atom_site_fract_x
_atom_site_fract_y
_atom_site_fract_z
Si Si1 0.320423 0.237703 0.814963
Si Si2 0.458355 0.602762 0.316769
Si Si3 0.463252 0.885594 0.816133
Si Si4 0.211289 0.249560 0.816252
Si Si5 0.638209 0.027225 0.684741
Si Si6 0.855526 0.970631 0.681322
O O1 0.265645 0.247376 0.745193
O O2 0.348763 0.125389 0.718381
O O3 0.348808 0.374133 0.778105
O O4 0.320988 0.203013 0.000000
O O5 0.500000 0.500000 0.263570
O O6 0.446076 0.587886 0.500000
O O7 0.476652 0.751861 0.279376
O O8 0.410080 0.572814 0.218865
O O9 0.500000 0.000000 0.757567
O O10 0.408885 0.932688 0.782584
O O11 0.469888 0.856169 0.000000
O O12 0.181579 0.377441 0.751375
O O13 0.183441 0.112707 0.780322
O O14 0.216935 0.267863 0.000000
O O15 0.628172 0.049469 0.500000
O O16 0.844402 0.941425 0.500000
#
# Coordination Sequence:
#
# PCOD8238334 Si02
#       6
#     8   8   8   8   8   8
#     4  10  23  40  60  91 128 166 210 257 306 366
#     4  11  25  44  66  94 126 162 206 254 310 372
#     4  11  25  44  67  95 125 161 206 254 309 370
#     4  10  21  40  63  89 125 165 208 259 310 367
#     4  11  23  40  64  93 127 165 208 256 311 369
#     4  11  23  40  64  92 125 165 210 258 312 368
#
# _framework density 20.603937999999999
#
# number of rings (size 3 to 8) (size 9 to 14) (size 15 to 20)
#    0.000    1.333    1.667    3.000    2.333    6.667 
#    0.000    0.000    0.000    0.000    0.000    0.000 
#    0.000    0.000    0.000    0.000    0.000    0.000 
#
# Total GULP energy -595502.269367 kJ/mol
# GULP energy per Si atom -12406.297278 kJ/mol
# Density = 2.055704 g / cm^3
# Si number density = 20.603938 Si / 1000 Ang^3
#
#
#
# Elastic Constant Matrix: (Units=GPa)
#
#
# Indices 1 2 3 4 5 6 
#
# 1 89.6873 48.4054 9.4164 0.0000 0.0000 0.0000
# 2 48.4054 136.7835 10.4542 0.0000 0.0000 0.0000
# 3 9.4164 10.4542 14.5906 0.0000 0.0000 0.0000
# 4 0.0000 0.0000 0.0000 20.5176 0.0000 0.0000
# 5 0.0000 0.0000 0.0000 0.0000 16.5684 0.0000
# 6 0.0000 0.0000 0.0000 0.0000 0.0000 44.1000
#
#
#
# Elastic Compliance Matrix: (Units=1/GPa)
#
#
# Indices 1 2 3 4 5 6 
#
# 1 0.014248 -0.004591 -0.005906 0.000000 0.000000 0.000000
# 2 -0.004591 0.009213 -0.003639 0.000000 0.000000 0.000000
# 3 -0.005906 -0.003639 0.074956 0.000000 0.000000 0.000000
# 4 0.000000 0.000000 0.000000 0.048739 0.000000 0.000000
# 5 0.000000 0.000000 0.000000 0.000000 0.060356 0.000000
# 6 0.000000 0.000000 0.000000 0.000000 0.000000 0.022676
#
#
# Mechanical properties :
#
#
# Convention : Reuss Voigt Hill
#
# Bulk Modulus (GPa) = 14.25590 41.95705 28.10647
# Shear Modulus (GPa) = 17.74056 27.75621 22.74839
#
# Velocity S-wave (km/s) = 2.93751 3.67431 3.32637
# Velocity P-wave (km/s) = 4.29410 6.19746 5.33141
#
# Compressibility (1/GPa) = 0.07014641
#
# Stress axis : x y z
#
# Youngs Moduli (GPa) = 70.18773 108.53677 13.34118
#
# Poissons Ratio (x) = 0.49825 0.07879
# Poissons Ratio (y) = 0.32220 0.04855
# Poissons Ratio (z) = 0.41452 0.39495
#
# Static dielectric constant tensor:
#      x y z
#    x 3.884680 0.000000 0.000000 
#    y 0.000000 3.977990 0.000000 
#    z 0.000000 0.000000 3.601540 
# 
# 
# High freq. dielectric constant tensor:
#      x y z
#    x 1.814790 0.000000 0.000000 
#    y 0.000000 1.821370 0.000000 
#    z 0.000000 0.000000 1.800120 
# 
# From -- ./inp_files/3005.got.cif
#   From: 2010.06.25/outbox.cif.g09.slc.cpg/sg58_2_cif.got.tgz:3005.got - 2010.06.26 21:38:00.
