data_PCOD8238834
_publ_section_title
;
Structure prediction by ZEFSAII (Michael W. Deem and Ramdas Pophale) SiO2 
 PCOD8238834
Probable space group: P N N M
;
_chemical_formula_sum "Si O2"
_cell_formula_units_Z 64
_cell_length_a 14.317660
_cell_length_b 28.051152
_cell_length_c 8.964812
_cell_angle_alpha 90.000000
_cell_angle_beta 90.000000
_cell_angle_gamma 90.000000
_cell_volume 3600.509267
_symmetry_space_group_name_H-M "P N N M"
_symmetry_group_IT_number 58
_symmetry_cell_setting 'orthorhombic'
loop_
_space_group_symop_operation_xyz
x,y,z
-x,-y,z
1/2+x,1/2-y,1/2-z
1/2-x,1/2+y,1/2-z
-x,-y,-z
x,y,-z
1/2-x,1/2+y,1/2+z
1/2+x,1/2-y,1/2+z
loop_
_atom_site_type_symbol
_atom_site_label
_atom_site_fract_x
_atom_site_fract_y
_atom_site_fract_z
Si Si1 0.250000 0.947357 0.823932
Si Si2 0.602141 0.873796 0.324784
Si Si3 0.893829 0.119632 0.675187
Si Si4 0.250000 0.799683 0.329796
Si Si5 0.750000 0.452576 0.173514
Si Si6 0.750000 0.300171 0.822838
Si Si7 0.397859 0.626204 0.824784
Si Si8 0.893829 0.619632 0.175187
O O1 0.157056 0.923276 0.759011
O O2 0.342945 0.923276 0.759011
O O3 0.250000 0.002324 0.779834
O O4 0.250000 0.941889 0.000000
O O5 0.592486 0.867355 0.500000
O O6 0.657907 0.922025 0.287686
O O7 0.658208 0.827902 0.260959
O O8 0.498065 0.876217 0.257095
O O9 0.892240 0.107379 0.500000
O O10 0.841788 0.169425 0.706156
O O11 0.998065 0.123783 0.742904
O O12 0.250000 0.782415 0.500000
O O13 0.250000 0.754063 0.225722
O O14 0.341788 0.830575 0.293844
O O15 0.657907 0.422025 0.212315
O O16 0.750000 0.467797 0.000000
O O17 0.658208 0.327902 0.760959
O O18 0.750000 0.302897 0.000000
O O19 0.407514 0.632645 0.000000
O O20 0.892240 0.607379 0.000000
#
# Coordination Sequence:
#
# PCOD8238834 Si02
#       8
#     8   8   8   8   8   8   8   8
#     4  11  22  34  48  72 103 128 156 198 249 294
#     4   8  16  32  54  75  94 124 167 206 235 277
#     4   9  18  35  54  70  94 130 169 202 234 280
#     4   9  18  30  46  70  99 130 164 200 239 284
#     4   9  17  33  55  75  95 124 164 202 239 285
#     4   9  17  31  51  75 101 126 158 202 245 283
#     4   8  16  32  54  75  94 124 167 206 235 277
#     4   9  18  35  54  70  94 130 169 202 234 280
#
# _framework density 17.775264
#
# number of rings (size 3 to 8) (size 9 to 14) (size 15 to 20)
#    0.000    3.000    0.000    3.375    0.000    4.000 
#    0.000   10.000    0.000    0.000    0.000    0.000 
#    0.000    0.000    0.000    0.000    0.000    0.000 
#
# Total GULP energy -793426.992045 kJ/mol
# GULP energy per Si atom -12397.296751 kJ/mol
# Density = 1.773481 g / cm^3
# Si number density = 17.775264 Si / 1000 Ang^3
#
#
#
# Elastic Constant Matrix: (Units=GPa)
#
#
# Indices 1 2 3 4 5 6 
#
# 1 183.5817 66.0387 33.3323 0.0000 0.0000 0.0000
# 2 66.0387 109.2390 33.8373 0.0000 0.0000 0.0000
# 3 33.3323 33.8373 46.1325 0.0000 0.0000 0.0000
# 4 0.0000 0.0000 0.0000 32.7216 0.0000 0.0000
# 5 0.0000 0.0000 0.0000 0.0000 4.8640 0.0000
# 6 0.0000 0.0000 0.0000 0.0000 0.0000 12.4483
#
#
#
# Elastic Compliance Matrix: (Units=1/GPa)
#
#
# Indices 1 2 3 4 5 6 
#
# 1 0.007194 -0.003544 -0.002598 0.000000 0.000000 0.000000
# 2 -0.003544 0.013592 -0.007408 0.000000 0.000000 0.000000
# 3 -0.002598 -0.007408 0.028988 0.000000 0.000000 0.000000
# 4 0.000000 0.000000 0.000000 0.030561 0.000000 0.000000
# 5 0.000000 0.000000 0.000000 0.000000 0.205593 0.000000
# 6 0.000000 0.000000 0.000000 0.000000 0.000000 0.080332
#
#
# Mechanical properties :
#
#
# Convention : Reuss Voigt Hill
#
# Bulk Modulus (GPa) = 44.10768 67.26331 55.68549
# Shear Modulus (GPa) = 12.47137 23.72311 18.09724
#
# Velocity S-wave (km/s) = 2.65167 3.65720 3.19425
# Velocity P-wave (km/s) = 5.85176 7.46703 6.70819
#
# Compressibility (1/GPa) = 0.02267179
#
# Stress axis : x y z
#
# Youngs Moduli (GPa) = 139.00837 73.57507 34.49711
#
# Poissons Ratio (x) = 0.26076 0.08963
# Poissons Ratio (y) = 0.49266 0.25557
# Poissons Ratio (z) = 0.36118 0.54508
#
# Static dielectric constant tensor:
#      x y z
#    x 3.939850 0.000000 0.000000 
#    y 0.000000 3.174900 0.000000 
#    z 0.000000 0.000000 2.912800 
# 
# 
# High freq. dielectric constant tensor:
#      x y z
#    x 1.698400 0.000000 0.000000 
#    y 0.000000 1.687730 0.000000 
#    z 0.000000 0.000000 1.651910 
# 
# From -- ./inp_files/7178.got.cif
#   From: 2010.06.25/outbox.cif.g09.slc.cpg/sg58_4_cif.got.tgz:7178.got - 2010.06.26 21:38:00.
