data_PCOD8238635
_publ_section_title
;
Structure prediction by ZEFSAII (Michael W. Deem and Ramdas Pophale) SiO2 
 PCOD8238635
Probable space group: P N N M
;
_chemical_formula_sum "Si O2"
_cell_formula_units_Z 48
_cell_length_a 16.493542
_cell_length_b 8.747343
_cell_length_c 15.084546
_cell_angle_alpha 90.000000
_cell_angle_beta 90.000000
_cell_angle_gamma 90.000000
_cell_volume 2176.317884
_symmetry_space_group_name_H-M "P N N M"
_symmetry_group_IT_number 58
_symmetry_cell_setting 'orthorhombic'
loop_
_space_group_symop_operation_xyz
x,y,z
-x,-y,z
1/2+x,1/2-y,1/2-z
1/2-x,1/2+y,1/2-z
-x,-y,-z
x,y,-z
1/2-x,1/2+y,1/2+z
1/2+x,1/2-y,1/2+z
loop_
_atom_site_type_symbol
_atom_site_label
_atom_site_fract_x
_atom_site_fract_y
_atom_site_fract_z
Si Si1 0.285670 0.682253 0.849647
Si Si2 0.588664 0.313141 0.401631
Si Si3 0.308773 0.464835 0.691294
Si Si4 0.047491 0.752735 0.771918
Si Si5 0.531057 0.330445 0.900687
Si Si6 0.872748 0.472805 0.902162
O O1 0.281859 0.600626 0.755000
O O2 0.267610 0.863135 0.838450
O O3 0.371893 0.669070 0.896368
O O4 0.216198 0.601806 0.907639
O O5 0.551244 0.316621 0.500000
O O6 0.652505 0.452009 0.394074
O O7 0.518723 0.343189 0.329916
O O8 0.633993 0.152743 0.381912
O O9 0.372936 0.354934 0.740305
O O10 0.070132 0.598601 0.825667
O O11 0.009563 0.720079 0.673961
O O12 0.500000 0.500000 0.880216
O O13 0.505157 0.277847 0.000000
O O14 0.912069 0.445803 0.000000
#
# Coordination Sequence:
#
# PCOD8238635 Si02
#       6
#     8   8   8   8   8   8
#     4  11  22  40  64  96 131 173 227 273 331 397
#     4  11  22  39  64  99 136 169 214 271 337 406
#     4  11  23  39  64  94 130 173 218 274 335 391
#     4  11  21  40  64  96 131 171 223 269 328 392
#     4  11  22  40  67  96 132 180 232 276 326 395
#     4  10  23  40  66 100 133 174 216 269 338 401
#
# _framework density 22.055600999999999
#
# number of rings (size 3 to 8) (size 9 to 14) (size 15 to 20)
#    0.000    1.167    3.333    3.000    0.000    6.000 
#    0.000    0.000    0.000    2.000    0.000    0.000 
#    0.000    0.000    0.000    0.000    0.000    0.000 
#
# Total GULP energy -595149.654661 kJ/mol
# GULP energy per Si atom -12398.951139 kJ/mol
# Density = 2.200540 g / cm^3
# Si number density = 22.055601 Si / 1000 Ang^3
#
#
#
# Elastic Constant Matrix: (Units=GPa)
#
#
# Indices 1 2 3 4 5 6 
#
# 1 101.7477 39.4333 44.6680 0.0000 0.0000 0.0000
# 2 39.4333 91.1515 30.2774 0.0000 0.0000 0.0000
# 3 44.6680 30.2774 147.7143 0.0000 0.0000 0.0000
# 4 0.0000 0.0000 0.0000 30.8677 0.0000 0.0000
# 5 0.0000 0.0000 0.0000 0.0000 3.6894 0.0000
# 6 0.0000 0.0000 0.0000 0.0000 0.0000 39.7391
#
#
#
# Elastic Compliance Matrix: (Units=1/GPa)
#
#
# Indices 1 2 3 4 5 6 
#
# 1 0.012912 -0.004602 -0.002961 0.000000 0.000000 0.000000
# 2 -0.004602 0.013413 -0.001358 0.000000 0.000000 0.000000
# 3 -0.002961 -0.001358 0.007944 0.000000 0.000000 0.000000
# 4 0.000000 0.000000 0.000000 0.032396 0.000000 0.000000
# 5 0.000000 0.000000 0.000000 0.000000 0.271047 0.000000
# 6 0.000000 0.000000 0.000000 0.000000 0.000000 0.025164
#
#
# Mechanical properties :
#
#
# Convention : Reuss Voigt Hill
#
# Bulk Modulus (GPa) = 60.87838 63.26343 62.07091
# Shear Modulus (GPa) = 12.94691 29.94156 21.44423
#
# Velocity S-wave (km/s) = 2.42546 3.68849 3.12152
# Velocity P-wave (km/s) = 5.95869 6.84732 6.41840
#
# Compressibility (1/GPa) = 0.01642619
#
# Stress axis : x y z
#
# Youngs Moduli (GPa) = 77.44831 74.55644 125.88884
#
# Poissons Ratio (x) = 0.34313 0.37277
# Poissons Ratio (y) = 0.35643 0.17090
# Poissons Ratio (z) = 0.22934 0.10121
#
# Static dielectric constant tensor:
#      x y z
#    x 4.056400 0.000000 0.000000 
#    y 0.000000 3.941400 0.000000 
#    z 0.000000 0.000000 3.979660 
# 
# 
# High freq. dielectric constant tensor:
#      x y z
#    x 1.865540 0.000000 0.000000 
#    y 0.000000 1.861550 0.000000 
#    z 0.000000 0.000000 1.865360 
# 
# From -- ./inp_files/22770.got.cif
#   From: 2010.06.25/outbox.cif.g09.slc.cpg/sg58_12_cif.got.tgz:22770.got - 2010.06.26 21:38:00.
