data_PCOD8238605
_publ_section_title
;
Structure prediction by ZEFSAII (Michael W. Deem and Ramdas Pophale) SiO2 
 PCOD8238605
Probable space group: P N N M
;
_chemical_formula_sum "Si O2"
_cell_formula_units_Z 40
_cell_length_a 5.029967
_cell_length_b 17.517593
_cell_length_c 18.507679
_cell_angle_alpha 90.000000
_cell_angle_beta 90.000000
_cell_angle_gamma 90.000000
_cell_volume 1630.765541
_symmetry_space_group_name_H-M "P N N M"
_symmetry_group_IT_number 58
_symmetry_cell_setting 'orthorhombic'
loop_
_space_group_symop_operation_xyz
x,y,z
-x,-y,z
1/2+x,1/2-y,1/2-z
1/2-x,1/2+y,1/2-z
-x,-y,-z
x,y,-z
1/2-x,1/2+y,1/2+z
1/2+x,1/2-y,1/2+z
loop_
_atom_site_type_symbol
_atom_site_label
_atom_site_fract_x
_atom_site_fract_y
_atom_site_fract_z
Si Si1 0.245972 0.795206 0.727405
Si Si2 0.538711 0.366387 0.580937
Si Si3 0.250780 0.543268 0.915410
Si Si4 0.019854 0.306141 0.081257
Si Si5 0.558085 0.084999 0.837539
O O1 0.951510 0.772947 0.752871
O O2 0.248490 0.813959 0.641468
O O3 0.335787 0.870905 0.768257
O O4 0.626656 0.387612 0.500000
O O5 0.415034 0.280593 0.584860
O O6 0.797167 0.373532 0.631167
O O7 0.295246 0.420512 0.603675
O O8 0.500000 0.500000 0.878142
O O9 0.220207 0.634568 0.900159
O O10 0.000000 0.500000 0.881759
O O11 0.266696 0.528247 0.000000
O O12 0.134612 0.324187 0.000000
O O13 0.500000 0.000000 0.811885
#
# Coordination Sequence:
#
# PCOD8238605 Si02
#       5
#     8   8   8   8   8
#     4  12  24  46  68  95 135 182 223 278 338 406
#     4  11  24  43  70 104 138 181 231 282 342 414
#     4   9  19  35  56  88 128 165 207 265 321 371
#     4  10  22  42  71 100 133 178 231 278 335 411
#     4  12  25  44  69 102 138 181 228 280 348 414
#
# _framework density 24.528358000000001
#
# number of rings (size 3 to 8) (size 9 to 14) (size 15 to 20)
#    0.000    1.200    4.000    1.200    0.000    6.400 
#    0.000   11.000    0.000    0.000    0.000    0.000 
#    0.000    0.000    0.000    0.000    0.000    0.000 
#
# Total GULP energy -495846.620852 kJ/mol
# GULP energy per Si atom -12396.165521 kJ/mol
# Density = 2.447253 g / cm^3
# Si number density = 24.528358 Si / 1000 Ang^3
#
#
#
# Elastic Constant Matrix: (Units=GPa)
#
#
# Indices 1 2 3 4 5 6 
#
# 1 105.5561 8.4169 -1.5673 0.0000 0.0000 0.0000
# 2 8.4169 102.0721 17.8846 0.0000 0.0000 0.0000
# 3 -1.5673 17.8846 100.0935 0.0000 0.0000 0.0000
# 4 0.0000 0.0000 0.0000 25.6085 0.0000 0.0000
# 5 0.0000 0.0000 0.0000 0.0000 16.5594 0.0000
# 6 0.0000 0.0000 0.0000 0.0000 0.0000 29.4044
#
#
#
# Elastic Compliance Matrix: (Units=1/GPa)
#
#
# Indices 1 2 3 4 5 6 
#
# 1 0.009545 -0.000840 0.000299 0.000000 0.000000 0.000000
# 2 -0.000840 0.010187 -0.001833 0.000000 0.000000 0.000000
# 3 0.000299 -0.001833 0.010323 0.000000 0.000000 0.000000
# 4 0.000000 0.000000 0.000000 0.039050 0.000000 0.000000
# 5 0.000000 0.000000 0.000000 0.000000 0.060389 0.000000
# 6 0.000000 0.000000 0.000000 0.000000 0.000000 0.034009
#
#
# Mechanical properties :
#
#
# Convention : Reuss Voigt Hill
#
# Bulk Modulus (GPa) = 39.51257 39.68779 39.60018
# Shear Modulus (GPa) = 28.29888 33.18029 30.73959
#
# Velocity S-wave (km/s) = 3.40033 3.68194 3.54393
# Velocity P-wave (km/s) = 5.61785 5.85586 5.73809
#
# Compressibility (1/GPa) = 0.02530840
#
# Stress axis : x y z
#
# Youngs Moduli (GPa) = 104.76655 98.15981 96.87163
#
# Poissons Ratio (x) = 0.08241 -0.02901
# Poissons Ratio (y) = 0.08796 0.17761
# Poissons Ratio (z) = -0.03137 0.17997
#
# Static dielectric constant tensor:
#      x y z
#    x 4.342450 0.000000 0.000000 
#    y 0.000000 4.454390 0.000000 
#    z 0.000000 0.000000 4.489890 
# 
# 
# High freq. dielectric constant tensor:
#      x y z
#    x 1.957840 0.000000 0.000000 
#    y 0.000000 1.982240 0.000000 
#    z 0.000000 0.000000 1.968790 
# 
# From -- ./inp_files/24159.got.cif
#   From: 2010.06.25/outbox.cif.g09.slc.cpg/sg58_13_cif.got.tgz:24159.got - 2010.06.26 21:38:00.
