data_PCOD8238498
_publ_section_title
;
Structure prediction by ZEFSAII (Michael W. Deem and Ramdas Pophale) SiO2 
 PCOD8238498
Probable space group: P N N M
;
_chemical_formula_sum "Si O2"
_cell_formula_units_Z 48
_cell_length_a 12.761449
_cell_length_b 21.747785
_cell_length_c 8.968201
_cell_angle_alpha 90.000000
_cell_angle_beta 90.000000
_cell_angle_gamma 90.000000
_cell_volume 2488.973962
_symmetry_space_group_name_H-M "P N N M"
_symmetry_group_IT_number 58
_symmetry_cell_setting 'orthorhombic'
loop_
_space_group_symop_operation_xyz
x,y,z
-x,-y,z
1/2+x,1/2-y,1/2-z
1/2-x,1/2+y,1/2-z
-x,-y,-z
x,y,-z
1/2-x,1/2+y,1/2+z
1/2+x,1/2-y,1/2+z
loop_
_atom_site_type_symbol
_atom_site_label
_atom_site_fract_x
_atom_site_fract_y
_atom_site_fract_z
Si Si1 0.821529 0.935977 0.174592
Si Si2 0.326834 0.437439 0.175695
Si Si3 0.012642 0.722451 0.831377
Si Si4 0.516013 0.350194 0.824492
Si Si5 0.101676 0.395145 0.168342
Si Si6 0.901769 0.385674 0.325993
O O1 0.884685 0.879885 0.244608
O O2 0.699155 0.926492 0.211858
O O3 0.859773 0.999594 0.245398
O O4 0.843452 0.937488 0.000000
O O5 0.410981 0.386307 0.220893
O O6 0.213661 0.414806 0.234815
O O7 0.325777 0.448808 0.000000
O O8 0.105502 0.680198 0.760105
O O9 0.994195 0.780882 0.729492
O O10 0.907429 0.679753 0.830676
O O11 0.042658 0.741921 0.000000
O O12 0.534949 0.351392 0.000000
O O13 0.005967 0.422300 0.268684
O O14 0.088776 0.420156 0.000000
O O15 0.911102 0.371995 0.500000
#
# Coordination Sequence:
#
# PCOD8238498 Si02
#       6
#     8   8   8   8   8   8
#     4  11  24  39  57  83 116 153 192 237 282 331
#     4  10  22  40  59  82 114 151 190 234 285 341
#     4   9  19  37  60  87 115 147 186 232 285 340
#     4  11  23  38  59  85 114 152 192 233 283 340
#     4   8  18  37  59  84 113 147 185 232 288 340
#     4   9  19  37  58  84 115 148 187 233 283 335
#
# _framework density 19.285055
#
# number of rings (size 3 to 8) (size 9 to 14) (size 15 to 20)
#    1.000    1.333    0.000    2.000    0.000    8.667 
#    0.000    6.667    0.000    0.000    0.000    0.000 
#    0.000    0.000    0.000    0.000    0.000    0.000 
#
# Total GULP energy -594986.795855 kJ/mol
# GULP energy per Si atom -12395.558247 kJ/mol
# Density = 1.924116 g / cm^3
# Si number density = 19.285055 Si / 1000 Ang^3
#
#
#
# Elastic Constant Matrix: (Units=GPa)
#
#
# Indices 1 2 3 4 5 6 
#
# 1 71.6111 -2.3347 32.4053 0.0000 0.0000 0.0000
# 2 -2.3347 62.7684 16.6988 0.0000 0.0000 0.0000
# 3 32.4053 16.6988 53.6757 0.0000 0.0000 0.0000
# 4 0.0000 0.0000 0.0000 25.4530 0.0000 0.0000
# 5 0.0000 0.0000 0.0000 0.0000 25.7324 0.0000
# 6 0.0000 0.0000 0.0000 0.0000 0.0000 5.5746
#
#
#
# Elastic Compliance Matrix: (Units=1/GPa)
#
#
# Indices 1 2 3 4 5 6 
#
# 1 0.020255 0.004368 -0.013588 0.000000 0.000000 0.000000
# 2 0.004368 0.018311 -0.008334 0.000000 0.000000 0.000000
# 3 -0.013588 -0.008334 0.029426 0.000000 0.000000 0.000000
# 4 0.000000 0.000000 0.000000 0.039288 0.000000 0.000000
# 5 0.000000 0.000000 0.000000 0.000000 0.038861 0.000000
# 6 0.000000 0.000000 0.000000 0.000000 0.000000 0.179384
#
#
# Mechanical properties :
#
#
# Convention : Reuss Voigt Hill
#
# Bulk Modulus (GPa) = 30.40785 31.28823 30.84804
# Shear Modulus (GPa) = 13.45550 20.77105 17.11328
#
# Velocity S-wave (km/s) = 2.64430 3.28541 2.98213
# Velocity P-wave (km/s) = 5.01247 5.53635 5.28091
#
# Compressibility (1/GPa) = 0.03288624
#
# Stress axis : x y z
#
# Youngs Moduli (GPa) = 49.36960 54.61141 33.98320
#
# Poissons Ratio (x) = -0.23855 0.46175
# Poissons Ratio (y) = -0.21566 0.28321
# Poissons Ratio (z) = 0.67082 0.45513
#
# Static dielectric constant tensor:
#      x y z
#    x 3.563520 0.000000 0.000000 
#    y 0.000000 3.329860 0.000000 
#    z 0.000000 0.000000 3.495700 
# 
# 
# High freq. dielectric constant tensor:
#      x y z
#    x 1.742990 0.000000 0.000000 
#    y 0.000000 1.743550 0.000000 
#    z 0.000000 0.000000 1.756500 
# 
# From -- ./inp_files/6054.got.cif
#   From: 2010.06.25/outbox.cif.g09.slc.cpg/sg58_4_cif.got.tgz:6054.got - 2010.06.26 21:38:00.
