data_PCOD8238213
_publ_section_title
;
Structure prediction by ZEFSAII (Michael W. Deem and Ramdas Pophale) SiO2 
 PCOD8238213
Probable space group: P N N M
;
_chemical_formula_sum "Si O2"
_cell_formula_units_Z 56
_cell_length_a 9.603215
_cell_length_b 19.602599
_cell_length_c 14.380897
_cell_angle_alpha 90.000000
_cell_angle_beta 90.000000
_cell_angle_gamma 90.000000
_cell_volume 2707.174707
_symmetry_space_group_name_H-M "P N N M"
_symmetry_group_IT_number 58
_symmetry_cell_setting 'orthorhombic'
loop_
_space_group_symop_operation_xyz
x,y,z
-x,-y,z
1/2+x,1/2-y,1/2-z
1/2-x,1/2+y,1/2-z
-x,-y,-z
x,y,-z
1/2-x,1/2+y,1/2+z
1/2+x,1/2-y,1/2+z
loop_
_atom_site_type_symbol
_atom_site_label
_atom_site_fract_x
_atom_site_fract_y
_atom_site_fract_z
Si Si1 0.035630 0.284205 0.397062
Si Si2 0.512510 0.167098 0.605222
Si Si3 0.725522 0.289151 0.601974
Si Si4 0.786158 0.823269 0.698434
Si Si5 0.627858 0.456866 0.109318
Si Si6 0.860382 0.540752 0.202914
Si Si7 0.393470 0.937952 0.100639
O O1 0.093008 0.266840 0.500000
O O2 0.140652 0.249215 0.323935
O O3 0.027509 0.365910 0.382172
O O4 0.878558 0.254886 0.386098
O O5 0.470316 0.145914 0.500000
O O6 0.602692 0.234885 0.604076
O O7 0.373432 0.177824 0.665162
O O8 0.611424 0.110621 0.650048
O O9 0.720702 0.326829 0.500000
O O10 0.706112 0.338519 0.690764
O O11 0.877277 0.881192 0.649829
O O12 0.500000 0.500000 0.150037
O O13 0.767765 0.494108 0.138049
O O14 0.618943 0.450810 0.000000
O O15 0.795828 0.552548 0.307467
O O16 0.000000 0.500000 0.220583
O O17 0.500000 0.000000 0.093464
O O18 0.312512 0.934618 0.000000
#
# Coordination Sequence:
#
# PCOD8238213 Si02
#       7
#     8   8   8   8   8   8   8
#     4  10  21  38  62  90 121 159 203 250 301 359
#     4  11  23  39  61  91 123 158 202 255 308 360
#     4  10  23  39  60  89 120 156 201 250 300 357
#     4  12  22  40  64  88 123 163 202 250 306 365
#     4  11  26  43  61  89 123 160 203 252 307 368
#     4  11  21  37  63  89 119 158 202 250 303 354
#     4   9  19  36  61  92 122 158 206 250 291 355
#
# _framework density 20.685773999999999
#
# number of rings (size 3 to 8) (size 9 to 14) (size 15 to 20)
#    0.000    1.429    1.429    4.286    4.000    0.571 
#    2.571    0.000    0.000    0.857    0.000    0.000 
#    0.000    0.000    0.000    0.000    0.000    0.000 
#
# Total GULP energy -693961.837382 kJ/mol
# GULP energy per Si atom -12392.175668 kJ/mol
# Density = 2.063869 g / cm^3
# Si number density = 20.685774 Si / 1000 Ang^3
#
#
#
# Elastic Constant Matrix: (Units=GPa)
#
#
# Indices 1 2 3 4 5 6 
#
# 1 50.0048 33.4840 23.1888 0.0000 0.0000 0.0000
# 2 33.4840 92.5610 38.2684 0.0000 0.0000 0.0000
# 3 23.1888 38.2684 162.2572 0.0000 0.0000 0.0000
# 4 0.0000 0.0000 0.0000 25.5878 0.0000 0.0000
# 5 0.0000 0.0000 0.0000 0.0000 21.2921 0.0000
# 6 0.0000 0.0000 0.0000 0.0000 0.0000 15.7047
#
#
#
# Elastic Compliance Matrix: (Units=1/GPa)
#
#
# Indices 1 2 3 4 5 6 
#
# 1 0.026813 -0.008992 -0.001711 0.000000 0.000000 0.000000
# 2 -0.008992 0.014987 -0.002250 0.000000 0.000000 0.000000
# 3 -0.001711 -0.002250 0.006938 0.000000 0.000000 0.000000
# 4 0.000000 0.000000 0.000000 0.039081 0.000000 0.000000
# 5 0.000000 0.000000 0.000000 0.000000 0.046966 0.000000
# 6 0.000000 0.000000 0.000000 0.000000 0.000000 0.063675
#
#
# Mechanical properties :
#
#
# Convention : Reuss Voigt Hill
#
# Bulk Modulus (GPa) = 43.79794 54.96728 49.38261
# Shear Modulus (GPa) = 21.55398 26.50905 24.03152
#
# Velocity S-wave (km/s) = 3.23146 3.58370 3.41213
# Velocity P-wave (km/s) = 5.92807 6.61469 6.28077
#
# Compressibility (1/GPa) = 0.02283212
#
# Stress axis : x y z
#
# Youngs Moduli (GPa) = 37.29556 66.72624 144.13074
#
# Poissons Ratio (x) = 0.60001 0.24663
# Poissons Ratio (y) = 0.33537 0.32422
# Poissons Ratio (z) = 0.06382 0.15010
#
# Static dielectric constant tensor:
#      x y z
#    x 3.480630 0.000000 0.000000 
#    y 0.000000 3.774960 0.000000 
#    z 0.000000 0.000000 4.521430 
# 
# 
# High freq. dielectric constant tensor:
#      x y z
#    x 1.777830 0.000000 0.000000 
#    y 0.000000 1.800250 0.000000 
#    z 0.000000 0.000000 1.844850 
# 
# From -- ./inp_files/20142.got.cif
#   From: 2010.06.25/outbox.cif.g09.slc.cpg/sg58_11_cif.got.tgz:20142.got - 2010.06.26 21:38:00.
