data_PCOD8238113
_publ_section_title
;
Structure prediction by ZEFSAII (Michael W. Deem and Ramdas Pophale) SiO2 
 PCOD8238113
Probable space group: P N N M
;
_chemical_formula_sum "Si O2"
_cell_formula_units_Z 56
_cell_length_a 14.733841
_cell_length_b 8.941678
_cell_length_c 19.225720
_cell_angle_alpha 90.000000
_cell_angle_beta 90.000000
_cell_angle_gamma 90.000000
_cell_volume 2532.897517
_symmetry_space_group_name_H-M "P N N M"
_symmetry_group_IT_number 58
_symmetry_cell_setting 'orthorhombic'
loop_
_space_group_symop_operation_xyz
x,y,z
-x,-y,z
1/2+x,1/2-y,1/2-z
1/2-x,1/2+y,1/2-z
-x,-y,-z
x,y,-z
1/2-x,1/2+y,1/2+z
1/2+x,1/2-y,1/2+z
loop_
_atom_site_type_symbol
_atom_site_label
_atom_site_fract_x
_atom_site_fract_y
_atom_site_fract_z
Si Si1 0.552346 0.732326 0.790807
Si Si2 0.685226 0.140482 0.578689
Si Si3 0.190572 0.631878 0.816557
Si Si4 0.120812 0.075495 0.744025
Si Si5 0.140721 0.654778 0.420345
Si Si6 0.592290 0.431579 0.598113
Si Si7 0.752090 0.626295 0.573920
O O1 0.601888 0.823466 0.728007
O O2 0.596253 0.568755 0.801785
O O3 0.444428 0.716150 0.775385
O O4 0.560902 0.812031 0.865501
O O5 0.688463 0.074284 0.500000
O O6 0.775584 0.234047 0.596306
O O7 0.599148 0.252878 0.585353
O O8 0.670251 0.011834 0.635872
O O9 0.272964 0.610029 0.762738
O O10 0.226519 0.761544 0.866050
O O11 0.100944 0.025708 0.821690
O O12 0.107342 0.677956 0.500000
O O13 0.164048 0.480871 0.405946
O O14 0.500000 0.500000 0.568251
O O15 0.671198 0.512297 0.556409
O O16 0.772585 0.709884 0.500000
#
# Coordination Sequence:
#
# PCOD8238113 Si02
#       7
#     8   8   8   8   8   8   8
#     4  11  22  41  64  93 127 164 217 267 320 394
#     4  10  22  37  60  94 127 167 218 260 317 390
#     4  12  22  39  67  92 129 170 203 275 333 368
#     4  11  23  39  64  96 123 162 219 267 318 393
#     4   9  19  38  61  87 122 165 210 258 318 394
#     4  11  20  39  62  89 125 170 216 263 312 378
#     4  10  21  37  60  88 121 167 216 254 315 392
#
# _framework density 22.109065999999999
#
# number of rings (size 3 to 8) (size 9 to 14) (size 15 to 20)
#    0.000    1.429    4.286    3.429    0.000    1.143 
#    0.000    7.857    0.000    6.000    0.000    0.000 
#    0.000    0.000    0.000    0.000    0.000    0.000 
#
# Total GULP energy -694038.052954 kJ/mol
# GULP energy per Si atom -12393.536660 kJ/mol
# Density = 2.205874 g / cm^3
# Si number density = 22.109066 Si / 1000 Ang^3
#
#
#
# Elastic Constant Matrix: (Units=GPa)
#
#
# Indices 1 2 3 4 5 6 
#
# 1 69.1215 16.7576 7.6062 0.0000 0.0000 0.0000
# 2 16.7576 85.2004 30.3062 0.0000 0.0000 0.0000
# 3 7.6062 30.3062 112.7659 0.0000 0.0000 0.0000
# 4 0.0000 0.0000 0.0000 8.4635 0.0000 0.0000
# 5 0.0000 0.0000 0.0000 0.0000 -1.0580 0.0000
# 6 0.0000 0.0000 0.0000 0.0000 0.0000 32.5013
#
#
#
# Elastic Compliance Matrix: (Units=1/GPa)
#
#
# Indices 1 2 3 4 5 6 
#
# 1 0.015198 -0.002902 -0.000245 0.000000 0.000000 0.000000
# 2 -0.002902 0.013532 -0.003441 0.000000 0.000000 0.000000
# 3 -0.000245 -0.003441 0.009809 0.000000 0.000000 0.000000
# 4 0.000000 0.000000 0.000000 0.118154 0.000000 0.000000
# 5 0.000000 0.000000 0.000000 0.000000 -0.945137 0.000000
# 6 0.000000 0.000000 0.000000 0.000000 0.000000 0.030768
#
#
# Mechanical properties :
#
#
# Convention : Reuss Voigt Hill
#
# Bulk Modulus (GPa) = 39.42818 41.82531 40.62675
# Shear Modulus (GPa) = -6.79306 22.14254 7.67474
#
# Velocity S-wave (km/s) = -1.75476 3.16810 1.86517
# Velocity P-wave (km/s) = 3.71034 5.68694 4.80145
#
# Compressibility (1/GPa) = 0.02536257
#
# Stress axis : x y z
#
# Youngs Moduli (GPa) = 65.79902 73.90018 101.94471
#
# Poissons Ratio (x) = 0.21445 0.02500
# Poissons Ratio (y) = 0.19094 0.35079
# Poissons Ratio (z) = 0.01613 0.25429
#
# Static dielectric constant tensor:
#      x y z
#    x 3.824270 0.000000 0.000000 
#    y 0.000000 3.990180 0.000000 
#    z 0.000000 0.000000 3.971570 
# 
# 
# High freq. dielectric constant tensor:
#      x y z
#    x 1.845080 0.000000 0.000000 
#    y 0.000000 1.861680 0.000000 
#    z 0.000000 0.000000 1.888090 
# 
# From -- ./inp_files/30005.got.cif
#   From: 2010.06.25/outbox.cif.g09.slc.cpg/sg58_16_cif.got.tgz:30005.got - 2010.06.26 21:38:00.
