data_PCOD8238053
_publ_section_title
;
Structure prediction by ZEFSAII (Michael W. Deem and Ramdas Pophale) SiO2 
 PCOD8238053
Probable space group: P N N M
;
_chemical_formula_sum "Si O2"
_cell_formula_units_Z 64
_cell_length_a 9.149496
_cell_length_b 14.676264
_cell_length_c 24.197335
_cell_angle_alpha 90.000000
_cell_angle_beta 90.000000
_cell_angle_gamma 90.000000
_cell_volume 3249.228277
_symmetry_space_group_name_H-M "P N N M"
_symmetry_group_IT_number 58
_symmetry_cell_setting 'orthorhombic'
loop_
_space_group_symop_operation_xyz
x,y,z
-x,-y,z
1/2+x,1/2-y,1/2-z
1/2-x,1/2+y,1/2-z
-x,-y,-z
x,y,-z
1/2-x,1/2+y,1/2+z
1/2+x,1/2-y,1/2+z
loop_
_atom_site_type_symbol
_atom_site_label
_atom_site_fract_x
_atom_site_fract_y
_atom_site_fract_z
Si Si1 0.505150 0.107192 0.307644
Si Si2 0.169999 0.111978 0.063755
Si Si3 0.367754 0.326071 0.440755
Si Si4 0.634853 0.043771 0.090582
Si Si5 0.758000 0.807105 0.361916
Si Si6 0.015943 0.327073 0.316331
Si Si7 0.498884 0.607638 0.063520
Si Si8 0.762807 0.216866 0.629098
O O1 0.339634 0.128264 0.325080
O O2 0.521150 0.133771 0.244437
O O3 0.634668 0.159672 0.340601
O O4 0.500000 0.000000 0.317002
O O5 0.198346 0.215308 0.083203
O O6 0.995034 0.099506 0.069429
O O7 0.249623 0.037905 0.102977
O O8 0.221053 0.099110 0.000000
O O9 0.392603 0.277324 0.500000
O O10 0.212912 0.378297 0.444373
O O11 0.363899 0.254849 0.391706
O O12 0.559154 0.087957 0.144650
O O13 0.500000 0.000000 0.056216
O O14 0.861110 0.750276 0.321402
O O15 0.849213 0.858200 0.409090
O O16 0.859744 0.279464 0.329342
O O17 0.500000 0.500000 0.066974
O O18 0.636852 0.644806 0.097092
O O19 0.503946 0.641464 0.000000
#
# Coordination Sequence:
#
# PCOD8238053 Si02
#       8
#     8   8   8   8   8   8   8   8
#     4  12  24  40  65  90 118 159 210 265 314 357
#     4  11  22  37  59  88 128 165 198 244 307 376
#     4  10  21  37  57  83 123 162 196 241 301 368
#     4  11  21  37  58  91 123 159 201 250 295 370
#     4  10  21  40  61  87 118 160 204 250 307 372
#     4  10  23  42  63  87 123 162 207 254 312 364
#     4  10  21  39  62  88 122 158 201 254 310 366
#     4  11  22  41  63  89 124 161 204 256 308 371
#
# _framework density 19.696985000000002
#
# number of rings (size 3 to 8) (size 9 to 14) (size 15 to 20)
#    0.000    1.375    2.500    3.375    0.000    2.000 
#    0.000    0.000    0.000    3.000    0.000    0.000 
#    0.000    0.000    0.000    0.000    0.000    0.000 
#
# Total GULP energy -793045.164033 kJ/mol
# GULP energy per Si atom -12391.330688 kJ/mol
# Density = 1.965215 g / cm^3
# Si number density = 19.696985 Si / 1000 Ang^3
#
#
#
# Elastic Constant Matrix: (Units=GPa)
#
#
# Indices 1 2 3 4 5 6 
#
# 1 110.0807 33.6924 40.3698 0.0000 0.0000 0.0000
# 2 33.6924 99.7234 33.3633 0.0000 0.0000 0.0000
# 3 40.3698 33.3633 76.9305 0.0000 0.0000 0.0000
# 4 0.0000 0.0000 0.0000 18.7938 0.0000 0.0000
# 5 0.0000 0.0000 0.0000 0.0000 62.6244 0.0000
# 6 0.0000 0.0000 0.0000 0.0000 0.0000 38.9512
#
#
#
# Elastic Compliance Matrix: (Units=1/GPa)
#
#
# Indices 1 2 3 4 5 6 
#
# 1 0.011652 -0.002212 -0.005155 0.000000 0.000000 0.000000
# 2 -0.002212 0.012150 -0.004108 0.000000 0.000000 0.000000
# 3 -0.005155 -0.004108 0.017486 0.000000 0.000000 0.000000
# 4 0.000000 0.000000 0.000000 0.053209 0.000000 0.000000
# 5 0.000000 0.000000 0.000000 0.000000 0.015968 0.000000
# 6 0.000000 0.000000 0.000000 0.000000 0.000000 0.025673
#
#
# Mechanical properties :
#
#
# Convention : Reuss Voigt Hill
#
# Bulk Modulus (GPa) = 54.53672 55.73174 55.13423
# Shear Modulus (GPa) = 30.26637 36.02783 33.14710
#
# Velocity S-wave (km/s) = 3.92420 4.28144 4.10671
# Velocity P-wave (km/s) = 6.94841 7.26615 7.10906
#
# Compressibility (1/GPa) = 0.01833627
#
# Stress axis : x y z
#
# Youngs Moduli (GPa) = 85.82381 82.30771 57.18999
#
# Poissons Ratio (x) = 0.18206 0.29482
# Poissons Ratio (y) = 0.18984 0.23495
# Poissons Ratio (z) = 0.44243 0.33814
#
# Static dielectric constant tensor:
#      x y z
#    x 3.852570 0.000000 0.000000 
#    y 0.000000 3.707520 0.000000 
#    z 0.000000 0.000000 3.474630 
# 
# 
# High freq. dielectric constant tensor:
#      x y z
#    x 1.787870 0.000000 0.000000 
#    y 0.000000 1.775370 0.000000 
#    z 0.000000 0.000000 1.754130 
# 
# From -- ./inp_files/31612.got.cif
#   From: 2010.06.25/outbox.cif.g09.slc.cpg/sg58_16_cif.got.tgz:31612.got - 2010.06.26 21:38:00.
