data_PCOD8238330
_publ_section_title
;
Structure prediction by ZEFSAII (Michael W. Deem and Ramdas Pophale) SiO2 
 PCOD8238330
Probable space group: P N N M
;
_chemical_formula_sum "Si O2"
_cell_formula_units_Z 56
_cell_length_a 16.716204
_cell_length_b 7.759764
_cell_length_c 20.403596
_cell_angle_alpha 90.000000
_cell_angle_beta 90.000000
_cell_angle_gamma 90.000000
_cell_volume 2646.627930
_symmetry_space_group_name_H-M "P N N M"
_symmetry_group_IT_number 58
_symmetry_cell_setting 'orthorhombic'
loop_
_space_group_symop_operation_xyz
x,y,z
-x,-y,z
1/2+x,1/2-y,1/2-z
1/2-x,1/2+y,1/2-z
-x,-y,-z
x,y,-z
1/2-x,1/2+y,1/2+z
1/2+x,1/2-y,1/2+z
loop_
_atom_site_type_symbol
_atom_site_label
_atom_site_fract_x
_atom_site_fract_y
_atom_site_fract_z
Si Si1 0.201892 0.741487 0.697456
Si Si2 0.746847 0.549516 0.072789
Si Si3 0.777987 0.655353 0.574233
Si Si4 0.085722 0.526175 0.875591
Si Si5 0.360152 0.390713 0.673249
Si Si6 0.410849 0.940911 0.161255
Si Si7 0.384719 0.729890 0.721010
O O1 0.173111 0.870210 0.753420
O O2 0.140654 0.582968 0.700355
O O3 0.290549 0.688309 0.717782
O O4 0.203827 0.829368 0.625585
O O5 0.715711 0.358523 0.084340
O O6 0.843314 0.538694 0.077925
O O7 0.725708 0.618427 0.000000
O O8 0.755767 0.604194 0.500000
O O9 0.712293 0.569239 0.622256
O O10 0.866198 0.587369 0.592146
O O11 0.092384 0.725342 0.853425
O O12 0.086082 0.405866 0.811960
O O13 0.000000 0.500000 0.911511
O O14 0.418747 0.558837 0.683085
O O15 0.411345 0.762060 0.203630
O O16 0.500000 0.000000 0.145623
#
# Coordination Sequence:
#
# PCOD8238330 Si02
#       7
#     8   8   8   8   8   8   8
#     4  11  20  37  63  89 121 162 205 263 310 372
#     4   9  21  40  66  91 117 168 225 258 305 382
#     4  10  21  40  62  89 125 169 218 264 308 378
#     4  10  22  38  57  92 133 159 202 260 318 372
#     4  11  21  37  64  90 124 165 214 255 311 375
#     4  12  24  39  61  96 133 158 206 269 322 376
#     4  11  20  37  60  89 122 163 205 250 310 373
#
# _framework density 21.158999999999999
#
# number of rings (size 3 to 8) (size 9 to 14) (size 15 to 20)
#    0.000    1.429    4.286    1.286    2.000    1.714 
#    0.000    2.143    0.000    1.714    0.000    6.000 
#    0.000    0.000    0.000    0.000    0.000    0.000 
#
# Total GULP energy -693955.679695 kJ/mol
# GULP energy per Si atom -12392.065709 kJ/mol
# Density = 2.111084 g / cm^3
# Si number density = 21.159000 Si / 1000 Ang^3
#
#
#
# Elastic Constant Matrix: (Units=GPa)
#
#
# Indices 1 2 3 4 5 6 
#
# 1 113.0434 31.2034 25.0837 0.0000 0.0000 0.0000
# 2 31.2034 88.4117 25.1351 0.0000 0.0000 0.0000
# 3 25.0837 25.1351 114.5480 0.0000 0.0000 0.0000
# 4 0.0000 0.0000 0.0000 23.8740 0.0000 0.0000
# 5 0.0000 0.0000 0.0000 0.0000 6.4092 0.0000
# 6 0.0000 0.0000 0.0000 0.0000 0.0000 23.2490
#
#
#
# Elastic Compliance Matrix: (Units=1/GPa)
#
#
# Indices 1 2 3 4 5 6 
#
# 1 0.010042 -0.003113 -0.001516 0.000000 0.000000 0.000000
# 2 -0.003113 0.013028 -0.002177 0.000000 0.000000 0.000000
# 3 -0.001516 -0.002177 0.009540 0.000000 0.000000 0.000000
# 4 0.000000 0.000000 0.000000 0.041887 0.000000 0.000000
# 5 0.000000 0.000000 0.000000 0.000000 0.156026 0.000000
# 6 0.000000 0.000000 0.000000 0.000000 0.000000 0.043013
#
#
# Mechanical properties :
#
#
# Convention : Reuss Voigt Hill
#
# Bulk Modulus (GPa) = 52.63796 53.20527 52.92162
# Shear Modulus (GPa) = 17.03698 26.34516 21.69107
#
# Velocity S-wave (km/s) = 2.84066 3.53243 3.20526
# Velocity P-wave (km/s) = 5.97415 6.46819 6.22607
#
# Compressibility (1/GPa) = 0.01899770
#
# Stress axis : x y z
#
# Youngs Moduli (GPa) = 99.58336 76.75545 104.82594
#
# Poissons Ratio (x) = 0.23895 0.15890
# Poissons Ratio (y) = 0.31002 0.22822
# Poissons Ratio (z) = 0.15095 0.16710
#
# Static dielectric constant tensor:
#      x y z
#    x 3.700990 0.000000 0.000000 
#    y 0.000000 4.062690 0.000000 
#    z 0.000000 0.000000 3.772160 
# 
# 
# High freq. dielectric constant tensor:
#      x y z
#    x 1.807780 0.000000 0.000000 
#    y 0.000000 1.841590 0.000000 
#    z 0.000000 0.000000 1.816190 
# 
# From -- ./inp_files/29997.got.cif
#   From: 2010.06.25/outbox.cif.g09.slc.cpg/sg58_15_cif.got.tgz:29997.got - 2010.06.26 21:38:00.
