data_PCOD8238753
_publ_section_title
;
Structure prediction by ZEFSAII (Michael W. Deem and Ramdas Pophale) SiO2 
 PCOD8238753
Probable space group: P N N M
;
_chemical_formula_sum "Si O2"
_cell_formula_units_Z 64
_cell_length_a 9.771830
_cell_length_b 12.551359
_cell_length_c 31.415518
_cell_angle_alpha 90.000000
_cell_angle_beta 90.000000
_cell_angle_gamma 90.000000
_cell_volume 3853.105316
_symmetry_space_group_name_H-M "P N N M"
_symmetry_group_IT_number 58
_symmetry_cell_setting 'orthorhombic'
loop_
_space_group_symop_operation_xyz
x,y,z
-x,-y,z
1/2+x,1/2-y,1/2-z
1/2-x,1/2+y,1/2-z
-x,-y,-z
x,y,-z
1/2-x,1/2+y,1/2+z
1/2+x,1/2-y,1/2+z
loop_
_atom_site_type_symbol
_atom_site_label
_atom_site_fract_x
_atom_site_fract_y
_atom_site_fract_z
Si Si1 0.087768 0.597469 0.226807
Si Si2 0.250433 0.915111 0.863302
Si Si3 0.402327 0.597880 0.232302
Si Si4 0.244600 0.667870 0.367475
Si Si5 0.989849 0.696783 0.686466
Si Si6 0.674464 0.105028 0.046397
Si Si7 0.128671 0.645323 0.454027
Si Si8 0.005871 0.803863 0.181159
O O1 0.244734 0.560901 0.231949
O O2 0.078040 0.693645 0.193339
O O3 0.000000 0.500000 0.208146
O O4 0.021424 0.629728 0.271475
O O5 0.389284 0.870393 0.843231
O O6 0.232535 0.870636 0.912006
O O7 0.119743 0.883127 0.836298
O O8 0.260425 0.041462 0.861646
O O9 0.500000 0.500000 0.220079
O O10 0.422537 0.690323 0.197743
O O11 0.435265 0.640550 0.278940
O O12 0.216355 0.699926 0.416595
O O13 0.391009 0.716123 0.354638
O O14 0.129854 0.721448 0.338078
O O15 0.532482 0.169183 0.051996
O O16 0.646430 0.980476 0.046785
O O17 0.741285 0.136039 0.000000
O O18 0.178021 0.690494 0.500000
#
# Coordination Sequence:
#
# PCOD8238753 Si02
#       8
#     8   8   8   8   8   8   8   8
#     4  11  24  38  54  71  98 134 168 212 257 295
#     4  11  19  33  49  73 105 136 170 206 242 293
#     4  11  24  38  53  72 100 132 166 215 257 289
#     4  11  19  31  51  75 100 141 167 202 245 294
#     4  11  22  34  51  74  99 131 174 205 241 299
#     4   8  14  25  44  69  98 133 166 201 242 289
#     4   8  14  25  43  70 100 130 167 202 239 290
#     4  11  24  36  49  74 104 131 172 211 245 298
#
# _framework density 16.60998
#
# number of rings (size 3 to 8) (size 9 to 14) (size 15 to 20)
#    0.000    1.750    3.750    3.000    3.500    0.000 
#    0.000    0.625    0.000    3.000    0.000    0.000 
#    0.000    6.000    0.000    0.000    0.000    0.000 
#
# Total GULP energy -793425.488907 kJ/mol
# GULP energy per Si atom -12397.273264 kJ/mol
# Density = 1.657217 g / cm^3
# Si number density = 16.609980 Si / 1000 Ang^3
#
#
#
# Elastic Constant Matrix: (Units=GPa)
#
#
# Indices 1 2 3 4 5 6 
#
# 1 87.4174 22.2091 22.2786 0.0000 0.0000 0.0000
# 2 22.2091 44.4123 20.7561 0.0000 0.0000 0.0000
# 3 22.2786 20.7561 98.0478 0.0000 0.0000 0.0000
# 4 0.0000 0.0000 0.0000 11.8169 0.0000 0.0000
# 5 0.0000 0.0000 0.0000 0.0000 15.7052 0.0000
# 6 0.0000 0.0000 0.0000 0.0000 0.0000 25.2742
#
#
#
# Elastic Compliance Matrix: (Units=1/GPa)
#
#
# Indices 1 2 3 4 5 6 
#
# 1 0.013385 -0.005851 -0.001803 0.000000 0.000000 0.000000
# 2 -0.005851 0.027546 -0.004502 0.000000 0.000000 0.000000
# 3 -0.001803 -0.004502 0.011562 0.000000 0.000000 0.000000
# 4 0.000000 0.000000 0.000000 0.084625 0.000000 0.000000
# 5 0.000000 0.000000 0.000000 0.000000 0.063673 0.000000
# 6 0.000000 0.000000 0.000000 0.000000 0.000000 0.039566
#
#
# Mechanical properties :
#
#
# Convention : Reuss Voigt Hill
#
# Bulk Modulus (GPa) = 35.48386 40.04057 37.76221
# Shear Modulus (GPa) = 18.24402 21.53484 19.88943
#
# Velocity S-wave (km/s) = 3.31777 3.60460 3.46416
# Velocity P-wave (km/s) = 6.00718 6.44072 6.22772
#
# Compressibility (1/GPa) = 0.02818183
#
# Stress axis : x y z
#
# Youngs Moduli (GPa) = 74.70871 36.30277 86.49202
#
# Poissons Ratio (x) = 0.21241 0.15593
# Poissons Ratio (y) = 0.43712 0.38937
# Poissons Ratio (z) = 0.13469 0.16343
#
# Static dielectric constant tensor:
#      x y z
#    x 3.149440 0.000000 0.000000 
#    y 0.000000 2.812630 0.000000 
#    z 0.000000 0.000000 3.587700 
# 
# 
# High freq. dielectric constant tensor:
#      x y z
#    x 1.641270 0.000000 0.000000 
#    y 0.000000 1.592960 0.000000 
#    z 0.000000 0.000000 1.643830 
# 
# From -- ./inp_files/34754.got.cif
#   From: 2010.06.25/outbox.cif.g09.slc.cpg/sg58_18_cif.got.tgz:34754.got - 2010.06.26 21:38:00.
