data_PCOD8238558
_publ_section_title
;
Structure prediction by ZEFSAII (Michael W. Deem and Ramdas Pophale) SiO2 
 PCOD8238558
Probable space group: P N N M
;
_chemical_formula_sum "Si O2"
_cell_formula_units_Z 48
_cell_length_a 14.332372
_cell_length_b 8.919520
_cell_length_c 18.903073
_cell_angle_alpha 90.000000
_cell_angle_beta 90.000000
_cell_angle_gamma 90.000000
_cell_volume 2416.528753
_symmetry_space_group_name_H-M "P N N M"
_symmetry_group_IT_number 58
_symmetry_cell_setting 'orthorhombic'
loop_
_space_group_symop_operation_xyz
x,y,z
-x,-y,z
1/2+x,1/2-y,1/2-z
1/2-x,1/2+y,1/2-z
-x,-y,-z
x,y,-z
1/2-x,1/2+y,1/2+z
1/2+x,1/2-y,1/2+z
loop_
_atom_site_type_symbol
_atom_site_label
_atom_site_fract_x
_atom_site_fract_y
_atom_site_fract_z
Si Si1 0.436195 0.135787 0.309262
Si Si2 0.732897 0.365477 0.342321
Si Si3 0.933770 0.126759 0.685879
Si Si4 0.043247 0.159446 0.918526
Si Si5 0.259172 0.953816 0.291818
Si Si6 0.566972 0.861755 0.917126
O O1 0.416520 0.250906 0.246592
O O2 0.486841 0.213110 0.375629
O O3 0.500000 0.000000 0.280354
O O4 0.335262 0.063151 0.328511
O O5 0.651115 0.365096 0.399562
O O6 0.710029 0.219769 0.294168
O O7 0.734409 0.506532 0.289498
O O8 0.830596 0.374056 0.383391
O O9 0.837566 0.043210 0.664091
O O10 0.977253 0.210869 0.617372
O O11 0.000000 0.000000 0.716796
O O12 0.035446 0.207626 0.000000
O O13 0.000000 0.000000 0.902356
O O14 0.500000 0.000000 0.897556
O O15 0.575727 0.841009 0.000000
#
# Coordination Sequence:
#
# PCOD8238558 Si02
#       6
#     8   8   8   8   8   8
#     4  12  22  39  64  93 126 163 212 267 315 381
#     4  11  22  40  63  93 125 165 209 265 316 379
#     4  11  24  39  63  92 124 165 204 267 319 372
#     4  11  25  43  63  90 130 176 214 259 323 387
#     4  11  22  37  60  94 121 156 205 258 319 367
#     4  10  22  41  63  89 123 167 214 260 315 379
#
# _framework density 19.863204
#
# number of rings (size 3 to 8) (size 9 to 14) (size 15 to 20)
#    0.000    1.000    5.000    3.500    0.000    0.667 
#    0.000    0.833    0.000    0.000    0.000    0.000 
#    0.000    0.000    0.000    0.000    0.000    0.000 
#
# Total GULP energy -594809.793014 kJ/mol
# GULP energy per Si atom -12391.870688 kJ/mol
# Density = 1.981799 g / cm^3
# Si number density = 19.863204 Si / 1000 Ang^3
#
#
#
# Elastic Constant Matrix: (Units=GPa)
#
#
# Indices 1 2 3 4 5 6 
#
# 1 128.7171 73.7721 45.3083 0.0000 0.0000 0.0000
# 2 73.7721 117.5456 56.4392 0.0000 0.0000 0.0000
# 3 45.3083 56.4392 88.9521 0.0000 0.0000 0.0000
# 4 0.0000 0.0000 0.0000 25.8616 0.0000 0.0000
# 5 0.0000 0.0000 0.0000 0.0000 8.6415 0.0000
# 6 0.0000 0.0000 0.0000 0.0000 0.0000 44.1894
#
#
#
# Elastic Compliance Matrix: (Units=1/GPa)
#
#
# Indices 1 2 3 4 5 6 
#
# 1 0.012371 -0.006814 -0.001977 0.000000 0.000000 0.000000
# 2 -0.006814 0.015988 -0.006673 0.000000 0.000000 0.000000
# 3 -0.001977 -0.006673 0.016483 0.000000 0.000000 0.000000
# 4 0.000000 0.000000 0.000000 0.038667 0.000000 0.000000
# 5 0.000000 0.000000 0.000000 0.000000 0.115721 0.000000
# 6 0.000000 0.000000 0.000000 0.000000 0.000000 0.022630
#
#
# Mechanical properties :
#
#
# Convention : Reuss Voigt Hill
#
# Bulk Modulus (GPa) = 71.88105 76.25044 74.06574
# Shear Modulus (GPa) = 19.42286 26.38483 22.90385
#
# Velocity S-wave (km/s) = 3.13042 3.64858 3.39939
# Velocity P-wave (km/s) = 7.02372 7.49804 7.26475
#
# Compressibility (1/GPa) = 0.01391187
#
# Stress axis : x y z
#
# Youngs Moduli (GPa) = 80.83702 62.54554 60.66690
#
# Poissons Ratio (x) = 0.42621 0.11996
# Poissons Ratio (y) = 0.55086 0.40486
# Poissons Ratio (z) = 0.15984 0.41740
#
# Static dielectric constant tensor:
#      x y z
#    x 3.900200 0.000000 0.000000 
#    y 0.000000 3.917420 0.000000 
#    z 0.000000 0.000000 3.515360 
# 
# 
# High freq. dielectric constant tensor:
#      x y z
#    x 1.793330 0.000000 0.000000 
#    y 0.000000 1.785980 0.000000 
#    z 0.000000 0.000000 1.753640 
# 
# From -- ./inp_files/26821.got.cif
#   From: 2010.06.25/outbox.cif.g09.slc.cpg/sg58_14_cif.got.tgz:26821.got - 2010.06.26 21:38:00.
