data_PCOD8238905
_publ_section_title
;
Structure prediction by ZEFSAII (Michael W. Deem and Ramdas Pophale) SiO2 
 PCOD8238905
Probable space group: P N N M
;
_chemical_formula_sum "Si O2"
_cell_formula_units_Z 48
_cell_length_a 16.489010
_cell_length_b 13.875648
_cell_length_c 10.239687
_cell_angle_alpha 90.000000
_cell_angle_beta 90.000000
_cell_angle_gamma 90.000000
_cell_volume 2342.796341
_symmetry_space_group_name_H-M "P N N M"
_symmetry_group_IT_number 58
_symmetry_cell_setting 'orthorhombic'
loop_
_space_group_symop_operation_xyz
x,y,z
-x,-y,z
1/2+x,1/2-y,1/2-z
1/2-x,1/2+y,1/2-z
-x,-y,-z
x,y,-z
1/2-x,1/2+y,1/2+z
1/2+x,1/2-y,1/2+z
loop_
_atom_site_type_symbol
_atom_site_label
_atom_site_fract_x
_atom_site_fract_y
_atom_site_fract_z
Si Si1 0.837471 0.773975 0.249252
Si Si2 0.920897 0.378015 0.645097
Si Si3 0.896559 0.102243 0.500000
Si Si4 0.913176 0.875942 0.000000
Si Si5 0.108803 0.415098 0.645278
Si Si6 0.414756 0.625467 0.000000
Si Si7 0.396092 0.397769 0.500000
Si Si8 0.839222 0.208141 0.748315
O O1 0.876698 0.824056 0.125157
O O2 0.854667 0.659203 0.251210
O O3 0.874748 0.826022 0.374584
O O4 0.740465 0.775715 0.245030
O O5 0.889279 0.348002 0.500000
O O6 0.873350 0.475105 0.690908
O O7 0.908857 0.289646 0.744070
O O8 0.014085 0.400301 0.637437
O O9 0.847052 0.136316 0.626361
O O10 0.988370 0.144530 0.500000
O O11 0.897411 0.987328 0.500000
O O12 0.010284 0.865965 0.000000
O O13 0.887519 0.987365 0.000000
O O14 0.145865 0.397806 0.500000
O O15 0.348611 0.356134 0.623824
#
# Coordination Sequence:
#
# PCOD8238905 Si02
#       8
#     8   8   4   4   8   4   4   8
#     4  12  24  40  61  96 130 164 207 261 326 374
#     4   9  18  35  62  90 115 154 206 254 300 359
#     4  11  23  42  69  93 119 165 224 269 300 364
#     4  11  25  44  65  91 131 177 212 253 318 390
#     4   9  18  35  62  90 115 154 206 254 300 359
#     4  11  23  42  69  93 119 165 224 269 300 364
#     4  11  25  44  65  91 131 177 212 253 318 390
#     4  12  24  40  61  96 130 164 207 261 326 374
#
# _framework density 20.488337999999999
#
# number of rings (size 3 to 8) (size 9 to 14) (size 15 to 20)
#    0.000    1.333    1.667    6.000    0.000    5.333 
#    0.000    0.833    0.000    3.000    0.000    0.000 
#    0.000    0.000    0.000    0.000    0.000    0.000 
#
# Total GULP energy -595025.756573 kJ/mol
# GULP energy per Si atom -12396.369929 kJ/mol
# Density = 2.044171 g / cm^3
# Si number density = 20.488338 Si / 1000 Ang^3
#
#
#
# Elastic Constant Matrix: (Units=GPa)
#
#
# Indices 1 2 3 4 5 6 
#
# 1 55.5040 4.1408 26.7882 0.0000 0.0000 0.0000
# 2 4.1408 98.4391 43.1987 0.0000 0.0000 0.0000
# 3 26.7882 43.1987 139.0638 0.0000 0.0000 0.0000
# 4 0.0000 0.0000 0.0000 17.8426 0.0000 0.0000
# 5 0.0000 0.0000 0.0000 0.0000 49.9584 0.0000
# 6 0.0000 0.0000 0.0000 0.0000 0.0000 25.0942
#
#
#
# Elastic Compliance Matrix: (Units=1/GPa)
#
#
# Indices 1 2 3 4 5 6 
#
# 1 0.019945 0.000981 -0.004147 0.000000 0.000000 0.000000
# 2 0.000981 0.011810 -0.003858 0.000000 0.000000 0.000000
# 3 -0.004147 -0.003858 0.009188 0.000000 0.000000 0.000000
# 4 0.000000 0.000000 0.000000 0.056046 0.000000 0.000000
# 5 0.000000 0.000000 0.000000 0.000000 0.020017 0.000000
# 6 0.000000 0.000000 0.000000 0.000000 0.000000 0.039850
#
#
# Mechanical properties :
#
#
# Convention : Reuss Voigt Hill
#
# Bulk Modulus (GPa) = 37.18025 49.02914 43.10470
# Shear Modulus (GPa) = 27.79818 33.17098 30.48458
#
# Velocity S-wave (km/s) = 3.68745 4.02807 3.86151
# Velocity P-wave (km/s) = 6.02628 6.75396 6.40047
#
# Compressibility (1/GPa) = 0.02689600
#
# Stress axis : x y z
#
# Youngs Moduli (GPa) = 50.13811 84.67270 108.83686
#
# Poissons Ratio (x) = -0.08304 0.45131
# Poissons Ratio (y) = -0.04917 0.41985
# Poissons Ratio (z) = 0.20791 0.32664
#
# Static dielectric constant tensor:
#      x y z
#    x 3.815070 0.000000 0.000000 
#    y 0.000000 4.457520 0.000000 
#    z 0.000000 0.000000 3.527270 
# 
# 
# High freq. dielectric constant tensor:
#      x y z
#    x 1.797640 0.000000 0.000000 
#    y 0.000000 1.827350 0.000000 
#    z 0.000000 0.000000 1.786540 
# 
# From -- ./inp_files/7785.got.cif
#   From: 2010.06.25/outbox.cif.g09.slc.cpg/sg58_4_cif.got.tgz:7785.got - 2010.06.26 21:38:00.
