data_PCOD8238757
_publ_section_title
;
Structure prediction by ZEFSAII (Michael W. Deem and Ramdas Pophale) SiO2 
 PCOD8238757
Probable space group: P N N M
;
_chemical_formula_sum "Si O2"
_cell_formula_units_Z 36
_cell_length_a 7.696370
_cell_length_b 11.850971
_cell_length_c 20.227585
_cell_angle_alpha 90.000000
_cell_angle_beta 90.000000
_cell_angle_gamma 90.000000
_cell_volume 1844.947058
_symmetry_space_group_name_H-M "P N N M"
_symmetry_group_IT_number 58
_symmetry_cell_setting 'orthorhombic'
loop_
_space_group_symop_operation_xyz
x,y,z
-x,-y,z
1/2+x,1/2-y,1/2-z
1/2-x,1/2+y,1/2-z
-x,-y,-z
x,y,-z
1/2-x,1/2+y,1/2+z
1/2+x,1/2-y,1/2+z
loop_
_atom_site_type_symbol
_atom_site_label
_atom_site_fract_x
_atom_site_fract_y
_atom_site_fract_z
Si Si1 0.375055 0.361352 0.000000
Si Si2 0.229251 0.592539 0.000000
Si Si3 0.327810 0.295279 0.857424
Si Si4 0.048592 0.628229 0.130147
Si Si5 0.500000 0.500000 0.222587
Si Si6 0.156548 0.589027 0.266877
O O1 0.211560 0.453374 0.000000
O O2 0.565485 0.411674 0.000000
O O3 0.365188 0.284175 0.064910
O O4 0.152419 0.659439 0.063303
O O5 0.425698 0.402416 0.825527
O O6 0.387127 0.180965 0.822056
O O7 0.120379 0.300196 0.852119
O O8 0.170979 0.645468 0.193865
O O9 0.000000 0.500000 0.119951
O O10 0.347261 0.534348 0.273923
O O11 0.000000 0.500000 0.269492
#
# Coordination Sequence:
#
# PCOD8238757 Si02
#       6
#     4   4   8   8   4   8
#     4  11  21  34  58  92 121 169 200 255 315 378
#     4  11  20  35  60  91 132 151 203 260 331 369
#     4  12  23  39  64  91 128 164 207 252 316 372
#     4  11  19  36  57  88 126 158 191 259 315 365
#     4  12  22  39  66  97 120 160 208 254 322 373
#     4  11  24  43  61  91 127 167 206 257 301 367
#
# _framework density 19.512756
#
# number of rings (size 3 to 8) (size 9 to 14) (size 15 to 20)
#    0.000    0.667    6.667    5.000    0.000    0.000 
#    4.000    0.556    0.000    0.667    0.000    0.000 
#    0.000    0.000    0.000    0.000    0.000    0.000 
#
# Total GULP energy -446086.625826 kJ/mol
# GULP energy per Si atom -12391.295162 kJ/mol
# Density = 1.946834 g / cm^3
# Si number density = 19.512756 Si / 1000 Ang^3
#
#
#
# Elastic Constant Matrix: (Units=GPa)
#
#
# Indices 1 2 3 4 5 6 
#
# 1 113.1885 37.4041 30.0992 0.0000 0.0000 0.0000
# 2 37.4041 76.6800 66.8640 0.0000 0.0000 0.0000
# 3 30.0992 66.8640 131.2173 0.0000 0.0000 0.0000
# 4 0.0000 0.0000 0.0000 22.5773 0.0000 0.0000
# 5 0.0000 0.0000 0.0000 0.0000 40.6341 0.0000
# 6 0.0000 0.0000 0.0000 0.0000 0.0000 21.2270
#
#
#
# Elastic Compliance Matrix: (Units=1/GPa)
#
#
# Indices 1 2 3 4 5 6 
#
# 1 0.010542 -0.005460 0.000364 0.000000 0.000000 0.000000
# 2 -0.005460 0.026297 -0.012148 0.000000 0.000000 0.000000
# 3 0.000364 -0.012148 0.013728 0.000000 0.000000 0.000000
# 4 0.000000 0.000000 0.000000 0.044292 0.000000 0.000000
# 5 0.000000 0.000000 0.000000 0.000000 0.024610 0.000000
# 6 0.000000 0.000000 0.000000 0.000000 0.000000 0.047110
#
#
# Mechanical properties :
#
#
# Convention : Reuss Voigt Hill
#
# Bulk Modulus (GPa) = 62.19021 65.53560 63.86291
# Shear Modulus (GPa) = 24.22174 29.33558 26.77866
#
# Velocity S-wave (km/s) = 3.52707 3.88158 3.70857
# Velocity P-wave (km/s) = 6.96618 7.33129 7.15107
#
# Compressibility (1/GPa) = 0.01607970
#
# Stress axis : x y z
#
# Youngs Moduli (GPa) = 94.85615 38.02696 72.84607
#
# Poissons Ratio (x) = 0.20762 -0.02651
# Poissons Ratio (y) = 0.51789 0.88492
# Poissons Ratio (z) = -0.03452 0.46194
#
# Static dielectric constant tensor:
#      x y z
#    x 2.875310 0.000000 0.000000 
#    y 0.000000 3.195240 0.000000 
#    z 0.000000 0.000000 3.801170 
# 
# 
# High freq. dielectric constant tensor:
#      x y z
#    x 1.787020 0.000000 0.000000 
#    y 0.000000 1.700440 0.000000 
#    z 0.000000 0.000000 1.761120 
# 
# From -- ./inp_files/28701.got.cif
#   From: 2010.06.25/outbox.cif.g09.slc.cpg/sg58_15_cif.got.tgz:28701.got - 2010.06.26 21:38:00.
