data_PCOD8238962
_publ_section_title
;
Structure prediction by ZEFSAII (Michael W. Deem and Ramdas Pophale) SiO2 
 PCOD8238962
Probable space group: P N N M
;
_chemical_formula_sum "Si O2"
_cell_formula_units_Z 48
_cell_length_a 16.115582
_cell_length_b 10.284083
_cell_length_c 15.224400
_cell_angle_alpha 90.000000
_cell_angle_beta 90.000000
_cell_angle_gamma 90.000000
_cell_volume 2523.200449
_symmetry_space_group_name_H-M "P N N M"
_symmetry_group_IT_number 58
_symmetry_cell_setting 'orthorhombic'
loop_
_space_group_symop_operation_xyz
x,y,z
-x,-y,z
1/2+x,1/2-y,1/2-z
1/2-x,1/2+y,1/2-z
-x,-y,-z
x,y,-z
1/2-x,1/2+y,1/2+z
1/2+x,1/2-y,1/2+z
loop_
_atom_site_type_symbol
_atom_site_label
_atom_site_fract_x
_atom_site_fract_y
_atom_site_fract_z
Si Si1 0.524321 0.702292 0.345382
Si Si2 0.367368 0.551695 0.653169
Si Si3 0.541232 0.701191 0.853244
Si Si4 0.747282 0.528440 0.500000
Si Si5 0.248607 0.659081 0.000000
Si Si6 0.630823 0.436446 0.852844
Si Si7 0.424305 0.095261 0.000000
Si Si8 0.433929 0.113307 0.500000
O O1 0.576412 0.573436 0.360579
O O2 0.427005 0.675236 0.364934
O O3 0.542544 0.750699 0.246847
O O4 0.553876 0.810155 0.410892
O O5 0.291466 0.540974 0.585919
O O6 0.335585 0.567897 0.752941
O O7 0.604756 0.584087 0.873001
O O8 0.447628 0.655629 0.872431
O O9 0.570944 0.818362 0.913120
O O10 0.734188 0.684535 0.500000
O O11 0.843482 0.494502 0.500000
O O12 0.295852 0.614398 0.086853
O O13 0.163155 0.576808 0.000000
O O14 0.500000 0.000000 0.000000
O O15 0.500000 0.000000 0.500000
#
# Coordination Sequence:
#
# PCOD8238962 Si02
#       8
#     8   8   8   4   4   8   4   4
#     4   9  18  39  66  84 113 151 197 250 295 353
#     4   9  18  38  66  90 106 149 209 248 290 349
#     4   9  19  39  64  87 115 151 200 248 294 358
#     4  12  23  37  58  89 123 163 197 252 298 349
#     4  12  23  39  59  85 127 159 199 246 303 357
#     4   9  19  38  66  89 110 155 200 248 303 353
#     4  12  25  37  54  86 128 162 194 236 305 366
#     4  12  25  39  56  84 124 165 192 237 307 358
#
# _framework density 19.023458000000002
#
# number of rings (size 3 to 8) (size 9 to 14) (size 15 to 20)
#    0.000    2.000    1.667    4.500    0.000    4.667 
#    6.000    1.667    0.000    0.000    0.000    0.000 
#    0.000    0.000    0.000    0.000    0.000    0.000 
#
# Total GULP energy -595007.544709 kJ/mol
# GULP energy per Si atom -12395.990515 kJ/mol
# Density = 1.898016 g / cm^3
# Si number density = 19.023458 Si / 1000 Ang^3
#
#
#
# Elastic Constant Matrix: (Units=GPa)
#
#
# Indices 1 2 3 4 5 6 
#
# 1 124.2090 32.7111 63.4448 0.0000 0.0000 0.0000
# 2 32.7111 46.0899 44.3364 0.0000 0.0000 0.0000
# 3 63.4448 44.3364 123.7032 0.0000 0.0000 0.0000
# 4 0.0000 0.0000 0.0000 22.3548 0.0000 0.0000
# 5 0.0000 0.0000 0.0000 0.0000 50.7339 0.0000
# 6 0.0000 0.0000 0.0000 0.0000 0.0000 25.2119
#
#
#
# Elastic Compliance Matrix: (Units=1/GPa)
#
#
# Indices 1 2 3 4 5 6 
#
# 1 0.011315 -0.003736 -0.004464 0.000000 0.000000 0.000000
# 2 -0.003736 0.034347 -0.010394 0.000000 0.000000 0.000000
# 3 -0.004464 -0.010394 0.014099 0.000000 0.000000 0.000000
# 4 0.000000 0.000000 0.000000 0.044733 0.000000 0.000000
# 5 0.000000 0.000000 0.000000 0.000000 0.019711 0.000000
# 6 0.000000 0.000000 0.000000 0.000000 0.000000 0.039664
#
#
# Mechanical properties :
#
#
# Convention : Reuss Voigt Hill
#
# Bulk Modulus (GPa) = 44.30277 63.88738 54.09508
# Shear Modulus (GPa) = 23.97144 29.89412 26.93278
#
# Velocity S-wave (km/s) = 3.55364 3.96843 3.76675
# Velocity P-wave (km/s) = 6.33852 7.39286 6.88590
#
# Compressibility (1/GPa) = 0.02257195
#
# Stress axis : x y z
#
# Youngs Moduli (GPa) = 88.37676 29.11461 70.92819
#
# Poissons Ratio (x) = 0.10878 0.31664
# Poissons Ratio (y) = 0.33020 0.73723
# Poissons Ratio (z) = 0.39453 0.30262
#
# Static dielectric constant tensor:
#      x y z
#    x 3.325480 0.000000 0.000000 
#    y 0.000000 1.783220 0.000000 
#    z 0.000000 0.000000 3.534380 
# 
# 
# High freq. dielectric constant tensor:
#      x y z
#    x 1.734840 0.000000 0.000000 
#    y 0.000000 1.720430 0.000000 
#    z 0.000000 0.000000 1.758250 
# 
# From -- ./inp_files/26857.got.cif
#   From: 2010.06.25/outbox.cif.g09.slc.cpg/sg58_14_cif.got.tgz:26857.got - 2010.06.26 21:38:00.
