data_PCOD8238791
_publ_section_title
;
Structure prediction by ZEFSAII (Michael W. Deem and Ramdas Pophale) SiO2 
 PCOD8238791
Probable space group: P N N M
;
_chemical_formula_sum "Si O2"
_cell_formula_units_Z 64
_cell_length_a 17.665663
_cell_length_b 23.169192
_cell_length_c 9.186608
_cell_angle_alpha 90.000000
_cell_angle_beta 90.000000
_cell_angle_gamma 90.000000
_cell_volume 3760.070734
_symmetry_space_group_name_H-M "P N N M"
_symmetry_group_IT_number 58
_symmetry_cell_setting 'orthorhombic'
loop_
_space_group_symop_operation_xyz
x,y,z
-x,-y,z
1/2+x,1/2-y,1/2-z
1/2-x,1/2+y,1/2-z
-x,-y,-z
x,y,-z
1/2-x,1/2+y,1/2+z
1/2+x,1/2-y,1/2+z
loop_
_atom_site_type_symbol
_atom_site_label
_atom_site_fract_x
_atom_site_fract_y
_atom_site_fract_z
Si Si1 0.388425 0.232347 0.340889
Si Si2 0.944303 0.171970 0.341273
Si Si3 0.181964 0.615464 0.826600
Si Si4 0.608299 0.273066 0.162536
Si Si5 0.949019 0.674782 0.837939
Si Si6 0.333296 0.618913 0.674312
Si Si7 0.525742 0.938362 0.326821
Si Si8 0.028725 0.063339 0.671758
O O1 0.358631 0.248623 0.500000
O O2 0.383457 0.291921 0.251160
O O3 0.336153 0.181336 0.277250
O O4 0.473712 0.210188 0.349652
O O5 0.907605 0.166298 0.500000
O O6 0.022776 0.205931 0.348778
O O7 0.962316 0.107939 0.279484
O O8 0.253913 0.594367 0.734572
O O9 0.111930 0.574673 0.779659
O O10 0.196684 0.611757 0.000000
O O11 0.609538 0.209144 0.234394
O O12 0.655790 0.316668 0.262848
O O13 0.644017 0.270161 0.000000
O O14 0.968025 0.611498 0.770878
O O15 0.913521 0.669534 0.000000
O O16 0.335002 0.620233 0.500000
O O17 0.396832 0.575432 0.734078
O O18 0.521546 0.937638 0.500000
O O19 0.500000 0.000000 0.261962
O O20 0.047219 0.071977 0.500000
O O21 0.000000 0.000000 0.708260
#
# Coordination Sequence:
#
# PCOD8238791 Si02
#       8
#     8   8   8   8   8   8   8   8
#     4   8  14  24  40  62  87 115 142 174 221 272
#     4   8  14  24  41  65  88 110 139 179 221 262
#     4   9  17  30  47  67  93 124 157 193 237 288
#     4   9  16  27  43  63  88 117 147 179 224 279
#     4   8  13  23  41  66  92 114 143 185 227 266
#     4  11  21  31  46  69  95 121 153 197 245 288
#     4   8  14  26  47  73  97 125 164 203 236 278
#     4   9  18  33  51  70  94 126 163 198 233 280
#
# _framework density 17.020956999999999
#
# number of rings (size 3 to 8) (size 9 to 14) (size 15 to 20)
#    0.000    3.250    0.000    3.750    0.000    3.750 
#    0.000    1.875    0.000    3.000    0.000    3.500 
#    0.000    0.000    0.000    0.000    0.000    0.000 
#
# Total GULP energy -793023.598116 kJ/mol
# GULP energy per Si atom -12390.993721 kJ/mol
# Density = 1.698222 g / cm^3
# Si number density = 17.020957 Si / 1000 Ang^3
#
#
#
# Elastic Constant Matrix: (Units=GPa)
#
#
# Indices 1 2 3 4 5 6 
#
# 1 60.9461 45.1990 38.8108 0.0000 0.0000 0.0000
# 2 45.1990 139.7466 49.5185 0.0000 0.0000 0.0000
# 3 38.8108 49.5185 85.1234 0.0000 0.0000 0.0000
# 4 0.0000 0.0000 0.0000 21.5881 0.0000 0.0000
# 5 0.0000 0.0000 0.0000 0.0000 17.2036 0.0000
# 6 0.0000 0.0000 0.0000 0.0000 0.0000 13.8804
#
#
#
# Elastic Compliance Matrix: (Units=1/GPa)
#
#
# Indices 1 2 3 4 5 6 
#
# 1 0.025881 -0.005277 -0.008730 0.000000 0.000000 0.000000
# 2 -0.005277 0.010090 -0.003463 0.000000 0.000000 0.000000
# 3 -0.008730 -0.003463 0.017743 0.000000 0.000000 0.000000
# 4 0.000000 0.000000 0.000000 0.046322 0.000000 0.000000
# 5 0.000000 0.000000 0.000000 0.000000 0.058127 0.000000
# 6 0.000000 0.000000 0.000000 0.000000 0.000000 0.072044
#
#
# Mechanical properties :
#
#
# Convention : Reuss Voigt Hill
#
# Bulk Modulus (GPa) = 53.27090 61.43028 57.35059
# Shear Modulus (GPa) = 18.42255 20.68694 19.55475
#
# Velocity S-wave (km/s) = 3.29347 3.49001 3.39317
# Velocity P-wave (km/s) = 6.76962 7.23945 7.00847
#
# Compressibility (1/GPa) = 0.01877197
#
# Stress axis : x y z
#
# Youngs Moduli (GPa) = 38.63814 99.10840 56.36089
#
# Poissons Ratio (x) = 0.52304 0.49204
# Poissons Ratio (y) = 0.20391 0.19520
# Poissons Ratio (z) = 0.33732 0.34326
#
# Static dielectric constant tensor:
#      x y z
#    x 2.873480 0.000000 0.000000 
#    y 0.000000 3.382090 0.000000 
#    z 0.000000 0.000000 3.251640 
# 
# 
# High freq. dielectric constant tensor:
#      x y z
#    x 1.617350 0.000000 0.000000 
#    y 0.000000 1.648240 0.000000 
#    z 0.000000 0.000000 1.641410 
# 
# From -- ./inp_files/9494.got.cif
#   From: 2010.06.25/outbox.cif.g09.slc.cpg/sg58_5_cif.got.tgz:9494.got - 2010.06.26 21:38:00.
