data_PCOD8238971
_publ_section_title
;
Structure prediction by ZEFSAII (Michael W. Deem and Ramdas Pophale) SiO2 
 PCOD8238971
Probable space group: P N N M
;
_chemical_formula_sum "Si O2"
_cell_formula_units_Z 56
_cell_length_a 17.654033
_cell_length_b 22.447536
_cell_length_c 9.869652
_cell_angle_alpha 90.000000
_cell_angle_beta 90.000000
_cell_angle_gamma 90.000000
_cell_volume 3911.239864
_symmetry_space_group_name_H-M "P N N M"
_symmetry_group_IT_number 58
_symmetry_cell_setting 'orthorhombic'
loop_
_space_group_symop_operation_xyz
x,y,z
-x,-y,z
1/2+x,1/2-y,1/2-z
1/2-x,1/2+y,1/2-z
-x,-y,-z
x,y,-z
1/2-x,1/2+y,1/2+z
1/2+x,1/2-y,1/2+z
loop_
_atom_site_type_symbol
_atom_site_label
_atom_site_fract_x
_atom_site_fract_y
_atom_site_fract_z
Si Si1 0.924542 0.710847 0.655414
Si Si2 0.297910 0.818784 0.651489
Si Si3 0.748238 0.817859 0.151622
Si Si4 0.007525 0.933655 0.338772
Si Si5 0.875697 0.846299 0.344545
Si Si6 0.409135 0.223064 0.160450
Si Si7 0.637064 0.649902 0.161106
O O1 0.912700 0.691448 0.500000
O O2 0.867537 0.671719 0.746115
O O3 0.910794 0.781039 0.673045
O O4 0.009827 0.697050 0.708076
O O5 0.323618 0.837460 0.500000
O O6 0.271356 0.750863 0.651129
O O7 0.225760 0.858350 0.700977
O O8 0.800139 0.854835 0.255044
O O9 0.660096 0.821242 0.200047
O O10 0.757734 0.844308 0.000000
O O11 0.008904 0.935629 0.500000
O O12 0.936730 0.893850 0.290806
O O13 0.086051 0.904765 0.284092
O O14 0.000000 0.000000 0.277702
O O15 0.853373 0.858373 0.500000
O O16 0.395636 0.288648 0.224284
O O17 0.411360 0.230814 0.000000
O O18 0.631222 0.653704 0.000000
#
# Coordination Sequence:
#
# PCOD8238971 Si02
#       7
#     8   8   8   8   8   8   8
#     4   9  14  21  35  52  71  94 119 144 173 209
#     4   8  14  22  33  49  69  93 119 143 171 210
#     4   8  14  23  35  49  66  92 123 145 166 209
#     4   9  15  22  35  55  74  94 125 157 178 203
#     4   9  15  23  35  51  72  94 116 147 183 207
#     4   8  12  20  34  50  68  94 123 144 168 209
#     4   8  12  21  34  47  67  96 123 146 174 207
#
# _framework density 14.317710999999999
#
# number of rings (size 3 to 8) (size 9 to 14) (size 15 to 20)
#    0.000    3.571    1.429    1.714    0.000    0.000 
#    0.000    0.714    0.000    2.143    0.000    0.000 
#    0.000    1.143    0.000   14.286    0.000    1.143 
#
# Total GULP energy -693818.710034 kJ/mol
# GULP energy per Si atom -12389.619822 kJ/mol
# Density = 1.428512 g / cm^3
# Si number density = 14.317711 Si / 1000 Ang^3
#
#
#
# Elastic Constant Matrix: (Units=GPa)
#
#
# Indices 1 2 3 4 5 6 
#
# 1 149.1753 34.6501 51.0261 0.0000 0.0000 0.0000
# 2 34.6501 36.7110 14.0888 0.0000 0.0000 0.0000
# 3 51.0261 14.0888 42.8425 0.0000 0.0000 0.0000
# 4 0.0000 0.0000 0.0000 5.9388 0.0000 0.0000
# 5 0.0000 0.0000 0.0000 0.0000 23.7750 0.0000
# 6 0.0000 0.0000 0.0000 0.0000 0.0000 14.3486
#
#
#
# Elastic Compliance Matrix: (Units=1/GPa)
#
#
# Indices 1 2 3 4 5 6 
#
# 1 0.012747 -0.007101 -0.012847 0.000000 0.000000 0.000000
# 2 -0.007101 0.035130 -0.003095 0.000000 0.000000 0.000000
# 3 -0.012847 -0.003095 0.039660 0.000000 0.000000 0.000000
# 4 0.000000 0.000000 0.000000 0.168383 0.000000 0.000000
# 5 0.000000 0.000000 0.000000 0.000000 0.042061 0.000000
# 6 0.000000 0.000000 0.000000 0.000000 0.000000 0.069693
#
#
# Mechanical properties :
#
#
# Convention : Reuss Voigt Hill
#
# Bulk Modulus (GPa) = 24.12473 47.58433 35.85453
# Shear Modulus (GPa) = 11.69376 17.41006 14.55191
#
# Velocity S-wave (km/s) = 2.86096 3.49087 3.19149
# Velocity P-wave (km/s) = 5.27253 7.03953 6.21911
#
# Compressibility (1/GPa) = 0.04145124
#
# Stress axis : x y z
#
# Youngs Moduli (GPa) = 78.44726 28.46557 25.21424
#
# Poissons Ratio (x) = 0.20214 0.32393
# Poissons Ratio (y) = 0.55708 0.07803
# Poissons Ratio (z) = 1.00782 0.08809
#
# Static dielectric constant tensor:
#      x y z
#    x 3.238850 0.000000 0.000000 
#    y 0.000000 2.500600 0.000000 
#    z 0.000000 0.000000 2.568470 
# 
# 
# High freq. dielectric constant tensor:
#      x y z
#    x 1.562130 0.000000 0.000000 
#    y 0.000000 1.485520 0.000000 
#    z 0.000000 0.000000 1.508920 
# 
# From -- ./inp_files/8195.got.cif
#   From: 2010.06.25/outbox.cif.g09.slc.cpg/sg58_5_cif.got.tgz:8195.got - 2010.06.26 21:38:00.
