data_PCOD8238119
_publ_section_title
;
Structure prediction by ZEFSAII (Michael W. Deem and Ramdas Pophale) SiO2 
 PCOD8238119
Probable space group: P N N M
;
_chemical_formula_sum "Si O2"
_cell_formula_units_Z 48
_cell_length_a 22.721241
_cell_length_b 11.933756
_cell_length_c 8.980639
_cell_angle_alpha 90.000000
_cell_angle_beta 90.000000
_cell_angle_gamma 90.000000
_cell_volume 2435.097985
_symmetry_space_group_name_H-M "P N N M"
_symmetry_group_IT_number 58
_symmetry_cell_setting 'orthorhombic'
loop_
_space_group_symop_operation_xyz
x,y,z
-x,-y,z
1/2+x,1/2-y,1/2-z
1/2-x,1/2+y,1/2-z
-x,-y,-z
x,y,-z
1/2-x,1/2+y,1/2+z
1/2+x,1/2-y,1/2+z
loop_
_atom_site_type_symbol
_atom_site_label
_atom_site_fract_x
_atom_site_fract_y
_atom_site_fract_z
Si Si1 0.459819 0.812233 0.831025
Si Si2 0.131734 0.503888 0.327215
Si Si3 0.281309 0.841976 0.327510
Si Si4 0.419386 0.214161 0.324967
Si Si5 0.148503 0.901415 0.672213
Si Si6 0.648103 0.342873 0.172684
O O1 0.426150 0.928588 0.803145
O O2 0.513014 0.805538 0.716873
O O3 0.416234 0.708958 0.799880
O O4 0.484112 0.807920 0.000000
O O5 0.144485 0.524166 0.500000
O O6 0.188436 0.444313 0.258350
O O7 0.122709 0.622507 0.249574
O O8 0.297760 0.853046 0.500000
O O9 0.212038 0.847858 0.300043
O O10 0.302998 0.722574 0.266977
O O11 0.412344 0.205728 0.500000
O O12 0.399559 0.336012 0.268884
O O13 0.129956 0.894280 0.500000
O O14 0.147715 0.029569 0.726803
O O15 0.666016 0.331851 0.000000
#
# Coordination Sequence:
#
# PCOD8238119 Si02
#       6
#     8   8   8   8   8   8
#     4   9  19  38  62  85 113 155 198 240 291 352
#     4  10  21  39  63  88 117 157 198 238 292 355
#     4  10  21  37  60  90 119 150 192 244 295 342
#     4  12  25  37  56  88 122 154 194 249 298 341
#     4  10  23  41  59  84 118 159 199 236 288 354
#     4   9  20  40  63  84 113 157 200 237 287 354
#
# _framework density 19.711734
#
# number of rings (size 3 to 8) (size 9 to 14) (size 15 to 20)
#    0.000    2.000    0.000    4.000    2.333    8.000 
#    0.000    3.333    0.000    0.000    0.000    0.000 
#    0.000    0.000    0.000    0.000    0.000    0.000 
#
# Total GULP energy -595483.199446 kJ/mol
# GULP energy per Si atom -12405.899988 kJ/mol
# Density = 1.966687 g / cm^3
# Si number density = 19.711734 Si / 1000 Ang^3
#
#
#
# Elastic Constant Matrix: (Units=GPa)
#
#
# Indices 1 2 3 4 5 6 
#
# 1 35.7658 10.3887 25.4127 0.0000 0.0000 0.0000
# 2 10.3887 111.1849 40.1428 0.0000 0.0000 0.0000
# 3 25.4127 40.1428 107.5068 0.0000 0.0000 0.0000
# 4 0.0000 0.0000 0.0000 32.5028 0.0000 0.0000
# 5 0.0000 0.0000 0.0000 0.0000 29.7841 0.0000
# 6 0.0000 0.0000 0.0000 0.0000 0.0000 17.8953
#
#
#
# Elastic Compliance Matrix: (Units=1/GPa)
#
#
# Indices 1 2 3 4 5 6 
#
# 1 0.033613 -0.000314 -0.007828 0.000000 0.000000 0.000000
# 2 -0.000314 0.010398 -0.003808 0.000000 0.000000 0.000000
# 3 -0.007828 -0.003808 0.012574 0.000000 0.000000 0.000000
# 4 0.000000 0.000000 0.000000 0.030767 0.000000 0.000000
# 5 0.000000 0.000000 0.000000 0.000000 0.033575 0.000000
# 6 0.000000 0.000000 0.000000 0.000000 0.000000 0.055881
#
#
# Mechanical properties :
#
#
# Convention : Reuss Voigt Hill
#
# Bulk Modulus (GPa) = 30.59615 45.14954 37.87284
# Shear Modulus (GPa) = 23.62900 27.93733 25.78317
#
# Velocity S-wave (km/s) = 3.46602 3.76878 3.62057
# Velocity P-wave (km/s) = 5.61901 6.47247 6.06078
#
# Compressibility (1/GPa) = 0.03268385
#
# Stress axis : x y z
#
# Youngs Moduli (GPa) = 29.75029 96.16846 79.52766
#
# Poissons Ratio (x) = 0.03023 0.62256
# Poissons Ratio (y) = 0.00935 0.30288
# Poissons Ratio (z) = 0.23289 0.36625
#
# Static dielectric constant tensor:
#      x y z
#    x 3.443080 0.000000 0.000000 
#    y 0.000000 3.753710 0.000000 
#    z 0.000000 0.000000 3.557700 
# 
# 
# High freq. dielectric constant tensor:
#      x y z
#    x 1.765930 0.000000 0.000000 
#    y 0.000000 1.777340 0.000000 
#    z 0.000000 0.000000 1.766650 
# 
# From -- ./inp_files/9712.got.cif
#   From: 2010.06.25/outbox.cif.g09.slc.cpg/sg58_5_cif.got.tgz:9712.got - 2010.06.26 21:38:00.
