data_PCOD8238814
_publ_section_title
;
Structure prediction by ZEFSAII (Michael W. Deem and Ramdas Pophale) SiO2 
 PCOD8238814
Probable space group: P N N M
;
_chemical_formula_sum "Si O2"
_cell_formula_units_Z 40
_cell_length_a 10.609253
_cell_length_b 8.785821
_cell_length_c 17.539790
_cell_angle_alpha 90.000000
_cell_angle_beta 90.000000
_cell_angle_gamma 90.000000
_cell_volume 1634.901327
_symmetry_space_group_name_H-M "P N N M"
_symmetry_group_IT_number 58
_symmetry_cell_setting 'orthorhombic'
loop_
_space_group_symop_operation_xyz
x,y,z
-x,-y,z
1/2+x,1/2-y,1/2-z
1/2-x,1/2+y,1/2-z
-x,-y,-z
x,y,-z
1/2-x,1/2+y,1/2+z
1/2+x,1/2-y,1/2+z
loop_
_atom_site_type_symbol
_atom_site_label
_atom_site_fract_x
_atom_site_fract_y
_atom_site_fract_z
Si Si1 0.053539 0.792513 0.169850
Si Si2 0.945685 0.851243 0.669677
Si Si3 0.188011 0.502859 0.183310
Si Si4 0.700710 0.290371 0.410295
Si Si5 0.814434 0.573419 0.649254
O O1 0.070738 0.610497 0.157765
O O2 0.172463 0.874561 0.132029
O O3 0.042808 0.830989 0.259925
O O4 0.929769 0.849399 0.126149
O O5 0.920823 0.696288 0.618568
O O6 0.805456 0.886509 0.701525
O O7 0.000000 0.000000 0.623243
O O8 0.228081 0.379438 0.119980
O O9 0.149894 0.420569 0.261398
O O10 0.688347 0.284354 0.500000
O O11 0.817745 0.403362 0.386931
#
# Coordination Sequence:
#
# PCOD8238814 Si02
#       5
#     8   8   8   8   8
#     4  11  21  37  62  99 136 171 227 273 350 405
#     4  11  21  38  65  96 128 171 229 293 336 390
#     4  11  22  38  63 100 135 177 228 281 333 413
#     4  12  25  42  64  99 144 178 220 289 365 429
#     4  11  22  39  64  99 132 176 233 282 335 410
#
# _framework density 24.466308000000001
#
# number of rings (size 3 to 8) (size 9 to 14) (size 15 to 20)
#    0.000    0.800    6.000    2.400    0.000    3.200 
#    0.000    3.000    0.000    3.600    0.000    0.000 
#    0.000    0.000    0.000    0.000    0.000    0.000 
#
# Total GULP energy -495588.536759 kJ/mol
# GULP energy per Si atom -12389.713419 kJ/mol
# Density = 2.441062 g / cm^3
# Si number density = 24.466308 Si / 1000 Ang^3
#
#
#
# Elastic Constant Matrix: (Units=GPa)
#
#
# Indices 1 2 3 4 5 6 
#
# 1 60.6081 31.3348 9.1240 0.0000 0.0000 0.0000
# 2 31.3348 183.7585 34.0301 0.0000 0.0000 0.0000
# 3 9.1240 34.0301 82.2467 0.0000 0.0000 0.0000
# 4 0.0000 0.0000 0.0000 18.9369 0.0000 0.0000
# 5 0.0000 0.0000 0.0000 0.0000 11.1970 0.0000
# 6 0.0000 0.0000 0.0000 0.0000 0.0000 62.4831
#
#
#
# Elastic Compliance Matrix: (Units=1/GPa)
#
#
# Indices 1 2 3 4 5 6 
#
# 1 0.018142 -0.002947 -0.000793 0.000000 0.000000 0.000000
# 2 -0.002947 0.006372 -0.002310 0.000000 0.000000 0.000000
# 3 -0.000793 -0.002310 0.013202 0.000000 0.000000 0.000000
# 4 0.000000 0.000000 0.000000 0.052807 0.000000 0.000000
# 5 0.000000 0.000000 0.000000 0.000000 0.089309 0.000000
# 6 0.000000 0.000000 0.000000 0.000000 0.000000 0.016004
#
#
# Mechanical properties :
#
#
# Convention : Reuss Voigt Hill
#
# Bulk Modulus (GPa) = 39.03632 52.84349 45.93991
# Shear Modulus (GPa) = 23.09726 35.33170 29.21448
#
# Velocity S-wave (km/s) = 3.07586 3.80425 3.45928
# Velocity P-wave (km/s) = 5.34830 6.39858 5.89687
#
# Compressibility (1/GPa) = 0.02561717
#
# Stress axis : x y z
#
# Youngs Moduli (GPa) = 55.11963 156.93354 75.74513
#
# Poissons Ratio (x) = 0.46244 0.06010
# Poissons Ratio (y) = 0.16242 0.17494
# Poissons Ratio (z) = 0.04373 0.36246
#
# Static dielectric constant tensor:
#      x y z
#    x 4.516280 0.000000 0.000000 
#    y 0.000000 5.122860 0.000000 
#    z 0.000000 0.000000 3.426290 
# 
# 
# High freq. dielectric constant tensor:
#      x y z
#    x 1.988670 0.000000 0.000000 
#    y 0.000000 2.021140 0.000000 
#    z 0.000000 0.000000 1.869280 
# 
# From -- ./inp_files/24963.got.cif
#   From: 2010.06.25/outbox.cif.g09.slc.cpg/sg58_13_cif.got.tgz:24963.got - 2010.06.26 21:38:00.
