data_PCOD8238427
_publ_section_title
;
Structure prediction by ZEFSAII (Michael W. Deem and Ramdas Pophale) SiO2 
 PCOD8238427
Probable space group: P N N M
;
_chemical_formula_sum "Si O2"
_cell_formula_units_Z 64
_cell_length_a 14.516764
_cell_length_b 8.775368
_cell_length_c 24.828972
_cell_angle_alpha 90.000000
_cell_angle_beta 90.000000
_cell_angle_gamma 90.000000
_cell_volume 3162.961409
_symmetry_space_group_name_H-M "P N N M"
_symmetry_group_IT_number 58
_symmetry_cell_setting 'orthorhombic'
loop_
_space_group_symop_operation_xyz
x,y,z
-x,-y,z
1/2+x,1/2-y,1/2-z
1/2-x,1/2+y,1/2-z
-x,-y,-z
x,y,-z
1/2-x,1/2+y,1/2+z
1/2+x,1/2-y,1/2+z
loop_
_atom_site_type_symbol
_atom_site_label
_atom_site_fract_x
_atom_site_fract_y
_atom_site_fract_z
Si Si1 0.828716 0.137597 0.563185
Si Si2 0.854430 0.862959 0.638228
Si Si3 0.510776 0.672918 0.670697
Si Si4 0.794760 0.120405 0.154665
Si Si5 0.252969 0.446037 0.224310
Si Si6 0.534442 0.830280 0.873681
Si Si7 0.076676 0.619660 0.738001
Si Si8 0.312417 0.721972 0.363002
O O1 0.819686 0.121547 0.500000
O O2 0.728931 0.187169 0.586430
O O3 0.907279 0.262146 0.576909
O O4 0.855271 0.973015 0.586783
O O5 0.780612 0.729200 0.628966
O O6 0.951980 0.782281 0.642763
O O7 0.830424 0.958282 0.692248
O O8 0.500000 0.500000 0.689524
O O9 0.605388 0.685155 0.636174
O O10 0.519586 0.766840 0.725117
O O11 0.424126 0.729936 0.635296
O O12 0.794963 0.117101 0.220232
O O13 0.777051 0.951254 0.132976
O O14 0.164686 0.553637 0.231745
O O15 0.221391 0.295621 0.192782
O O16 0.603674 0.817925 0.821565
O O17 0.500000 0.000000 0.889558
O O18 0.000000 0.500000 0.720099
#
# Coordination Sequence:
#
# PCOD8238427 Si02
#       8
#     8   8   8   8   8   8   8   8
#     4  11  26  48  70  87 113 162 222 283 335 376
#     4  11  24  39  60  89 127 167 212 269 310 382
#     4  10  22  33  57  90 129 175 208 244 305 378
#     4  11  21  36  57  93 134 170 204 247 311 389
#     4  11  21  34  55  89 132 178 210 244 301 377
#     4  11  25  41  62  95 133 164 213 263 317 387
#     4  11  20  35  55  88 134 177 203 240 298 378
#     4  10  22  40  60  90 124 163 211 265 311 374
#
# _framework density 20.234200999999999
#
# number of rings (size 3 to 8) (size 9 to 14) (size 15 to 20)
#    0.000    1.250    2.500    4.125    7.000    1.250 
#    0.000    1.875    0.000    4.875    0.000    0.000 
#    0.000    0.000    0.000    0.000    0.000    0.000 
#
# Total GULP energy -793533.203748 kJ/mol
# GULP energy per Si atom -12398.956309 kJ/mol
# Density = 2.018815 g / cm^3
# Si number density = 20.234201 Si / 1000 Ang^3
#
#
#
# Elastic Constant Matrix: (Units=GPa)
#
#
# Indices 1 2 3 4 5 6 
#
# 1 112.6589 42.8932 29.0050 0.0000 0.0000 0.0000
# 2 42.8932 101.3814 37.0676 0.0000 0.0000 0.0000
# 3 29.0050 37.0676 94.0995 0.0000 0.0000 0.0000
# 4 0.0000 0.0000 0.0000 15.1517 0.0000 0.0000
# 5 0.0000 0.0000 0.0000 0.0000 14.3322 0.0000
# 6 0.0000 0.0000 0.0000 0.0000 0.0000 30.7406
#
#
#
# Elastic Compliance Matrix: (Units=1/GPa)
#
#
# Indices 1 2 3 4 5 6 
#
# 1 0.010833 -0.003928 -0.001792 0.000000 0.000000 0.000000
# 2 -0.003928 0.012948 -0.003890 0.000000 0.000000 0.000000
# 3 -0.001792 -0.003890 0.012712 0.000000 0.000000 0.000000
# 4 0.000000 0.000000 0.000000 0.065999 0.000000 0.000000
# 5 0.000000 0.000000 0.000000 0.000000 0.069773 0.000000
# 6 0.000000 0.000000 0.000000 0.000000 0.000000 0.032530
#
#
# Mechanical properties :
#
#
# Convention : Reuss Voigt Hill
#
# Bulk Modulus (GPa) = 57.89260 58.45239 58.17250
# Shear Modulus (GPa) = 21.76067 25.32317 23.54192
#
# Velocity S-wave (km/s) = 3.28295 3.54150 3.41467
# Velocity P-wave (km/s) = 6.56077 6.75822 6.66023
#
# Compressibility (1/GPa) = 0.01727337
#
# Stress axis : x y z
#
# Youngs Moduli (GPa) = 92.30789 77.23266 78.66878
#
# Poissons Ratio (x) = 0.30339 0.14096
# Poissons Ratio (y) = 0.36261 0.30599
# Poissons Ratio (z) = 0.16540 0.30040
#
# Static dielectric constant tensor:
#      x y z
#    x 4.070040 0.000000 0.000000 
#    y 0.000000 4.154700 0.000000 
#    z 0.000000 0.000000 3.111640 
# 
# 
# High freq. dielectric constant tensor:
#      x y z
#    x 1.813170 0.000000 0.000000 
#    y 0.000000 1.815840 0.000000 
#    z 0.000000 0.000000 1.726940 
# 
# From -- ./inp_files/32222.got.cif
#   From: 2010.06.25/outbox.cif.g09.slc.cpg/sg58_17_cif.got.tgz:32222.got - 2010.06.26 21:38:00.
