data_PCOD8238348
_publ_section_title
;
Structure prediction by ZEFSAII (Michael W. Deem and Ramdas Pophale) SiO2 
 PCOD8238348
Probable space group: P N N M
;
_chemical_formula_sum "Si O2"
_cell_formula_units_Z 48
_cell_length_a 15.241208
_cell_length_b 9.912685
_cell_length_c 16.093521
_cell_angle_alpha 90.000000
_cell_angle_beta 90.000000
_cell_angle_gamma 90.000000
_cell_volume 2431.429976
_symmetry_space_group_name_H-M "P N N M"
_symmetry_group_IT_number 58
_symmetry_cell_setting 'orthorhombic'
loop_
_space_group_symop_operation_xyz
x,y,z
-x,-y,z
1/2+x,1/2-y,1/2-z
1/2-x,1/2+y,1/2-z
-x,-y,-z
x,y,-z
1/2-x,1/2+y,1/2+z
1/2+x,1/2-y,1/2+z
loop_
_atom_site_type_symbol
_atom_site_label
_atom_site_fract_x
_atom_site_fract_y
_atom_site_fract_z
Si Si1 0.436481 0.381285 0.667770
Si Si2 0.253901 0.074060 0.310815
Si Si3 0.931355 0.396870 0.902722
Si Si4 0.239263 0.377626 0.664812
Si Si5 0.871919 0.591485 0.500000
Si Si6 0.561953 0.791394 0.000000
Si Si7 0.917955 0.086167 0.642575
O O1 0.500000 0.500000 0.638468
O O2 0.469310 0.246762 0.624435
O O3 0.338263 0.412727 0.637357
O O4 0.440430 0.357490 0.766562
O O5 0.332819 0.072290 0.375428
O O6 0.232543 0.231009 0.289729
O O7 0.288029 0.995115 0.229045
O O8 0.169805 0.004017 0.353084
O O9 0.000000 0.500000 0.861993
O O10 0.931714 0.408725 0.000000
O O11 0.180726 0.373013 0.582960
O O12 0.890407 0.433831 0.500000
O O13 0.957699 0.685358 0.500000
O O14 0.594716 0.711742 0.081320
O O15 0.000000 0.000000 0.608323
#
# Coordination Sequence:
#
# PCOD8238348 Si02
#       7
#     8   8   8   8   4   4   8
#     4   9  21  41  64  88 120 160 212 259 309 372
#     4  10  23  40  68  91 127 168 216 260 321 385
#     4  10  23  40  58  88 121 158 203 256 315 364
#     4  10  23  42  65  94 126 168 214 261 322 381
#     4  11  26  42  61  96 138 169 210 275 331 373
#     4  11  25  40  62  96 135 171 210 261 328 398
#     4  10  21  40  64  95 124 164 216 257 315 395
#
# _framework density 19.741468999999999
#
# number of rings (size 3 to 8) (size 9 to 14) (size 15 to 20)
#    0.000    2.000    0.000    1.250   12.833    5.667 
#    0.000    0.000    0.000    0.000    0.000    0.000 
#    0.000    0.000    0.000    0.000    0.000    0.000 
#
# Total GULP energy -595189.848337 kJ/mol
# GULP energy per Si atom -12399.788507 kJ/mol
# Density = 1.969654 g / cm^3
# Si number density = 19.741469 Si / 1000 Ang^3
#
#
#
# Elastic Constant Matrix: (Units=GPa)
#
#
# Indices 1 2 3 4 5 6 
#
# 1 95.1299 61.3060 32.5595 0.0000 0.0000 0.0000
# 2 61.3060 110.4553 43.8205 0.0000 0.0000 0.0000
# 3 32.5595 43.8205 74.9891 0.0000 0.0000 0.0000
# 4 0.0000 0.0000 0.0000 36.5622 0.0000 0.0000
# 5 0.0000 0.0000 0.0000 0.0000 28.8152 0.0000
# 6 0.0000 0.0000 0.0000 0.0000 0.0000 35.6857
#
#
#
# Elastic Compliance Matrix: (Units=1/GPa)
#
#
# Indices 1 2 3 4 5 6 
#
# 1 0.016687 -0.008315 -0.002386 0.000000 0.000000 0.000000
# 2 -0.008315 0.015929 -0.005698 0.000000 0.000000 0.000000
# 3 -0.002386 -0.005698 0.017701 0.000000 0.000000 0.000000
# 4 0.000000 0.000000 0.000000 0.027351 0.000000 0.000000
# 5 0.000000 0.000000 0.000000 0.000000 0.034704 0.000000
# 6 0.000000 0.000000 0.000000 0.000000 0.000000 0.028022
#
#
# Mechanical properties :
#
#
# Convention : Reuss Voigt Hill
#
# Bulk Modulus (GPa) = 57.08276 61.77183 59.42729
# Shear Modulus (GPa) = 27.92773 29.73850 28.83311
#
# Velocity S-wave (km/s) = 3.76529 3.88544 3.82584
# Velocity P-wave (km/s) = 6.91962 7.17546 7.04870
#
# Compressibility (1/GPa) = 0.01751842
#
# Stress axis : x y z
#
# Youngs Moduli (GPa) = 59.92520 62.77779 56.49374
#
# Poissons Ratio (x) = 0.52202 0.13482
# Poissons Ratio (y) = 0.49830 0.32190
# Poissons Ratio (z) = 0.14301 0.35770
#
# Static dielectric constant tensor:
#      x y z
#    x 3.792740 0.000000 0.000000 
#    y 0.000000 3.856770 0.000000 
#    z 0.000000 0.000000 3.458530 
# 
# 
# High freq. dielectric constant tensor:
#      x y z
#    x 1.777110 0.000000 0.000000 
#    y 0.000000 1.782150 0.000000 
#    z 0.000000 0.000000 1.763690 
# 
# From -- ./inp_files/26830.got.cif
#   From: 2010.06.25/outbox.cif.g09.slc.cpg/sg58_14_cif.got.tgz:26830.got - 2010.06.26 21:38:00.
