data_PCOD8238449
_publ_section_title
;
Structure prediction by ZEFSAII (Michael W. Deem and Ramdas Pophale) SiO2 
 PCOD8238449
Probable space group: P N N M
;
_chemical_formula_sum "Si O2"
_cell_formula_units_Z 64
_cell_length_a 23.517506
_cell_length_b 15.446116
_cell_length_c 8.861986
_cell_angle_alpha 90.000000
_cell_angle_beta 90.000000
_cell_angle_gamma 90.000000
_cell_volume 3219.152976
_symmetry_space_group_name_H-M "P N N M"
_symmetry_group_IT_number 58
_symmetry_cell_setting 'orthorhombic'
loop_
_space_group_symop_operation_xyz
x,y,z
-x,-y,z
1/2+x,1/2-y,1/2-z
1/2-x,1/2+y,1/2-z
-x,-y,-z
x,y,-z
1/2-x,1/2+y,1/2+z
1/2+x,1/2-y,1/2+z
loop_
_atom_site_type_symbol
_atom_site_label
_atom_site_fract_x
_atom_site_fract_y
_atom_site_fract_z
Si Si1 0.219020 0.498057 0.175809
Si Si2 0.509992 0.095369 0.176632
Si Si3 0.187299 0.672428 0.326348
Si Si4 0.164647 0.014173 0.173198
Si Si5 0.638902 0.133371 0.827050
Si Si6 0.812619 0.785852 0.168850
Si Si7 0.947611 0.058629 0.679348
Si Si8 0.431356 0.247976 0.821504
O O1 0.189461 0.586746 0.226316
O O2 0.277372 0.474791 0.260857
O O3 0.175025 0.422775 0.211649
O O4 0.232320 0.501883 0.000000
O O5 0.573490 0.122736 0.212407
O O6 0.468974 0.169363 0.248024
O O7 0.500000 0.000000 0.248920
O O8 0.496699 0.089899 0.000000
O O9 0.180461 0.642271 0.500000
O O10 0.245054 0.726493 0.305001
O O11 0.134420 0.732072 0.275373
O O12 0.168195 0.116515 0.191974
O O13 0.111010 0.980967 0.264548
O O14 0.159007 0.985686 0.000000
O O15 0.654214 0.232873 0.796006
O O16 0.651878 0.108306 0.000000
O O17 0.828305 0.754446 0.000000
O O18 0.946960 0.057259 0.500000
O O19 0.952212 0.158107 0.739767
O O20 0.000000 0.000000 0.741040
O O21 0.438401 0.248527 0.000000
#
# Coordination Sequence:
#
# PCOD8238449 Si02
#       8
#     8   8   8   8   8   8   8   8
#     4  11  22  37  59  86 119 153 189 241 303 357
#     4   9  18  33  56  85 115 150 195 242 287 342
#     4   9  18  36  60  83 113 151 195 239 293 353
#     4  10  22  41  62  84 115 155 200 244 298 357
#     4  11  22  34  57  88 117 151 194 240 289 354
#     4   9  20  36  55  82 115 151 187 239 299 353
#     4  10  22  37  59  89 121 158 202 250 300 355
#     4   9  18  34  58  87 119 155 195 246 298 347
#
# _framework density 19.881005999999999
#
# number of rings (size 3 to 8) (size 9 to 14) (size 15 to 20)
#    0.000    2.250    0.000    3.375    3.500    4.750 
#    0.000    0.625    0.000    6.750    0.000    0.000 
#    0.000    0.000    0.000    0.000    0.000    0.000 
#
# Total GULP energy -793572.678647 kJ/mol
# GULP energy per Si atom -12399.573104 kJ/mol
# Density = 1.983576 g / cm^3
# Si number density = 19.881006 Si / 1000 Ang^3
#
#
#
# Elastic Constant Matrix: (Units=GPa)
#
#
# Indices 1 2 3 4 5 6 
#
# 1 123.4461 76.9343 17.8183 0.0000 0.0000 0.0000
# 2 76.9343 115.2459 20.5800 0.0000 0.0000 0.0000
# 3 17.8183 20.5800 26.0527 0.0000 0.0000 0.0000
# 4 0.0000 0.0000 0.0000 24.5723 0.0000 0.0000
# 5 0.0000 0.0000 0.0000 0.0000 26.4977 0.0000
# 6 0.0000 0.0000 0.0000 0.0000 0.0000 34.0876
#
#
#
# Elastic Compliance Matrix: (Units=1/GPa)
#
#
# Indices 1 2 3 4 5 6 
#
# 1 0.014017 -0.008901 -0.002555 0.000000 0.000000 0.000000
# 2 -0.008901 0.015754 -0.006357 0.000000 0.000000 0.000000
# 3 -0.002555 -0.006357 0.045153 0.000000 0.000000 0.000000
# 4 0.000000 0.000000 0.000000 0.040696 0.000000 0.000000
# 5 0.000000 0.000000 0.000000 0.000000 0.037739 0.000000
# 6 0.000000 0.000000 0.000000 0.000000 0.000000 0.029336
#
#
# Mechanical properties :
#
#
# Convention : Reuss Voigt Hill
#
# Bulk Modulus (GPa) = 25.44710 55.04553 40.24632
# Shear Modulus (GPa) = 21.60557 26.99233 24.29895
#
# Velocity S-wave (km/s) = 3.30016 3.68869 3.49982
# Velocity P-wave (km/s) = 5.22961 6.77418 6.05138
#
# Compressibility (1/GPa) = 0.03929721
#
# Stress axis : x y z
#
# Youngs Moduli (GPa) = 71.34353 63.47522 22.14678
#
# Poissons Ratio (x) = 0.56498 0.05659
# Poissons Ratio (y) = 0.63501 0.14079
# Poissons Ratio (z) = 0.18231 0.40353
#
# Static dielectric constant tensor:
#      x y z
#    x 3.751440 0.000000 0.000000 
#    y 0.000000 3.813460 0.000000 
#    z 0.000000 0.000000 3.311140 
# 
# 
# High freq. dielectric constant tensor:
#      x y z
#    x 1.784210 0.000000 0.000000 
#    y 0.000000 1.782960 0.000000 
#    z 0.000000 0.000000 1.742750 
# 
# From -- ./inp_files/10115.got.cif
#   From: 2010.06.25/outbox.cif.g09.slc.cpg/sg58_6_cif.got.tgz:10115.got - 2010.06.26 21:38:00.
