data_PCOD8238446
_publ_section_title
;
Structure prediction by ZEFSAII (Michael W. Deem and Ramdas Pophale) SiO2 
 PCOD8238446
Probable space group: P N N M
;
_chemical_formula_sum "Si O2"
_cell_formula_units_Z 36
_cell_length_a 7.971592
_cell_length_b 8.250518
_cell_length_c 26.694265
_cell_angle_alpha 90.000000
_cell_angle_beta 90.000000
_cell_angle_gamma 90.000000
_cell_volume 1755.675490
_symmetry_space_group_name_H-M "P N N M"
_symmetry_group_IT_number 58
_symmetry_cell_setting 'orthorhombic'
loop_
_space_group_symop_operation_xyz
x,y,z
-x,-y,z
1/2+x,1/2-y,1/2-z
1/2-x,1/2+y,1/2-z
-x,-y,-z
x,y,-z
1/2-x,1/2+y,1/2+z
1/2+x,1/2-y,1/2+z
loop_
_atom_site_type_symbol
_atom_site_label
_atom_site_fract_x
_atom_site_fract_y
_atom_site_fract_z
Si Si1 0.500000 0.000000 0.398027
Si Si2 0.805395 0.675377 0.822612
Si Si3 0.339068 0.609629 0.229595
Si Si4 0.157780 0.118659 0.443393
Si Si5 0.467802 0.810958 0.144579
O O1 0.456062 0.843592 0.362634
O O2 0.663391 0.964649 0.431372
O O3 0.808242 0.506657 0.790662
O O4 0.816057 0.829183 0.786050
O O5 0.635955 0.702120 0.854334
O O6 0.500000 0.500000 0.228959
O O7 0.355310 0.763645 0.192785
O O8 0.165735 0.184792 0.500000
O O9 0.131844 0.269772 0.406244
O O10 0.000000 0.000000 0.436837
O O11 0.500000 0.000000 0.146094
#
# Coordination Sequence:
#
# PCOD8238446 Si02
#       5
#     4   8   8   8   8
#     4  12  23  40  70  96 126 164 221 272 318 388
#     4  11  23  37  62  95 133 174 218 261 318 388
#     4  10  22  37  58  92 133 176 219 255 325 386
#     4  11  23  45  70  95 126 167 218 277 334 391
#     4  11  22  41  63  89 133 172 214 268 325 386
#
# _framework density 20.504926999999999
#
# number of rings (size 3 to 8) (size 9 to 14) (size 15 to 20)
#    0.000    1.111    4.444    2.333    7.778    2.222 
#    0.000    0.000    0.000    1.333    0.000    0.000 
#    0.000    0.000    0.000    0.000    0.000    0.000 
#
# Total GULP energy -446178.701755 kJ/mol
# GULP energy per Si atom -12393.852827 kJ/mol
# Density = 2.045826 g / cm^3
# Si number density = 20.504927 Si / 1000 Ang^3
#
#
#
# Elastic Constant Matrix: (Units=GPa)
#
#
# Indices 1 2 3 4 5 6 
#
# 1 88.4231 17.5609 41.9864 0.0000 0.0000 0.0000
# 2 17.5609 92.0476 34.7062 0.0000 0.0000 0.0000
# 3 41.9864 34.7062 129.9529 0.0000 0.0000 0.0000
# 4 0.0000 0.0000 0.0000 24.4294 0.0000 0.0000
# 5 0.0000 0.0000 0.0000 0.0000 23.3149 0.0000
# 6 0.0000 0.0000 0.0000 0.0000 0.0000 13.8888
#
#
#
# Elastic Compliance Matrix: (Units=1/GPa)
#
#
# Indices 1 2 3 4 5 6 
#
# 1 0.013446 -0.001031 -0.004069 0.000000 0.000000 0.000000
# 2 -0.001031 0.012159 -0.002914 0.000000 0.000000 0.000000
# 3 -0.004069 -0.002914 0.009788 0.000000 0.000000 0.000000
# 4 0.000000 0.000000 0.000000 0.040934 0.000000 0.000000
# 5 0.000000 0.000000 0.000000 0.000000 0.042891 0.000000
# 6 0.000000 0.000000 0.000000 0.000000 0.000000 0.072000
#
#
# Mechanical properties :
#
#
# Convention : Reuss Voigt Hill
#
# Bulk Modulus (GPa) = 51.63942 55.43674 53.53808
# Shear Modulus (GPa) = 23.39698 26.73796 25.06747
#
# Velocity S-wave (km/s) = 3.38160 3.61498 3.50023
# Velocity P-wave (km/s) = 6.36282 6.67223 6.51936
#
# Compressibility (1/GPa) = 0.01936505
#
# Stress axis : x y z
#
# Youngs Moduli (GPa) = 74.37096 82.24045 102.16565
#
# Poissons Ratio (x) = 0.08480 0.41570
# Poissons Ratio (y) = 0.07668 0.29774
# Poissons Ratio (z) = 0.30261 0.23967
#
# Static dielectric constant tensor:
#      x y z
#    x 3.930480 0.000000 0.000000 
#    y 0.000000 3.619860 0.000000 
#    z 0.000000 0.000000 3.978340 
# 
# 
# High freq. dielectric constant tensor:
#      x y z
#    x 1.809520 0.000000 0.000000 
#    y 0.000000 1.779350 0.000000 
#    z 0.000000 0.000000 1.803510 
# 
# From -- ./inp_files/33111.got.cif
#   From: 2010.06.25/outbox.cif.g09.slc.cpg/sg58_17_cif.got.tgz:33111.got - 2010.06.26 21:38:00.
