data_PCOD8238202
_publ_section_title
;
Structure prediction by ZEFSAII (Michael W. Deem and Ramdas Pophale) SiO2 
 PCOD8238202
Probable space group: P N N M
;
_chemical_formula_sum "Si O2"
_cell_formula_units_Z 48
_cell_length_a 17.512737
_cell_length_b 15.135255
_cell_length_c 8.905252
_cell_angle_alpha 90.000000
_cell_angle_beta 90.000000
_cell_angle_gamma 90.000000
_cell_volume 2360.423782
_symmetry_space_group_name_H-M "P N N M"
_symmetry_group_IT_number 58
_symmetry_cell_setting 'orthorhombic'
loop_
_space_group_symop_operation_xyz
x,y,z
-x,-y,z
1/2+x,1/2-y,1/2-z
1/2-x,1/2+y,1/2-z
-x,-y,-z
x,y,-z
1/2-x,1/2+y,1/2+z
1/2+x,1/2-y,1/2+z
loop_
_atom_site_type_symbol
_atom_site_label
_atom_site_fract_x
_atom_site_fract_y
_atom_site_fract_z
Si Si1 0.297793 0.234902 0.826485
Si Si2 0.032678 0.403839 0.327560
Si Si3 0.278990 0.572873 0.826444
Si Si4 0.044863 0.756805 0.176986
Si Si5 0.545479 0.413434 0.176774
Si Si6 0.309751 0.896732 0.328964
O O1 0.272491 0.139287 0.768960
O O2 0.370710 0.272230 0.739496
O O3 0.229496 0.302985 0.799973
O O4 0.320309 0.226819 0.000000
O O5 0.024031 0.374340 0.500000
O O6 0.121173 0.403562 0.285665
O O7 0.000000 0.500000 0.298597
O O8 0.984318 0.339341 0.223345
O O9 0.366682 0.576351 0.775176
O O10 0.250570 0.473943 0.795640
O O11 0.270562 0.599438 0.000000
O O12 0.986900 0.828914 0.239514
O O13 0.047062 0.764118 0.000000
O O14 0.500000 0.500000 0.230103
O O15 0.535955 0.399053 0.000000
O O16 0.339856 0.903168 0.500000
#
# Coordination Sequence:
#
# PCOD8238202 Si02
#       6
#     8   8   8   8   8   8
#     4  11  23  40  61  86 118 156 199 245 295 352
#     4  11  24  41  62  89 120 156 199 247 299 354
#     4  10  21  38  61  89 120 155 195 240 293 352
#     4  12  25  40  61  89 121 158 200 247 298 352
#     4  10  21  40  65  91 122 160 199 241 293 352
#     4  10  22  40  62  88 119 156 196 240 294 354
#
# _framework density 20.335331
#
# number of rings (size 3 to 8) (size 9 to 14) (size 15 to 20)
#    0.000    1.333    0.000    5.500    0.000   12.333 
#    0.000    1.667    0.000    0.000    0.000    0.000 
#    0.000    0.000    0.000    0.000    0.000    0.000 
#
# Total GULP energy -595575.219127 kJ/mol
# GULP energy per Si atom -12407.817065 kJ/mol
# Density = 2.028905 g / cm^3
# Si number density = 20.335331 Si / 1000 Ang^3
#
#
#
# Elastic Constant Matrix: (Units=GPa)
#
#
# Indices 1 2 3 4 5 6 
#
# 1 84.2085 4.4479 19.0124 0.0000 0.0000 0.0000
# 2 4.4479 74.9868 22.7617 0.0000 0.0000 0.0000
# 3 19.0124 22.7617 54.9071 0.0000 0.0000 0.0000
# 4 0.0000 0.0000 0.0000 -42.4159 0.0000 0.0000
# 5 0.0000 0.0000 0.0000 0.0000 30.7881 0.0000
# 6 0.0000 0.0000 0.0000 0.0000 0.0000 37.5899
#
#
#
# Elastic Compliance Matrix: (Units=1/GPa)
#
#
# Indices 1 2 3 4 5 6 
#
# 1 0.012912 0.000676 -0.004751 0.000000 0.000000 0.000000
# 2 0.000676 0.015291 -0.006573 0.000000 0.000000 0.000000
# 3 -0.004751 -0.006573 0.022583 0.000000 0.000000 0.000000
# 4 0.000000 0.000000 0.000000 -0.023576 0.000000 0.000000
# 5 0.000000 0.000000 0.000000 0.000000 0.032480 0.000000
# 6 0.000000 0.000000 0.000000 0.000000 0.000000 0.026603
#
#
# Mechanical properties :
#
#
# Convention : Reuss Voigt Hill
#
# Bulk Modulus (GPa) = 33.91027 34.06071 33.98549
# Shear Modulus (GPa) = 42.58265 16.38444 29.48355
#
# Velocity S-wave (km/s) = 4.58101 2.84159 3.81184
# Velocity P-wave (km/s) = 6.68526 5.24900 6.01019
#
# Compressibility (1/GPa) = 0.02948959
#
# Stress axis : x y z
#
# Youngs Moduli (GPa) = 77.44532 65.39903 44.28175
#
# Poissons Ratio (x) = -0.04423 0.21040
# Poissons Ratio (y) = -0.05238 0.29106
# Poissons Ratio (z) = 0.36798 0.42987
#
# Static dielectric constant tensor:
#      x y z
#    x 3.781800 0.000000 0.000000 
#    y 0.000000 3.765040 0.000000 
#    z 0.000000 0.000000 3.717110 
# 
# 
# High freq. dielectric constant tensor:
#      x y z
#    x 1.809450 0.000000 0.000000 
#    y 0.000000 1.809210 0.000000 
#    z 0.000000 0.000000 1.793060 
# 
# From -- ./inp_files/5901.got.cif
#   From: 2010.06.25/outbox.cif.g09.slc.cpg/sg58_3_cif.got.tgz:5901.got - 2010.06.26 21:38:00.
