data_PCOD8238713
_publ_section_title
;
Structure prediction by ZEFSAII (Michael W. Deem and Ramdas Pophale) SiO2 
 PCOD8238713
Probable space group: P N N M
;
_chemical_formula_sum "Si O2"
_cell_formula_units_Z 40
_cell_length_a 9.089761
_cell_length_b 12.342713
_cell_length_c 16.482716
_cell_angle_alpha 90.000000
_cell_angle_beta 90.000000
_cell_angle_gamma 90.000000
_cell_volume 1849.234004
_symmetry_space_group_name_H-M "P N N M"
_symmetry_group_IT_number 58
_symmetry_cell_setting 'orthorhombic'
loop_
_space_group_symop_operation_xyz
x,y,z
-x,-y,z
1/2+x,1/2-y,1/2-z
1/2-x,1/2+y,1/2-z
-x,-y,-z
x,y,-z
1/2-x,1/2+y,1/2+z
1/2+x,1/2-y,1/2+z
loop_
_atom_site_type_symbol
_atom_site_label
_atom_site_fract_x
_atom_site_fract_y
_atom_site_fract_z
Si Si1 0.836008 0.455412 0.280503
Si Si2 0.415539 0.887287 0.591001
Si Si3 0.158991 0.947787 0.906428
Si Si4 0.123096 0.920526 0.664019
Si Si5 0.411425 0.259086 0.706180
O O1 0.780265 0.465684 0.373791
O O2 0.725363 0.531547 0.233282
O O3 0.811561 0.336635 0.243143
O O4 0.000000 0.500000 0.272889
O O5 0.463001 0.853169 0.500000
O O6 0.236977 0.893576 0.591644
O O7 0.454619 0.795046 0.656387
O O8 0.500000 0.000000 0.613886
O O9 0.175216 0.833670 0.858493
O O10 0.190936 0.924757 0.000000
O O11 0.000000 0.000000 0.891309
O O12 0.038159 0.823665 0.712131
O O13 0.000000 0.000000 0.627772
#
# Coordination Sequence:
#
# PCOD8238713 Si02
#       5
#     8   8   8   8   8
#     4  11  21  39  63  94 125 167 226 270 314 392
#     4  11  23  42  65  93 131 172 218 270 329 391
#     4  10  24  41  61  93 135 171 214 278 339 390
#     4  11  24  38  64  96 129 165 217 271 324 382
#     4  11  21  38  68  90 123 173 220 261 315 400
#
# _framework density 21.630579000000001
#
# number of rings (size 3 to 8) (size 9 to 14) (size 15 to 20)
#    0.000    1.200    4.000    3.000    5.600    0.800 
#    0.000    0.000    0.000    0.000    0.000    0.000 
#    0.000    0.000    0.000    0.000    0.000    0.000 
#
# Total GULP energy -495535.171831 kJ/mol
# GULP energy per Si atom -12388.379296 kJ/mol
# Density = 2.158135 g / cm^3
# Si number density = 21.630579 Si / 1000 Ang^3
#
#
#
# Elastic Constant Matrix: (Units=GPa)
#
#
# Indices 1 2 3 4 5 6 
#
# 1 102.5081 36.3904 36.0182 0.0000 0.0000 0.0000
# 2 36.3904 114.6419 66.8868 0.0000 0.0000 0.0000
# 3 36.0182 66.8868 108.7062 0.0000 0.0000 0.0000
# 4 0.0000 0.0000 0.0000 84.8479 0.0000 0.0000
# 5 0.0000 0.0000 0.0000 0.0000 28.0727 0.0000
# 6 0.0000 0.0000 0.0000 0.0000 0.0000 30.6119
#
#
#
# Elastic Compliance Matrix: (Units=1/GPa)
#
#
# Indices 1 2 3 4 5 6 
#
# 1 0.011387 -0.002205 -0.002416 0.000000 0.000000 0.000000
# 2 -0.002205 0.014035 -0.007905 0.000000 0.000000 0.000000
# 3 -0.002416 -0.007905 0.014864 0.000000 0.000000 0.000000
# 4 0.000000 0.000000 0.000000 0.011786 0.000000 0.000000
# 5 0.000000 0.000000 0.000000 0.000000 0.035622 0.000000
# 6 0.000000 0.000000 0.000000 0.000000 0.000000 0.032667
#
#
# Mechanical properties :
#
#
# Convention : Reuss Voigt Hill
#
# Bulk Modulus (GPa) = 65.64610 67.16076 66.40343
# Shear Modulus (GPa) = 33.22472 41.14389 37.18431
#
# Velocity S-wave (km/s) = 3.92344 4.36606 4.15066
# Velocity P-wave (km/s) = 7.13717 7.51884 7.33049
#
# Compressibility (1/GPa) = 0.01523320
#
# Stress axis : x y z
#
# Youngs Moduli (GPa) = 87.81911 71.25136 67.27790
#
# Poissons Ratio (x) = 0.15709 0.16257
# Poissons Ratio (y) = 0.19362 0.53184
# Poissons Ratio (z) = 0.21220 0.56325
#
# Static dielectric constant tensor:
#      x y z
#    x 5.927730 0.000000 0.000000 
#    y 0.000000 4.285530 0.000000 
#    z 0.000000 0.000000 4.152750 
# 
# 
# High freq. dielectric constant tensor:
#      x y z
#    x 1.831740 0.000000 0.000000 
#    y 0.000000 1.851360 0.000000 
#    z 0.000000 0.000000 1.848610 
# 
# From -- ./inp_files/24935.got.cif
#   From: 2010.06.25/outbox.cif.g09.slc.cpg/sg58_13_cif.got.tgz:24935.got - 2010.06.26 21:38:00.
