data_PCOD8238247
_publ_section_title
;
Structure prediction by ZEFSAII (Michael W. Deem and Ramdas Pophale) SiO2 
 PCOD8238247
Probable space group: P N N M
;
_chemical_formula_sum "Si O2"
_cell_formula_units_Z 44
_cell_length_a 13.319936
_cell_length_b 14.505994
_cell_length_c 11.565466
_cell_angle_alpha 90.000000
_cell_angle_beta 90.000000
_cell_angle_gamma 90.000000
_cell_volume 2234.666754
_symmetry_space_group_name_H-M "P N N M"
_symmetry_group_IT_number 58
_symmetry_cell_setting 'orthorhombic'
loop_
_space_group_symop_operation_xyz
x,y,z
-x,-y,z
1/2+x,1/2-y,1/2-z
1/2-x,1/2+y,1/2-z
-x,-y,-z
x,y,-z
1/2-x,1/2+y,1/2+z
1/2+x,1/2-y,1/2+z
loop_
_atom_site_type_symbol
_atom_site_label
_atom_site_fract_x
_atom_site_fract_y
_atom_site_fract_z
Si Si1 0.011766 0.606648 0.366238
Si Si2 0.176613 0.292082 0.282989
Si Si3 0.256023 0.679959 0.000000
Si Si4 0.115563 0.996887 0.500000
Si Si5 0.615398 0.973668 0.500000
Si Si6 0.257815 0.471133 0.200580
Si Si7 0.744020 0.862984 0.133935
O O1 0.979284 0.610270 0.500000
O O2 0.940085 0.678550 0.297594
O O3 0.000000 0.500000 0.322607
O O4 0.124118 0.643532 0.347320
O O5 0.225167 0.238279 0.387757
O O6 0.239760 0.385480 0.282702
O O7 0.197243 0.231149 0.168053
O O8 0.334578 0.596866 0.000000
O O9 0.142818 0.636338 0.000000
O O10 0.148660 0.946100 0.382432
O O11 0.000000 0.000000 0.500000
O O12 0.500000 0.000000 0.500000
O O13 0.661447 0.014686 0.382294
O O14 0.284878 0.556951 0.282643
O O15 0.768226 0.884783 0.000000
#
# Coordination Sequence:
#
# PCOD8238247 Si02
#       7
#     8   8   4   4   4   8   8
#     4  10  21  38  67  96 121 169 221 265 322 389
#     4  12  22  39  65  94 135 162 215 276 323 380
#     4  10  22  40  63  98 123 173 218 263 322 390
#     4  10  22  46  68  84 126 177 224 262 320 396
#     4  10  22  42  64  90 130 175 216 273 335 390
#     4  10  23  40  63  96 125 169 216 273 329 381
#     4  11  24  41  63  98 132 167 221 267 331 396
#
# _framework density 19.689734999999999
#
# number of rings (size 3 to 8) (size 9 to 14) (size 15 to 20)
#    0.000    1.636    6.364    0.000    6.364    1.455 
#    0.000    0.000    2.000    0.545    0.000    0.000 
#    0.000    0.000    0.000    0.000    0.000    0.000 
#
# Total GULP energy -545316.049212 kJ/mol
# GULP energy per Si atom -12393.546573 kJ/mol
# Density = 1.964492 g / cm^3
# Si number density = 19.689735 Si / 1000 Ang^3
#
#
#
# Elastic Constant Matrix: (Units=GPa)
#
#
# Indices 1 2 3 4 5 6 
#
# 1 93.5769 4.6745 23.0462 0.0000 0.0000 0.0000
# 2 4.6745 74.9353 12.6858 0.0000 0.0000 0.0000
# 3 23.0462 12.6858 85.5187 0.0000 0.0000 0.0000
# 4 0.0000 0.0000 0.0000 70.7015 0.0000 0.0000
# 5 0.0000 0.0000 0.0000 0.0000 26.6494 0.0000
# 6 0.0000 0.0000 0.0000 0.0000 0.0000 28.6296
#
#
#
# Elastic Compliance Matrix: (Units=1/GPa)
#
#
# Indices 1 2 3 4 5 6 
#
# 1 0.011449 -0.000197 -0.003056 0.000000 0.000000 0.000000
# 2 -0.000197 0.013692 -0.001978 0.000000 0.000000 0.000000
# 3 -0.003056 -0.001978 0.012810 0.000000 0.000000 0.000000
# 4 0.000000 0.000000 0.000000 0.014144 0.000000 0.000000
# 5 0.000000 0.000000 0.000000 0.000000 0.037524 0.000000
# 6 0.000000 0.000000 0.000000 0.000000 0.000000 0.034929
#
#
# Mechanical properties :
#
#
# Convention : Reuss Voigt Hill
#
# Bulk Modulus (GPa) = 36.37780 37.20488 36.79134
# Shear Modulus (GPa) = 34.68047 39.43774 37.05910
#
# Velocity S-wave (km/s) = 4.20139 4.48030 4.34309
# Velocity P-wave (km/s) = 6.48469 6.76023 6.62389
#
# Compressibility (1/GPa) = 0.02748929
#
# Stress axis : x y z
#
# Youngs Moduli (GPa) = 87.34469 73.03551 78.06185
#
# Poissons Ratio (x) = 0.01437 0.23857
# Poissons Ratio (y) = 0.01719 0.15441
# Poissons Ratio (z) = 0.26694 0.14447
#
# Static dielectric constant tensor:
#      x y z
#    x 3.436580 0.000000 0.000000 
#    y 0.000000 3.722590 0.000000 
#    z 0.000000 0.000000 3.391880 
# 
# 
# High freq. dielectric constant tensor:
#      x y z
#    x 1.744510 0.000000 0.000000 
#    y 0.000000 1.765990 0.000000 
#    z 0.000000 0.000000 1.783290 
# 
# From -- ./inp_files/15537.got.cif
#   From: 2010.06.25/outbox.cif.g09.slc.cpg/sg58_8_cif.got.tgz:15537.got - 2010.06.26 21:38:00.
