data_PCOD8238095
_publ_section_title
;
Structure prediction by ZEFSAII (Michael W. Deem and Ramdas Pophale) SiO2 
 PCOD8238095
Probable space group: P N N M
;
_chemical_formula_sum "Si O2"
_cell_formula_units_Z 64
_cell_length_a 12.834046
_cell_length_b 28.891021
_cell_length_c 8.922542
_cell_angle_alpha 90.000000
_cell_angle_beta 90.000000
_cell_angle_gamma 90.000000
_cell_volume 3308.377682
_symmetry_space_group_name_H-M "P N N M"
_symmetry_group_IT_number 58
_symmetry_cell_setting 'orthorhombic'
loop_
_space_group_symop_operation_xyz
x,y,z
-x,-y,z
1/2+x,1/2-y,1/2-z
1/2-x,1/2+y,1/2-z
-x,-y,-z
x,y,-z
1/2-x,1/2+y,1/2+z
1/2+x,1/2-y,1/2+z
loop_
_atom_site_type_symbol
_atom_site_label
_atom_site_fract_x
_atom_site_fract_y
_atom_site_fract_z
Si Si1 0.372553 0.049429 0.177615
Si Si2 0.983203 0.242949 0.673945
Si Si3 0.720243 0.795605 0.164848
Si Si4 0.149893 0.290533 0.833145
Si Si5 0.291442 0.616236 0.823749
Si Si6 0.894210 0.554955 0.323018
Si Si7 0.498347 0.644363 0.324301
Si Si8 0.232316 0.868892 0.175838
O O1 0.280128 0.075312 0.261908
O O2 0.487441 0.069137 0.224050
O O3 0.366569 0.996367 0.233583
O O4 0.355801 0.053858 0.000000
O O5 0.004552 0.233025 0.500000
O O6 0.867654 0.259232 0.709434
O O7 0.048801 0.288025 0.727894
O O8 0.004302 0.196139 0.762779
O O9 0.821229 0.763631 0.159443
O O10 0.734426 0.835530 0.286258
O O11 0.699202 0.817991 0.000000
O O12 0.239051 0.321956 0.760955
O O13 0.124742 0.309159 0.000000
O O14 0.406801 0.614055 0.751207
O O15 0.303295 0.611006 0.000000
O O16 0.888673 0.554322 0.500000
O O17 0.807803 0.590685 0.259933
O O18 0.475114 0.646295 0.500000
O O19 0.610540 0.620295 0.291007
O O20 0.250446 0.861364 0.000000
#
# Coordination Sequence:
#
# PCOD8238095 Si02
#       8
#     8   8   8   8   8   8   8   8
#     4   9  18  38  66  89 115 146 183 230 289 349
#     4  11  22  37  55  76 108 150 193 238 281 329
#     4  10  22  38  55  77 111 153 195 235 279 333
#     4  11  22  36  54  81 116 152 192 230 280 339
#     4  12  25  38  57  84 116 152 196 238 284 342
#     4   8  17  37  65  92 113 144 184 230 287 350
#     4  11  22  37  57  80 113 153 192 237 284 333
#     4  10  21  37  59  87 115 147 194 239 283 339
#
# _framework density 19.344830000000002
#
# number of rings (size 3 to 8) (size 9 to 14) (size 15 to 20)
#    0.000    1.750    2.500    3.000    1.750    2.000 
#    0.000    2.500    0.000    3.750    0.000    0.000 
#    0.000    0.000    0.000    0.000    0.000    0.000 
#
# Total GULP energy -793282.543287 kJ/mol
# GULP energy per Si atom -12395.039739 kJ/mol
# Density = 1.930080 g / cm^3
# Si number density = 19.344830 Si / 1000 Ang^3
#
#
#
# Elastic Constant Matrix: (Units=GPa)
#
#
# Indices 1 2 3 4 5 6 
#
# 1 138.6027 54.6453 59.5308 0.0000 0.0000 0.0000
# 2 54.6453 71.9564 34.2212 0.0000 0.0000 0.0000
# 3 59.5308 34.2212 93.8585 0.0000 0.0000 0.0000
# 4 0.0000 0.0000 0.0000 23.7880 0.0000 0.0000
# 5 0.0000 0.0000 0.0000 0.0000 21.2198 0.0000
# 6 0.0000 0.0000 0.0000 0.0000 0.0000 39.0090
#
#
#
# Elastic Compliance Matrix: (Units=1/GPa)
#
#
# Indices 1 2 3 4 5 6 
#
# 1 0.012106 -0.006705 -0.005234 0.000000 0.000000 0.000000
# 2 -0.006705 0.020526 -0.003231 0.000000 0.000000 0.000000
# 3 -0.005234 -0.003231 0.015152 0.000000 0.000000 0.000000
# 4 0.000000 0.000000 0.000000 0.042038 0.000000 0.000000
# 5 0.000000 0.000000 0.000000 0.000000 0.047126 0.000000
# 6 0.000000 0.000000 0.000000 0.000000 0.000000 0.025635
#
#
# Mechanical properties :
#
#
# Convention : Reuss Voigt Hill
#
# Bulk Modulus (GPa) = 57.32509 66.80136 62.06322
# Shear Modulus (GPa) = 25.15883 27.20472 26.18177
#
# Velocity S-wave (km/s) = 3.61022 3.75414 3.68288
# Velocity P-wave (km/s) = 6.86119 7.30741 7.08781
#
# Compressibility (1/GPa) = 0.01744437
#
# Stress axis : x y z
#
# Youngs Moduli (GPa) = 82.60214 48.71955 65.99703
#
# Poissons Ratio (x) = 0.32664 0.34543
# Poissons Ratio (y) = 0.55381 0.21326
# Poissons Ratio (z) = 0.43234 0.15743
#
# Static dielectric constant tensor:
#      x y z
#    x 3.914110 0.000000 0.000000 
#    y 0.000000 3.454580 0.000000 
#    z 0.000000 0.000000 3.410370 
# 
# 
# High freq. dielectric constant tensor:
#      x y z
#    x 1.769580 0.000000 0.000000 
#    y 0.000000 1.731640 0.000000 
#    z 0.000000 0.000000 1.740520 
# 
# From -- ./inp_files/4814.got.cif
#   From: 2010.06.25/outbox.cif.g09.slc.cpg/sg58_3_cif.got.tgz:4814.got - 2010.06.26 21:38:00.
