data_PCOD8238519
_publ_section_title
;
Structure prediction by ZEFSAII (Michael W. Deem and Ramdas Pophale) SiO2 
 PCOD8238519
Probable space group: P N N M
;
_chemical_formula_sum "Si O2"
_cell_formula_units_Z 64
_cell_length_a 23.602118
_cell_length_b 15.196457
_cell_length_c 8.823820
_cell_angle_alpha 90.000000
_cell_angle_beta 90.000000
_cell_angle_gamma 90.000000
_cell_volume 3164.826913
_symmetry_space_group_name_H-M "P N N M"
_symmetry_group_IT_number 58
_symmetry_cell_setting 'orthorhombic'
loop_
_space_group_symop_operation_xyz
x,y,z
-x,-y,z
1/2+x,1/2-y,1/2-z
1/2-x,1/2+y,1/2-z
-x,-y,-z
x,y,-z
1/2-x,1/2+y,1/2+z
1/2+x,1/2-y,1/2+z
loop_
_atom_site_type_symbol
_atom_site_label
_atom_site_fract_x
_atom_site_fract_y
_atom_site_fract_z
Si Si1 0.079141 0.256585 0.174770
Si Si2 0.752005 0.158564 0.321051
Si Si3 0.248190 0.155635 0.321565
Si Si4 0.947409 0.247415 0.824137
Si Si5 0.628580 0.910721 0.677099
Si Si6 0.624103 0.599027 0.178551
Si Si7 0.854445 0.587366 0.677657
Si Si8 0.142919 0.078530 0.177213
O O1 0.108710 0.328356 0.278973
O O2 0.103010 0.160805 0.215421
O O3 0.013076 0.257306 0.212092
O O4 0.091022 0.280497 0.000000
O O5 0.747238 0.157938 0.500000
O O6 0.733699 0.253651 0.261195
O O7 0.814907 0.134792 0.265838
O O8 0.707434 0.088479 0.255614
O O9 0.243873 0.170162 0.500000
O O10 0.310021 0.123861 0.272305
O O11 0.202281 0.084543 0.267060
O O12 0.917427 0.338110 0.776419
O O13 0.923658 0.168346 0.723768
O O14 0.935665 0.226038 0.000000
O O15 0.626507 0.932158 0.500000
O O16 0.613577 0.999386 0.767383
O O17 0.610674 0.507977 0.263669
O O18 0.622919 0.583202 0.000000
O O19 0.845847 0.585349 0.500000
O O20 0.155555 0.070771 0.000000
#
# Coordination Sequence:
#
# PCOD8238519 Si02
#       8
#     8   8   8   8   8   8   8   8
#     4  10  23  43  65  88 119 161 209 257 305 361
#     4  11  22  38  61  89 124 162 198 242 304 370
#     4  11  21  36  62  94 124 155 197 250 307 363
#     4  10  22  43  67  89 117 161 211 254 303 366
#     4  10  22  40  63  90 123 159 198 249 304 366
#     4  11  24  40  62  92 126 161 199 254 309 359
#     4  12  25  39  62  92 124 161 202 252 304 362
#     4  11  23  39  62  90 123 164 204 247 301 365
#
# _framework density 20.222275
#
# number of rings (size 3 to 8) (size 9 to 14) (size 15 to 20)
#    0.000    1.250    2.500    3.375    0.000    8.000 
#    0.000    5.000    0.000    0.000    0.000    0.000 
#    0.000    0.000    0.000    0.000    0.000    0.000 
#
# Total GULP energy -794104.878439 kJ/mol
# GULP energy per Si atom -12407.888726 kJ/mol
# Density = 2.017625 g / cm^3
# Si number density = 20.222275 Si / 1000 Ang^3
#
#
#
# Elastic Constant Matrix: (Units=GPa)
#
#
# Indices 1 2 3 4 5 6 
#
# 1 94.3309 28.3382 35.3117 0.0000 0.0000 0.0000
# 2 28.3382 113.1785 45.4695 0.0000 0.0000 0.0000
# 3 35.3117 45.4695 84.0045 0.0000 0.0000 0.0000
# 4 0.0000 0.0000 0.0000 36.1284 0.0000 0.0000
# 5 0.0000 0.0000 0.0000 0.0000 24.9066 0.0000
# 6 0.0000 0.0000 0.0000 0.0000 0.0000 13.1644
#
#
#
# Elastic Compliance Matrix: (Units=1/GPa)
#
#
# Indices 1 2 3 4 5 6 
#
# 1 0.012735 -0.001326 -0.004635 0.000000 0.000000 0.000000
# 2 -0.001326 0.011429 -0.005629 0.000000 0.000000 0.000000
# 3 -0.004635 -0.005629 0.016899 0.000000 0.000000 0.000000
# 4 0.000000 0.000000 0.000000 0.027679 0.000000 0.000000
# 5 0.000000 0.000000 0.000000 0.000000 0.040150 0.000000
# 6 0.000000 0.000000 0.000000 0.000000 0.000000 0.075962
#
#
# Mechanical properties :
#
#
# Convention : Reuss Voigt Hill
#
# Bulk Modulus (GPa) = 55.92088 56.63920 56.28004
# Shear Modulus (GPa) = 23.36500 26.99951 25.18225
#
# Velocity S-wave (km/s) = 3.40282 3.65792 3.53267
# Velocity P-wave (km/s) = 6.56902 6.77566 6.67314
#
# Compressibility (1/GPa) = 0.01788241
#
# Stress axis : x y z
#
# Youngs Moduli (GPa) = 78.52662 87.49638 59.17453
#
# Poissons Ratio (x) = 0.11605 0.27428
# Poissons Ratio (y) = 0.10416 0.33308
# Poissons Ratio (z) = 0.36398 0.49249
#
# Static dielectric constant tensor:
#      x y z
#    x 3.684640 0.000000 0.000000 
#    y 0.000000 3.755940 0.000000 
#    z 0.000000 0.000000 3.563960 
# 
# 
# High freq. dielectric constant tensor:
#      x y z
#    x 1.787090 0.000000 0.000000 
#    y 0.000000 1.802750 0.000000 
#    z 0.000000 0.000000 1.788850 
# 
# From -- ./inp_files/9969.got.cif
#   From: 2010.06.25/outbox.cif.g09.slc.cpg/sg58_5_cif.got.tgz:9969.got - 2010.06.26 21:38:00.
