data_PCOD8238598
_publ_section_title
;
Structure prediction by ZEFSAII (Michael W. Deem and Ramdas Pophale) SiO2 
 PCOD8238598
Probable space group: P N N M
;
_chemical_formula_sum "Si O2"
_cell_formula_units_Z 24
_cell_length_a 5.016335
_cell_length_b 7.913849
_cell_length_c 28.297594
_cell_angle_alpha 90.000000
_cell_angle_beta 90.000000
_cell_angle_gamma 90.000000
_cell_volume 1123.372537
_symmetry_space_group_name_H-M "P N N M"
_symmetry_group_IT_number 58
_symmetry_cell_setting 'orthorhombic'
loop_
_space_group_symop_operation_xyz
x,y,z
-x,-y,z
1/2+x,1/2-y,1/2-z
1/2-x,1/2+y,1/2-z
-x,-y,-z
x,y,-z
1/2-x,1/2+y,1/2+z
1/2+x,1/2-y,1/2+z
loop_
_atom_site_type_symbol
_atom_site_label
_atom_site_fract_x
_atom_site_fract_y
_atom_site_fract_z
Si Si1 0.248476 0.115606 0.869036
Si Si2 0.085963 0.308062 0.776424
Si Si3 0.741292 0.112395 0.553177
O O1 0.194875 0.238662 0.825477
O O2 0.302110 0.224720 0.915499
O O3 0.500000 0.000000 0.856510
O O4 0.000000 0.000000 0.880578
O O5 0.328425 0.300893 0.738958
O O6 0.000000 0.500000 0.782662
O O7 0.670248 0.173012 0.500000
O O8 0.500000 0.000000 0.574175
O O9 0.000000 0.000000 0.553192
#
# Coordination Sequence:
#
# PCOD8238598 Si02
#       3
#     8   8   8
#     4  12  25  41  63  94 128 162 206 254 308 367
#     4  12  25  43  65  90 124 163 206 254 307 364
#     4  10  22  42  66  92 124 164 208 253 307 367
#
# _framework density 21.364239999999999
#
# number of rings (size 3 to 8) (size 9 to 14) (size 15 to 20)
#    0.000    0.667    0.000    9.000    0.000    4.000 
#    0.000    0.000    0.000    0.000    0.000    0.000 
#    0.000    0.000    0.000    0.000    0.000    0.000 
#
# Total GULP energy -297788.986601 kJ/mol
# GULP energy per Si atom -12407.874442 kJ/mol
# Density = 2.131561 g / cm^3
# Si number density = 21.364240 Si / 1000 Ang^3
#
#
#
# Elastic Constant Matrix: (Units=GPa)
#
#
# Indices 1 2 3 4 5 6 
#
# 1 148.2208 56.8305 42.6699 0.0000 0.0000 0.0000
# 2 56.8305 139.2078 81.2912 0.0000 0.0000 0.0000
# 3 42.6699 81.2912 121.2586 0.0000 0.0000 0.0000
# 4 0.0000 0.0000 0.0000 64.2633 0.0000 0.0000
# 5 0.0000 0.0000 0.0000 0.0000 32.9760 0.0000
# 6 0.0000 0.0000 0.0000 0.0000 0.0000 46.6782
#
#
#
# Elastic Compliance Matrix: (Units=1/GPa)
#
#
# Indices 1 2 3 4 5 6 
#
# 1 0.008077 -0.002691 -0.001038 0.000000 0.000000 0.000000
# 2 -0.002691 0.012702 -0.007568 0.000000 0.000000 0.000000
# 3 -0.001038 -0.007568 0.013686 0.000000 0.000000 0.000000
# 4 0.000000 0.000000 0.000000 0.015561 0.000000 0.000000
# 5 0.000000 0.000000 0.000000 0.000000 0.030325 0.000000
# 6 0.000000 0.000000 0.000000 0.000000 0.000000 0.021423
#
#
# Mechanical properties :
#
#
# Convention : Reuss Voigt Hill
#
# Bulk Modulus (GPa) = 84.24756 85.58559 84.91658
# Shear Modulus (GPa) = 38.96333 43.97654 41.46994
#
# Velocity S-wave (km/s) = 4.27519 4.54190 4.41056
# Velocity P-wave (km/s) = 7.99307 8.22510 8.10992
#
# Compressibility (1/GPa) = 0.01186978
#
# Stress axis : x y z
#
# Youngs Moduli (GPa) = 123.80134 78.73007 73.06883
#
# Poissons Ratio (x) = 0.21189 0.07586
# Poissons Ratio (y) = 0.33319 0.55299
# Poissons Ratio (z) = 0.12852 0.59583
#
# Static dielectric constant tensor:
#      x y z
#    x 4.256660 0.000000 0.000000 
#    y 0.000000 3.763790 0.000000 
#    z 0.000000 0.000000 4.026830 
# 
# 
# High freq. dielectric constant tensor:
#      x y z
#    x 1.862510 0.000000 0.000000 
#    y 0.000000 1.843620 0.000000 
#    z 0.000000 0.000000 1.845140 
# 
# From -- ./inp_files/30677.got.cif
#   From: 2010.06.25/outbox.cif.g09.slc.cpg/sg58_16_cif.got.tgz:30677.got - 2010.06.26 21:38:00.
