data_PCOD8238138
_publ_section_title
;
Structure prediction by ZEFSAII (Michael W. Deem and Ramdas Pophale) SiO2 
 PCOD8238138
Probable space group: P N N M
;
_chemical_formula_sum "Si O2"
_cell_formula_units_Z 32
_cell_length_a 21.904465
_cell_length_b 8.930350
_cell_length_c 8.340454
_cell_angle_alpha 90.000000
_cell_angle_beta 90.000000
_cell_angle_gamma 90.000000
_cell_volume 1631.514064
_symmetry_space_group_name_H-M "P N N M"
_symmetry_group_IT_number 58
_symmetry_cell_setting 'orthorhombic'
loop_
_space_group_symop_operation_xyz
x,y,z
-x,-y,z
1/2+x,1/2-y,1/2-z
1/2-x,1/2+y,1/2-z
-x,-y,-z
x,y,-z
1/2-x,1/2+y,1/2+z
1/2+x,1/2-y,1/2+z
loop_
_atom_site_type_symbol
_atom_site_label
_atom_site_fract_x
_atom_site_fract_y
_atom_site_fract_z
Si Si1 0.854034 0.784443 0.750655
Si Si2 0.547790 0.779961 0.000000
Si Si3 0.250421 0.217890 0.000000
Si Si4 0.987433 0.826797 0.176631
Si Si5 0.347510 0.461818 0.000000
Si Si6 0.144445 0.472557 0.500000
O O1 0.916181 0.791100 0.851102
O O2 0.852252 0.630192 0.655050
O O3 0.853604 0.936467 0.653218
O O4 0.791972 0.791261 0.847120
O O5 0.509516 0.766781 0.166668
O O6 0.597553 0.652542 0.000000
O O7 0.579710 0.941716 0.000000
O O8 0.283269 0.377710 0.000000
O O9 0.298804 0.084414 0.000000
O O10 0.017518 0.785489 0.000000
O O11 0.000000 0.000000 0.214678
#
# Coordination Sequence:
#
# PCOD8238138 Si02
#       6
#     8   4   4   8   4   4
#     4  11  21  40  61  90 121 163 204 262 306 371
#     4  11  21  42  63  92 127 164 195 263 305 372
#     4  11  22  40  61  90 123 158 209 263 309 372
#     4  11  22  38  65  98 124 163 214 252 310 380
#     4  10  21  37  65  82 118 165 203 240 321 369
#     4  10  25  40  62  93 125 162 211 248 327 369
#
# _framework density 19.613683000000002
#
# number of rings (size 3 to 8) (size 9 to 14) (size 15 to 20)
#    0.000    1.250    3.750    3.375    0.000    2.000 
#    2.250    1.250    5.500    0.000    0.000    0.000 
#    0.000    0.000    0.000    0.000    0.000    0.000 
#
# Total GULP energy -396552.905377 kJ/mol
# GULP energy per Si atom -12392.278293 kJ/mol
# Density = 1.956904 g / cm^3
# Si number density = 19.613683 Si / 1000 Ang^3
#
#
#
# Elastic Constant Matrix: (Units=GPa)
#
#
# Indices 1 2 3 4 5 6 
#
# 1 93.7455 14.9531 23.6013 0.0000 0.0000 0.0000
# 2 14.9531 81.9325 20.1663 0.0000 0.0000 0.0000
# 3 23.6013 20.1663 120.6795 0.0000 0.0000 0.0000
# 4 0.0000 0.0000 0.0000 273.3252 0.0000 0.0000
# 5 0.0000 0.0000 0.0000 0.0000 34.7955 0.0000
# 6 0.0000 0.0000 0.0000 0.0000 0.0000 25.5920
#
#
#
# Elastic Compliance Matrix: (Units=1/GPa)
#
#
# Indices 1 2 3 4 5 6 
#
# 1 0.011417 -0.001600 -0.001966 0.000000 0.000000 0.000000
# 2 -0.001600 0.012953 -0.001852 0.000000 0.000000 0.000000
# 3 -0.001966 -0.001852 0.008980 0.000000 0.000000 0.000000
# 4 0.000000 0.000000 0.000000 0.003659 0.000000 0.000000
# 5 0.000000 0.000000 0.000000 0.000000 0.028739 0.000000
# 6 0.000000 0.000000 0.000000 0.000000 0.000000 0.039075
#
#
# Mechanical properties :
#
#
# Convention : Reuss Voigt Hill
#
# Bulk Modulus (GPa) = 44.41238 45.97767 45.19502
# Shear Modulus (GPa) = 40.59674 82.58498 61.59086
#
# Velocity S-wave (km/s) = 4.55446 6.49594 5.60983
# Velocity P-wave (km/s) = 7.09579 8.93059 8.06553
#
# Compressibility (1/GPa) = 0.02251624
#
# Stress axis : x y z
#
# Youngs Moduli (GPa) = 87.58707 77.20279 111.35576
#
# Poissons Ratio (x) = 0.12352 0.21887
# Poissons Ratio (y) = 0.14013 0.20619
# Poissons Ratio (z) = 0.17215 0.14295
#
# Static dielectric constant tensor:
#      x y z
#    x 3.690760 0.000000 0.000000 
#    y 0.000000 3.637200 0.000000 
#    z 0.000000 0.000000 3.681370 
# 
# 
# High freq. dielectric constant tensor:
#      x y z
#    x 1.773070 0.000000 0.000000 
#    y 0.000000 1.766360 0.000000 
#    z 0.000000 0.000000 1.774870 
# 
# From -- ./inp_files/2221.got.cif
#   From: 2010.06.25/outbox.cif.g09.slc.cpg/sg58_2_cif.got.tgz:2221.got - 2010.06.26 21:38:00.
