data_PCOD8238954
_publ_section_title
;
Structure prediction by ZEFSAII (Michael W. Deem and Ramdas Pophale) SiO2 
 PCOD8238954
Probable space group: P N N M
;
_chemical_formula_sum "Si O2"
_cell_formula_units_Z 32
_cell_length_a 5.031968
_cell_length_b 8.612798
_cell_length_c 29.872015
_cell_angle_alpha 90.000000
_cell_angle_beta 90.000000
_cell_angle_gamma 90.000000
_cell_volume 1294.632934
_symmetry_space_group_name_H-M "P N N M"
_symmetry_group_IT_number 58
_symmetry_cell_setting 'orthorhombic'
loop_
_space_group_symop_operation_xyz
x,y,z
-x,-y,z
1/2+x,1/2-y,1/2-z
1/2-x,1/2+y,1/2-z
-x,-y,-z
x,y,-z
1/2-x,1/2+y,1/2+z
1/2+x,1/2-y,1/2+z
loop_
_atom_site_type_symbol
_atom_site_label
_atom_site_fract_x
_atom_site_fract_y
_atom_site_fract_z
Si Si1 0.394666 0.669819 0.049114
Si Si2 0.258073 0.101744 0.089476
Si Si3 0.557801 0.821402 0.362468
Si Si4 0.080090 0.818758 0.772019
O O1 0.500000 0.500000 0.059307
O O2 0.635885 0.794733 0.047698
O O3 0.201133 0.710242 0.089992
O O4 0.254424 0.674954 0.000000
O O5 0.210290 0.221565 0.130599
O O6 0.500000 0.000000 0.107703
O O7 0.000000 0.000000 0.075571
O O8 0.697524 0.742075 0.319726
O O9 0.500000 0.000000 0.353124
O O10 0.319967 0.786956 0.737671
O O11 0.000000 0.000000 0.771976
#
# Coordination Sequence:
#
# PCOD8238954 Si02
#       4
#     8   8   8   8
#     4  11  26  48  77 114 158 212 270 320 382 463
#     4  12  26  46  73 111 152 201 254 321 387 448
#     4  12  26  48  81 112 157 207 263 319 389 462
#     4  12  29  52  83 119 156 200 257 322 394 471
#
# _framework density 24.717428000000002
#
# number of rings (size 3 to 8) (size 9 to 14) (size 15 to 20)
#    0.000    0.250    5.000    3.000    3.500    3.500 
#    0.000    0.000    0.000    0.000    0.000    0.000 
#    0.000    0.000    0.000    0.000    0.000    0.000 
#
# Total GULP energy -396469.849622 kJ/mol
# GULP energy per Si atom -12389.682801 kJ/mol
# Density = 2.466117 g / cm^3
# Si number density = 24.717428 Si / 1000 Ang^3
#
#
#
# Elastic Constant Matrix: (Units=GPa)
#
#
# Indices 1 2 3 4 5 6 
#
# 1 120.2344 58.9765 41.4731 0.0000 0.0000 0.0000
# 2 58.9765 199.3195 52.4979 0.0000 0.0000 0.0000
# 3 41.4731 52.4979 155.2247 0.0000 0.0000 0.0000
# 4 0.0000 0.0000 0.0000 47.2940 0.0000 0.0000
# 5 0.0000 0.0000 0.0000 0.0000 37.7777 0.0000
# 6 0.0000 0.0000 0.0000 0.0000 0.0000 34.7415
#
#
#
# Elastic Compliance Matrix: (Units=1/GPa)
#
#
# Indices 1 2 3 4 5 6 
#
# 1 0.010201 -0.002526 -0.001871 0.000000 0.000000 0.000000
# 2 -0.002526 0.006133 -0.001399 0.000000 0.000000 0.000000
# 3 -0.001871 -0.001399 0.007416 0.000000 0.000000 0.000000
# 4 0.000000 0.000000 0.000000 0.021144 0.000000 0.000000
# 5 0.000000 0.000000 0.000000 0.000000 0.026471 0.000000
# 6 0.000000 0.000000 0.000000 0.000000 0.000000 0.028784
#
#
# Mechanical properties :
#
#
# Convention : Reuss Voigt Hill
#
# Bulk Modulus (GPa) = 82.25671 86.74151 84.49911
# Shear Modulus (GPa) = 43.18003 45.41804 44.29903
#
# Velocity S-wave (km/s) = 4.18418 4.29125 4.23805
# Velocity P-wave (km/s) = 7.52956 7.72803 7.62944
#
# Compressibility (1/GPa) = 0.01215706
#
# Stress axis : x y z
#
# Youngs Moduli (GPa) = 98.02524 163.05374 134.85111
#
# Poissons Ratio (x) = 0.41181 0.25237
# Poissons Ratio (y) = 0.24757 0.18871
# Poissons Ratio (z) = 0.18345 0.22818
#
# Static dielectric constant tensor:
#      x y z
#    x 4.607940 0.000000 0.000000 
#    y 0.000000 5.220140 0.000000 
#    z 0.000000 0.000000 4.405670 
# 
# 
# High freq. dielectric constant tensor:
#      x y z
#    x 1.972330 0.000000 0.000000 
#    y 0.000000 2.022090 0.000000 
#    z 0.000000 0.000000 1.975510 
# 
# From -- ./inp_files/33930.got.cif
#   From: 2010.06.25/outbox.cif.g09.slc.cpg/sg58_17_cif.got.tgz:33930.got - 2010.06.26 21:38:00.
