data_PCOD8238178
_publ_section_title
;
Structure prediction by ZEFSAII (Michael W. Deem and Ramdas Pophale) SiO2 
 PCOD8238178
Probable space group: P N N M
;
_chemical_formula_sum "Si O2"
_cell_formula_units_Z 64
_cell_length_a 8.690810
_cell_length_b 15.476636
_cell_length_c 23.909922
_cell_angle_alpha 90.000000
_cell_angle_beta 90.000000
_cell_angle_gamma 90.000000
_cell_volume 3215.992173
_symmetry_space_group_name_H-M "P N N M"
_symmetry_group_IT_number 58
_symmetry_cell_setting 'orthorhombic'
loop_
_space_group_symop_operation_xyz
x,y,z
-x,-y,z
1/2+x,1/2-y,1/2-z
1/2-x,1/2+y,1/2-z
-x,-y,-z
x,y,-z
1/2-x,1/2+y,1/2+z
1/2+x,1/2-y,1/2+z
loop_
_atom_site_type_symbol
_atom_site_label
_atom_site_fract_x
_atom_site_fract_y
_atom_site_fract_z
Si Si1 0.588440 0.250111 0.384246
Si Si2 0.172554 0.144093 0.649422
Si Si3 0.681238 0.010742 0.843564
Si Si4 0.867003 0.930748 0.936445
Si Si5 0.177924 0.514990 0.223041
Si Si6 0.171281 0.849207 0.315645
Si Si7 0.584587 0.911417 0.565807
Si Si8 0.187143 0.810723 0.184510
O O1 0.594836 0.329916 0.427469
O O2 0.750700 0.221742 0.356415
O O3 0.522448 0.168944 0.417994
O O4 0.482015 0.281474 0.333523
O O5 0.284338 0.106240 0.696829
O O6 0.244062 0.105309 0.591734
O O7 0.187280 0.245468 0.659484
O O8 0.993929 0.123978 0.658964
O O9 0.750434 0.106232 0.848713
O O10 0.500000 0.000000 0.841747
O O11 0.728717 0.951370 0.895005
O O12 0.753633 0.979730 0.784554
O O13 0.812435 0.943208 0.000000
O O14 0.000000 0.000000 0.922421
O O15 0.240450 0.439728 0.182955
O O16 0.000000 0.500000 0.230081
O O17 0.177670 0.816234 0.251635
O O18 0.609286 0.916379 0.500000
O O19 0.500000 0.000000 0.587084
#
# Coordination Sequence:
#
# PCOD8238178 Si02
#       8
#     8   8   8   8   8   8   8   8
#     4  11  22  40  64  89 127 165 211 253 309 386
#     4  11  22  36  61  90 125 156 200 256 310 361
#     4  10  23  39  62  88 124 161 209 260 316 366
#     4  11  24  42  65  89 120 167 221 267 309 366
#     4  10  21  38  60  90 126 166 197 245 313 393
#     4  11  23  35  59  95 128 157 201 251 312 373
#     4  10  22  43  68  88 117 164 213 253 307 374
#     4  10  22  38  56  92 122 170 201 243 310 380
#
# _framework density 19.900545999999999
#
# number of rings (size 3 to 8) (size 9 to 14) (size 15 to 20)
#    0.000    1.500    1.250    4.125    5.250    1.250 
#    0.000    1.250    0.000    3.000    0.000    0.000 
#    0.000    0.000    0.000    0.000    0.000    0.000 
#
# Total GULP energy -793060.242075 kJ/mol
# GULP energy per Si atom -12391.566282 kJ/mol
# Density = 1.985525 g / cm^3
# Si number density = 19.900546 Si / 1000 Ang^3
#
#
#
# Elastic Constant Matrix: (Units=GPa)
#
#
# Indices 1 2 3 4 5 6 
#
# 1 94.9857 31.0964 39.3188 0.0000 0.0000 0.0000
# 2 31.0964 113.1959 45.6946 0.0000 0.0000 0.0000
# 3 39.3188 45.6946 97.8885 0.0000 0.0000 0.0000
# 4 0.0000 0.0000 0.0000 135.4357 0.0000 0.0000
# 5 0.0000 0.0000 0.0000 0.0000 12.9297 0.0000
# 6 0.0000 0.0000 0.0000 0.0000 0.0000 28.7184
#
#
#
# Elastic Compliance Matrix: (Units=1/GPa)
#
#
# Indices 1 2 3 4 5 6 
#
# 1 0.012916 -0.001791 -0.004352 0.000000 0.000000 0.000000
# 2 -0.001791 0.011134 -0.004478 0.000000 0.000000 0.000000
# 3 -0.004352 -0.004478 0.014054 0.000000 0.000000 0.000000
# 4 0.000000 0.000000 0.000000 0.007384 0.000000 0.000000
# 5 0.000000 0.000000 0.000000 0.000000 0.077341 0.000000
# 6 0.000000 0.000000 0.000000 0.000000 0.000000 0.034821
#
#
# Mechanical properties :
#
#
# Convention : Reuss Voigt Hill
#
# Bulk Modulus (GPa) = 59.30554 59.80999 59.55776
# Shear Modulus (GPa) = 27.09859 48.08078 37.58968
#
# Velocity S-wave (km/s) = 3.69413 4.92067 4.35084
# Velocity P-wave (km/s) = 6.93261 7.89960 7.43185
#
# Compressibility (1/GPa) = 0.01686183
#
# Stress axis : x y z
#
# Youngs Moduli (GPa) = 77.42506 89.81525 71.15492
#
# Poissons Ratio (x) = 0.16090 0.30964
# Poissons Ratio (y) = 0.13871 0.31862
# Poissons Ratio (z) = 0.33692 0.40217
#
# Static dielectric constant tensor:
#      x y z
#    x 3.496070 0.000000 0.000000 
#    y 0.000000 4.094700 0.000000 
#    z 0.000000 0.000000 3.621200 
# 
# 
# High freq. dielectric constant tensor:
#      x y z
#    x 1.766910 0.000000 0.000000 
#    y 0.000000 1.795160 0.000000 
#    z 0.000000 0.000000 1.772820 
# 
# From -- ./inp_files/31648.got.cif
#   From: 2010.06.25/outbox.cif.g09.slc.cpg/sg58_16_cif.got.tgz:31648.got - 2010.06.26 21:38:00.
