data_PCOD8238865
_publ_section_title
;
Structure prediction by ZEFSAII (Michael W. Deem and Ramdas Pophale) SiO2 
 PCOD8238865
Probable space group: P N N M
;
_chemical_formula_sum "Si O2"
_cell_formula_units_Z 28
_cell_length_a 11.685160
_cell_length_b 11.664826
_cell_length_c 9.651843
_cell_angle_alpha 90.000000
_cell_angle_beta 90.000000
_cell_angle_gamma 90.000000
_cell_volume 1315.597917
_symmetry_space_group_name_H-M "P N N M"
_symmetry_group_IT_number 58
_symmetry_cell_setting 'orthorhombic'
loop_
_space_group_symop_operation_xyz
x,y,z
-x,-y,z
1/2+x,1/2-y,1/2-z
1/2-x,1/2+y,1/2-z
-x,-y,-z
x,y,-z
1/2-x,1/2+y,1/2+z
1/2+x,1/2-y,1/2+z
loop_
_atom_site_type_symbol
_atom_site_label
_atom_site_fract_x
_atom_site_fract_y
_atom_site_fract_z
Si Si1 0.679767 0.999471 0.000000
Si Si2 0.978371 0.861792 0.500000
Si Si3 0.500000 0.000000 0.223516
Si Si4 0.079351 0.108535 0.000000
Si Si5 0.036129 0.744237 0.214736
Si Si6 0.262803 0.247679 0.500000
O O1 0.610260 0.964910 0.135149
O O2 0.696747 0.133972 0.000000
O O3 0.790515 0.924042 0.000000
O O4 0.839217 0.846687 0.500000
O O5 0.038875 0.796919 0.369910
O O6 0.000000 0.000000 0.500000
O O7 0.518721 0.117179 0.306942
O O8 0.055381 0.177704 0.138143
O O9 0.000000 0.000000 0.000000
O O10 0.159934 0.743067 0.139119
#
# Coordination Sequence:
#
# PCOD8238865 Si02
#       6
#     4   4   4   4   8   4
#     4  11  22  44  69  96 143 199 225 278 367 440
#     4  12  26  47  71 111 146 181 249 305 345 435
#     4  11  24  41  68  98 148 184 236 288 356 436
#     4  11  23  44  74  96 134 184 240 290 359 428
#     4  11  25  46  69 106 139 187 236 296 364 426
#     4  11  25  45  73 102 147 188 235 293 362 428
#
# _framework density 21.283097999999999
#
# number of rings (size 3 to 8) (size 9 to 14) (size 15 to 20)
#    0.000    0.857    5.714    1.714    4.000    2.286 
#    0.000    0.000    0.000    0.000    0.000    0.000 
#    0.000    0.000    0.000    0.000    0.000    0.000 
#
# Total GULP energy -347008.882174 kJ/mol
# GULP energy per Si atom -12393.174363 kJ/mol
# Density = 2.123466 g / cm^3
# Si number density = 21.283098 Si / 1000 Ang^3
#
#
#
# Elastic Constant Matrix: (Units=GPa)
#
#
# Indices 1 2 3 4 5 6 
#
# 1 163.9232 44.9239 49.0366 0.0000 0.0000 0.0000
# 2 44.9239 178.4122 47.8792 0.0000 0.0000 0.0000
# 3 49.0366 47.8792 133.0849 0.0000 0.0000 0.0000
# 4 0.0000 0.0000 0.0000 25.8655 0.0000 0.0000
# 5 0.0000 0.0000 0.0000 0.0000 35.7020 0.0000
# 6 0.0000 0.0000 0.0000 0.0000 0.0000 45.8516
#
#
#
# Elastic Compliance Matrix: (Units=1/GPa)
#
#
# Indices 1 2 3 4 5 6 
#
# 1 0.007080 -0.001198 -0.002178 0.000000 0.000000 0.000000
# 2 -0.001198 0.006407 -0.001863 0.000000 0.000000 0.000000
# 3 -0.002178 -0.001863 0.008987 0.000000 0.000000 0.000000
# 4 0.000000 0.000000 0.000000 0.038662 0.000000 0.000000
# 5 0.000000 0.000000 0.000000 0.000000 0.028010 0.000000
# 6 0.000000 0.000000 0.000000 0.000000 0.000000 0.021810
#
#
# Mechanical properties :
#
#
# Convention : Reuss Voigt Hill
#
# Bulk Modulus (GPa) = 83.36830 84.34442 83.85636
# Shear Modulus (GPa) = 39.86230 43.72251 41.79240
#
# Velocity S-wave (km/s) = 4.33246 4.53739 4.43611
# Velocity P-wave (km/s) = 8.01768 8.19551 8.10708
#
# Compressibility (1/GPa) = 0.01199497
#
# Stress axis : x y z
#
# Youngs Moduli (GPa) = 141.23732 156.08386 111.27481
#
# Poissons Ratio (x) = 0.18705 0.24232
# Poissons Ratio (y) = 0.16926 0.20735
# Poissons Ratio (z) = 0.30757 0.29084
#
# Static dielectric constant tensor:
#      x y z
#    x 3.848930 0.000000 0.000000 
#    y 0.000000 4.164170 0.000000 
#    z 0.000000 0.000000 3.985030 
# 
# 
# High freq. dielectric constant tensor:
#      x y z
#    x 1.834980 0.000000 0.000000 
#    y 0.000000 1.858750 0.000000 
#    z 0.000000 0.000000 1.835960 
# 
# From -- ./inp_files/13730.got.cif
#   From: 2010.06.25/outbox.cif.g09.slc.cpg/sg58_7_cif.got.tgz:13730.got - 2010.06.26 21:38:00.
