data_PCOD8238254
_publ_section_title
;
Structure prediction by ZEFSAII (Michael W. Deem and Ramdas Pophale) SiO2 
 PCOD8238254
Probable space group: P N N M
;
_chemical_formula_sum "Si O2"
_cell_formula_units_Z 64
_cell_length_a 28.590306
_cell_length_b 12.581657
_cell_length_c 8.970000
_cell_angle_alpha 90.000000
_cell_angle_beta 90.000000
_cell_angle_gamma 90.000000
_cell_volume 3226.629410
_symmetry_space_group_name_H-M "P N N M"
_symmetry_group_IT_number 58
_symmetry_cell_setting 'orthorhombic'
loop_
_space_group_symop_operation_xyz
x,y,z
-x,-y,z
1/2+x,1/2-y,1/2-z
1/2-x,1/2+y,1/2-z
-x,-y,-z
x,y,-z
1/2-x,1/2+y,1/2+z
1/2+x,1/2-y,1/2+z
loop_
_atom_site_type_symbol
_atom_site_label
_atom_site_fract_x
_atom_site_fract_y
_atom_site_fract_z
Si Si1 0.126295 0.602178 0.671762
Si Si2 0.295794 0.935245 0.824185
Si Si3 0.481496 0.386200 0.323762
Si Si4 0.338480 0.716324 0.823904
Si Si5 0.116328 0.844358 0.672120
Si Si6 0.053514 0.470355 0.830951
Si Si7 0.441439 0.753524 0.825427
Si Si8 0.200049 0.995510 0.323554
O O1 0.113416 0.578595 0.500000
O O2 0.171653 0.534698 0.720298
O O3 0.136326 0.726153 0.698023
O O4 0.082834 0.571598 0.775929
O O5 0.318134 0.826438 0.757874
O O6 0.245796 0.949457 0.751162
O O7 0.289058 0.928108 0.000000
O O8 0.500000 0.500000 0.266921
O O9 0.481366 0.379065 0.500000
O O10 0.429610 0.366066 0.267037
O O11 0.515743 0.295859 0.263593
O O12 0.392705 0.697293 0.779778
O O13 0.308812 0.615797 0.765799
O O14 0.335540 0.724561 0.000000
O O15 0.103426 0.863771 0.500000
O O16 0.156305 0.924254 0.727024
O O17 0.064730 0.375829 0.718053
O O18 0.000000 0.500000 0.821302
O O19 0.067558 0.440056 0.000000
O O20 0.452012 0.743867 0.000000
O O21 0.206382 0.991647 0.500000
#
# Coordination Sequence:
#
# PCOD8238254 Si02
#       8
#     8   8   8   8   8   8   8   8
#     4  10  21  39  60  83 116 156 199 245 297 359
#     4  10  21  39  60  85 117 154 195 243 303 360
#     4  11  24  40  59  88 127 163 201 251 305 360
#     4   9  19  38  61  85 116 152 194 244 293 355
#     4  10  22  40  62  89 121 159 205 253 298 359
#     4  11  23  37  55  85 122 156 193 243 301 359
#     4  11  21  38  64  88 115 158 205 250 300 357
#     4  10  22  39  61  89 117 150 199 249 298 356
#
# _framework density 19.834938999999999
#
# number of rings (size 3 to 8) (size 9 to 14) (size 15 to 20)
#    0.000    1.750    1.250    2.625    1.750    6.500 
#    0.000    1.250    0.000    0.000    0.000    0.000 
#    0.000    0.000    0.000    0.000    0.000    0.000 
#
# Total GULP energy -793814.605539 kJ/mol
# GULP energy per Si atom -12403.353212 kJ/mol
# Density = 1.978979 g / cm^3
# Si number density = 19.834939 Si / 1000 Ang^3
#
#
#
# Elastic Constant Matrix: (Units=GPa)
#
#
# Indices 1 2 3 4 5 6 
#
# 1 136.5863 58.4406 45.4927 0.0000 0.0000 0.0000
# 2 58.4406 127.7612 30.0474 0.0000 0.0000 0.0000
# 3 45.4927 30.0474 48.2498 0.0000 0.0000 0.0000
# 4 0.0000 0.0000 0.0000 41.5714 0.0000 0.0000
# 5 0.0000 0.0000 0.0000 0.0000 14.2960 0.0000
# 6 0.0000 0.0000 0.0000 0.0000 0.0000 35.2665
#
#
#
# Elastic Compliance Matrix: (Units=1/GPa)
#
#
# Indices 1 2 3 4 5 6 
#
# 1 0.011712 -0.003234 -0.009029 0.000000 0.000000 0.000000
# 2 -0.003234 0.010063 -0.003218 0.000000 0.000000 0.000000
# 3 -0.009029 -0.003218 0.031242 0.000000 0.000000 0.000000
# 4 0.000000 0.000000 0.000000 0.024055 0.000000 0.000000
# 5 0.000000 0.000000 0.000000 0.000000 0.069949 0.000000
# 6 0.000000 0.000000 0.000000 0.000000 0.000000 0.028356
#
#
# Mechanical properties :
#
#
# Convention : Reuss Voigt Hill
#
# Bulk Modulus (GPa) = 45.33817 64.50651 54.92234
# Shear Modulus (GPa) = 23.39820 30.13456 26.76638
#
# Velocity S-wave (km/s) = 3.43832 3.90201 3.67748
# Velocity P-wave (km/s) = 6.21853 7.27277 6.76621
#
# Compressibility (1/GPa) = 0.02205647
#
# Stress axis : x y z
#
# Youngs Moduli (GPa) = 85.37931 99.37281 32.00772
#
# Poissons Ratio (x) = 0.32137 0.28900
# Poissons Ratio (y) = 0.27612 0.10299
# Poissons Ratio (z) = 0.77091 0.31974
#
# Static dielectric constant tensor:
#      x y z
#    x 3.626900 0.000000 0.000000 
#    y 0.000000 3.966350 0.000000 
#    z 0.000000 0.000000 3.460490 
# 
# 
# High freq. dielectric constant tensor:
#      x y z
#    x 1.781330 0.000000 0.000000 
#    y 0.000000 1.788070 0.000000 
#    z 0.000000 0.000000 1.756730 
# 
# From -- ./inp_files/11004.got.cif
#   From: 2010.06.25/outbox.cif.g09.slc.cpg/sg58_6_cif.got.tgz:11004.got - 2010.06.26 21:38:00.
