data_PCOD8238666
_publ_section_title
;
Structure prediction by ZEFSAII (Michael W. Deem and Ramdas Pophale) SiO2 
 PCOD8238666
Probable space group: P N N M
;
_chemical_formula_sum "Si O2"
_cell_formula_units_Z 32
_cell_length_a 8.789790
_cell_length_b 5.068428
_cell_length_c 31.247240
_cell_angle_alpha 90.000000
_cell_angle_beta 90.000000
_cell_angle_gamma 90.000000
_cell_volume 1392.077596
_symmetry_space_group_name_H-M "P N N M"
_symmetry_group_IT_number 58
_symmetry_cell_setting 'orthorhombic'
loop_
_space_group_symop_operation_xyz
x,y,z
-x,-y,z
1/2+x,1/2-y,1/2-z
1/2-x,1/2+y,1/2-z
-x,-y,-z
x,y,-z
1/2-x,1/2+y,1/2+z
1/2+x,1/2-y,1/2+z
loop_
_atom_site_type_symbol
_atom_site_label
_atom_site_fract_x
_atom_site_fract_y
_atom_site_fract_z
Si Si1 0.105081 0.249320 0.230945
Si Si2 0.176449 0.053034 0.682649
Si Si3 0.328619 0.568493 0.549663
Si Si4 0.176405 0.074620 0.587507
O O1 0.227684 0.286004 0.192512
O O2 0.000000 0.500000 0.231789
O O3 0.200735 0.243748 0.276012
O O4 0.000000 0.000000 0.221388
O O5 0.219637 0.164792 0.636035
O O6 0.000000 0.000000 0.681555
O O7 0.500000 0.500000 0.563763
O O8 0.321196 0.643874 0.500000
O O9 0.276768 0.821440 0.576240
O O10 0.217323 0.320908 0.557634
O O11 0.000000 0.000000 0.581659
#
# Coordination Sequence:
#
# PCOD8238666 Si02
#       4
#     8   8   8   8
#     4  11  24  41  64  92 127 173 220 264 312 371
#     4  10  23  42  63  92 131 170 214 264 318 370
#     4  11  25  46  69  95 129 167 208 261 324 386
#     4  11  25  42  67  99 131 167 211 265 319 380
#
# _framework density 22.987226
#
# number of rings (size 3 to 8) (size 9 to 14) (size 15 to 20)
#    0.000    1.250    0.000    5.250    0.000   18.000 
#    0.000    1.250    0.000    0.000    0.000    0.000 
#    0.000    0.000    0.000    0.000    0.000    0.000 
#
# Total GULP energy -396656.980982 kJ/mol
# GULP energy per Si atom -12395.530656 kJ/mol
# Density = 2.293491 g / cm^3
# Si number density = 22.987226 Si / 1000 Ang^3
#
#
#
# Elastic Constant Matrix: (Units=GPa)
#
#
# Indices 1 2 3 4 5 6 
#
# 1 110.1279 40.4057 53.9248 0.0000 0.0000 0.0000
# 2 40.4057 111.4257 13.6760 0.0000 0.0000 0.0000
# 3 53.9248 13.6760 91.7119 0.0000 0.0000 0.0000
# 4 0.0000 0.0000 0.0000 30.5706 0.0000 0.0000
# 5 0.0000 0.0000 0.0000 0.0000 21.7717 0.0000
# 6 0.0000 0.0000 0.0000 0.0000 0.0000 35.1778
#
#
#
# Elastic Compliance Matrix: (Units=1/GPa)
#
#
# Indices 1 2 3 4 5 6 
#
# 1 0.014525 -0.004298 -0.007900 0.000000 0.000000 0.000000
# 2 -0.004298 0.010413 0.000974 0.000000 0.000000 0.000000
# 3 -0.007900 0.000974 0.015403 0.000000 0.000000 0.000000
# 4 0.000000 0.000000 0.000000 0.032711 0.000000 0.000000
# 5 0.000000 0.000000 0.000000 0.000000 0.045931 0.000000
# 6 0.000000 0.000000 0.000000 0.000000 0.000000 0.028427
#
#
# Mechanical properties :
#
#
# Convention : Reuss Voigt Hill
#
# Bulk Modulus (GPa) = 55.87990 58.80873 57.34431
# Shear Modulus (GPa) = 28.43767 31.18796 29.81281
#
# Velocity S-wave (km/s) = 3.52107 3.68741 3.60520
# Velocity P-wave (km/s) = 6.39472 6.61574 6.50617
#
# Compressibility (1/GPa) = 0.01789552
#
# Stress axis : x y z
#
# Youngs Moduli (GPa) = 68.84539 96.02945 64.92098
#
# Poissons Ratio (x) = 0.41270 0.51286
# Poissons Ratio (y) = 0.29587 -0.06324
# Poissons Ratio (z) = 0.54386 -0.09354
#
# Static dielectric constant tensor:
#      x y z
#    x 7.603010 0.000000 0.000000 
#    y 0.000000 6.211020 0.000000 
#    z 0.000000 0.000000 4.720900 
# 
# 
# High freq. dielectric constant tensor:
#      x y z
#    x 1.932760 0.000000 0.000000 
#    y 0.000000 1.904450 0.000000 
#    z 0.000000 0.000000 1.907660 
# 
# From -- ./inp_files/33950.got.cif
#   From: 2010.06.25/outbox.cif.g09.slc.cpg/sg58_17_cif.got.tgz:33950.got - 2010.06.26 21:38:00.
