data_PCOD8238154
_publ_section_title
;
Structure prediction by ZEFSAII (Michael W. Deem and Ramdas Pophale) SiO2 
 PCOD8238154
Probable space group: P N N M
;
_chemical_formula_sum "Si O2"
_cell_formula_units_Z 64
_cell_length_a 9.915772
_cell_length_b 18.612294
_cell_length_c 17.794179
_cell_angle_alpha 90.000000
_cell_angle_beta 90.000000
_cell_angle_gamma 90.000000
_cell_volume 3284.009398
_symmetry_space_group_name_H-M "P N N M"
_symmetry_group_IT_number 58
_symmetry_cell_setting 'orthorhombic'
loop_
_space_group_symop_operation_xyz
x,y,z
-x,-y,z
1/2+x,1/2-y,1/2-z
1/2-x,1/2+y,1/2-z
-x,-y,-z
x,y,-z
1/2-x,1/2+y,1/2+z
1/2+x,1/2-y,1/2+z
loop_
_atom_site_type_symbol
_atom_site_label
_atom_site_fract_x
_atom_site_fract_y
_atom_site_fract_z
Si Si1 0.528874 0.294726 0.086249
Si Si2 0.175836 0.690748 0.144479
Si Si3 0.609162 0.553424 0.087130
Si Si4 0.111215 0.055785 0.086495
Si Si5 0.579424 0.281985 0.411359
Si Si6 0.338233 0.206549 0.181045
Si Si7 0.643723 0.977516 0.657197
Si Si8 0.869652 0.460208 0.329586
O O1 0.689257 0.293228 0.098143
O O2 0.451154 0.368647 0.102405
O O3 0.472232 0.243633 0.150633
O O4 0.501220 0.270188 0.000000
O O5 0.187851 0.716831 0.230534
O O6 0.163176 0.605281 0.135382
O O7 0.049177 0.733249 0.109134
O O8 0.500000 0.500000 0.122589
O O9 0.750591 0.535351 0.125670
O O10 0.630893 0.537830 0.000000
O O11 0.060570 0.134551 0.113095
O O12 0.238974 0.018671 0.124384
O O13 0.145573 0.060175 0.000000
O O14 0.000000 0.000000 0.108951
O O15 0.608368 0.273398 0.500000
O O16 0.712240 0.258829 0.364693
O O17 0.375207 0.125041 0.163688
O O18 0.648748 0.988475 0.745821
O O19 0.500000 0.000000 0.623651
O O20 0.000000 0.500000 0.365128
#
# Coordination Sequence:
#
# PCOD8238154 Si02
#       8
#     8   8   8   8   8   8   8   8
#     4  11  23  40  62  88 120 161 203 246 300 359
#     4  11  22  39  60  86 121 155 198 249 297 355
#     4  10  21  39  60  86 119 154 196 244 292 349
#     4   9  19  37  58  84 114 146 191 240 288 350
#     4  10  21  38  59  83 114 153 194 239 292 350
#     4  10  22  40  59  84 121 156 198 246 297 357
#     4  10  22  39  58  86 119 153 195 244 294 352
#     4   9  20  39  59  85 115 152 195 241 297 354
#
# _framework density 19.488371999999998
#
# number of rings (size 3 to 8) (size 9 to 14) (size 15 to 20)
#    0.000    2.000    1.250    1.500    1.750    3.000 
#    6.750    1.250    0.000    0.000    0.000    0.000 
#    0.000    0.000    0.000    0.000    0.000    0.000 
#
# Total GULP energy -793137.014786 kJ/mol
# GULP energy per Si atom -12392.765856 kJ/mol
# Density = 1.944402 g / cm^3
# Si number density = 19.488372 Si / 1000 Ang^3
#
#
#
# Elastic Constant Matrix: (Units=GPa)
#
#
# Indices 1 2 3 4 5 6 
#
# 1 142.1622 42.8144 44.4874 0.0000 0.0000 0.0000
# 2 42.8144 42.8411 29.3668 0.0000 0.0000 0.0000
# 3 44.4874 29.3668 73.8701 0.0000 0.0000 0.0000
# 4 0.0000 0.0000 0.0000 30.8030 0.0000 0.0000
# 5 0.0000 0.0000 0.0000 0.0000 39.0447 0.0000
# 6 0.0000 0.0000 0.0000 0.0000 0.0000 46.0568
#
#
#
# Elastic Compliance Matrix: (Units=1/GPa)
#
#
# Indices 1 2 3 4 5 6 
#
# 1 0.010514 -0.008477 -0.002962 0.000000 0.000000 0.000000
# 2 -0.008477 0.038921 -0.010367 0.000000 0.000000 0.000000
# 3 -0.002962 -0.010367 0.019443 0.000000 0.000000 0.000000
# 4 0.000000 0.000000 0.000000 0.032464 0.000000 0.000000
# 5 0.000000 0.000000 0.000000 0.000000 0.025612 0.000000
# 6 0.000000 0.000000 0.000000 0.000000 0.000000 0.021712
#
#
# Mechanical properties :
#
#
# Convention : Reuss Voigt Hill
#
# Bulk Modulus (GPa) = 39.58168 54.69007 47.13587
# Shear Modulus (GPa) = 24.91274 32.66123 28.78699
#
# Velocity S-wave (km/s) = 3.57927 4.09826 3.84752
# Velocity P-wave (km/s) = 6.11850 7.10761 6.63152
#
# Compressibility (1/GPa) = 0.02526421
#
# Stress axis : x y z
#
# Youngs Moduli (GPa) = 95.10976 25.69325 51.43347
#
# Poissons Ratio (x) = 0.21781 0.15234
# Poissons Ratio (y) = 0.80627 0.53323
# Poissons Ratio (z) = 0.28171 0.26637
#
# Static dielectric constant tensor:
#      x y z
#    x 3.845620 0.000000 0.000000 
#    y 0.000000 3.681310 0.000000 
#    z 0.000000 0.000000 3.585590 
# 
# 
# High freq. dielectric constant tensor:
#      x y z
#    x 1.770850 0.000000 0.000000 
#    y 0.000000 1.759030 0.000000 
#    z 0.000000 0.000000 1.759320 
# 
# From -- ./inp_files/29116.got.cif
#   From: 2010.06.25/outbox.cif.g09.slc.cpg/sg58_15_cif.got.tgz:29116.got - 2010.06.26 21:38:00.
