data_PCOD8238566
_publ_section_title
;
Structure prediction by ZEFSAII (Michael W. Deem and Ramdas Pophale) SiO2 
 PCOD8238566
Probable space group: P N N M
;
_chemical_formula_sum "Si O2"
_cell_formula_units_Z 56
_cell_length_a 21.153961
_cell_length_b 14.868983
_cell_length_c 8.668558
_cell_angle_alpha 90.000000
_cell_angle_beta 90.000000
_cell_angle_gamma 90.000000
_cell_volume 2726.589912
_symmetry_space_group_name_H-M "P N N M"
_symmetry_group_IT_number 58
_symmetry_cell_setting 'orthorhombic'
loop_
_space_group_symop_operation_xyz
x,y,z
-x,-y,z
1/2+x,1/2-y,1/2-z
1/2-x,1/2+y,1/2-z
-x,-y,-z
x,y,-z
1/2-x,1/2+y,1/2+z
1/2+x,1/2-y,1/2+z
loop_
_atom_site_type_symbol
_atom_site_label
_atom_site_fract_x
_atom_site_fract_y
_atom_site_fract_z
Si Si1 0.255234 0.525969 0.822110
Si Si2 0.899428 0.251262 0.181130
Si Si3 0.868680 0.432878 0.319893
Si Si4 0.336158 0.691552 0.177957
Si Si5 0.052793 0.425148 0.173421
Si Si6 0.526918 0.258232 0.820138
Si Si7 0.269866 0.320501 0.181782
O O1 0.205540 0.577474 0.712853
O O2 0.317710 0.586897 0.800822
O O3 0.265095 0.424299 0.765035
O O4 0.232320 0.528436 0.000000
O O5 0.906757 0.355113 0.231108
O O6 0.837246 0.211818 0.257923
O O7 0.964343 0.201667 0.235419
O O8 0.892625 0.242878 0.000000
O O9 0.884336 0.426906 0.500000
O O10 0.885218 0.530081 0.248049
O O11 0.407779 0.698175 0.243323
O O12 0.288796 0.761753 0.258697
O O13 0.335579 0.720348 0.000000
O O14 0.031056 0.347128 0.286083
O O15 0.000000 0.500000 0.170474
O O16 0.067273 0.389547 0.000000
O O17 0.517964 0.276466 0.000000
O O18 0.270919 0.312027 0.000000
#
# Coordination Sequence:
#
# PCOD8238566 Si02
#       7
#     8   8   8   8   8   8   8
#     4  10  22  41  64  90 124 162 202 251 312 374
#     4  12  24  40  61  86 122 165 204 251 314 368
#     4  12  23  36  59  89 120 156 202 254 305 365
#     4  10  22  41  64  91 126 165 201 252 317 373
#     4  11  22  35  54  82 119 161 196 238 304 374
#     4  11  23  39  61  90 123 161 209 260 309 368
#     4  11  23  40  65  95 123 161 211 257 303 367
#
# _framework density 20.538477
#
# number of rings (size 3 to 8) (size 9 to 14) (size 15 to 20)
#    0.000    1.000    2.857    4.714    0.000    5.143 
#    0.000    0.714    0.000    4.286    0.000    0.000 
#    0.000    0.000    0.000    0.000    0.000    0.000 
#
# Total GULP energy -694341.138307 kJ/mol
# GULP energy per Si atom -12398.948898 kJ/mol
# Density = 2.049173 g / cm^3
# Si number density = 20.538477 Si / 1000 Ang^3
#
#
#
# Elastic Constant Matrix: (Units=GPa)
#
#
# Indices 1 2 3 4 5 6 
#
# 1 131.1611 18.8420 16.9467 0.0000 0.0000 0.0000
# 2 18.8420 66.1448 11.8150 0.0000 0.0000 0.0000
# 3 16.9467 11.8150 34.4161 0.0000 0.0000 0.0000
# 4 0.0000 0.0000 0.0000 20.9695 0.0000 0.0000
# 5 0.0000 0.0000 0.0000 0.0000 33.2879 0.0000
# 6 0.0000 0.0000 0.0000 0.0000 0.0000 30.6126
#
#
#
# Elastic Compliance Matrix: (Units=1/GPa)
#
#
# Indices 1 2 3 4 5 6 
#
# 1 0.008327 -0.001747 -0.003501 0.000000 0.000000 0.000000
# 2 -0.001747 0.016472 -0.004795 0.000000 0.000000 0.000000
# 3 -0.003501 -0.004795 0.032426 0.000000 0.000000 0.000000
# 4 0.000000 0.000000 0.000000 0.047688 0.000000 0.000000
# 5 0.000000 0.000000 0.000000 0.000000 0.030041 0.000000
# 6 0.000000 0.000000 0.000000 0.000000 0.000000 0.032666
#
#
# Mechanical properties :
#
#
# Convention : Reuss Voigt Hill
#
# Bulk Modulus (GPa) = 26.92444 36.32551 31.62497
# Shear Modulus (GPa) = 24.98918 29.24857 27.11888
#
# Velocity S-wave (km/s) = 3.49191 3.77780 3.63766
# Velocity P-wave (km/s) = 5.42177 6.06251 5.75107
#
# Compressibility (1/GPa) = 0.03714098
#
# Stress axis : x y z
#
# Youngs Moduli (GPa) = 120.08437 60.70749 30.83942
#
# Poissons Ratio (x) = 0.10605 0.10796
# Poissons Ratio (y) = 0.20977 0.14787
# Poissons Ratio (z) = 0.42039 0.29108
#
# Static dielectric constant tensor:
#      x y z
#    x 4.064920 0.000000 0.000000 
#    y 0.000000 3.683590 0.000000 
#    z 0.000000 0.000000 3.733990 
# 
# 
# High freq. dielectric constant tensor:
#      x y z
#    x 1.819580 0.000000 0.000000 
#    y 0.000000 1.781210 0.000000 
#    z 0.000000 0.000000 1.804240 
# 
# From -- ./inp_files/6401.got.cif
#   From: 2010.06.25/outbox.cif.g09.slc.cpg/sg58_4_cif.got.tgz:6401.got - 2010.06.26 21:38:00.
