data_PCOD8238988
_publ_section_title
;
Structure prediction by ZEFSAII (Michael W. Deem and Ramdas Pophale) SiO2 
 PCOD8238988
Probable space group: P N N M
;
_chemical_formula_sum "Si O2"
_cell_formula_units_Z 56
_cell_length_a 17.571438
_cell_length_b 19.395379
_cell_length_c 9.594772
_cell_angle_alpha 90.000000
_cell_angle_beta 90.000000
_cell_angle_gamma 90.000000
_cell_volume 3269.943389
_symmetry_space_group_name_H-M "P N N M"
_symmetry_group_IT_number 58
_symmetry_cell_setting 'orthorhombic'
loop_
_space_group_symop_operation_xyz
x,y,z
-x,-y,z
1/2+x,1/2-y,1/2-z
1/2-x,1/2+y,1/2-z
-x,-y,-z
x,y,-z
1/2-x,1/2+y,1/2+z
1/2+x,1/2-y,1/2+z
loop_
_atom_site_type_symbol
_atom_site_label
_atom_site_fract_x
_atom_site_fract_y
_atom_site_fract_z
Si Si1 0.569314 0.310059 0.334207
Si Si2 0.963273 0.069505 0.834492
Si Si3 0.846694 0.554121 0.838094
Si Si4 0.633932 0.894933 0.337910
Si Si5 0.277087 0.620271 0.660331
Si Si6 0.704211 0.539810 0.659855
Si Si7 0.973086 0.659859 0.165775
O O1 0.564737 0.310227 0.500000
O O2 0.507776 0.364291 0.273725
O O3 0.654217 0.331176 0.287460
O O4 0.549703 0.234645 0.274262
O O5 0.874774 0.074642 0.792230
O O6 0.971430 0.066878 0.000000
O O7 0.000000 0.000000 0.770941
O O8 0.873442 0.476311 0.810482
O O9 0.770032 0.571632 0.755028
O O10 0.912647 0.603758 0.779908
O O11 0.829978 0.567494 0.000000
O O12 0.647719 0.879071 0.500000
O O13 0.703737 0.862316 0.253029
O O14 0.557033 0.859919 0.280888
O O15 0.256224 0.634929 0.500000
O O16 0.304031 0.541949 0.680979
O O17 0.723336 0.557294 0.500000
O O18 0.973046 0.659133 0.000000
#
# Coordination Sequence:
#
# PCOD8238988 Si02
#       7
#     8   8   8   8   8   8   8
#     4   9  16  27  45  67  90 119 153 186 220 265
#     4   9  14  24  44  67  90 117 149 185 221 261
#     4   9  17  30  48  67  90 120 152 188 225 262
#     4   9  17  30  49  69  89 116 153 191 223 259
#     4   9  16  28  47  69  91 116 146 182 226 271
#     4   9  16  27  46  72  94 112 145 188 227 266
#     4   9  17  30  46  65  88 119 159 190 217 262
#
# _framework density 17.125679000000002
#
# number of rings (size 3 to 8) (size 9 to 14) (size 15 to 20)
#    0.000    3.000    1.429    0.429    0.000    1.714 
#    2.571    0.714    0.000    5.571    0.000    0.000 
#    0.000    0.000    0.000    0.000    0.000    0.000 
#
# Total GULP energy -694317.843402 kJ/mol
# GULP energy per Si atom -12398.532918 kJ/mol
# Density = 1.708670 g / cm^3
# Si number density = 17.125679 Si / 1000 Ang^3
#
#
#
# Elastic Constant Matrix: (Units=GPa)
#
#
# Indices 1 2 3 4 5 6 
#
# 1 184.3076 86.6199 50.0114 0.0000 0.0000 0.0000
# 2 86.6199 97.0729 25.6678 0.0000 0.0000 0.0000
# 3 50.0114 25.6678 33.9254 0.0000 0.0000 0.0000
# 4 0.0000 0.0000 0.0000 10.1290 0.0000 0.0000
# 5 0.0000 0.0000 0.0000 0.0000 27.8424 0.0000
# 6 0.0000 0.0000 0.0000 0.0000 0.0000 24.3029
#
#
#
# Elastic Compliance Matrix: (Units=1/GPa)
#
#
# Indices 1 2 3 4 5 6 
#
# 1 0.012510 -0.007859 -0.012495 0.000000 0.000000 0.000000
# 2 -0.007859 0.017815 -0.001894 0.000000 0.000000 0.000000
# 3 -0.012495 -0.001894 0.049330 0.000000 0.000000 0.000000
# 4 0.000000 0.000000 0.000000 0.098726 0.000000 0.000000
# 5 0.000000 0.000000 0.000000 0.000000 0.035916 0.000000
# 6 0.000000 0.000000 0.000000 0.000000 0.000000 0.041147
#
#
# Mechanical properties :
#
#
# Convention : Reuss Voigt Hill
#
# Bulk Modulus (GPa) = 28.44275 71.10045 49.77160
# Shear Modulus (GPa) = 16.04320 22.65532 19.34926
#
# Velocity S-wave (km/s) = 3.06403 3.64110 3.36495
# Velocity P-wave (km/s) = 5.40018 7.69960 6.65003
#
# Compressibility (1/GPa) = 0.03515834
#
# Stress axis : x y z
#
# Youngs Moduli (GPa) = 79.93834 56.13374 20.27183
#
# Poissons Ratio (x) = 0.44113 0.25331
# Poissons Ratio (y) = 0.62820 0.03839
# Poissons Ratio (z) = 0.99887 0.10630
#
# Static dielectric constant tensor:
#      x y z
#    x 3.372760 0.000000 0.000000 
#    y 0.000000 3.251040 0.000000 
#    z 0.000000 0.000000 2.772840 
# 
# 
# High freq. dielectric constant tensor:
#      x y z
#    x 1.675330 0.000000 0.000000 
#    y 0.000000 1.650000 0.000000 
#    z 0.000000 0.000000 1.608030 
# 
# From -- ./inp_files/8180.got.cif
#   From: 2010.06.25/outbox.cif.g09.slc.cpg/sg58_5_cif.got.tgz:8180.got - 2010.06.26 21:38:00.
