data_PCOD8238385
_publ_section_title
;
Structure prediction by ZEFSAII (Michael W. Deem and Ramdas Pophale) SiO2 
 PCOD8238385
Probable space group: P N N M
;
_chemical_formula_sum "Si O2"
_cell_formula_units_Z 48
_cell_length_a 27.093826
_cell_length_b 9.874755
_cell_length_c 9.095708
_cell_angle_alpha 90.000000
_cell_angle_beta 90.000000
_cell_angle_gamma 90.000000
_cell_volume 2433.510231
_symmetry_space_group_name_H-M "P N N M"
_symmetry_group_IT_number 58
_symmetry_cell_setting 'orthorhombic'
loop_
_space_group_symop_operation_xyz
x,y,z
-x,-y,z
1/2+x,1/2-y,1/2-z
1/2-x,1/2+y,1/2-z
-x,-y,-z
x,y,-z
1/2-x,1/2+y,1/2+z
1/2+x,1/2-y,1/2+z
loop_
_atom_site_type_symbol
_atom_site_label
_atom_site_fract_x
_atom_site_fract_y
_atom_site_fract_z
Si Si1 0.796845 0.572991 0.172962
Si Si2 0.723300 0.376069 0.671865
Si Si3 0.591852 0.020712 0.328124
Si Si4 0.958067 0.757167 0.673944
Si Si5 0.442560 0.275284 0.331698
Si Si6 0.614538 0.456607 0.331024
O O1 0.766651 0.452637 0.245791
O O2 0.853525 0.561894 0.223462
O O3 0.776517 0.719304 0.222488
O O4 0.793013 0.553353 0.000000
O O5 0.733428 0.387610 0.500000
O O6 0.671519 0.445232 0.714149
O O7 0.584025 0.048987 0.500000
O O8 0.552139 0.108612 0.239266
O O9 0.582825 0.865081 0.287312
O O10 0.958232 0.750322 0.500000
O O11 0.011018 0.808845 0.729426
O O12 0.916500 0.860192 0.726540
O O13 0.461061 0.273763 0.500000
O O14 0.401226 0.388917 0.306958
O O15 0.606927 0.409213 0.500000
#
# Coordination Sequence:
#
# PCOD8238385 Si02
#       6
#     8   8   8   8   8   8
#     4  10  22  40  63  90 120 154 195 244 294 347
#     4  10  22  40  63  90 120 154 195 244 294 347
#     4  10  21  41  64  86 117 157 202 244 286 349
#     4  12  24  38  59  88 123 159 194 243 301 350
#     4  10  22  38  63  90 113 155 204 245 289 346
#     4  10  21  41  64  86 117 157 202 244 286 349
#
# _framework density 19.724592000000001
#
# number of rings (size 3 to 8) (size 9 to 14) (size 15 to 20)
#    0.000    1.667    1.667    2.500    2.333    7.333 
#    0.000    0.000    0.000    0.000    0.000    0.000 
#    0.000    0.000    0.000    0.000    0.000    0.000 
#
# Total GULP energy -595478.201385 kJ/mol
# GULP energy per Si atom -12405.795862 kJ/mol
# Density = 1.967970 g / cm^3
# Si number density = 19.724592 Si / 1000 Ang^3
#
#
#
# Elastic Constant Matrix: (Units=GPa)
#
#
# Indices 1 2 3 4 5 6 
#
# 1 59.8596 1.2016 22.6200 0.0000 0.0000 0.0000
# 2 1.2016 78.0397 22.8303 0.0000 0.0000 0.0000
# 3 22.6200 22.8303 62.6914 0.0000 0.0000 0.0000
# 4 0.0000 0.0000 0.0000 27.3695 0.0000 0.0000
# 5 0.0000 0.0000 0.0000 0.0000 25.2057 0.0000
# 6 0.0000 0.0000 0.0000 0.0000 0.0000 37.5077
#
#
#
# Elastic Compliance Matrix: (Units=1/GPa)
#
#
# Indices 1 2 3 4 5 6 
#
# 1 0.019612 0.001979 -0.007797 0.000000 0.000000 0.000000
# 2 0.001979 0.014542 -0.006010 0.000000 0.000000 0.000000
# 3 -0.007797 -0.006010 0.020953 0.000000 0.000000 0.000000
# 4 0.000000 0.000000 0.000000 0.036537 0.000000 0.000000
# 5 0.000000 0.000000 0.000000 0.000000 0.039674 0.000000
# 6 0.000000 0.000000 0.000000 0.000000 0.000000 0.026661
#
#
# Mechanical properties :
#
#
# Convention : Reuss Voigt Hill
#
# Bulk Modulus (GPa) = 31.79498 32.65495 32.22497
# Shear Modulus (GPa) = 26.02560 28.27916 27.15238
#
# Velocity S-wave (km/s) = 3.63636 3.79053 3.71425
# Velocity P-wave (km/s) = 5.81251 5.97904 5.89636
#
# Compressibility (1/GPa) = 0.03145151
#
# Stress axis : x y z
#
# Youngs Moduli (GPa) = 50.98797 68.76794 47.72569
#
# Poissons Ratio (x) = -0.13610 0.37213
# Poissons Ratio (y) = -0.10091 0.28682
# Poissons Ratio (z) = 0.39756 0.41328
#
# Static dielectric constant tensor:
#      x y z
#    x 3.638360 0.000000 0.000000 
#    y 0.000000 3.742400 0.000000 
#    z 0.000000 0.000000 3.400160 
# 
# 
# High freq. dielectric constant tensor:
#      x y z
#    x 1.774610 0.000000 0.000000 
#    y 0.000000 1.785160 0.000000 
#    z 0.000000 0.000000 1.750540 
# 
# From -- ./inp_files/3001.got.cif
#   From: 2010.06.25/outbox.cif.g09.slc.cpg/sg58_2_cif.got.tgz:3001.got - 2010.06.26 21:38:00.
