data_PCOD8238248
_publ_section_title
;
Structure prediction by ZEFSAII (Michael W. Deem and Ramdas Pophale) SiO2 
 PCOD8238248
Probable space group: P N N M
;
_chemical_formula_sum "Si O2"
_cell_formula_units_Z 56
_cell_length_a 11.358781
_cell_length_b 16.690440
_cell_length_c 13.592382
_cell_angle_alpha 90.000000
_cell_angle_beta 90.000000
_cell_angle_gamma 90.000000
_cell_volume 2576.885274
_symmetry_space_group_name_H-M "P N N M"
_symmetry_group_IT_number 58
_symmetry_cell_setting 'orthorhombic'
loop_
_space_group_symop_operation_xyz
x,y,z
-x,-y,z
1/2+x,1/2-y,1/2-z
1/2-x,1/2+y,1/2-z
-x,-y,-z
x,y,-z
1/2-x,1/2+y,1/2+z
1/2+x,1/2-y,1/2+z
loop_
_atom_site_type_symbol
_atom_site_label
_atom_site_fract_x
_atom_site_fract_y
_atom_site_fract_z
Si Si1 0.208501 0.042930 0.386044
Si Si2 0.860576 0.691763 0.780900
Si Si3 0.626033 0.611460 0.211919
Si Si4 0.527966 0.408687 0.393761
Si Si5 0.059854 0.200975 0.610165
Si Si6 0.735116 0.836410 0.887518
Si Si7 0.065824 0.580581 0.764772
O O1 0.216875 0.017384 0.500000
O O2 0.143874 0.126092 0.370241
O O3 0.339770 0.051107 0.344406
O O4 0.125863 0.978959 0.329187
O O5 0.758881 0.628397 0.758645
O O6 0.896155 0.727632 0.676765
O O7 0.808375 0.756662 0.856306
O O8 0.972746 0.640249 0.819640
O O9 0.544715 0.631136 0.306168
O O10 0.575352 0.674104 0.131091
O O11 0.500000 0.500000 0.398356
O O12 0.497143 0.367797 0.500000
O O13 0.667787 0.405673 0.375402
O O14 0.067654 0.232909 0.500000
O O15 0.625106 0.865267 0.821731
O O16 0.691246 0.826090 0.000000
O O17 0.000000 0.500000 0.723741
#
# Coordination Sequence:
#
# PCOD8238248 Si02
#       7
#     8   8   8   8   8   8   8
#     4  11  24  44  72 102 134 175 226 284 341 407
#     4  12  26  41  66  97 137 182 220 280 340 399
#     4  12  22  41  67  96 135 175 225 281 338 404
#     4  10  21  38  67  98 127 170 219 276 337 403
#     4  11  24  43  69 100 134 174 228 284 344 407
#     4  11  25  46  69  98 134 177 229 279 341 408
#     4  12  25  47  68 100 141 184 226 280 340 407
#
# _framework density 21.731663000000001
#
# number of rings (size 3 to 8) (size 9 to 14) (size 15 to 20)
#    0.000    0.714    4.286    3.429    0.000    5.714 
#    0.000    2.857    0.000    0.000    0.000    0.000 
#    0.000    0.000    0.000    0.000    0.000    0.000 
#
# Total GULP energy -694184.790082 kJ/mol
# GULP energy per Si atom -12396.156966 kJ/mol
# Density = 2.168220 g / cm^3
# Si number density = 21.731663 Si / 1000 Ang^3
#
#
#
# Elastic Constant Matrix: (Units=GPa)
#
#
# Indices 1 2 3 4 5 6 
#
# 1 124.1733 27.0033 41.2493 0.0000 0.0000 0.0000
# 2 27.0033 67.3217 26.2966 0.0000 0.0000 0.0000
# 3 41.2493 26.2966 92.8855 0.0000 0.0000 0.0000
# 4 0.0000 0.0000 0.0000 -1.7487 0.0000 0.0000
# 5 0.0000 0.0000 0.0000 0.0000 27.1624 0.0000
# 6 0.0000 0.0000 0.0000 0.0000 0.0000 45.8542
#
#
#
# Elastic Compliance Matrix: (Units=1/GPa)
#
#
# Indices 1 2 3 4 5 6 
#
# 1 0.009810 -0.002511 -0.003646 0.000000 0.000000 0.000000
# 2 -0.002511 0.017344 -0.003795 0.000000 0.000000 0.000000
# 3 -0.003646 -0.003795 0.013459 0.000000 0.000000 0.000000
# 4 0.000000 0.000000 0.000000 -0.571844 0.000000 0.000000
# 5 0.000000 0.000000 0.000000 0.000000 0.036816 0.000000
# 6 0.000000 0.000000 0.000000 0.000000 0.000000 0.021808
#
#
# Mechanical properties :
#
#
# Convention : Reuss Voigt Hill
#
# Bulk Modulus (GPa) = 48.28623 52.60877 50.44750
# Shear Modulus (GPa) = -11.21580 26.90899 7.84660
#
# Velocity S-wave (km/s) = -2.27426 3.52268 1.90224
# Velocity P-wave (km/s) = 3.92061 6.38800 5.29990
#
# Compressibility (1/GPa) = 0.02070984
#
# Stress axis : x y z
#
# Youngs Moduli (GPa) = 101.93255 57.65823 74.29751
#
# Poissons Ratio (x) = 0.14478 0.27087
# Poissons Ratio (y) = 0.25595 0.28196
# Poissons Ratio (z) = 0.37163 0.21881
#
# Static dielectric constant tensor:
#      x y z
#    x 3.360920 0.000000 0.000000 
#    y 0.000000 4.064940 0.000000 
#    z 0.000000 0.000000 4.448190 
# 
# 
# High freq. dielectric constant tensor:
#      x y z
#    x 1.869820 0.000000 0.000000 
#    y 0.000000 1.857300 0.000000 
#    z 0.000000 0.000000 1.847670 
# 
# From -- ./inp_files/21260.got.cif
#   From: 2010.06.25/outbox.cif.g09.slc.cpg/sg58_11_cif.got.tgz:21260.got - 2010.06.26 21:38:00.
