data_PCOD8238586
_publ_section_title
;
Structure prediction by ZEFSAII (Michael W. Deem and Ramdas Pophale) SiO2 
 PCOD8238586
Probable space group: P N N M
;
_chemical_formula_sum "Si O2"
_cell_formula_units_Z 64
_cell_length_a 11.893902
_cell_length_b 30.620989
_cell_length_c 8.716183
_cell_angle_alpha 90.000000
_cell_angle_beta 90.000000
_cell_angle_gamma 90.000000
_cell_volume 3174.460366
_symmetry_space_group_name_H-M "P N N M"
_symmetry_group_IT_number 58
_symmetry_cell_setting 'orthorhombic'
loop_
_space_group_symop_operation_xyz
x,y,z
-x,-y,z
1/2+x,1/2-y,1/2-z
1/2-x,1/2+y,1/2-z
-x,-y,-z
x,y,-z
1/2-x,1/2+y,1/2+z
1/2+x,1/2-y,1/2+z
loop_
_atom_site_type_symbol
_atom_site_label
_atom_site_fract_x
_atom_site_fract_y
_atom_site_fract_z
Si Si1 0.235168 0.797653 0.181214
Si Si2 0.735821 0.454466 0.175389
Si Si3 0.002678 0.833930 0.181395
Si Si4 0.375383 0.121720 0.820475
Si Si5 0.772260 0.794726 0.180629
Si Si6 0.777463 0.051114 0.323442
Si Si7 0.510419 0.431930 0.319358
Si Si8 0.881924 0.629482 0.180707
O O1 0.119268 0.816573 0.251040
O O2 0.235139 0.747367 0.226709
O O3 0.338713 0.824877 0.249850
O O4 0.241010 0.802048 0.000000
O O5 0.805416 0.421612 0.281233
O O6 0.783613 0.503921 0.191994
O O7 0.606162 0.457689 0.227953
O O8 0.744006 0.438468 0.000000
O O9 0.980806 0.882454 0.240219
O O10 0.899547 0.803963 0.234513
O O11 0.011432 0.834182 0.000000
O O12 0.305656 0.164582 0.772208
O O13 0.491401 0.121084 0.730592
O O14 0.400287 0.121819 0.000000
O O15 0.765034 0.785668 0.000000
O O16 0.811275 0.059910 0.500000
O O17 0.887940 0.049906 0.219016
O O18 0.693861 0.088787 0.262138
O O19 0.532461 0.436717 0.500000
O O20 0.878077 0.633541 0.000000
#
# Coordination Sequence:
#
# PCOD8238586 Si02
#       8
#     8   8   8   8   8   8   8   8
#     4  11  23  40  63  94 124 157 203 252 302 358
#     4  11  23  40  62  90 125 162 203 251 307 369
#     4   9  19  38  62  87 122 159 194 247 303 351
#     4  11  24  43  65  90 122 159 207 260 308 363
#     4  10  22  42  63  88 123 161 198 247 306 363
#     4  10  23  41  61  89 124 163 205 251 304 369
#     4  11  20  37  63  92 125 161 201 251 308 361
#     4  11  24  43  64  87 121 165 207 250 308 367
#
# _framework density 20.160906000000001
#
# number of rings (size 3 to 8) (size 9 to 14) (size 15 to 20)
#    0.000    1.500    2.500    2.250    1.750    4.500 
#    0.000    3.125    0.000    0.000    0.000    0.000 
#    0.000    0.000    0.000    0.000    0.000    0.000 
#
# Total GULP energy -793786.310954 kJ/mol
# GULP energy per Si atom -12402.911109 kJ/mol
# Density = 2.011502 g / cm^3
# Si number density = 20.160906 Si / 1000 Ang^3
#
#
#
# Elastic Constant Matrix: (Units=GPa)
#
#
# Indices 1 2 3 4 5 6 
#
# 1 104.0270 31.6859 20.1645 0.0000 0.0000 0.0000
# 2 31.6859 115.5503 33.6977 0.0000 0.0000 0.0000
# 3 20.1645 33.6977 53.0657 0.0000 0.0000 0.0000
# 4 0.0000 0.0000 0.0000 32.1234 0.0000 0.0000
# 5 0.0000 0.0000 0.0000 0.0000 33.2126 0.0000
# 6 0.0000 0.0000 0.0000 0.0000 0.0000 25.8615
#
#
#
# Elastic Compliance Matrix: (Units=1/GPa)
#
#
# Indices 1 2 3 4 5 6 
#
# 1 0.010802 -0.002166 -0.002729 0.000000 0.000000 0.000000
# 2 -0.002166 0.011056 -0.006197 0.000000 0.000000 0.000000
# 3 -0.002729 -0.006197 0.023817 0.000000 0.000000 0.000000
# 4 0.000000 0.000000 0.000000 0.031130 0.000000 0.000000
# 5 0.000000 0.000000 0.000000 0.000000 0.030109 0.000000
# 6 0.000000 0.000000 0.000000 0.000000 0.000000 0.038668
#
#
# Mechanical properties :
#
#
# Convention : Reuss Voigt Hill
#
# Bulk Modulus (GPa) = 42.57276 49.30436 45.93856
# Shear Modulus (GPa) = 28.47454 30.71251 29.59352
#
# Velocity S-wave (km/s) = 3.76222 3.90727 3.83543
# Velocity P-wave (km/s) = 6.32730 6.69807 6.51533
#
# Compressibility (1/GPa) = 0.02348920
#
# Stress axis : x y z
#
# Youngs Moduli (GPa) = 92.57832 90.45215 41.98686
#
# Poissons Ratio (x) = 0.19593 0.11458
# Poissons Ratio (y) = 0.20054 0.26021
# Poissons Ratio (z) = 0.25264 0.56057
#
# Static dielectric constant tensor:
#      x y z
#    x 3.747810 0.000000 0.000000 
#    y 0.000000 3.817390 0.000000 
#    z 0.000000 0.000000 3.517560 
# 
# 
# High freq. dielectric constant tensor:
#      x y z
#    x 1.788390 0.000000 0.000000 
#    y 0.000000 1.802130 0.000000 
#    z 0.000000 0.000000 1.779220 
# 
# From -- ./inp_files/4779.got.cif
#   From: 2010.06.25/outbox.cif.g09.slc.cpg/sg58_3_cif.got.tgz:4779.got - 2010.06.26 21:38:00.
