data_PCOD8238455
_publ_section_title
;
Structure prediction by ZEFSAII (Michael W. Deem and Ramdas Pophale) SiO2 
 PCOD8238455
Probable space group: P N N M
;
_chemical_formula_sum "Si O2"
_cell_formula_units_Z 48
_cell_length_a 28.207429
_cell_length_b 10.288669
_cell_length_c 8.469282
_cell_angle_alpha 90.000000
_cell_angle_beta 90.000000
_cell_angle_gamma 90.000000
_cell_volume 2457.928770
_symmetry_space_group_name_H-M "P N N M"
_symmetry_group_IT_number 58
_symmetry_cell_setting 'orthorhombic'
loop_
_space_group_symop_operation_xyz
x,y,z
-x,-y,z
1/2+x,1/2-y,1/2-z
1/2-x,1/2+y,1/2-z
-x,-y,-z
x,y,-z
1/2-x,1/2+y,1/2+z
1/2+x,1/2-y,1/2+z
loop_
_atom_site_type_symbol
_atom_site_label
_atom_site_fract_x
_atom_site_fract_y
_atom_site_fract_z
Si Si1 0.946975 0.860140 0.686802
Si Si2 0.948781 0.152179 0.686687
Si Si3 0.649084 0.237582 0.814836
Si Si4 0.855045 0.239706 0.814324
Si Si5 0.198752 0.015387 0.815077
Si Si6 0.801051 0.492926 0.184835
O O1 0.945635 0.870972 0.500000
O O2 0.904135 0.769972 0.746373
O O3 0.998203 0.802712 0.739296
O O4 0.940272 0.006260 0.752748
O O5 0.943538 0.157605 0.500000
O O6 0.909790 0.247318 0.761135
O O7 0.683345 0.359077 0.783313
O O8 0.665124 0.115160 0.713606
O O9 0.650394 0.204588 0.000000
O O10 0.830574 0.108373 0.750086
O O11 0.827275 0.364779 0.748520
O O12 0.852278 0.243023 0.000000
O O13 0.253683 0.987027 0.784891
O O14 0.189782 0.038744 0.000000
O O15 0.789018 0.481641 0.000000
#
# Coordination Sequence:
#
# PCOD8238455 Si02
#       6
#     8   8   8   8   8   8
#     4   8  16  31  55  85 112 139 180 231 276 325
#     4   9  16  32  58  84 108 141 184 229 275 328
#     4  11  21  37  59  85 115 148 185 231 282 334
#     4  10  22  38  55  81 115 145 181 231 282 330
#     4  11  22  38  60  85 110 144 191 236 281 337
#     4  11  24  40  56  79 115 154 190 233 280 332
#
# _framework density 19.528637
#
# number of rings (size 3 to 8) (size 9 to 14) (size 15 to 20)
#    0.000    2.000    1.667    3.500    0.000    3.333 
#    0.000    4.167    0.000    5.000    0.000    0.000 
#    0.000    0.000    0.000    0.000    0.000    0.000 
#
# Total GULP energy -595225.084266 kJ/mol
# GULP energy per Si atom -12400.522589 kJ/mol
# Density = 1.948419 g / cm^3
# Si number density = 19.528637 Si / 1000 Ang^3
#
#
#
# Elastic Constant Matrix: (Units=GPa)
#
#
# Indices 1 2 3 4 5 6 
#
# 1 145.1887 43.3544 11.0680 0.0000 0.0000 0.0000
# 2 43.3544 96.3750 14.3489 0.0000 0.0000 0.0000
# 3 11.0680 14.3489 23.8016 0.0000 0.0000 0.0000
# 4 0.0000 0.0000 0.0000 21.0425 0.0000 0.0000
# 5 0.0000 0.0000 0.0000 0.0000 30.0284 0.0000
# 6 0.0000 0.0000 0.0000 0.0000 0.0000 16.7463
#
#
#
# Elastic Compliance Matrix: (Units=1/GPa)
#
#
# Indices 1 2 3 4 5 6 
#
# 1 0.008019 -0.003353 -0.001707 0.000000 0.000000 0.000000
# 2 -0.003353 0.012801 -0.006158 0.000000 0.000000 0.000000
# 3 -0.001707 -0.006158 0.046520 0.000000 0.000000 0.000000
# 4 0.000000 0.000000 0.000000 0.047523 0.000000 0.000000
# 5 0.000000 0.000000 0.000000 0.000000 0.033302 0.000000
# 6 0.000000 0.000000 0.000000 0.000000 0.000000 0.059715
#
#
# Mechanical properties :
#
#
# Convention : Reuss Voigt Hill
#
# Bulk Modulus (GPa) = 22.27007 44.76755 33.51881
# Shear Modulus (GPa) = 20.38441 26.66970 23.52705
#
# Velocity S-wave (km/s) = 3.23433 3.69951 3.47471
# Velocity P-wave (km/s) = 5.03750 6.42046 5.77056
#
# Compressibility (1/GPa) = 0.04490333
#
# Stress axis : x y z
#
# Youngs Moduli (GPa) = 124.70338 78.11645 21.49596
#
# Poissons Ratio (x) = 0.26194 0.03670
# Poissons Ratio (y) = 0.41815 0.13237
# Poissons Ratio (z) = 0.21293 0.48105
#
# Static dielectric constant tensor:
#      x y z
#    x 3.948440 0.000000 0.000000 
#    y 0.000000 3.570090 0.000000 
#    z 0.000000 0.000000 3.234320 
# 
# 
# High freq. dielectric constant tensor:
#      x y z
#    x 1.778330 0.000000 0.000000 
#    y 0.000000 1.742940 0.000000 
#    z 0.000000 0.000000 1.741540 
# 
# From -- ./inp_files/2925.got.cif
#   From: 2010.06.25/outbox.cif.g09.slc.cpg/sg58_2_cif.got.tgz:2925.got - 2010.06.26 21:38:00.
