data_PCOD8238029
_publ_section_title
;
Structure prediction by ZEFSAII (Michael W. Deem and Ramdas Pophale) SiO2 
 PCOD8238029
Probable space group: P N N M
;
_chemical_formula_sum "Si O2"
_cell_formula_units_Z 48
_cell_length_a 9.444383
_cell_length_b 11.175126
_cell_length_c 23.889859
_cell_angle_alpha 90.000000
_cell_angle_beta 90.000000
_cell_angle_gamma 90.000000
_cell_volume 2521.387560
_symmetry_space_group_name_H-M "P N N M"
_symmetry_group_IT_number 58
_symmetry_cell_setting 'orthorhombic'
loop_
_space_group_symop_operation_xyz
x,y,z
-x,-y,z
1/2+x,1/2-y,1/2-z
1/2-x,1/2+y,1/2-z
-x,-y,-z
x,y,-z
1/2-x,1/2+y,1/2+z
1/2+x,1/2-y,1/2+z
loop_
_atom_site_type_symbol
_atom_site_label
_atom_site_fract_x
_atom_site_fract_y
_atom_site_fract_z
Si Si1 0.966092 0.138311 0.434647
Si Si2 0.358069 0.025183 0.319646
Si Si3 0.188163 0.246544 0.356385
Si Si4 0.262125 0.783681 0.647044
Si Si5 0.968272 0.139482 0.164289
Si Si6 0.458653 0.200359 0.770026
O O1 0.963033 0.163894 0.500000
O O2 0.811355 0.170324 0.409987
O O3 0.081995 0.229574 0.408402
O O4 0.000000 0.000000 0.421120
O O5 0.246233 0.113436 0.346327
O O6 0.426097 0.078593 0.262626
O O7 0.500000 0.000000 0.358106
O O8 0.287398 0.896039 0.311141
O O9 0.320989 0.334312 0.369037
O O10 0.110456 0.296475 0.300934
O O11 0.405499 0.711395 0.633137
O O12 0.158735 0.700117 0.681889
O O13 0.953482 0.186472 0.227864
O O14 0.000000 0.000000 0.164128
#
# Coordination Sequence:
#
# PCOD8238029 Si02
#       6
#     8   8   8   8   8   8
#     4  10  21  39  66  92 112 143 192 253 311 355
#     4  11  20  33  53  80 122 156 187 226 290 347
#     4  10  21  37  55  84 118 154 192 243 282 349
#     4  11  22  38  56  84 124 158 188 248 288 340
#     4  11  23  36  56  82 122 159 200 232 282 353
#     4  10  23  31  53  82 118 167 193 226 280 346
#
# _framework density 19.037137999999999
#
# number of rings (size 3 to 8) (size 9 to 14) (size 15 to 20)
#    0.000    1.500    5.000    2.000    4.667    0.000 
#    0.000    3.333    0.000    6.000    0.000    0.000 
#    0.000    0.000    0.000    0.000    0.000    0.000 
#
# Total GULP energy -594689.975595 kJ/mol
# GULP energy per Si atom -12389.374492 kJ/mol
# Density = 1.899381 g / cm^3
# Si number density = 19.037138 Si / 1000 Ang^3
#
#
#
# Elastic Constant Matrix: (Units=GPa)
#
#
# Indices 1 2 3 4 5 6 
#
# 1 134.8690 43.9877 51.6747 0.0000 0.0000 0.0000
# 2 43.9877 122.1235 37.0851 0.0000 0.0000 0.0000
# 3 51.6747 37.0851 93.6884 0.0000 0.0000 0.0000
# 4 0.0000 0.0000 0.0000 12.1343 0.0000 0.0000
# 5 0.0000 0.0000 0.0000 0.0000 12.8833 0.0000
# 6 0.0000 0.0000 0.0000 0.0000 0.0000 29.4081
#
#
#
# Elastic Compliance Matrix: (Units=1/GPa)
#
#
# Indices 1 2 3 4 5 6 
#
# 1 0.009880 -0.002164 -0.004593 0.000000 0.000000 0.000000
# 2 -0.002164 0.009781 -0.002678 0.000000 0.000000 0.000000
# 3 -0.004593 -0.002678 0.014267 0.000000 0.000000 0.000000
# 4 0.000000 0.000000 0.000000 0.082411 0.000000 0.000000
# 5 0.000000 0.000000 0.000000 0.000000 0.077620 0.000000
# 6 0.000000 0.000000 0.000000 0.000000 0.000000 0.034004
#
#
# Mechanical properties :
#
#
# Convention : Reuss Voigt Hill
#
# Bulk Modulus (GPa) = 66.40883 68.46402 67.43643
# Shear Modulus (GPa) = 19.85282 25.41403 22.63343
#
# Velocity S-wave (km/s) = 3.23282 3.65769 3.45180
# Velocity P-wave (km/s) = 6.99245 7.34028 7.16848
#
# Compressibility (1/GPa) = 0.01505824
#
# Stress axis : x y z
#
# Youngs Moduli (GPa) = 101.21296 102.23740 70.09162
#
# Poissons Ratio (x) = 0.22124 0.32192
# Poissons Ratio (y) = 0.21903 0.18772
# Poissons Ratio (z) = 0.46486 0.27381
#
# Static dielectric constant tensor:
#      x y z
#    x 4.215550 0.000000 0.000000 
#    y 0.000000 3.429200 0.000000 
#    z 0.000000 0.000000 3.037060 
# 
# 
# High freq. dielectric constant tensor:
#      x y z
#    x 1.772170 0.000000 0.000000 
#    y 0.000000 1.740610 0.000000 
#    z 0.000000 0.000000 1.680650 
# 
# From -- ./inp_files/33241.got.cif
#   From: 2010.06.25/outbox.cif.g09.slc.cpg/sg58_17_cif.got.tgz:33241.got - 2010.06.26 21:38:00.
