data_PCOD8238804
_publ_section_title
;
Structure prediction by ZEFSAII (Michael W. Deem and Ramdas Pophale) SiO2 
 PCOD8238804
Probable space group: P N N M
;
_chemical_formula_sum "Si O2"
_cell_formula_units_Z 64
_cell_length_a 34.400965
_cell_length_b 11.124577
_cell_length_c 8.984448
_cell_angle_alpha 90.000000
_cell_angle_beta 90.000000
_cell_angle_gamma 90.000000
_cell_volume 3438.313965
_symmetry_space_group_name_H-M "P N N M"
_symmetry_group_IT_number 58
_symmetry_cell_setting 'orthorhombic'
loop_
_space_group_symop_operation_xyz
x,y,z
-x,-y,z
1/2+x,1/2-y,1/2-z
1/2-x,1/2+y,1/2-z
-x,-y,-z
x,y,-z
1/2-x,1/2+y,1/2+z
1/2+x,1/2-y,1/2+z
loop_
_atom_site_type_symbol
_atom_site_label
_atom_site_fract_x
_atom_site_fract_y
_atom_site_fract_z
Si Si1 0.070582 0.274523 0.824450
Si Si2 0.731617 0.625288 0.174636
Si Si3 0.636611 0.367263 0.831119
Si Si4 0.641879 0.642137 0.168502
Si Si5 0.501556 0.628965 0.328895
Si Si6 0.577186 0.775817 0.329984
Si Si7 0.455850 0.001438 0.174370
Si Si8 0.273823 0.647411 0.824592
O O1 0.109151 0.203680 0.780782
O O2 0.071632 0.404838 0.752355
O O3 0.031361 0.213778 0.757013
O O4 0.069298 0.288891 0.000000
O O5 0.686819 0.648766 0.211964
O O6 0.742076 0.486570 0.227642
O O7 0.754453 0.734835 0.251810
O O8 0.739791 0.633688 0.000000
O O9 0.626330 0.507067 0.816754
O O10 0.680906 0.344291 0.783219
O O11 0.629679 0.323068 0.000000
O O12 0.619039 0.725381 0.284269
O O13 0.635412 0.688343 0.000000
O O14 0.500000 0.500000 0.248146
O O15 0.489115 0.615159 0.500000
O O16 0.545218 0.673087 0.312059
O O17 0.578871 0.823521 0.500000
O O18 0.564810 0.875314 0.213217
O O19 0.500000 0.000000 0.237967
O O20 0.456136 0.979037 0.000000
O O21 0.267485 0.656345 0.000000
#
# Coordination Sequence:
#
# PCOD8238804 Si02
#       8
#     8   8   8   8   8   8   8   8
#     4  11  21  35  56  80 109 142 184 230 275 327
#     4   9  19  37  60  86 117 152 190 233 282 339
#     4   9  19  37  58  81 113 149 184 226 278 332
#     4   9  19  37  58  81 113 149 184 226 278 332
#     4   9  18  31  49  76 108 137 168 217 274 321
#     4  11  21  35  56  80 109 142 184 230 275 327
#     4  11  23  39  57  75 105 147 189 229 277 333
#     4   9  19  37  60  86 117 152 190 233 282 339
#
# _framework density 18.613775
#
# number of rings (size 3 to 8) (size 9 to 14) (size 15 to 20)
#    0.000    2.250    1.250    3.375    0.000    3.500 
#    2.250    2.500    0.000    3.000    0.000    0.000 
#    0.000    0.000    0.000    0.000    0.000    0.000 
#
# Total GULP energy -793277.051895 kJ/mol
# GULP energy per Si atom -12394.953936 kJ/mol
# Density = 1.857141 g / cm^3
# Si number density = 18.613775 Si / 1000 Ang^3
#
#
#
# Elastic Constant Matrix: (Units=GPa)
#
#
# Indices 1 2 3 4 5 6 
#
# 1 73.9898 34.5475 33.8098 0.0000 0.0000 0.0000
# 2 34.5475 91.6858 36.4271 0.0000 0.0000 0.0000
# 3 33.8098 36.4271 60.5537 0.0000 0.0000 0.0000
# 4 0.0000 0.0000 0.0000 31.2385 0.0000 0.0000
# 5 0.0000 0.0000 0.0000 0.0000 31.6285 0.0000
# 6 0.0000 0.0000 0.0000 0.0000 0.0000 34.6693
#
#
#
# Elastic Compliance Matrix: (Units=1/GPa)
#
#
# Indices 1 2 3 4 5 6 
#
# 1 0.019150 -0.003900 -0.008346 0.000000 0.000000 0.000000
# 2 -0.003900 0.015126 -0.006922 0.000000 0.000000 0.000000
# 3 -0.008346 -0.006922 0.025339 0.000000 0.000000 0.000000
# 4 0.000000 0.000000 0.000000 0.032012 0.000000 0.000000
# 5 0.000000 0.000000 0.000000 0.000000 0.031617 0.000000
# 6 0.000000 0.000000 0.000000 0.000000 0.000000 0.028844
#
#
# Mechanical properties :
#
#
# Convention : Reuss Voigt Hill
#
# Bulk Modulus (GPa) = 46.99573 48.42199 47.70886
# Shear Modulus (GPa) = 25.31420 27.60358 26.45889
#
# Velocity S-wave (km/s) = 3.69178 3.85511 3.77433
# Velocity P-wave (km/s) = 6.59355 6.77395 6.68436
#
# Compressibility (1/GPa) = 0.02127853
#
# Stress axis : x y z
#
# Youngs Moduli (GPa) = 52.21877 66.10929 39.46551
#
# Poissons Ratio (x) = 0.25781 0.32940
# Poissons Ratio (y) = 0.20364 0.27319
# Poissons Ratio (z) = 0.43584 0.45762
#
# Static dielectric constant tensor:
#      x y z
#    x 3.345140 0.000000 0.000000 
#    y 0.000000 3.638820 0.000000 
#    z 0.000000 0.000000 3.235940 
# 
# 
# High freq. dielectric constant tensor:
#      x y z
#    x 1.716760 0.000000 0.000000 
#    y 0.000000 1.730430 0.000000 
#    z 0.000000 0.000000 1.709010 
# 
# From -- ./inp_files/10931.got.cif
#   From: 2010.06.25/outbox.cif.g09.slc.cpg/sg58_6_cif.got.tgz:10931.got - 2010.06.26 21:38:00.
