data_PCOD8238619
_publ_section_title
;
Structure prediction by ZEFSAII (Michael W. Deem and Ramdas Pophale) SiO2 
 PCOD8238619
Probable space group: P N N M
;
_chemical_formula_sum "Si O2"
_cell_formula_units_Z 40
_cell_length_a 11.530395
_cell_length_b 7.463177
_cell_length_c 18.473637
_cell_angle_alpha 90.000000
_cell_angle_beta 90.000000
_cell_angle_gamma 90.000000
_cell_volume 1589.718882
_symmetry_space_group_name_H-M "P N N M"
_symmetry_group_IT_number 58
_symmetry_cell_setting 'orthorhombic'
loop_
_space_group_symop_operation_xyz
x,y,z
-x,-y,z
1/2+x,1/2-y,1/2-z
1/2-x,1/2+y,1/2-z
-x,-y,-z
x,y,-z
1/2-x,1/2+y,1/2+z
1/2+x,1/2-y,1/2+z
loop_
_atom_site_type_symbol
_atom_site_label
_atom_site_fract_x
_atom_site_fract_y
_atom_site_fract_z
Si Si1 0.599396 0.692049 0.000000
Si Si2 0.637526 0.374728 0.651945
Si Si3 0.766865 0.988888 0.000000
Si Si4 0.000000 0.000000 0.376214
Si Si5 0.580661 0.843641 0.650839
Si Si6 0.799004 0.387866 0.000000
Si Si7 0.725626 0.530561 0.786241
O O1 0.643575 0.893135 0.000000
O O2 0.520912 0.670228 0.071351
O O3 0.706639 0.548751 0.000000
O O4 0.660163 0.429177 0.569824
O O5 0.497407 0.337890 0.656667
O O6 0.682991 0.540598 0.702143
O O7 0.712812 0.202027 0.677636
O O8 0.734655 0.196814 0.000000
O O9 0.887963 0.966792 0.328627
O O10 0.618894 0.895306 0.569769
O O11 0.690085 0.855257 0.705807
O O12 0.500000 0.000000 0.680143
#
# Coordination Sequence:
#
# PCOD8238619 Si02
#       7
#     4   8   4   4   8   4   8
#     4  11  22  46  72 107 150 200 237 299 373 434
#     4  11  26  45  70 103 148 182 244 303 362 438
#     4  12  26  46  71 113 147 184 247 304 357 447
#     4  11  22  42  76  97 142 210 240 289 378 438
#     4  10  22  44  68 105 143 190 236 303 364 432
#     4  12  23  42  78 107 148 188 244 295 380 429
#     4  11  25  43  73 101 140 195 238 299 372 432
#
# _framework density 25.161681999999999
#
# number of rings (size 3 to 8) (size 9 to 14) (size 15 to 20)
#    0.000    1.000    4.000    2.100    5.600    1.600 
#    0.000    2.000    4.400    0.000    0.000    0.000 
#    0.000    0.000    0.000    0.000    0.000    0.000 
#
# Total GULP energy -495703.343854 kJ/mol
# GULP energy per Si atom -12392.583596 kJ/mol
# Density = 2.510441 g / cm^3
# Si number density = 25.161682 Si / 1000 Ang^3
#
#
#
# Elastic Constant Matrix: (Units=GPa)
#
#
# Indices 1 2 3 4 5 6 
#
# 1 123.7535 7.0059 42.8701 0.0000 0.0000 0.0000
# 2 7.0059 73.9404 -5.2087 0.0000 0.0000 0.0000
# 3 42.8701 -5.2087 169.6009 0.0000 0.0000 0.0000
# 4 0.0000 0.0000 0.0000 61.0097 0.0000 0.0000
# 5 0.0000 0.0000 0.0000 0.0000 12.7053 0.0000
# 6 0.0000 0.0000 0.0000 0.0000 0.0000 25.5818
#
#
#
# Elastic Compliance Matrix: (Units=1/GPa)
#
#
# Indices 1 2 3 4 5 6 
#
# 1 0.008930 -0.001007 -0.002288 0.000000 0.000000 0.000000
# 2 -0.001007 0.013667 0.000674 0.000000 0.000000 0.000000
# 3 -0.002288 0.000674 0.006495 0.000000 0.000000 0.000000
# 4 0.000000 0.000000 0.000000 0.016391 0.000000 0.000000
# 5 0.000000 0.000000 0.000000 0.000000 0.078707 0.000000
# 6 0.000000 0.000000 0.000000 0.000000 0.000000 0.039090
#
#
# Mechanical properties :
#
#
# Convention : Reuss Voigt Hill
#
# Bulk Modulus (GPa) = 41.92783 50.73660 46.33221
# Shear Modulus (GPa) = 28.33278 41.36787 34.85032
#
# Velocity S-wave (km/s) = 3.35928 4.05913 3.72567
# Velocity P-wave (km/s) = 5.63435 6.49436 6.07958
#
# Compressibility (1/GPa) = 0.02385051
#
# Stress axis : x y z
#
# Youngs Moduli (GPa) = 111.97841 73.16704 153.95730
#
# Poissons Ratio (x) = 0.07370 0.35229
# Poissons Ratio (y) = 0.11280 -0.10382
# Poissons Ratio (z) = 0.25623 -0.04934
#
# Static dielectric constant tensor:
#      x y z
#    x 4.926470 0.000000 0.000000 
#    y 0.000000 4.775190 0.000000 
#    z 0.000000 0.000000 4.706640 
# 
# 
# High freq. dielectric constant tensor:
#      x y z
#    x 2.022890 0.000000 0.000000 
#    y 0.000000 2.013610 0.000000 
#    z 0.000000 0.000000 2.009090 
# 
# From -- ./inp_files/29446.got.cif
#   From: 2010.06.25/outbox.cif.g09.slc.cpg/sg58_15_cif.got.tgz:29446.got - 2010.06.26 21:38:00.
