data_PCOD8238500
_publ_section_title
;
Structure prediction by ZEFSAII (Michael W. Deem and Ramdas Pophale) SiO2 
 PCOD8238500
Probable space group: P N N M
;
_chemical_formula_sum "Si O2"
_cell_formula_units_Z 48
_cell_length_a 27.158905
_cell_length_b 9.811692
_cell_length_c 9.111051
_cell_angle_alpha 90.000000
_cell_angle_beta 90.000000
_cell_angle_gamma 90.000000
_cell_volume 2427.865592
_symmetry_space_group_name_H-M "P N N M"
_symmetry_group_IT_number 58
_symmetry_cell_setting 'orthorhombic'
loop_
_space_group_symop_operation_xyz
x,y,z
-x,-y,z
1/2+x,1/2-y,1/2-z
1/2-x,1/2+y,1/2-z
-x,-y,-z
x,y,-z
1/2-x,1/2+y,1/2+z
1/2+x,1/2-y,1/2+z
loop_
_atom_site_type_symbol
_atom_site_label
_atom_site_fract_x
_atom_site_fract_y
_atom_site_fract_z
Si Si1 0.279873 0.638132 0.671822
Si Si2 0.907465 0.526096 0.329023
Si Si3 0.202827 0.412719 0.327237
Si Si4 0.936470 0.218978 0.671450
Si Si5 0.036791 0.244661 0.828502
Si Si6 0.883687 0.985295 0.829578
O O1 0.280101 0.668810 0.500000
O O2 0.234306 0.544142 0.719748
O O3 0.273663 0.780871 0.753083
O O4 0.330043 0.564206 0.719393
O O5 0.914315 0.559440 0.500000
O O6 0.852987 0.564754 0.273654
O O7 0.916545 0.368859 0.295145
O O8 0.947771 0.611073 0.239918
O O9 0.205443 0.391267 0.500000
O O10 0.945013 0.194516 0.500000
O O11 0.895622 0.115675 0.731102
O O12 0.987155 0.190415 0.755233
O O13 0.078654 0.135365 0.794289
O O14 0.027637 0.264478 0.000000
O O15 0.885512 0.027023 0.000000
#
# Coordination Sequence:
#
# PCOD8238500 Si02
#       6
#     8   8   8   8   8   8
#     4  10  22  41  63  89 121 154 193 243 295 348
#     4  10  22  40  59  85 121 155 194 243 292 347
#     4  10  22  40  63  89 118 154 194 239 293 350
#     4  11  24  38  58  89 120 157 198 244 294 349
#     4  11  22  39  62  87 116 157 200 244 296 350
#     4  10  22  40  59  85 120 155 195 244 292 346
#
# _framework density 19.770451999999999
#
# number of rings (size 3 to 8) (size 9 to 14) (size 15 to 20)
#    0.000    1.667    1.667    2.000    2.333    8.000 
#    0.000    0.000    0.000    0.000    0.000    0.000 
#    0.000    0.000    0.000    0.000    0.000    0.000 
#
# Total GULP energy -595544.819670 kJ/mol
# GULP energy per Si atom -12407.183743 kJ/mol
# Density = 1.972545 g / cm^3
# Si number density = 19.770452 Si / 1000 Ang^3
#
#
#
# Elastic Constant Matrix: (Units=GPa)
#
#
# Indices 1 2 3 4 5 6 
#
# 1 62.7937 3.5419 13.3613 0.0000 0.0000 0.0000
# 2 3.5419 74.8257 38.2359 0.0000 0.0000 0.0000
# 3 13.3613 38.2359 54.2511 0.0000 0.0000 0.0000
# 4 0.0000 0.0000 0.0000 39.1317 0.0000 0.0000
# 5 0.0000 0.0000 0.0000 0.0000 26.4227 0.0000
# 6 0.0000 0.0000 0.0000 0.0000 0.0000 31.2089
#
#
#
# Elastic Compliance Matrix: (Units=1/GPa)
#
#
# Indices 1 2 3 4 5 6 
#
# 1 0.017012 0.002088 -0.005661 0.000000 0.000000 0.000000
# 2 0.002088 0.021143 -0.015416 0.000000 0.000000 0.000000
# 3 -0.005661 -0.015416 0.030692 0.000000 0.000000 0.000000
# 4 0.000000 0.000000 0.000000 0.025555 0.000000 0.000000
# 5 0.000000 0.000000 0.000000 0.000000 0.037846 0.000000
# 6 0.000000 0.000000 0.000000 0.000000 0.000000 0.032042
#
#
# Mechanical properties :
#
#
# Convention : Reuss Voigt Hill
#
# Bulk Modulus (GPa) = 32.39544 33.57208 32.98376
# Shear Modulus (GPa) = 23.52304 28.46809 25.99557
#
# Velocity S-wave (km/s) = 3.45310 3.79876 3.63005
# Velocity P-wave (km/s) = 5.68506 6.02151 5.85570
#
# Compressibility (1/GPa) = 0.03086854
#
# Stress axis : x y z
#
# Youngs Moduli (GPa) = 58.78211 47.29720 32.58196
#
# Poissons Ratio (x) = -0.09874 0.18445
# Poissons Ratio (y) = -0.12271 0.50227
# Poissons Ratio (z) = 0.33277 0.72911
#
# Static dielectric constant tensor:
#      x y z
#    x 3.789870 0.000000 0.000000 
#    y 0.000000 3.573880 0.000000 
#    z 0.000000 0.000000 3.530270 
# 
# 
# High freq. dielectric constant tensor:
#      x y z
#    x 1.781930 0.000000 0.000000 
#    y 0.000000 1.780750 0.000000 
#    z 0.000000 0.000000 1.766360 
# 
# From -- ./inp_files/2966.got.cif
#   From: 2010.06.25/outbox.cif.g09.slc.cpg/sg58_2_cif.got.tgz:2966.got - 2010.06.26 21:38:00.
