data_PCOD8238966
_publ_section_title
;
Structure prediction by ZEFSAII (Michael W. Deem and Ramdas Pophale) SiO2 
 PCOD8238966
Probable space group: P N N M
;
_chemical_formula_sum "Si O2"
_cell_formula_units_Z 20
_cell_length_a 7.680546
_cell_length_b 5.026654
_cell_length_c 23.620217
_cell_angle_alpha 90.000000
_cell_angle_beta 90.000000
_cell_angle_gamma 90.000000
_cell_volume 911.916282
_symmetry_space_group_name_H-M "P N N M"
_symmetry_group_IT_number 58
_symmetry_cell_setting 'orthorhombic'
loop_
_space_group_symop_operation_xyz
x,y,z
-x,-y,z
1/2+x,1/2-y,1/2-z
1/2-x,1/2+y,1/2-z
-x,-y,-z
x,y,-z
1/2-x,1/2+y,1/2+z
1/2+x,1/2-y,1/2+z
loop_
_atom_site_type_symbol
_atom_site_label
_atom_site_fract_x
_atom_site_fract_y
_atom_site_fract_z
Si Si1 0.697840 0.927655 0.216893
Si Si2 0.622384 0.746112 0.000000
Si Si3 0.118085 0.241748 0.102631
O O1 0.799228 0.192874 0.236582
O O2 0.500000 0.000000 0.202851
O O3 0.791344 0.818181 0.161789
O O4 0.500000 0.500000 0.000000
O O5 0.736725 0.721104 0.944217
O O6 0.500000 0.000000 0.000000
O O7 0.000000 0.500000 0.109619
O O8 0.000000 0.000000 0.082037
#
# Coordination Sequence:
#
# PCOD8238966 Si02
#       3
#     8   4   8
#     4  12  25  43  67  98 134 174 219 270 326 389
#     4  12  26  46  70 100 132 172 220 274 330 390
#     4  12  25  45  69  98 133 175 220 271 328 391
#
# _framework density 21.931837000000002
#
# number of rings (size 3 to 8) (size 9 to 14) (size 15 to 20)
#    0.000    0.000    0.000   12.000    0.000    3.200 
#    0.000    0.000    0.000    0.000    0.000    0.000 
#    0.000    0.000    0.000    0.000    0.000    0.000 
#
# Total GULP energy -248163.120232 kJ/mol
# GULP energy per Si atom -12408.156012 kJ/mol
# Density = 2.188192 g / cm^3
# Si number density = 21.931837 Si / 1000 Ang^3
#
#
#
# Elastic Constant Matrix: (Units=GPa)
#
#
# Indices 1 2 3 4 5 6 
#
# 1 185.6023 104.9721 86.5782 0.0000 0.0000 0.0000
# 2 104.9721 203.5752 58.8160 0.0000 0.0000 0.0000
# 3 86.5782 58.8160 121.7465 0.0000 0.0000 0.0000
# 4 0.0000 0.0000 0.0000 40.9557 0.0000 0.0000
# 5 0.0000 0.0000 0.0000 0.0000 59.2789 0.0000
# 6 0.0000 0.0000 0.0000 0.0000 0.0000 64.6856
#
#
#
# Elastic Compliance Matrix: (Units=1/GPa)
#
#
# Indices 1 2 3 4 5 6 
#
# 1 0.009875 -0.003560 -0.005302 0.000000 0.000000 0.000000
# 2 -0.003560 0.006992 -0.000846 0.000000 0.000000 0.000000
# 3 -0.005302 -0.000846 0.012394 0.000000 0.000000 0.000000
# 4 0.000000 0.000000 0.000000 0.024417 0.000000 0.000000
# 5 0.000000 0.000000 0.000000 0.000000 0.016869 0.000000
# 6 0.000000 0.000000 0.000000 0.000000 0.000000 0.015459
#
#
# Mechanical properties :
#
#
# Convention : Reuss Voigt Hill
#
# Bulk Modulus (GPa) = 101.59568 112.40630 107.00099
# Shear Modulus (GPa) = 45.99623 50.35455 48.17539
#
# Velocity S-wave (km/s) = 4.58453 4.79681 4.69187
# Velocity P-wave (km/s) = 8.62831 9.05776 8.84564
#
# Compressibility (1/GPa) = 0.00984294
#
# Stress axis : x y z
#
# Youngs Moduli (GPa) = 101.26916 143.01317 80.68741
#
# Poissons Ratio (x) = 0.50910 0.42784
# Poissons Ratio (y) = 0.36050 0.06830
# Poissons Ratio (z) = 0.53698 0.12106
#
# Static dielectric constant tensor:
#      x y z
#    x 4.236160 0.000000 0.000000 
#    y 0.000000 4.370720 0.000000 
#    z 0.000000 0.000000 4.003470 
# 
# 
# High freq. dielectric constant tensor:
#      x y z
#    x 1.888520 0.000000 0.000000 
#    y 0.000000 1.889500 0.000000 
#    z 0.000000 0.000000 1.875910 
# 
# From -- ./inp_files/30656.got.cif
#   From: 2010.06.25/outbox.cif.g09.slc.cpg/sg58_16_cif.got.tgz:30656.got - 2010.06.26 21:38:00.
