data_PCOD8238235
_publ_section_title
;
Structure prediction by ZEFSAII (Michael W. Deem and Ramdas Pophale) SiO2 
 PCOD8238235
Probable space group: P N N M
;
_chemical_formula_sum "Si O2"
_cell_formula_units_Z 48
_cell_length_a 10.062041
_cell_length_b 8.481280
_cell_length_c 28.233310
_cell_angle_alpha 90.000000
_cell_angle_beta 90.000000
_cell_angle_gamma 90.000000
_cell_volume 2409.402078
_symmetry_space_group_name_H-M "P N N M"
_symmetry_group_IT_number 58
_symmetry_cell_setting 'orthorhombic'
loop_
_space_group_symop_operation_xyz
x,y,z
-x,-y,z
1/2+x,1/2-y,1/2-z
1/2-x,1/2+y,1/2-z
-x,-y,-z
x,y,-z
1/2-x,1/2+y,1/2+z
1/2+x,1/2-y,1/2+z
loop_
_atom_site_type_symbol
_atom_site_label
_atom_site_fract_x
_atom_site_fract_y
_atom_site_fract_z
Si Si1 0.597288 0.146323 0.949271
Si Si2 0.258950 0.818582 0.792326
Si Si3 0.270211 0.687215 0.689328
Si Si4 0.599362 0.642150 0.446241
Si Si5 0.500192 0.812264 0.145532
Si Si6 0.971319 0.317282 0.145333
O O1 0.748043 0.085628 0.939408
O O2 0.547407 0.256212 0.905752
O O3 0.500000 0.000000 0.953718
O O4 0.594219 0.238689 0.000000
O O5 0.268941 0.787744 0.736942
O O6 0.397222 0.758080 0.814407
O O7 0.140822 0.722702 0.816395
O O8 0.238793 0.003337 0.799798
O O9 0.399711 0.716221 0.658281
O O10 0.145522 0.749571 0.658632
O O11 0.500000 0.500000 0.434782
O O12 0.575378 0.704322 0.500000
O O13 0.571895 0.780045 0.408456
O O14 0.500000 0.000000 0.141048
O O15 0.000000 0.500000 0.149704
#
# Coordination Sequence:
#
# PCOD8238235 Si02
#       6
#     8   8   8   8   8   8
#     4   9  17  32  58  90 119 145 183 242 306 363
#     4  11  21  40  61  87 120 155 201 251 306 361
#     4  11  23  38  63  89 120 156 199 255 304 365
#     4  10  21  38  64  93 118 153 204 257 311 370
#     4   9  19  34  56  86 114 147 188 244 303 355
#     4  12  25  40  58  86 125 168 206 245 298 361
#
# _framework density 19.921953999999999
#
# number of rings (size 3 to 8) (size 9 to 14) (size 15 to 20)
#    0.000    1.667    1.667    3.500    4.667    1.667 
#    0.000    2.500    0.000    0.000    0.000    2.333 
#    0.000    0.000    0.000    0.000    0.000    0.000 
#
# Total GULP energy -595044.170558 kJ/mol
# GULP energy per Si atom -12396.753553 kJ/mol
# Density = 1.987661 g / cm^3
# Si number density = 19.921954 Si / 1000 Ang^3
#
#
#
# Elastic Constant Matrix: (Units=GPa)
#
#
# Indices 1 2 3 4 5 6 
#
# 1 146.6322 25.7226 59.7254 0.0000 0.0000 0.0000
# 2 25.7226 57.0745 17.2752 0.0000 0.0000 0.0000
# 3 59.7254 17.2752 150.4305 0.0000 0.0000 0.0000
# 4 0.0000 0.0000 0.0000 20.7168 0.0000 0.0000
# 5 0.0000 0.0000 0.0000 0.0000 36.8545 0.0000
# 6 0.0000 0.0000 0.0000 0.0000 0.0000 18.0668
#
#
#
# Elastic Compliance Matrix: (Units=1/GPa)
#
#
# Indices 1 2 3 4 5 6 
#
# 1 0.008587 -0.002940 -0.003072 0.000000 0.000000 0.000000
# 2 -0.002940 0.019159 -0.001033 0.000000 0.000000 0.000000
# 3 -0.003072 -0.001033 0.007986 0.000000 0.000000 0.000000
# 4 0.000000 0.000000 0.000000 0.048270 0.000000 0.000000
# 5 0.000000 0.000000 0.000000 0.000000 0.027134 0.000000
# 6 0.000000 0.000000 0.000000 0.000000 0.000000 0.055350
#
#
# Mechanical properties :
#
#
# Convention : Reuss Voigt Hill
#
# Bulk Modulus (GPa) = 46.20651 62.17594 54.19123
# Shear Modulus (GPa) = 26.62581 31.88856 29.25719
#
# Velocity S-wave (km/s) = 3.65979 4.00518 3.83638
# Velocity P-wave (km/s) = 6.41115 7.25715 6.84723
#
# Compressibility (1/GPa) = 0.02164197
#
# Stress axis : x y z
#
# Youngs Moduli (GPa) = 116.46022 52.19575 125.22430
#
# Poissons Ratio (x) = 0.15346 0.38463
# Poissons Ratio (y) = 0.34241 0.12933
# Poissons Ratio (z) = 0.35771 0.05391
#
# Static dielectric constant tensor:
#      x y z
#    x 3.967580 0.000000 0.000000 
#    y 0.000000 3.112250 0.000000 
#    z 0.000000 0.000000 4.372340 
# 
# 
# High freq. dielectric constant tensor:
#      x y z
#    x 1.801620 0.000000 0.000000 
#    y 0.000000 1.722400 0.000000 
#    z 0.000000 0.000000 1.805100 
# 
# From -- ./inp_files/34593.got.cif
#   From: 2010.06.25/outbox.cif.g09.slc.cpg/sg58_18_cif.got.tgz:34593.got - 2010.06.26 21:38:00.
