data_PCOD8238280
_publ_section_title
;
Structure prediction by ZEFSAII (Michael W. Deem and Ramdas Pophale) SiO2 
 PCOD8238280
Probable space group: P N N M
;
_chemical_formula_sum "Si O2"
_cell_formula_units_Z 48
_cell_length_a 14.709721
_cell_length_b 18.469415
_cell_length_c 9.084203
_cell_angle_alpha 90.000000
_cell_angle_beta 90.000000
_cell_angle_gamma 90.000000
_cell_volume 2467.995741
_symmetry_space_group_name_H-M "P N N M"
_symmetry_group_IT_number 58
_symmetry_cell_setting 'orthorhombic'
loop_
_space_group_symop_operation_xyz
x,y,z
-x,-y,z
1/2+x,1/2-y,1/2-z
1/2-x,1/2+y,1/2-z
-x,-y,-z
x,y,-z
1/2-x,1/2+y,1/2+z
1/2+x,1/2-y,1/2+z
loop_
_atom_site_type_symbol
_atom_site_label
_atom_site_fract_x
_atom_site_fract_y
_atom_site_fract_z
Si Si1 0.944074 0.431081 0.828299
Si Si2 0.897009 0.020507 0.828010
Si Si3 0.698144 0.251552 0.830301
Si Si4 0.737201 0.415649 0.829747
Si Si5 0.005872 0.714941 0.328576
Si Si6 0.347985 0.331201 0.825631
O O1 0.838055 0.444338 0.794137
O O2 0.982735 0.360961 0.749953
O O3 0.000000 0.500000 0.769147
O O4 0.960375 0.419183 0.000000
O O5 0.871813 0.091874 0.740475
O O6 0.833281 0.955572 0.774947
O O7 0.881459 0.033653 0.000000
O O8 0.000000 0.000000 0.791578
O O9 0.734370 0.331020 0.791296
O O10 0.592158 0.247905 0.792593
O O11 0.749170 0.193148 0.729780
O O12 0.717131 0.232424 0.000000
O O13 0.710724 0.429107 0.000000
O O14 0.020495 0.701428 0.500000
O O15 0.078590 0.772842 0.269057
O O16 0.347258 0.338640 0.000000
#
# Coordination Sequence:
#
# PCOD8238280 Si02
#       6
#     8   8   8   8   8   8
#     4  10  22  39  60  88 122 160 203 247 299 361
#     4  11  25  42  62  90 124 161 203 251 304 360
#     4  10  21  39  62  89 121 159 199 247 305 359
#     4  10  21  40  64  89 125 165 200 248 305 361
#     4  10  22  39  61  89 119 155 201 249 301 360
#     4  11  23  40  63  91 122 158 203 250 301 363
#
# _framework density 19.448979999999999
#
# number of rings (size 3 to 8) (size 9 to 14) (size 15 to 20)
#    0.000    1.667    1.667    2.000    2.333    5.667 
#    0.000    0.000    0.000    0.000    0.000    0.000 
#    0.000    0.000    0.000    0.000    0.000    0.000 
#
# Total GULP energy -595491.895368 kJ/mol
# GULP energy per Si atom -12406.081154 kJ/mol
# Density = 1.940471 g / cm^3
# Si number density = 19.448980 Si / 1000 Ang^3
#
#
#
# Elastic Constant Matrix: (Units=GPa)
#
#
# Indices 1 2 3 4 5 6 
#
# 1 90.6204 26.5796 38.1919 0.0000 0.0000 0.0000
# 2 26.5796 82.8014 35.7505 0.0000 0.0000 0.0000
# 3 38.1919 35.7505 59.2355 0.0000 0.0000 0.0000
# 4 0.0000 0.0000 0.0000 44.0003 0.0000 0.0000
# 5 0.0000 0.0000 0.0000 0.0000 30.2333 0.0000
# 6 0.0000 0.0000 0.0000 0.0000 0.0000 37.9862
#
#
#
# Elastic Compliance Matrix: (Units=1/GPa)
#
#
# Indices 1 2 3 4 5 6 
#
# 1 0.015199 -0.000876 -0.009271 0.000000 0.000000 0.000000
# 2 -0.000876 0.016384 -0.009323 0.000000 0.000000 0.000000
# 3 -0.009271 -0.009323 0.028486 0.000000 0.000000 0.000000
# 4 0.000000 0.000000 0.000000 0.022727 0.000000 0.000000
# 5 0.000000 0.000000 0.000000 0.000000 0.033076 0.000000
# 6 0.000000 0.000000 0.000000 0.000000 0.000000 0.026325
#
#
# Mechanical properties :
#
#
# Convention : Reuss Voigt Hill
#
# Bulk Modulus (GPa) = 47.32952 48.18906 47.75929
# Shear Modulus (GPa) = 26.57019 31.25298 28.91158
#
# Velocity S-wave (km/s) = 3.70015 4.01299 3.85974
# Velocity P-wave (km/s) = 6.53015 6.80464 6.66881
#
# Compressibility (1/GPa) = 0.02112846
#
# Stress axis : x y z
#
# Youngs Moduli (GPa) = 65.79276 61.03607 35.10505
#
# Poissons Ratio (x) = 0.05348 0.32545
# Poissons Ratio (y) = 0.05765 0.32729
# Poissons Ratio (z) = 0.60995 0.56905
#
# Static dielectric constant tensor:
#      x y z
#    x 3.721140 0.000000 0.000000 
#    y 0.000000 3.592240 0.000000 
#    z 0.000000 0.000000 3.517790 
# 
# 
# High freq. dielectric constant tensor:
#      x y z
#    x 1.772520 0.000000 0.000000 
#    y 0.000000 1.766800 0.000000 
#    z 0.000000 0.000000 1.753550 
# 
# From -- ./inp_files/5747.got.cif
#   From: 2010.06.25/outbox.cif.g09.slc.cpg/sg58_3_cif.got.tgz:5747.got - 2010.06.26 21:38:00.
