data_PCOD8238836
_publ_section_title
;
Structure prediction by ZEFSAII (Michael W. Deem and Ramdas Pophale) SiO2 
 PCOD8238836
Probable space group: P N N M
;
_chemical_formula_sum "Si O2"
_cell_formula_units_Z 40
_cell_length_a 13.461457
_cell_length_b 17.783274
_cell_length_c 8.951922
_cell_angle_alpha 90.000000
_cell_angle_beta 90.000000
_cell_angle_gamma 90.000000
_cell_volume 2142.989671
_symmetry_space_group_name_H-M "P N N M"
_symmetry_group_IT_number 58
_symmetry_cell_setting 'orthorhombic'
loop_
_space_group_symop_operation_xyz
x,y,z
-x,-y,z
1/2+x,1/2-y,1/2-z
1/2-x,1/2+y,1/2-z
-x,-y,-z
x,y,-z
1/2-x,1/2+y,1/2+z
1/2+x,1/2-y,1/2+z
loop_
_atom_site_type_symbol
_atom_site_label
_atom_site_fract_x
_atom_site_fract_y
_atom_site_fract_z
Si Si1 0.801103 0.975015 0.823784
Si Si2 0.399602 0.664600 0.174122
Si Si3 0.881563 0.117509 0.326674
Si Si4 0.821660 0.691447 0.829671
Si Si5 0.606648 0.027462 0.328090
O O1 0.837133 0.894717 0.767467
O O2 0.688702 0.986351 0.770686
O O3 0.873815 0.039800 0.763037
O O4 0.804649 0.976542 0.000000
O O5 0.515926 0.658008 0.213877
O O6 0.364206 0.747390 0.217211
O O7 0.380702 0.650661 0.000000
O O8 0.873712 0.095255 0.500000
O O9 0.792265 0.173865 0.284385
O O10 0.887669 0.617030 0.808887
O O11 0.827689 0.720804 0.000000
O O12 0.624500 0.004479 0.500000
O O13 0.500000 0.000000 0.270503
#
# Coordination Sequence:
#
# PCOD8238836 Si02
#       5
#     8   8   8   8   8
#     4  11  22  35  55  83 111 140 180 227 272 322
#     4  11  22  36  56  80 108 144 184 224 272 326
#     4   9  20  39  58  76 106 146 182 222 272 323
#     4   9  19  36  55  79 110 139 175 224 272 319
#     4   9  19  38  61  82 109 147 184 219 266 322
#
# _framework density 18.665510999999999
#
# number of rings (size 3 to 8) (size 9 to 14) (size 15 to 20)
#    0.000    2.200    0.000    4.200    0.000    9.200 
#    0.000    4.000    0.000    0.000    0.000    0.000 
#    0.000    0.000    0.000    0.000    0.000    0.000 
#
# Total GULP energy -496168.632923 kJ/mol
# GULP energy per Si atom -12404.215823 kJ/mol
# Density = 1.862303 g / cm^3
# Si number density = 18.665511 Si / 1000 Ang^3
#
#
#
# Elastic Constant Matrix: (Units=GPa)
#
#
# Indices 1 2 3 4 5 6 
#
# 1 111.5688 69.4910 49.2889 0.0000 0.0000 0.0000
# 2 69.4910 101.8397 47.3703 0.0000 0.0000 0.0000
# 3 49.2889 47.3703 89.5784 0.0000 0.0000 0.0000
# 4 0.0000 0.0000 0.0000 36.6578 0.0000 0.0000
# 5 0.0000 0.0000 0.0000 0.0000 21.2932 0.0000
# 6 0.0000 0.0000 0.0000 0.0000 0.0000 26.3593
#
#
#
# Elastic Compliance Matrix: (Units=1/GPa)
#
#
# Indices 1 2 3 4 5 6 
#
# 1 0.016697 -0.009443 -0.004194 0.000000 0.000000 0.000000
# 2 -0.009443 0.018363 -0.004515 0.000000 0.000000 0.000000
# 3 -0.004194 -0.004515 0.015859 0.000000 0.000000 0.000000
# 4 0.000000 0.000000 0.000000 0.027279 0.000000 0.000000
# 5 0.000000 0.000000 0.000000 0.000000 0.046963 0.000000
# 6 0.000000 0.000000 0.000000 0.000000 0.000000 0.037937
#
#
# Mechanical properties :
#
#
# Convention : Reuss Voigt Hill
#
# Bulk Modulus (GPa) = 68.41979 70.58747 69.50363
# Shear Modulus (GPa) = 24.47704 25.98452 25.23078
#
# Velocity S-wave (km/s) = 3.62519 3.73515 3.68058
# Velocity P-wave (km/s) = 7.36600 7.51671 7.44174
#
# Compressibility (1/GPa) = 0.01461566
#
# Stress axis : x y z
#
# Youngs Moduli (GPa) = 59.88989 54.45835 63.05758
#
# Poissons Ratio (x) = 0.51423 0.26446
# Poissons Ratio (y) = 0.56552 0.28469
# Poissons Ratio (z) = 0.25118 0.24587
#
# Static dielectric constant tensor:
#      x y z
#    x 3.626490 0.000000 0.000000 
#    y 0.000000 3.304470 0.000000 
#    z 0.000000 0.000000 3.356180 
# 
# 
# High freq. dielectric constant tensor:
#      x y z
#    x 1.733400 0.000000 0.000000 
#    y 0.000000 1.720940 0.000000 
#    z 0.000000 0.000000 1.722260 
# 
# From -- ./inp_files/3793.got.cif
#   From: 2010.06.25/outbox.cif.g09.slc.cpg/sg58_2_cif.got.tgz:3793.got - 2010.06.26 21:38:00.
