data_PCOD8238854
_publ_section_title
;
Structure prediction by ZEFSAII (Michael W. Deem and Ramdas Pophale) SiO2 
 PCOD8238854
Probable space group: P N N M
;
_chemical_formula_sum "Si O2"
_cell_formula_units_Z 56
_cell_length_a 16.317454
_cell_length_b 19.706008
_cell_length_c 8.978664
_cell_angle_alpha 90.000000
_cell_angle_beta 90.000000
_cell_angle_gamma 90.000000
_cell_volume 2887.106281
_symmetry_space_group_name_H-M "P N N M"
_symmetry_group_IT_number 58
_symmetry_cell_setting 'orthorhombic'
loop_
_space_group_symop_operation_xyz
x,y,z
-x,-y,z
1/2+x,1/2-y,1/2-z
1/2-x,1/2+y,1/2-z
-x,-y,-z
x,y,-z
1/2-x,1/2+y,1/2+z
1/2+x,1/2-y,1/2+z
loop_
_atom_site_type_symbol
_atom_site_label
_atom_site_fract_x
_atom_site_fract_y
_atom_site_fract_z
Si Si1 0.115136 0.023135 0.167137
Si Si2 0.273860 0.103768 0.176222
Si Si3 0.092882 0.500869 0.322606
Si Si4 0.797789 0.625395 0.323897
Si Si5 0.016516 0.155888 0.165500
Si Si6 0.373133 0.394104 0.172487
Si Si7 0.678754 0.268570 0.676900
O O1 0.199861 0.055404 0.225155
O O2 0.043218 0.077681 0.160369
O O3 0.088904 0.967316 0.288790
O O4 0.126847 0.992246 0.000000
O O5 0.358574 0.069008 0.235343
O O6 0.253018 0.180873 0.232244
O O7 0.275727 0.107310 0.000000
O O8 0.091104 0.502485 0.500000
O O9 0.139240 0.432792 0.267848
O O10 0.000000 0.500000 0.258446
O O11 0.799751 0.630487 0.500000
O O12 0.707895 0.607919 0.270043
O O13 0.820657 0.697264 0.256342
O O14 0.938429 0.163337 0.275354
O O15 0.091762 0.200175 0.224975
O O16 0.990560 0.179626 0.000000
O O17 0.353415 0.383521 0.000000
O O18 0.684670 0.259074 0.500000
#
# Coordination Sequence:
#
# PCOD8238854 Si02
#       7
#     8   8   8   8   8   8   8
#     4   9  16  31  55  80 107 144 182 216 269 340
#     4   8  14  30  56  81 108 145 186 224 271 341
#     4   9  17  32  58  88 110 139 191 245 282 330
#     4  11  22  38  59  81 114 152 191 238 290 349
#     4   9  19  35  56  79 109 150 188 222 275 349
#     4  12  23  33  51  81 114 145 185 234 283 331
#     4   9  19  37  59  82 112 150 189 234 290 349
#
# _framework density 19.396584000000001
#
# number of rings (size 3 to 8) (size 9 to 14) (size 15 to 20)
#    0.000    2.429    1.429    3.857    0.000    2.857 
#    2.571    2.143    0.000    1.714    0.000    0.000 
#    0.000    0.000    0.000    0.000    0.000    0.000 
#
# Total GULP energy -693870.064811 kJ/mol
# GULP energy per Si atom -12390.536872 kJ/mol
# Density = 1.935244 g / cm^3
# Si number density = 19.396584 Si / 1000 Ang^3
#
#
#
# Elastic Constant Matrix: (Units=GPa)
#
#
# Indices 1 2 3 4 5 6 
#
# 1 126.1133 48.7394 22.5746 0.0000 0.0000 0.0000
# 2 48.7394 113.6655 32.5108 0.0000 0.0000 0.0000
# 3 22.5746 32.5108 27.0012 0.0000 0.0000 0.0000
# 4 0.0000 0.0000 0.0000 28.2907 0.0000 0.0000
# 5 0.0000 0.0000 0.0000 0.0000 16.1849 0.0000
# 6 0.0000 0.0000 0.0000 0.0000 0.0000 9.1139
#
#
#
# Elastic Compliance Matrix: (Units=1/GPa)
#
#
# Indices 1 2 3 4 5 6 
#
# 1 0.009901 -0.002864 -0.004829 0.000000 0.000000 0.000000
# 2 -0.002864 0.014248 -0.014760 0.000000 0.000000 0.000000
# 3 -0.004829 -0.014760 0.058845 0.000000 0.000000 0.000000
# 4 0.000000 0.000000 0.000000 0.035347 0.000000 0.000000
# 5 0.000000 0.000000 0.000000 0.000000 0.061786 0.000000
# 6 0.000000 0.000000 0.000000 0.000000 0.000000 0.109723
#
#
# Mechanical properties :
#
#
# Convention : Reuss Voigt Hill
#
# Bulk Modulus (GPa) = 26.25615 52.71438 39.48527
# Shear Modulus (GPa) = 14.39050 21.58157 17.98603
#
# Velocity S-wave (km/s) = 2.72676 3.33926 3.04843
# Velocity P-wave (km/s) = 4.84556 6.48873 5.72639
#
# Compressibility (1/GPa) = 0.03808631
#
# Stress axis : x y z
#
# Youngs Moduli (GPa) = 101.00286 70.18702 16.99391
#
# Poissons Ratio (x) = 0.20103 0.08206
# Poissons Ratio (y) = 0.28929 0.25083
# Poissons Ratio (z) = 0.48773 1.03597
#
# Static dielectric constant tensor:
#      x y z
#    x 3.897420 0.000000 0.000000 
#    y 0.000000 3.765020 0.000000 
#    z 0.000000 0.000000 3.163580 
# 
# 
# High freq. dielectric constant tensor:
#      x y z
#    x 1.761980 0.000000 0.000000 
#    y 0.000000 1.746680 0.000000 
#    z 0.000000 0.000000 1.712190 
# 
# From -- ./inp_files/6329.got.cif
#   From: 2010.06.25/outbox.cif.g09.slc.cpg/sg58_4_cif.got.tgz:6329.got - 2010.06.26 21:38:00.
