data_PCOD8238309
_publ_section_title
;
Structure prediction by ZEFSAII (Michael W. Deem and Ramdas Pophale) SiO2 
 PCOD8238309
Probable space group: P N N M
;
_chemical_formula_sum "Si O2"
_cell_formula_units_Z 64
_cell_length_a 14.049755
_cell_length_b 13.286322
_cell_length_c 17.643201
_cell_angle_alpha 90.000000
_cell_angle_beta 90.000000
_cell_angle_gamma 90.000000
_cell_volume 3293.448726
_symmetry_space_group_name_H-M "P N N M"
_symmetry_group_IT_number 58
_symmetry_cell_setting 'orthorhombic'
loop_
_space_group_symop_operation_xyz
x,y,z
-x,-y,z
1/2+x,1/2-y,1/2-z
1/2-x,1/2+y,1/2-z
-x,-y,-z
x,y,-z
1/2-x,1/2+y,1/2+z
1/2+x,1/2-y,1/2+z
loop_
_atom_site_type_symbol
_atom_site_label
_atom_site_fract_x
_atom_site_fract_y
_atom_site_fract_z
Si Si1 0.329767 0.607595 0.086601
Si Si2 0.329872 0.785492 0.689464
Si Si3 0.687257 0.788825 0.689867
Si Si4 0.502962 0.751844 0.911636
Si Si5 0.618569 0.394342 0.584745
Si Si6 0.893889 0.118659 0.915506
Si Si7 0.491912 0.119304 0.768930
Si Si8 0.316321 0.381484 0.913604
O O1 0.235931 0.630955 0.134650
O O2 0.419208 0.675209 0.110227
O O3 0.359169 0.492168 0.100655
O O4 0.302318 0.627444 0.000000
O O5 0.268583 0.766008 0.763244
O O6 0.335827 0.680599 0.644685
O O7 0.431792 0.829515 0.712955
O O8 0.277112 0.866672 0.636988
O O9 0.638606 0.700933 0.643109
O O10 0.612092 0.846965 0.741785
O O11 0.493158 0.847755 0.856545
O O12 0.602375 0.698232 0.892527
O O13 0.497435 0.785161 0.000000
O O14 0.657816 0.371072 0.500000
O O15 0.506485 0.382657 0.584518
O O16 0.646103 0.508575 0.608203
O O17 0.856609 0.145139 0.000000
O O18 0.500000 0.000000 0.764795
O O19 0.283902 0.368685 0.000000
#
# Coordination Sequence:
#
# PCOD8238309 Si02
#       8
#     8   8   8   8   8   8   8   8
#     4  10  21  39  64  92 120 156 203 250 301 364
#     4  12  23  40  61  87 127 166 200 248 302 364
#     4  12  23  40  61  87 127 166 200 248 302 364
#     4  10  21  43  66  88 119 160 206 256 303 352
#     4   9  19  38  64  90 116 150 196 248 299 353
#     4   9  19  38  64  90 116 150 196 248 299 353
#     4  12  26  44  60  89 129 164 201 253 311 364
#     4  10  21  39  64  92 120 156 203 250 301 364
#
# _framework density 19.432517000000001
#
# number of rings (size 3 to 8) (size 9 to 14) (size 15 to 20)
#    0.000    1.500    3.750    2.625    0.000    3.750 
#    0.000    0.000    0.000    3.000    0.000    0.000 
#    0.000    0.000    0.000    0.000    0.000    0.000 
#
# Total GULP energy -793677.368652 kJ/mol
# GULP energy per Si atom -12401.208885 kJ/mol
# Density = 1.938829 g / cm^3
# Si number density = 19.432517 Si / 1000 Ang^3
#
#
#
# Elastic Constant Matrix: (Units=GPa)
#
#
# Indices 1 2 3 4 5 6 
#
# 1 62.8412 10.8343 21.9878 0.0000 0.0000 0.0000
# 2 10.8343 99.0277 43.4295 0.0000 0.0000 0.0000
# 3 21.9878 43.4295 84.5009 0.0000 0.0000 0.0000
# 4 0.0000 0.0000 0.0000 32.7979 0.0000 0.0000
# 5 0.0000 0.0000 0.0000 0.0000 59.8714 0.0000
# 6 0.0000 0.0000 0.0000 0.0000 0.0000 23.8995
#
#
#
# Elastic Compliance Matrix: (Units=1/GPa)
#
#
# Indices 1 2 3 4 5 6 
#
# 1 0.017508 0.000106 -0.004610 0.000000 0.000000 0.000000
# 2 0.000106 0.013037 -0.006728 0.000000 0.000000 0.000000
# 3 -0.004610 -0.006728 0.016492 0.000000 0.000000 0.000000
# 4 0.000000 0.000000 0.000000 0.030490 0.000000 0.000000
# 5 0.000000 0.000000 0.000000 0.000000 0.016702 0.000000
# 6 0.000000 0.000000 0.000000 0.000000 0.000000 0.041842
#
#
# Mechanical properties :
#
#
# Convention : Reuss Voigt Hill
#
# Bulk Modulus (GPa) = 40.69564 44.31922 42.50743
# Shear Modulus (GPa) = 29.98923 34.65496 32.32209
#
# Velocity S-wave (km/s) = 3.93268 4.22755 4.08278
# Velocity P-wave (km/s) = 6.45049 6.83270 6.64435
#
# Compressibility (1/GPa) = 0.02457266
#
# Stress axis : x y z
#
# Youngs Moduli (GPa) = 57.11694 76.70318 60.63595
#
# Poissons Ratio (x) = -0.00817 0.27956
# Poissons Ratio (y) = -0.00608 0.40797
# Poissons Ratio (z) = 0.26333 0.51608
#
# Static dielectric constant tensor:
#      x y z
#    x 3.555230 0.000000 0.000000 
#    y 0.000000 3.634550 0.000000 
#    z 0.000000 0.000000 3.758820 
# 
# 
# High freq. dielectric constant tensor:
#      x y z
#    x 1.754310 0.000000 0.000000 
#    y 0.000000 1.756940 0.000000 
#    z 0.000000 0.000000 1.766400 
# 
# From -- ./inp_files/26989.got.cif
#   From: 2010.06.25/outbox.cif.g09.slc.cpg/sg58_14_cif.got.tgz:26989.got - 2010.06.26 21:38:00.
