data_PCOD8238303
_publ_section_title
;
Structure prediction by ZEFSAII (Michael W. Deem and Ramdas Pophale) SiO2 
 PCOD8238303
Probable space group: P N N M
;
_chemical_formula_sum "Si O2"
_cell_formula_units_Z 64
_cell_length_a 9.695186
_cell_length_b 21.512790
_cell_length_c 13.321018
_cell_angle_alpha 90.000000
_cell_angle_beta 90.000000
_cell_angle_gamma 90.000000
_cell_volume 2778.371390
_symmetry_space_group_name_H-M "P N N M"
_symmetry_group_IT_number 58
_symmetry_cell_setting 'orthorhombic'
loop_
_space_group_symop_operation_xyz
x,y,z
-x,-y,z
1/2+x,1/2-y,1/2-z
1/2-x,1/2+y,1/2-z
-x,-y,-z
x,y,-z
1/2-x,1/2+y,1/2+z
1/2+x,1/2-y,1/2+z
loop_
_atom_site_type_symbol
_atom_site_label
_atom_site_fract_x
_atom_site_fract_y
_atom_site_fract_z
Si Si1 0.839312 0.490832 0.883173
Si Si2 0.110965 0.552772 0.617429
Si Si3 0.210982 0.136528 0.613649
Si Si4 0.449983 0.227733 0.612099
Si Si5 0.345806 0.479569 0.283889
Si Si6 0.926388 0.190607 0.384086
Si Si7 0.817909 0.155338 0.184279
Si Si8 0.016645 0.321297 0.316389
O O1 0.790907 0.423024 0.840762
O O2 0.742112 0.536206 0.818058
O O3 0.000000 0.500000 0.857003
O O4 0.813030 0.503163 0.000000
O O5 0.107260 0.565801 0.500000
O O6 0.263783 0.529874 0.648921
O O7 0.077757 0.617571 0.673119
O O8 0.000000 0.500000 0.648720
O O9 0.188546 0.117272 0.500000
O O10 0.298115 0.198962 0.624339
O O11 0.060692 0.152469 0.657006
O O12 0.511689 0.214941 0.500000
O O13 0.431035 0.301203 0.629787
O O14 0.541000 0.196189 0.698513
O O15 0.500000 0.500000 0.255706
O O16 0.358449 0.414898 0.343078
O O17 0.888063 0.174803 0.500000
O O18 0.811376 0.169241 0.304735
O O19 0.946687 0.264826 0.376417
O O20 0.666859 0.166361 0.137679
#
# Coordination Sequence:
#
# PCOD8238303 Si02
#       8
#     8   8   8   8   8   8   8   8
#     4  10  22  39  65 100 138 182 231 282 337 402
#     4  11  24  44  73 101 131 176 228 280 335 399
#     4   9  17  34  61  89 121 166 214 262 328 399
#     4  10  22  39  63  93 127 166 210 271 341 404
#     4  12  26  44  66  95 140 184 227 281 338 405
#     4  10  21  39  63  94 132 173 218 276 348 411
#     4  11  24  39  63  96 130 173 222 279 330 404
#     4  11  22  41  68  98 131 168 227 284 337 398
#
# _framework density 23.035077000000001
#
# number of rings (size 3 to 8) (size 9 to 14) (size 15 to 20)
#    0.000    1.500    2.500    2.250    1.750    2.500 
#    2.250    0.000    0.000    0.375    0.000    0.000 
#    0.000    0.000    0.000    0.000    0.000    0.000 
#
# Total GULP energy -793215.263520 kJ/mol
# GULP energy per Si atom -12393.988493 kJ/mol
# Density = 2.298265 g / cm^3
# Si number density = 23.035077 Si / 1000 Ang^3
#
#
#
# Elastic Constant Matrix: (Units=GPa)
#
#
# Indices 1 2 3 4 5 6 
#
# 1 100.2766 28.0380 -1.1381 0.0000 0.0000 0.0000
# 2 28.0380 135.0608 -0.2059 0.0000 0.0000 0.0000
# 3 -1.1381 -0.2059 77.0147 0.0000 0.0000 0.0000
# 4 0.0000 0.0000 0.0000 17.5530 0.0000 0.0000
# 5 0.0000 0.0000 0.0000 0.0000 16.7471 0.0000
# 6 0.0000 0.0000 0.0000 0.0000 0.0000 31.7554
#
#
#
# Elastic Compliance Matrix: (Units=1/GPa)
#
#
# Indices 1 2 3 4 5 6 
#
# 1 0.010589 -0.002198 0.000151 0.000000 0.000000 0.000000
# 2 -0.002198 0.007860 -0.000011 0.000000 0.000000 0.000000
# 3 0.000151 -0.000011 0.012987 0.000000 0.000000 0.000000
# 4 0.000000 0.000000 0.000000 0.056970 0.000000 0.000000
# 5 0.000000 0.000000 0.000000 0.000000 0.059712 0.000000
# 6 0.000000 0.000000 0.000000 0.000000 0.000000 0.031491
#
#
# Mechanical properties :
#
#
# Convention : Reuss Voigt Hill
#
# Bulk Modulus (GPa) = 36.60569 40.63778 38.62174
# Shear Modulus (GPa) = 25.92928 32.25498 29.09213
#
# Velocity S-wave (km/s) = 3.35870 3.74606 3.55766
# Velocity P-wave (km/s) = 5.56479 6.03246 5.80334
#
# Compressibility (1/GPa) = 0.02731816
#
# Stress axis : x y z
#
# Youngs Moduli (GPa) = 94.44045 127.22102 77.00170
#
# Poissons Ratio (x) = 0.27962 -0.01160
# Poissons Ratio (y) = 0.20757 0.00088
# Poissons Ratio (z) = -0.01422 0.00146
#
# Static dielectric constant tensor:
#      x y z
#    x 3.908900 0.000000 0.000000 
#    y 0.000000 4.331700 0.000000 
#    z 0.000000 0.000000 4.138780 
# 
# 
# High freq. dielectric constant tensor:
#      x y z
#    x 1.892480 0.000000 0.000000 
#    y 0.000000 1.917550 0.000000 
#    z 0.000000 0.000000 1.904750 
# 
# From -- ./inp_files/20304.got.cif
#   From: 2010.06.25/outbox.cif.g09.slc.cpg/sg58_11_cif.got.tgz:20304.got - 2010.06.26 21:38:00.
