data_PCOD8238398
_publ_section_title
;
Structure prediction by ZEFSAII (Michael W. Deem and Ramdas Pophale) SiO2 
 PCOD8238398
Probable space group: P N N M
;
_chemical_formula_sum "Si O2"
_cell_formula_units_Z 48
_cell_length_a 15.627896
_cell_length_b 18.900313
_cell_length_c 7.703361
_cell_angle_alpha 90.000000
_cell_angle_beta 90.000000
_cell_angle_gamma 90.000000
_cell_volume 2275.358115
_symmetry_space_group_name_H-M "P N N M"
_symmetry_group_IT_number 58
_symmetry_cell_setting 'orthorhombic'
loop_
_space_group_symop_operation_xyz
x,y,z
-x,-y,z
1/2+x,1/2-y,1/2-z
1/2-x,1/2+y,1/2-z
-x,-y,-z
x,y,-z
1/2-x,1/2+y,1/2+z
1/2+x,1/2-y,1/2+z
loop_
_atom_site_type_symbol
_atom_site_label
_atom_site_fract_x
_atom_site_fract_y
_atom_site_fract_z
Si Si1 0.384088 0.677256 0.704106
Si Si2 0.033010 0.614166 0.500000
Si Si3 0.249550 0.932151 0.701948
Si Si4 0.222260 0.768103 0.299389
Si Si5 0.131422 0.481128 0.500000
Si Si6 0.960474 0.275946 0.803762
Si Si7 0.090443 0.018671 0.301632
O O1 0.379351 0.668035 0.500000
O O2 0.300774 0.720280 0.771169
O O3 0.471460 0.716857 0.758975
O O4 0.383749 0.600374 0.788765
O O5 0.117727 0.565722 0.500000
O O6 0.031890 0.658789 0.675484
O O7 0.954200 0.562666 0.500000
O O8 0.266534 0.951745 0.500000
O O9 0.248255 0.848642 0.729245
O O10 0.163027 0.967775 0.776559
O O11 0.323302 0.963181 0.820149
O O12 0.203231 0.751260 0.500000
O O13 0.135595 0.754217 0.194581
O O14 0.983355 0.300435 0.000000
O O15 0.081915 0.996301 0.500000
O O16 0.000000 0.000000 0.207720
#
# Coordination Sequence:
#
# PCOD8238398 Si02
#       7
#     8   4   8   8   4   8   8
#     4  10  23  39  63  95 127 167 212 264 324 385
#     4  11  26  46  66  94 129 176 218 281 334 383
#     4  10  23  42  66  96 135 172 221 270 324 397
#     4  10  21  41  66  93 131 173 210 270 328 382
#     4  11  26  44  69  92 128 178 227 267 335 398
#     4  11  24  42  66  97 132 167 222 273 329 392
#     4  10  22  39  61  90 130 174 208 257 333 392
#
# _framework density 21.095583000000001
#
# number of rings (size 3 to 8) (size 9 to 14) (size 15 to 20)
#    0.000    1.667    0.833    2.000    5.833    5.000 
#    0.000    1.667    0.000    0.000    0.000    0.000 
#    0.000    0.000    0.000    0.000    0.000    0.000 
#
# Total GULP energy -595236.760512 kJ/mol
# GULP energy per Si atom -12400.765844 kJ/mol
# Density = 2.104757 g / cm^3
# Si number density = 21.095583 Si / 1000 Ang^3
#
#
#
# Elastic Constant Matrix: (Units=GPa)
#
#
# Indices 1 2 3 4 5 6 
#
# 1 124.2390 43.4171 14.7141 0.0000 0.0000 0.0000
# 2 43.4171 120.4319 23.5360 0.0000 0.0000 0.0000
# 3 14.7141 23.5360 72.8277 0.0000 0.0000 0.0000
# 4 0.0000 0.0000 0.0000 28.0171 0.0000 0.0000
# 5 0.0000 0.0000 0.0000 0.0000 19.8619 0.0000
# 6 0.0000 0.0000 0.0000 0.0000 0.0000 31.9368
#
#
#
# Elastic Compliance Matrix: (Units=1/GPa)
#
#
# Indices 1 2 3 4 5 6 
#
# 1 0.009258 -0.003172 -0.000845 0.000000 0.000000 0.000000
# 2 -0.003172 0.009950 -0.002575 0.000000 0.000000 0.000000
# 3 -0.000845 -0.002575 0.014734 0.000000 0.000000 0.000000
# 4 0.000000 0.000000 0.000000 0.035692 0.000000 0.000000
# 5 0.000000 0.000000 0.000000 0.000000 0.050348 0.000000
# 6 0.000000 0.000000 0.000000 0.000000 0.000000 0.031312
#
#
# Mechanical properties :
#
#
# Convention : Reuss Voigt Hill
#
# Bulk Modulus (GPa) = 48.17575 53.42589 50.80082
# Shear Modulus (GPa) = 29.17193 31.68524 30.42859
#
# Velocity S-wave (km/s) = 3.72270 3.87975 3.80203
# Velocity P-wave (km/s) = 6.43152 6.74170 6.58844
#
# Compressibility (1/GPa) = 0.02075733
#
# Stress axis : x y z
#
# Youngs Moduli (GPa) = 108.01794 100.49957 67.87075
#
# Poissons Ratio (x) = 0.31882 0.05737
# Poissons Ratio (y) = 0.34267 0.17475
# Poissons Ratio (z) = 0.09130 0.25876
#
# Static dielectric constant tensor:
#      x y z
#    x 4.285790 0.000000 0.000000 
#    y 0.000000 3.884320 0.000000 
#    z 0.000000 0.000000 3.672020 
# 
# 
# High freq. dielectric constant tensor:
#      x y z
#    x 1.841760 0.000000 0.000000 
#    y 0.000000 1.831680 0.000000 
#    z 0.000000 0.000000 1.822600 
# 
# From -- ./inp_files/5962.got.cif
#   From: 2010.06.25/outbox.cif.g09.slc.cpg/sg58_3_cif.got.tgz:5962.got - 2010.06.26 21:38:00.
