data_PCOD8238468
_publ_section_title
;
Structure prediction by ZEFSAII (Michael W. Deem and Ramdas Pophale) SiO2 
 PCOD8238468
Probable space group: P N N M
;
_chemical_formula_sum "Si O2"
_cell_formula_units_Z 52
_cell_length_a 12.457371
_cell_length_b 27.093134
_cell_length_c 7.501125
_cell_angle_alpha 90.000000
_cell_angle_beta 90.000000
_cell_angle_gamma 90.000000
_cell_volume 2531.698861
_symmetry_space_group_name_H-M "P N N M"
_symmetry_group_IT_number 58
_symmetry_cell_setting 'orthorhombic'
loop_
_space_group_symop_operation_xyz
x,y,z
-x,-y,z
1/2+x,1/2-y,1/2-z
1/2-x,1/2+y,1/2-z
-x,-y,-z
x,y,-z
1/2-x,1/2+y,1/2+z
1/2+x,1/2-y,1/2+z
loop_
_atom_site_type_symbol
_atom_site_label
_atom_site_fract_x
_atom_site_fract_y
_atom_site_fract_z
Si Si1 0.117360 0.976356 0.000000
Si Si2 0.276023 0.651460 0.789015
Si Si3 0.654203 0.604642 0.208378
Si Si4 0.399577 0.880342 0.295270
Si Si5 0.058941 0.703995 0.791674
Si Si6 0.002259 0.557594 0.500000
Si Si7 0.000032 0.812084 0.299631
Si Si8 0.249157 0.573926 0.500000
O O1 0.134349 0.944613 0.821396
O O2 0.000000 0.000000 0.000000
O O3 0.207331 0.018592 0.000000
O O4 0.169895 0.680150 0.724176
O O5 0.377589 0.685201 0.729898
O O6 0.288784 0.600605 0.680830
O O7 0.271084 0.639610 0.000000
O O8 0.773509 0.626054 0.235058
O O9 0.577610 0.647405 0.291412
O O10 0.634498 0.591891 0.000000
O O11 0.428568 0.892438 0.500000
O O12 0.458938 0.830107 0.233569
O O13 0.441677 0.925211 0.177575
O O14 0.046310 0.757401 0.706843
O O15 0.061938 0.712088 0.000000
O O16 0.000000 0.500000 0.500000
O O17 0.121957 0.577011 0.500000
O O18 0.997974 0.830397 0.500000
#
# Coordination Sequence:
#
# PCOD8238468 Si02
#       8
#     4   8   8   8   8   4   8   4
#     4  12  26  44  70 100 128 171 229 270 335 382
#     4  10  23  43  60  92 133 162 215 270 319 388
#     4  10  23  44  65  94 134 171 214 268 324 390
#     4  10  22  42  62  89 130 167 208 263 317 389
#     4  10  22  38  60  91 124 171 212 257 327 380
#     4  12  24  40  64  96 124 165 218 266 325 378
#     4  10  23  39  63  93 127 170 214 264 321 389
#     4  12  24  40  70  92 124 176 213 277 329 378
#
# _framework density 20.539570000000001
#
# number of rings (size 3 to 8) (size 9 to 14) (size 15 to 20)
#    0.000    1.538    1.538    2.308    6.462    1.231 
#    0.000    0.000    0.000    0.000    0.000    0.000 
#    0.000    0.000    0.000    0.000    0.000    0.000 
#
# Total GULP energy -644784.590798 kJ/mol
# GULP energy per Si atom -12399.703669 kJ/mol
# Density = 2.049282 g / cm^3
# Si number density = 20.539570 Si / 1000 Ang^3
#
#
#
# Elastic Constant Matrix: (Units=GPa)
#
#
# Indices 1 2 3 4 5 6 
#
# 1 152.8684 67.4300 45.2163 0.0000 0.0000 0.0000
# 2 67.4300 153.7246 53.5550 0.0000 0.0000 0.0000
# 3 45.2163 53.5550 85.0303 0.0000 0.0000 0.0000
# 4 0.0000 0.0000 0.0000 31.6856 0.0000 0.0000
# 5 0.0000 0.0000 0.0000 0.0000 15.5073 0.0000
# 6 0.0000 0.0000 0.0000 0.0000 0.0000 39.3490
#
#
#
# Elastic Compliance Matrix: (Units=1/GPa)
#
#
# Indices 1 2 3 4 5 6 
#
# 1 0.008607 -0.002794 -0.002817 0.000000 0.000000 0.000000
# 2 -0.002794 0.009241 -0.004334 0.000000 0.000000 0.000000
# 3 -0.002817 -0.004334 0.015989 0.000000 0.000000 0.000000
# 4 0.000000 0.000000 0.000000 0.031560 0.000000 0.000000
# 5 0.000000 0.000000 0.000000 0.000000 0.064486 0.000000
# 6 0.000000 0.000000 0.000000 0.000000 0.000000 0.025414
#
#
# Mechanical properties :
#
#
# Convention : Reuss Voigt Hill
#
# Bulk Modulus (GPa) = 71.70899 80.44731 76.07815
# Shear Modulus (GPa) = 27.80315 32.33654 30.06985
#
# Velocity S-wave (km/s) = 3.68317 3.97212 3.83037
# Velocity P-wave (km/s) = 7.28533 7.76460 7.52878
#
# Compressibility (1/GPa) = 0.01394525
#
# Stress axis : x y z
#
# Youngs Moduli (GPa) = 116.17992 108.21649 62.54465
#
# Poissons Ratio (x) = 0.30236 0.17621
# Poissons Ratio (y) = 0.32461 0.27109
# Poissons Ratio (z) = 0.32732 0.46905
#
# Static dielectric constant tensor:
#      x y z
#    x 4.133460 0.000000 0.000000 
#    y 0.000000 3.663820 0.000000 
#    z 0.000000 0.000000 3.205600 
# 
# 
# High freq. dielectric constant tensor:
#      x y z
#    x 1.823480 0.000000 0.000000 
#    y 0.000000 1.795660 0.000000 
#    z 0.000000 0.000000 1.808150 
# 
# From -- ./inp_files/4404.got.cif
#   From: 2010.06.25/outbox.cif.g09.slc.cpg/sg58_3_cif.got.tgz:4404.got - 2010.06.26 21:38:00.
