data_PCOD8238684
_publ_section_title
;
Structure prediction by ZEFSAII (Michael W. Deem and Ramdas Pophale) SiO2 
 PCOD8238684
Probable space group: P N N M
;
_chemical_formula_sum "Si O2"
_cell_formula_units_Z 48
_cell_length_a 8.872345
_cell_length_b 9.691341
_cell_length_c 27.217328
_cell_angle_alpha 90.000000
_cell_angle_beta 90.000000
_cell_angle_gamma 90.000000
_cell_volume 2340.279794
_symmetry_space_group_name_H-M "P N N M"
_symmetry_group_IT_number 58
_symmetry_cell_setting 'orthorhombic'
loop_
_space_group_symop_operation_xyz
x,y,z
-x,-y,z
1/2+x,1/2-y,1/2-z
1/2-x,1/2+y,1/2-z
-x,-y,-z
x,y,-z
1/2-x,1/2+y,1/2+z
1/2+x,1/2-y,1/2+z
loop_
_atom_site_type_symbol
_atom_site_label
_atom_site_fract_x
_atom_site_fract_y
_atom_site_fract_z
Si Si1 0.325088 0.980169 0.942992
Si Si2 0.169898 0.662160 0.789207
Si Si3 0.327875 0.225933 0.398182
Si Si4 0.831090 0.019181 0.556315
Si Si5 0.681752 0.150320 0.707583
Si Si6 0.823038 0.764288 0.100051
O O1 0.281199 0.825169 0.928727
O O2 0.500000 0.000000 0.931584
O O3 0.225963 0.078177 0.908013
O O4 0.288270 0.007697 0.000000
O O5 0.202257 0.740875 0.840218
O O6 0.236139 0.754431 0.746503
O O7 0.241377 0.507809 0.789460
O O8 0.993256 0.651276 0.780496
O O9 0.500815 0.252896 0.411829
O O10 0.288146 0.070341 0.413111
O O11 0.827462 0.972631 0.500000
O O12 0.776405 0.176329 0.561691
O O13 0.000000 0.000000 0.577343
O O14 0.716847 0.213740 0.654487
#
# Coordination Sequence:
#
# PCOD8238684 Si02
#       6
#     8   8   8   8   8   8
#     4  11  25  43  62  91 130 167 208 259 312 369
#     4  10  23  43  64  92 126 160 203 255 309 368
#     4  11  23  42  65  91 125 164 209 258 307 369
#     4  11  23  39  62  93 126 161 204 255 310 369
#     4  10  23  43  64  92 126 160 203 255 309 368
#     4  11  23  42  65  91 125 164 209 258 307 369
#
# _framework density 20.510369000000001
#
# number of rings (size 3 to 8) (size 9 to 14) (size 15 to 20)
#    0.000    1.333    1.667    3.000    2.333   10.000 
#    0.000    0.000    0.000    0.000    0.000    0.000 
#    0.000    0.000    0.000    0.000    0.000    0.000 
#
# Total GULP energy -595478.051029 kJ/mol
# GULP energy per Si atom -12405.792730 kJ/mol
# Density = 2.046369 g / cm^3
# Si number density = 20.510369 Si / 1000 Ang^3
#
#
#
# Elastic Constant Matrix: (Units=GPa)
#
#
# Indices 1 2 3 4 5 6 
#
# 1 81.6825 26.4220 57.0786 0.0000 0.0000 0.0000
# 2 26.4220 87.1349 35.7665 0.0000 0.0000 0.0000
# 3 57.0786 35.7665 89.0461 0.0000 0.0000 0.0000
# 4 0.0000 0.0000 0.0000 26.9657 0.0000 0.0000
# 5 0.0000 0.0000 0.0000 0.0000 32.7399 0.0000
# 6 0.0000 0.0000 0.0000 0.0000 0.0000 37.8477
#
#
#
# Elastic Compliance Matrix: (Units=1/GPa)
#
#
# Indices 1 2 3 4 5 6 
#
# 1 0.022258 -0.001069 -0.013838 0.000000 0.000000 0.000000
# 2 -0.001069 0.013794 -0.004855 0.000000 0.000000 0.000000
# 3 -0.013838 -0.004855 0.022050 0.000000 0.000000 0.000000
# 4 0.000000 0.000000 0.000000 0.037084 0.000000 0.000000
# 5 0.000000 0.000000 0.000000 0.000000 0.030544 0.000000
# 6 0.000000 0.000000 0.000000 0.000000 0.000000 0.026422
#
#
# Mechanical properties :
#
#
# Convention : Reuss Voigt Hill
#
# Bulk Modulus (GPa) = 53.82817 55.15528 54.49172
# Shear Modulus (GPa) = 25.26925 28.75040 27.00983
#
# Velocity S-wave (km/s) = 3.51383 3.74806 3.63283
# Velocity P-wave (km/s) = 6.53942 6.75872 6.64998
#
# Compressibility (1/GPa) = 0.01857763
#
# Stress axis : x y z
#
# Youngs Moduli (GPa) = 44.92715 72.49783 45.35061
#
# Poissons Ratio (x) = 0.07752 0.62757
# Poissons Ratio (y) = 0.04804 0.22018
# Poissons Ratio (z) = 0.62171 0.35197
#
# Static dielectric constant tensor:
#      x y z
#    x 3.663130 0.000000 0.000000 
#    y 0.000000 13.303620 0.000000 
#    z 0.000000 0.000000 3.655600 
# 
# 
# High freq. dielectric constant tensor:
#      x y z
#    x 1.804270 0.000000 0.000000 
#    y 0.000000 1.813920 0.000000 
#    z 0.000000 0.000000 1.805580 
# 
# From -- ./inp_files/34575.got.cif
#   From: 2010.06.25/outbox.cif.g09.slc.cpg/sg58_18_cif.got.tgz:34575.got - 2010.06.26 21:38:00.
