data_PCOD8238022
_publ_section_title
;
Structure prediction by ZEFSAII (Michael W. Deem and Ramdas Pophale) SiO2 
 PCOD8238022
Probable space group: P N N M
;
_chemical_formula_sum "Si O2"
_cell_formula_units_Z 52
_cell_length_a 12.803124
_cell_length_b 8.502704
_cell_length_c 24.525800
_cell_angle_alpha 90.000000
_cell_angle_beta 90.000000
_cell_angle_gamma 90.000000
_cell_volume 2669.907373
_symmetry_space_group_name_H-M "P N N M"
_symmetry_group_IT_number 58
_symmetry_cell_setting 'orthorhombic'
loop_
_space_group_symop_operation_xyz
x,y,z
-x,-y,z
1/2+x,1/2-y,1/2-z
1/2-x,1/2+y,1/2-z
-x,-y,-z
x,y,-z
1/2-x,1/2+y,1/2+z
1/2+x,1/2-y,1/2+z
loop_
_atom_site_type_symbol
_atom_site_label
_atom_site_fract_x
_atom_site_fract_y
_atom_site_fract_z
Si Si1 0.080139 0.774686 0.500000
Si Si2 0.242172 0.494114 0.000000
Si Si3 0.612596 0.056116 0.395804
Si Si4 0.652637 0.203001 0.000000
Si Si5 0.617133 0.965681 0.092577
Si Si6 0.947471 0.843578 0.171696
Si Si7 0.244634 0.502610 0.700443
Si Si8 0.349438 0.174033 0.298763
O O1 0.116572 0.687547 0.444993
O O2 0.956584 0.796533 0.500000
O O3 0.137475 0.940542 0.500000
O O4 0.186419 0.428585 0.052935
O O5 0.247504 0.682625 0.000000
O O6 0.603231 0.232803 0.373575
O O7 0.500000 0.000000 0.415982
O O8 0.660758 0.931567 0.352929
O O9 0.660943 0.105079 0.944768
O O10 0.693386 0.944639 0.143628
O O11 0.500000 0.000000 0.113759
O O12 0.853808 0.905230 0.210107
O O13 0.033405 0.745436 0.206217
O O14 0.000000 0.000000 0.144544
O O15 0.264198 0.314451 0.701019
O O16 0.167738 0.554791 0.748762
#
# Coordination Sequence:
#
# PCOD8238022 Si02
#       8
#     4   4   8   4   8   8   8   8
#     4   9  19  34  52  78 109 139 170 223 277 319
#     4  12  20  32  57  79 102 140 181 218 268 331
#     4  10  21  37  53  77 108 140 178 224 273 322
#     4   9  19  36  52  77 111 137 172 223 271 320
#     4   9  19  35  55  77 105 141 182 220 267 330
#     4   9  20  38  56  77 111 145 178 227 281 326
#     4  11  20  35  57  82 106 144 189 222 271 339
#     4  10  22  36  55  80 112 145 178 230 280 324
#
# _framework density 19.476330999999998
#
# number of rings (size 3 to 8) (size 9 to 14) (size 15 to 20)
#    0.000    2.154    0.000    4.154    0.000    3.077 
#    0.000    0.385    0.000    3.692    0.000    0.000 
#    0.000    0.000    0.000    0.000    0.000    0.000 
#
# Total GULP energy -644615.649989 kJ/mol
# GULP energy per Si atom -12396.454807 kJ/mol
# Density = 1.943200 g / cm^3
# Si number density = 19.476331 Si / 1000 Ang^3
#
#
#
# Elastic Constant Matrix: (Units=GPa)
#
#
# Indices 1 2 3 4 5 6 
#
# 1 67.7813 40.1365 48.7292 0.0000 0.0000 0.0000
# 2 40.1365 109.7390 38.7248 0.0000 0.0000 0.0000
# 3 48.7292 38.7248 114.4444 0.0000 0.0000 0.0000
# 4 0.0000 0.0000 0.0000 15.0383 0.0000 0.0000
# 5 0.0000 0.0000 0.0000 0.0000 24.3986 0.0000
# 6 0.0000 0.0000 0.0000 0.0000 0.0000 35.9867
#
#
#
# Elastic Compliance Matrix: (Units=1/GPa)
#
#
# Indices 1 2 3 4 5 6 
#
# 1 0.024245 -0.005933 -0.008316 0.000000 0.000000 0.000000
# 2 -0.005933 0.011800 -0.001467 0.000000 0.000000 0.000000
# 3 -0.008316 -0.001467 0.012775 0.000000 0.000000 0.000000
# 4 0.000000 0.000000 0.000000 0.066497 0.000000 0.000000
# 5 0.000000 0.000000 0.000000 0.000000 0.040986 0.000000
# 6 0.000000 0.000000 0.000000 0.000000 0.000000 0.027788
#
#
# Mechanical properties :
#
#
# Convention : Reuss Voigt Hill
#
# Bulk Modulus (GPa) = 57.50685 60.79397 59.15041
# Shear Modulus (GPa) = 22.59201 26.04302 24.31752
#
# Velocity S-wave (km/s) = 3.40953 3.66069 3.53734
# Velocity P-wave (km/s) = 6.71495 7.01068 6.86440
#
# Compressibility (1/GPa) = 0.01738923
#
# Stress axis : x y z
#
# Youngs Moduli (GPa) = 41.24597 84.74561 78.27893
#
# Poissons Ratio (x) = 0.50279 0.65094
# Poissons Ratio (y) = 0.24471 0.11480
# Poissons Ratio (z) = 0.34299 0.12429
#
# Static dielectric constant tensor:
#      x y z
#    x 3.566270 0.000000 0.000000 
#    y 0.000000 3.647890 0.000000 
#    z 0.000000 0.000000 3.233640 
# 
# 
# High freq. dielectric constant tensor:
#      x y z
#    x 1.762990 0.000000 0.000000 
#    y 0.000000 1.771370 0.000000 
#    z 0.000000 0.000000 1.736730 
# 
# From -- ./inp_files/29982.got.cif
#   From: 2010.06.25/outbox.cif.g09.slc.cpg/sg58_15_cif.got.tgz:29982.got - 2010.06.26 21:38:00.
