data_PCOD8238712
_publ_section_title
;
Structure prediction by ZEFSAII (Michael W. Deem and Ramdas Pophale) SiO2 
 PCOD8238712
Probable space group: P N N M
;
_chemical_formula_sum "Si O2"
_cell_formula_units_Z 64
_cell_length_a 10.015562
_cell_length_b 11.038814
_cell_length_c 28.045044
_cell_angle_alpha 90.000000
_cell_angle_beta 90.000000
_cell_angle_gamma 90.000000
_cell_volume 3100.657990
_symmetry_space_group_name_H-M "P N N M"
_symmetry_group_IT_number 58
_symmetry_cell_setting 'orthorhombic'
loop_
_space_group_symop_operation_xyz
x,y,z
-x,-y,z
1/2+x,1/2-y,1/2-z
1/2-x,1/2+y,1/2-z
-x,-y,-z
x,y,-z
1/2-x,1/2+y,1/2+z
1/2+x,1/2-y,1/2+z
loop_
_atom_site_type_symbol
_atom_site_label
_atom_site_fract_x
_atom_site_fract_y
_atom_site_fract_z
Si Si1 0.147388 0.498534 0.101736
Si Si2 0.630504 0.153668 0.782458
Si Si3 0.830659 0.237503 0.860836
Si Si4 0.875779 0.719642 0.173787
Si Si5 0.920882 0.357809 0.579220
Si Si6 0.109307 0.907151 0.554406
Si Si7 0.364553 0.109732 0.180156
Si Si8 0.712743 0.086281 0.052499
O O1 0.191859 0.628132 0.120622
O O2 0.153380 0.402081 0.144627
O O3 0.245730 0.466881 0.058727
O O4 0.000000 0.500000 0.079414
O O5 0.727316 0.226815 0.817436
O O6 0.653310 0.187945 0.728290
O O7 0.474217 0.187537 0.790702
O O8 0.663390 0.012052 0.790420
O O9 0.802648 0.141959 0.904297
O O10 0.980336 0.223641 0.839793
O O11 0.770197 0.824904 0.163933
O O12 0.881384 0.217502 0.583374
O O13 0.940946 0.417647 0.630905
O O14 0.803888 0.439352 0.554829
O O15 0.062799 0.361253 0.552911
O O16 0.074423 0.878135 0.500000
O O17 0.000000 0.000000 0.576145
O O18 0.775106 0.118229 0.000000
#
# Coordination Sequence:
#
# PCOD8238712 Si02
#       8
#     8   8   8   8   8   8   8   8
#     4  10  24  41  60  86 122 170 207 254 317 382
#     4  11  23  41  66  94 122 168 214 256 315 389
#     4  11  23  42  63  95 130 167 215 268 321 382
#     4  11  25  41  65  91 130 169 209 263 322 383
#     4  11  19  40  63  99 131 163 214 270 329 379
#     4  11  23  39  63  94 126 163 212 269 317 371
#     4  11  22  41  67  93 128 165 206 267 320 383
#     4  11  21  38  67  97 128 170 218 268 326 387
#
# _framework density 20.640779999999999
#
# number of rings (size 3 to 8) (size 9 to 14) (size 15 to 20)
#    0.000    1.125    3.750    3.750    7.000    2.250 
#    0.000    1.875    0.000    0.750    0.000    0.000 
#    0.000    0.000    0.000    0.000    0.000    0.000 
#
# Total GULP energy -793046.947136 kJ/mol
# GULP energy per Si atom -12391.358549 kJ/mol
# Density = 2.059380 g / cm^3
# Si number density = 20.640780 Si / 1000 Ang^3
#
#
#
# Elastic Constant Matrix: (Units=GPa)
#
#
# Indices 1 2 3 4 5 6 
#
# 1 105.4559 65.0038 15.9156 0.0000 0.0000 0.0000
# 2 65.0038 124.0497 25.6365 0.0000 0.0000 0.0000
# 3 15.9156 25.6365 96.8242 0.0000 0.0000 0.0000
# 4 0.0000 0.0000 0.0000 21.7444 0.0000 0.0000
# 5 0.0000 0.0000 0.0000 0.0000 25.9740 0.0000
# 6 0.0000 0.0000 0.0000 0.0000 0.0000 33.0462
#
#
#
# Elastic Compliance Matrix: (Units=1/GPa)
#
#
# Indices 1 2 3 4 5 6 
#
# 1 0.014020 -0.007268 -0.000380 0.000000 0.000000 0.000000
# 2 -0.007268 0.012296 -0.002061 0.000000 0.000000 0.000000
# 3 -0.000380 -0.002061 0.010936 0.000000 0.000000 0.000000
# 4 0.000000 0.000000 0.000000 0.045989 0.000000 0.000000
# 5 0.000000 0.000000 0.000000 0.000000 0.038500 0.000000
# 6 0.000000 0.000000 0.000000 0.000000 0.000000 0.030261
#
#
# Mechanical properties :
#
#
# Convention : Reuss Voigt Hill
#
# Bulk Modulus (GPa) = 56.07371 59.93795 58.00583
# Shear Modulus (GPa) = 28.19047 30.80451 29.49749
#
# Velocity S-wave (km/s) = 3.69964 3.86736 3.78443
# Velocity P-wave (km/s) = 6.74353 7.00312 6.87455
#
# Compressibility (1/GPa) = 0.01783367
#
# Stress axis : x y z
#
# Youngs Moduli (GPa) = 71.32564 81.32824 91.43981
#
# Poissons Ratio (x) = 0.59111 0.03476
# Poissons Ratio (y) = 0.51841 0.18845
# Poissons Ratio (z) = 0.02711 0.16761
#
# Static dielectric constant tensor:
#      x y z
#    x 3.784330 0.000000 0.000000 
#    y 0.000000 3.771350 0.000000 
#    z 0.000000 0.000000 3.691000 
# 
# 
# High freq. dielectric constant tensor:
#      x y z
#    x 1.801640 0.000000 0.000000 
#    y 0.000000 1.811820 0.000000 
#    z 0.000000 0.000000 1.810790 
# 
# From -- ./inp_files/34779.got.cif
#   From: 2010.06.25/outbox.cif.g09.slc.cpg/sg58_18_cif.got.tgz:34779.got - 2010.06.26 21:38:00.
