data_PCOD8238333
_publ_section_title
;
Structure prediction by ZEFSAII (Michael W. Deem and Ramdas Pophale) SiO2 
 PCOD8238333
Probable space group: P N N M
;
_chemical_formula_sum "Si O2"
_cell_formula_units_Z 48
_cell_length_a 14.708032
_cell_length_b 18.538791
_cell_length_c 9.080148
_cell_angle_alpha 90.000000
_cell_angle_beta 90.000000
_cell_angle_gamma 90.000000
_cell_volume 2475.876067
_symmetry_space_group_name_H-M "P N N M"
_symmetry_group_IT_number 58
_symmetry_cell_setting 'orthorhombic'
loop_
_space_group_symop_operation_xyz
x,y,z
-x,-y,z
1/2+x,1/2-y,1/2-z
1/2-x,1/2+y,1/2-z
-x,-y,-z
x,y,-z
1/2-x,1/2+y,1/2+z
1/2+x,1/2-y,1/2+z
loop_
_atom_site_type_symbol
_atom_site_label
_atom_site_fract_x
_atom_site_fract_y
_atom_site_fract_z
Si Si1 0.755259 0.417680 0.327539
Si Si2 0.509488 0.211570 0.826710
Si Si3 0.314168 0.739623 0.668179
Si Si4 0.361953 0.328457 0.831735
Si Si5 0.057701 0.571325 0.170828
Si Si6 0.902489 0.024747 0.174176
O O1 0.774870 0.427236 0.500000
O O2 0.732556 0.335459 0.288852
O O3 0.843886 0.441814 0.240110
O O4 0.672338 0.467348 0.273168
O O5 0.603661 0.247084 0.778365
O O6 0.428299 0.264605 0.780220
O O7 0.496284 0.135990 0.746706
O O8 0.509983 0.197433 0.000000
O O9 0.350089 0.736709 0.500000
O O10 0.241497 0.803188 0.688067
O O11 0.377316 0.396933 0.731083
O O12 0.382521 0.349480 0.000000
O O13 0.000000 0.500000 0.197270
O O14 0.069154 0.589587 0.000000
O O15 0.906558 0.028899 0.000000
O O16 0.000000 0.000000 0.237956
#
# Coordination Sequence:
#
# PCOD8238333 Si02
#       6
#     8   8   8   8   8   8
#     4  10  21  41  65  90 123 163 203 249 302 357
#     4  11  23  41  64  91 120 158 205 249 300 362
#     4  10  21  40  63  88 122 159 196 248 306 356
#     4  10  22  40  61  87 123 159 196 245 302 356
#     4  11  25  42  61  88 122 162 205 252 308 363
#     4  10  22  39  62  91 122 159 202 246 299 359
#
# _framework density 19.387077999999999
#
# number of rings (size 3 to 8) (size 9 to 14) (size 15 to 20)
#    0.000    1.667    1.667    2.000    2.333    6.333 
#    0.000    0.000    0.000    0.000    0.000    0.000 
#    0.000    0.000    0.000    0.000    0.000    0.000 
#
# Total GULP energy -595481.022046 kJ/mol
# GULP energy per Si atom -12405.854626 kJ/mol
# Density = 1.934295 g / cm^3
# Si number density = 19.387078 Si / 1000 Ang^3
#
#
#
# Elastic Constant Matrix: (Units=GPa)
#
#
# Indices 1 2 3 4 5 6 
#
# 1 121.0181 36.6936 51.3509 0.0000 0.0000 0.0000
# 2 36.6936 94.7951 47.2331 0.0000 0.0000 0.0000
# 3 51.3509 47.2331 60.7288 0.0000 0.0000 0.0000
# 4 0.0000 0.0000 0.0000 35.9950 0.0000 0.0000
# 5 0.0000 0.0000 0.0000 0.0000 35.4449 0.0000
# 6 0.0000 0.0000 0.0000 0.0000 0.0000 30.4988
#
#
#
# Elastic Compliance Matrix: (Units=1/GPa)
#
#
# Indices 1 2 3 4 5 6 
#
# 1 0.012917 0.000722 -0.011484 0.000000 0.000000 0.000000
# 2 0.000722 0.017264 -0.014038 0.000000 0.000000 0.000000
# 3 -0.011484 -0.014038 0.037096 0.000000 0.000000 0.000000
# 4 0.000000 0.000000 0.000000 0.027782 0.000000 0.000000
# 5 0.000000 0.000000 0.000000 0.000000 0.028213 0.000000
# 6 0.000000 0.000000 0.000000 0.000000 0.000000 0.032788
#
#
# Mechanical properties :
#
#
# Convention : Reuss Voigt Hill
#
# Bulk Modulus (GPa) = 56.57112 60.78857 58.67984
# Shear Modulus (GPa) = 23.63468 29.80537 26.72002
#
# Velocity S-wave (km/s) = 3.49534 3.92520 3.71649
# Velocity P-wave (km/s) = 6.74782 7.20876 6.98209
#
# Compressibility (1/GPa) = 0.01767686
#
# Stress axis : x y z
#
# Youngs Moduli (GPa) = 77.41556 57.92272 26.95702
#
# Poissons Ratio (x) = -0.04183 0.30958
# Poissons Ratio (y) = -0.05590 0.37843
# Poissons Ratio (z) = 0.88906 0.81314
#
# Static dielectric constant tensor:
#      x y z
#    x 3.799790 0.000000 0.000000 
#    y 0.000000 3.556590 0.000000 
#    z 0.000000 0.000000 3.482920 
# 
# 
# High freq. dielectric constant tensor:
#      x y z
#    x 1.769420 0.000000 0.000000 
#    y 0.000000 1.765770 0.000000 
#    z 0.000000 0.000000 1.749890 
# 
# From -- ./inp_files/5848.got.cif
#   From: 2010.06.25/outbox.cif.g09.slc.cpg/sg58_3_cif.got.tgz:5848.got - 2010.06.26 21:38:00.
