data_PCOD8238383
_publ_section_title
;
Structure prediction by ZEFSAII (Michael W. Deem and Ramdas Pophale) SiO2 
 PCOD8238383
Probable space group: P N N M
;
_chemical_formula_sum "Si O2"
_cell_formula_units_Z 64
_cell_length_a 11.913428
_cell_length_b 30.586806
_cell_length_c 8.847448
_cell_angle_alpha 90.000000
_cell_angle_beta 90.000000
_cell_angle_gamma 90.000000
_cell_volume 3223.954410
_symmetry_space_group_name_H-M "P N N M"
_symmetry_group_IT_number 58
_symmetry_cell_setting 'orthorhombic'
loop_
_space_group_symop_operation_xyz
x,y,z
-x,-y,z
1/2+x,1/2-y,1/2-z
1/2-x,1/2+y,1/2-z
-x,-y,-z
x,y,-z
1/2-x,1/2+y,1/2+z
1/2+x,1/2-y,1/2+z
loop_
_atom_site_type_symbol
_atom_site_label
_atom_site_fract_x
_atom_site_fract_y
_atom_site_fract_z
Si Si1 0.202838 0.794307 0.321545
Si Si2 0.734567 0.447748 0.327833
Si Si3 0.999212 0.835301 0.179151
Si Si4 0.409690 0.125396 0.822270
Si Si5 0.761980 0.801810 0.178503
Si Si6 0.789768 0.045471 0.173461
Si Si7 0.502996 0.426480 0.178023
Si Si8 0.848990 0.622600 0.177634
O O1 0.178307 0.794731 0.500000
O O2 0.087748 0.798865 0.229397
O O3 0.251104 0.747900 0.265913
O O4 0.289802 0.832142 0.274326
O O5 0.699349 0.436519 0.500000
O O6 0.839444 0.417999 0.279726
O O7 0.770380 0.498304 0.310931
O O8 0.628983 0.437254 0.223791
O O9 0.035694 0.879387 0.262341
O O10 0.877766 0.821286 0.242121
O O11 0.000545 0.841973 0.000000
O O12 0.341056 0.168067 0.766550
O O13 0.523771 0.124304 0.730850
O O14 0.436103 0.127131 0.000000
O O15 0.767988 0.803506 0.000000
O O16 0.912078 0.040315 0.251144
O O17 0.712146 0.081383 0.249826
O O18 0.807111 0.058604 0.000000
O O19 0.491488 0.428470 0.000000
O O20 0.844722 0.616061 0.000000
#
# Coordination Sequence:
#
# PCOD8238383 Si02
#       8
#     8   8   8   8   8   8   8   8
#     4  10  22  40  60  88 124 158 194 245 303 352
#     4  10  22  41  64  90 118 155 203 251 295 353
#     4  11  21  38  65  91 119 160 204 246 293 353
#     4  10  21  41  64  85 116 157 203 247 295 353
#     4   9  20  39  63  88 119 157 197 247 297 349
#     4  11  23  40  64  89 117 156 204 249 294 356
#     4  12  23  37  60  92 128 159 191 245 306 360
#     4  11  24  40  59  86 125 160 196 247 302 357
#
# _framework density 19.851396999999999
#
# number of rings (size 3 to 8) (size 9 to 14) (size 15 to 20)
#    0.000    1.500    2.500    2.625    1.750    4.000 
#    0.000    3.750    0.000    0.000    0.000    0.000 
#    0.000    0.000    0.000    0.000    0.000    0.000 
#
# Total GULP energy -793817.138747 kJ/mol
# GULP energy per Si atom -12403.392793 kJ/mol
# Density = 1.980621 g / cm^3
# Si number density = 19.851397 Si / 1000 Ang^3
#
#
#
# Elastic Constant Matrix: (Units=GPa)
#
#
# Indices 1 2 3 4 5 6 
#
# 1 120.9479 43.7756 46.5680 0.0000 0.0000 0.0000
# 2 43.7756 123.3519 40.2690 0.0000 0.0000 0.0000
# 3 46.5680 40.2690 83.8828 0.0000 0.0000 0.0000
# 4 0.0000 0.0000 0.0000 23.4966 0.0000 0.0000
# 5 0.0000 0.0000 0.0000 0.0000 35.4135 0.0000
# 6 0.0000 0.0000 0.0000 0.0000 0.0000 27.7124
#
#
#
# Elastic Compliance Matrix: (Units=1/GPa)
#
#
# Indices 1 2 3 4 5 6 
#
# 1 0.011027 -0.002271 -0.005032 0.000000 0.000000 0.000000
# 2 -0.002271 0.010081 -0.003579 0.000000 0.000000 0.000000
# 3 -0.005032 -0.003579 0.016433 0.000000 0.000000 0.000000
# 4 0.000000 0.000000 0.000000 0.042559 0.000000 0.000000
# 5 0.000000 0.000000 0.000000 0.000000 0.028238 0.000000
# 6 0.000000 0.000000 0.000000 0.000000 0.000000 0.036085
#
#
# Mechanical properties :
#
#
# Convention : Reuss Voigt Hill
#
# Bulk Modulus (GPa) = 63.37777 65.48976 64.43376
# Shear Modulus (GPa) = 29.16376 30.49583 29.82980
#
# Velocity S-wave (km/s) = 3.83705 3.92370 3.88061
# Velocity P-wave (km/s) = 7.18512 7.32044 7.25310
#
# Compressibility (1/GPa) = 0.01577840
#
# Stress axis : x y z
#
# Youngs Moduli (GPa) = 90.68450 99.19539 60.85343
#
# Poissons Ratio (x) = 0.22525 0.30620
# Poissons Ratio (y) = 0.20592 0.21779
# Poissons Ratio (z) = 0.45630 0.35502
#
# Static dielectric constant tensor:
#      x y z
#    x 3.631390 0.000000 0.000000 
#    y 0.000000 3.906660 0.000000 
#    z 0.000000 0.000000 3.459270 
# 
# 
# High freq. dielectric constant tensor:
#      x y z
#    x 1.777520 0.000000 0.000000 
#    y 0.000000 1.788680 0.000000 
#    z 0.000000 0.000000 1.761640 
# 
# From -- ./inp_files/4780.got.cif
#   From: 2010.06.25/outbox.cif.g09.slc.cpg/sg58_3_cif.got.tgz:4780.got - 2010.06.26 21:38:00.
