data_PCOD8238696
_publ_section_title
;
Structure prediction by ZEFSAII (Michael W. Deem and Ramdas Pophale) SiO2 
 PCOD8238696
Probable space group: P N N M
;
_chemical_formula_sum "Si O2"
_cell_formula_units_Z 32
_cell_length_a 5.121297
_cell_length_b 16.538502
_cell_length_c 15.625280
_cell_angle_alpha 90.000000
_cell_angle_beta 90.000000
_cell_angle_gamma 90.000000
_cell_volume 1323.439039
_symmetry_space_group_name_H-M "P N N M"
_symmetry_group_IT_number 58
_symmetry_cell_setting 'orthorhombic'
loop_
_space_group_symop_operation_xyz
x,y,z
-x,-y,z
1/2+x,1/2-y,1/2-z
1/2-x,1/2+y,1/2-z
-x,-y,-z
x,y,-z
1/2-x,1/2+y,1/2+z
1/2+x,1/2-y,1/2+z
loop_
_atom_site_type_symbol
_atom_site_label
_atom_site_fract_x
_atom_site_fract_y
_atom_site_fract_z
Si Si1 0.172564 0.226450 0.668573
Si Si2 0.323447 0.135219 0.175696
Si Si3 0.824534 0.642319 0.901635
Si Si4 0.744751 0.443028 0.500000
Si Si5 0.000000 0.500000 0.208464
O O1 0.113236 0.323222 0.667791
O O2 0.951970 0.184377 0.611213
O O3 0.146938 0.198366 0.768904
O O4 0.449229 0.203530 0.628583
O O5 0.221814 0.116440 0.081133
O O6 0.319105 0.052740 0.229404
O O7 0.825216 0.558147 0.850141
O O8 0.865358 0.620823 0.000000
O O9 0.500000 0.500000 0.500000
O O10 0.000000 0.500000 0.500000
#
# Coordination Sequence:
#
# PCOD8238696 Si02
#       5
#     8   8   8   4   4
#     4  11  26  45  76 101 143 189 234 304 356 438
#     4  11  25  49  73 108 147 193 249 294 376 432
#     4  11  25  45  72 106 141 181 242 296 369 423
#     4  12  30  46  76 110 152 193 247 310 366 450
#     4  10  23  43  74  96 146 186 232 291 355 438
#
# _framework density 24.179428000000001
#
# number of rings (size 3 to 8) (size 9 to 14) (size 15 to 20)
#    0.000    1.000    1.250    4.125    7.000    7.000 
#    0.000    6.250    0.000    0.000    0.000    0.000 
#    0.000    0.000    0.000    0.000    0.000    0.000 
#
# Total GULP energy -396726.547407 kJ/mol
# GULP energy per Si atom -12397.704606 kJ/mol
# Density = 2.412439 g / cm^3
# Si number density = 24.179428 Si / 1000 Ang^3
#
#
#
# Elastic Constant Matrix: (Units=GPa)
#
#
# Indices 1 2 3 4 5 6 
#
# 1 69.0623 20.7524 24.7434 0.0000 0.0000 0.0000
# 2 20.7524 117.5904 56.8929 0.0000 0.0000 0.0000
# 3 24.7434 56.8929 212.1085 0.0000 0.0000 0.0000
# 4 0.0000 0.0000 0.0000 37.6055 0.0000 0.0000
# 5 0.0000 0.0000 0.0000 0.0000 29.7400 0.0000
# 6 0.0000 0.0000 0.0000 0.0000 0.0000 40.9046
#
#
#
# Elastic Compliance Matrix: (Units=1/GPa)
#
#
# Indices 1 2 3 4 5 6 
#
# 1 0.015569 -0.002148 -0.001240 0.000000 0.000000 0.000000
# 2 -0.002148 0.010069 -0.002450 0.000000 0.000000 0.000000
# 3 -0.001240 -0.002450 0.005516 0.000000 0.000000 0.000000
# 4 0.000000 0.000000 0.000000 0.026592 0.000000 0.000000
# 5 0.000000 0.000000 0.000000 0.000000 0.033625 0.000000
# 6 0.000000 0.000000 0.000000 0.000000 0.000000 0.024447
#
#
# Mechanical properties :
#
#
# Convention : Reuss Voigt Hill
#
# Bulk Modulus (GPa) = 51.33883 67.05983 59.19933
# Shear Modulus (GPa) = 37.31713 41.40819 39.36266
#
# Velocity S-wave (km/s) = 3.93280 4.14277 4.03915
# Velocity P-wave (km/s) = 6.47311 7.11884 6.80364
#
# Compressibility (1/GPa) = 0.01947843
#
# Stress axis : x y z
#
# Youngs Moduli (GPa) = 64.22875 99.31934 181.27700
#
# Poissons Ratio (x) = 0.21330 0.22482
# Poissons Ratio (y) = 0.13794 0.44415
# Poissons Ratio (z) = 0.07966 0.24334
#
# Static dielectric constant tensor:
#      x y z
#    x 4.135460 0.000000 0.000000 
#    y 0.000000 4.597790 0.000000 
#    z 0.000000 0.000000 4.651300 
# 
# 
# High freq. dielectric constant tensor:
#      x y z
#    x 1.946440 0.000000 0.000000 
#    y 0.000000 1.974490 0.000000 
#    z 0.000000 0.000000 1.978250 
# 
# From -- ./inp_files/18338.got.cif
#   From: 2010.06.25/outbox.cif.g09.slc.cpg/sg58_10_cif.got.tgz:18338.got - 2010.06.26 21:38:00.
