data_PCOD8238618
_publ_section_title
;
Structure prediction by ZEFSAII (Michael W. Deem and Ramdas Pophale) SiO2 
 PCOD8238618
Probable space group: P N N M
;
_chemical_formula_sum "Si O2"
_cell_formula_units_Z 48
_cell_length_a 8.116215
_cell_length_b 15.200784
_cell_length_c 18.022024
_cell_angle_alpha 90.000000
_cell_angle_beta 90.000000
_cell_angle_gamma 90.000000
_cell_volume 2223.428123
_symmetry_space_group_name_H-M "P N N M"
_symmetry_group_IT_number 58
_symmetry_cell_setting 'orthorhombic'
loop_
_space_group_symop_operation_xyz
x,y,z
-x,-y,z
1/2+x,1/2-y,1/2-z
1/2-x,1/2+y,1/2-z
-x,-y,-z
x,y,-z
1/2-x,1/2+y,1/2+z
1/2+x,1/2-y,1/2+z
loop_
_atom_site_type_symbol
_atom_site_label
_atom_site_fract_x
_atom_site_fract_y
_atom_site_fract_z
Si Si1 0.889148 0.121414 0.916390
Si Si2 0.351321 0.845037 0.676578
Si Si3 0.513633 0.601870 0.852256
Si Si4 0.818897 0.317830 0.083743
Si Si5 0.626289 0.350647 0.705751
Si Si6 0.674172 0.014639 0.806966
O O1 0.792669 0.213248 0.914016
O O2 0.066587 0.136619 0.878751
O O3 0.796048 0.047437 0.870217
O O4 0.915579 0.087725 0.000000
O O5 0.524548 0.848629 0.632558
O O6 0.322203 0.750861 0.717021
O O7 0.193458 0.861723 0.621236
O O8 0.349148 0.921811 0.737019
O O9 0.500000 0.500000 0.870588
O O10 0.355925 0.647168 0.888437
O O11 0.517406 0.622554 0.763751
O O12 0.851159 0.350706 0.000000
O O13 0.773437 0.418153 0.723045
O O14 0.500000 0.000000 0.846844
#
# Coordination Sequence:
#
# PCOD8238618 Si02
#       6
#     8   8   8   8   8   8
#     4  10  22  44  66  92 134 174 212 269 331 390
#     4  11  25  42  68  98 136 175 220 274 328 387
#     4  12  23  41  68  97 131 173 223 274 324 387
#     4  10  25  46  68  96 133 175 220 273 335 392
#     4  11  23  41  65  98 130 173 223 266 325 393
#     4  12  24  38  65 100 133 169 219 271 323 392
#
# _framework density 21.588286
#
# number of rings (size 3 to 8) (size 9 to 14) (size 15 to 20)
#    0.000    1.000    3.333    2.500    7.000    2.667 
#    0.000    0.833    0.000    0.000    0.000    0.000 
#    0.000    0.000    0.000    0.000    0.000    0.000 
#
# Total GULP energy -594988.691342 kJ/mol
# GULP energy per Si atom -12395.597736 kJ/mol
# Density = 2.153915 g / cm^3
# Si number density = 21.588286 Si / 1000 Ang^3
#
#
#
# Elastic Constant Matrix: (Units=GPa)
#
#
# Indices 1 2 3 4 5 6 
#
# 1 104.9145 32.3361 11.9524 0.0000 0.0000 0.0000
# 2 32.3361 113.4328 16.7434 0.0000 0.0000 0.0000
# 3 11.9524 16.7434 95.1985 0.0000 0.0000 0.0000
# 4 0.0000 0.0000 0.0000 11.9077 0.0000 0.0000
# 5 0.0000 0.0000 0.0000 0.0000 23.1529 0.0000
# 6 0.0000 0.0000 0.0000 0.0000 0.0000 36.2052
#
#
#
# Elastic Compliance Matrix: (Units=1/GPa)
#
#
# Indices 1 2 3 4 5 6 
#
# 1 0.010511 -0.002876 -0.000814 0.000000 0.000000 0.000000
# 2 -0.002876 0.009838 -0.001369 0.000000 0.000000 0.000000
# 3 -0.000814 -0.001369 0.010847 0.000000 0.000000 0.000000
# 4 0.000000 0.000000 0.000000 0.083980 0.000000 0.000000
# 5 0.000000 0.000000 0.000000 0.000000 0.043191 0.000000
# 6 0.000000 0.000000 0.000000 0.000000 0.000000 0.027620
#
#
# Mechanical properties :
#
#
# Convention : Reuss Voigt Hill
#
# Bulk Modulus (GPa) = 47.44354 48.40106 47.92230
# Shear Modulus (GPa) = 24.61466 31.08741 27.85104
#
# Velocity S-wave (km/s) = 3.38033 3.79887 3.59569
# Velocity P-wave (km/s) = 6.10407 6.45837 6.28372
#
# Compressibility (1/GPa) = 0.02107768
#
# Stress axis : x y z
#
# Youngs Moduli (GPa) = 95.14065 101.64889 92.18841
#
# Poissons Ratio (x) = 0.29236 0.07502
# Poissons Ratio (y) = 0.27364 0.12622
# Poissons Ratio (z) = 0.07742 0.13917
#
# Static dielectric constant tensor:
#      x y z
#    x 4.092290 0.000000 0.000000 
#    y 0.000000 4.091200 0.000000 
#    z 0.000000 0.000000 3.804550 
# 
# 
# High freq. dielectric constant tensor:
#      x y z
#    x 1.857900 0.000000 0.000000 
#    y 0.000000 1.865520 0.000000 
#    z 0.000000 0.000000 1.825180 
# 
# From -- ./inp_files/25300.got.cif
#   From: 2010.06.25/outbox.cif.g09.slc.cpg/sg58_13_cif.got.tgz:25300.got - 2010.06.26 21:38:00.
