data_PCOD8238114
_publ_section_title
;
Structure prediction by ZEFSAII (Michael W. Deem and Ramdas Pophale) SiO2 
 PCOD8238114
Probable space group: P N N M
;
_chemical_formula_sum "Si O2"
_cell_formula_units_Z 48
_cell_length_a 11.883598
_cell_length_b 23.461877
_cell_length_c 8.625277
_cell_angle_alpha 90.000000
_cell_angle_beta 90.000000
_cell_angle_gamma 90.000000
_cell_volume 2404.826544
_symmetry_space_group_name_H-M "P N N M"
_symmetry_group_IT_number 58
_symmetry_cell_setting 'orthorhombic'
loop_
_space_group_symop_operation_xyz
x,y,z
-x,-y,z
1/2+x,1/2-y,1/2-z
1/2-x,1/2+y,1/2-z
-x,-y,-z
x,y,-z
1/2-x,1/2+y,1/2+z
1/2+x,1/2-y,1/2+z
loop_
_atom_site_type_symbol
_atom_site_label
_atom_site_fract_x
_atom_site_fract_y
_atom_site_fract_z
Si Si1 0.089264 0.158106 0.329776
Si Si2 0.878529 0.220926 0.315289
Si Si3 0.983464 0.565213 0.816704
Si Si4 0.563149 0.552992 0.826958
Si Si5 0.664020 0.842217 0.684439
Si Si6 0.759185 0.620670 0.318420
O O1 0.113110 0.184100 0.500000
O O2 0.209646 0.152022 0.246029
O O3 0.997244 0.197961 0.244780
O O4 0.037218 0.096625 0.344285
O O5 0.875608 0.213825 0.500000
O O6 0.881352 0.285689 0.264349
O O7 0.774449 0.182752 0.251584
O O8 0.092034 0.602467 0.765708
O O9 0.000000 0.500000 0.755228
O O10 0.875757 0.596843 0.746620
O O11 0.967856 0.564175 0.000000
O O12 0.500000 0.500000 0.747832
O O13 0.663980 0.574202 0.719680
O O14 0.610802 0.538511 0.000000
O O15 0.659855 0.835811 0.500000
O O16 0.771178 0.628586 0.500000
#
# Coordination Sequence:
#
# PCOD8238114 Si02
#       6
#     8   8   8   8   8   8
#     4   8  17  34  55  83 113 144 186 238 291 352
#     4  10  21  39  61  87 117 152 199 246 302 366
#     4  10  23  41  63  90 123 163 209 253 300 367
#     4   9  18  34  62  89 113 150 196 242 293 351
#     4  10  21  37  60  89 119 152 193 247 307 362
#     4  11  23  39  60  86 123 161 199 248 301 358
#
# _framework density 19.959859999999999
#
# number of rings (size 3 to 8) (size 9 to 14) (size 15 to 20)
#    0.000    2.333    0.000    3.000    4.667    1.333 
#    0.000    3.333    0.000    0.000    0.000    0.000 
#    0.000    0.000    0.000    0.000    0.000    0.000 
#
# Total GULP energy -594766.397293 kJ/mol
# GULP energy per Si atom -12390.966610 kJ/mol
# Density = 1.991443 g / cm^3
# Si number density = 19.959860 Si / 1000 Ang^3
#
#
#
# Elastic Constant Matrix: (Units=GPa)
#
#
# Indices 1 2 3 4 5 6 
#
# 1 151.3490 76.4404 33.7081 0.0000 0.0000 0.0000
# 2 76.4404 122.2835 38.6769 0.0000 0.0000 0.0000
# 3 33.7081 38.6769 45.6740 0.0000 0.0000 0.0000
# 4 0.0000 0.0000 0.0000 27.7098 0.0000 0.0000
# 5 0.0000 0.0000 0.0000 0.0000 15.3746 0.0000
# 6 0.0000 0.0000 0.0000 0.0000 0.0000 20.4491
#
#
#
# Elastic Compliance Matrix: (Units=1/GPa)
#
#
# Indices 1 2 3 4 5 6 
#
# 1 0.009916 -0.005305 -0.002826 0.000000 0.000000 0.000000
# 2 -0.005305 0.014007 -0.007946 0.000000 0.000000 0.000000
# 3 -0.002826 -0.007946 0.030709 0.000000 0.000000 0.000000
# 4 0.000000 0.000000 0.000000 0.036088 0.000000 0.000000
# 5 0.000000 0.000000 0.000000 0.000000 0.065043 0.000000
# 6 0.000000 0.000000 0.000000 0.000000 0.000000 0.048902
#
#
# Mechanical properties :
#
#
# Convention : Reuss Voigt Hill
#
# Bulk Modulus (GPa) = 44.48836 68.55081 56.51958
# Shear Modulus (GPa) = 20.46573 24.07210 22.26891
#
# Velocity S-wave (km/s) = 3.20557 3.47656 3.34381
# Velocity P-wave (km/s) = 6.00319 7.10874 6.57922
#
# Compressibility (1/GPa) = 0.02247779
#
# Stress axis : x y z
#
# Youngs Moduli (GPa) = 100.84912 71.39301 32.56389
#
# Poissons Ratio (x) = 0.37871 0.09203
# Poissons Ratio (y) = 0.53496 0.25876
# Poissons Ratio (z) = 0.28501 0.56731
#
# Static dielectric constant tensor:
#      x y z
#    x 3.871650 0.000000 0.000000 
#    y 0.000000 3.764950 0.000000 
#    z 0.000000 0.000000 3.358960 
# 
# 
# High freq. dielectric constant tensor:
#      x y z
#    x 1.789880 0.000000 0.000000 
#    y 0.000000 1.786520 0.000000 
#    z 0.000000 0.000000 1.747130 
# 
# From -- ./inp_files/4266.got.cif
#   From: 2010.06.25/outbox.cif.g09.slc.cpg/sg58_3_cif.got.tgz:4266.got - 2010.06.26 21:38:00.
