data_PCOD8238906
_publ_section_title
;
Structure prediction by ZEFSAII (Michael W. Deem and Ramdas Pophale) SiO2 
 PCOD8238906
Probable space group: P N N M
;
_chemical_formula_sum "Si O2"
_cell_formula_units_Z 40
_cell_length_a 15.948088
_cell_length_b 7.462532
_cell_length_c 15.696168
_cell_angle_alpha 90.000000
_cell_angle_beta 90.000000
_cell_angle_gamma 90.000000
_cell_volume 1868.049879
_symmetry_space_group_name_H-M "P N N M"
_symmetry_group_IT_number 58
_symmetry_cell_setting 'orthorhombic'
loop_
_space_group_symop_operation_xyz
x,y,z
-x,-y,z
1/2+x,1/2-y,1/2-z
1/2-x,1/2+y,1/2-z
-x,-y,-z
x,y,-z
1/2-x,1/2+y,1/2+z
1/2+x,1/2-y,1/2+z
loop_
_atom_site_type_symbol
_atom_site_label
_atom_site_fract_x
_atom_site_fract_y
_atom_site_fract_z
Si Si1 0.247904 0.035839 0.648412
Si Si2 0.164481 0.178138 0.190868
Si Si3 0.512416 0.793496 0.258962
Si Si4 0.866584 0.165287 0.094560
Si Si5 0.423046 0.367391 0.906506
O O1 0.311866 0.869612 0.651911
O O2 0.162359 0.977225 0.604053
O O3 0.234295 0.109476 0.743529
O O4 0.289083 0.196427 0.595249
O O5 0.076008 0.189191 0.241481
O O6 0.163617 0.036404 0.113929
O O7 0.564225 0.715812 0.336960
O O8 0.563573 0.773163 0.170289
O O9 0.500000 0.000000 0.276413
O O10 0.906017 0.167673 0.000000
O O11 0.500000 0.500000 0.903430
O O12 0.420511 0.271643 0.000000
#
# Coordination Sequence:
#
# PCOD8238906 Si02
#       5
#     8   8   8   8   8
#     4  12  23  45  72 104 137 178 231 287 343 411
#     4  12  24  43  74 100 136 187 226 283 349 409
#     4  12  24  46  70  98 139 184 232 283 343 411
#     4  12  27  46  72 105 141 182 230 285 345 412
#     4  11  23  42  69  99 136 179 226 282 342 406
#
# _framework density 21.412704999999999
#
# number of rings (size 3 to 8) (size 9 to 14) (size 15 to 20)
#    0.000    0.200    8.000    1.200    0.000    4.000 
#    0.000    0.000    0.000    0.000    0.000    0.000 
#    0.000    0.000    0.000    0.000    0.000    0.000 
#
# Total GULP energy -496115.806874 kJ/mol
# GULP energy per Si atom -12402.895172 kJ/mol
# Density = 2.136397 g / cm^3
# Si number density = 21.412705 Si / 1000 Ang^3
#
#
#
# Elastic Constant Matrix: (Units=GPa)
#
#
# Indices 1 2 3 4 5 6 
#
# 1 102.5141 34.4669 27.6535 0.0000 0.0000 0.0000
# 2 34.4669 114.2925 39.7865 0.0000 0.0000 0.0000
# 3 27.6535 39.7865 161.3637 0.0000 0.0000 0.0000
# 4 0.0000 0.0000 0.0000 32.3445 0.0000 0.0000
# 5 0.0000 0.0000 0.0000 0.0000 -30.0549 0.0000
# 6 0.0000 0.0000 0.0000 0.0000 0.0000 37.3045
#
#
#
# Elastic Compliance Matrix: (Units=1/GPa)
#
#
# Indices 1 2 3 4 5 6 
#
# 1 0.011055 -0.002925 -0.001173 0.000000 0.000000 0.000000
# 2 -0.002925 0.010345 -0.002049 0.000000 0.000000 0.000000
# 3 -0.001173 -0.002049 0.006904 0.000000 0.000000 0.000000
# 4 0.000000 0.000000 0.000000 0.030917 0.000000 0.000000
# 5 0.000000 0.000000 0.000000 0.000000 -0.033272 0.000000
# 6 0.000000 0.000000 0.000000 0.000000 0.000000 0.026806
#
#
# Mechanical properties :
#
#
# Convention : Reuss Voigt Hill
#
# Bulk Modulus (GPa) = 62.47075 64.66489 63.56782
# Shear Modulus (GPa) = 71.03651 26.33638 48.68644
#
# Velocity S-wave (km/s) = 5.76602 3.51086 4.77352
# Velocity P-wave (km/s) = 8.57713 6.83372 7.75458
#
# Compressibility (1/GPa) = 0.01600749
#
# Stress axis : x y z
#
# Youngs Moduli (GPa) = 90.45858 96.66416 144.85310
#
# Poissons Ratio (x) = 0.28278 0.16994
# Poissons Ratio (y) = 0.26462 0.29686
# Poissons Ratio (z) = 0.10613 0.19810
#
# Static dielectric constant tensor:
#      x y z
#    x 4.096080 0.000000 0.000000 
#    y 0.000000 3.940690 0.000000 
#    z 0.000000 0.000000 4.062030 
# 
# 
# High freq. dielectric constant tensor:
#      x y z
#    x 1.850110 0.000000 0.000000 
#    y 0.000000 1.841570 0.000000 
#    z 0.000000 0.000000 1.841140 
# 
# From -- ./inp_files/21891.got.cif
#   From: 2010.06.25/outbox.cif.g09.slc.cpg/sg58_11_cif.got.tgz:21891.got - 2010.06.26 21:38:00.
