data_PCOD8238522
_publ_section_title
;
Structure prediction by ZEFSAII (Michael W. Deem and Ramdas Pophale) SiO2 
 PCOD8238522
Probable space group: P N N M
;
_chemical_formula_sum "Si O2"
_cell_formula_units_Z 64
_cell_length_a 23.924892
_cell_length_b 15.272725
_cell_length_c 8.619246
_cell_angle_alpha 90.000000
_cell_angle_beta 90.000000
_cell_angle_gamma 90.000000
_cell_volume 3149.457803
_symmetry_space_group_name_H-M "P N N M"
_symmetry_group_IT_number 58
_symmetry_cell_setting 'orthorhombic'
loop_
_space_group_symop_operation_xyz
x,y,z
-x,-y,z
1/2+x,1/2-y,1/2-z
1/2-x,1/2+y,1/2-z
-x,-y,-z
x,y,-z
1/2-x,1/2+y,1/2+z
1/2+x,1/2-y,1/2+z
loop_
_atom_site_type_symbol
_atom_site_label
_atom_site_fract_x
_atom_site_fract_y
_atom_site_fract_z
Si Si1 0.244158 0.402109 0.681254
Si Si2 0.370654 0.666928 0.819300
Si Si3 0.974151 0.907634 0.180728
Si Si4 0.129887 0.347389 0.178259
Si Si5 0.256355 0.599413 0.684618
Si Si6 0.550114 0.755283 0.318251
Si Si7 0.977061 0.596408 0.673800
Si Si8 0.179375 0.744154 0.183739
O O1 0.253366 0.407596 0.500000
O O2 0.181996 0.371252 0.715971
O O3 0.251881 0.499942 0.748961
O O4 0.288201 0.330775 0.747930
O O5 0.417071 0.594700 0.779715
O O6 0.390284 0.750186 0.719620
O O7 0.309675 0.639795 0.766645
O O8 0.369390 0.689137 0.000000
O O9 0.017719 0.832612 0.231389
O O10 0.959017 0.900903 0.000000
O O11 0.000000 0.000000 0.223691
O O12 0.076956 0.407675 0.215577
O O13 0.147230 0.356642 0.000000
O O14 0.262864 0.602792 0.500000
O O15 0.202719 0.656469 0.734634
O O16 0.544093 0.772401 0.500000
O O17 0.524777 0.838008 0.230844
O O18 0.614783 0.744972 0.270208
O O19 0.959218 0.624218 0.500000
O O20 0.000000 0.500000 0.676218
O O21 0.187799 0.734276 0.000000
#
# Coordination Sequence:
#
# PCOD8238522 Si02
#       8
#     8   8   8   8   8   8   8   8
#     4  10  23  42  65  92 127 166 205 256 315 373
#     4  12  24  41  65  92 127 166 210 265 317 368
#     4  10  22  40  66  95 125 164 210 258 310 374
#     4  12  24  41  67  94 123 162 212 265 316 373
#     4  11  24  41  65  94 124 166 213 257 310 373
#     4  10  22  40  63  92 125 165 208 254 310 373
#     4  11  25  43  64  91 126 168 209 256 315 372
#     4  10  22  41  63  89 126 168 205 254 314 371
#
# _framework density 20.320958000000001
#
# number of rings (size 3 to 8) (size 9 to 14) (size 15 to 20)
#    0.000    1.250    2.500    3.000    3.500    2.750 
#    0.000    0.000    0.000    0.000    0.000    0.000 
#    0.000    0.000    0.000    0.000    0.000    0.000 
#
# Total GULP energy -793829.856410 kJ/mol
# GULP energy per Si atom -12403.591506 kJ/mol
# Density = 2.027471 g / cm^3
# Si number density = 20.320958 Si / 1000 Ang^3
#
#
#
# Elastic Constant Matrix: (Units=GPa)
#
#
# Indices 1 2 3 4 5 6 
#
# 1 111.5174 29.7877 18.9998 0.0000 0.0000 0.0000
# 2 29.7877 111.4072 30.9360 0.0000 0.0000 0.0000
# 3 18.9998 30.9360 42.6738 0.0000 0.0000 0.0000
# 4 0.0000 0.0000 0.0000 -25.9406 0.0000 0.0000
# 5 0.0000 0.0000 0.0000 0.0000 19.2017 0.0000
# 6 0.0000 0.0000 0.0000 0.0000 0.0000 25.2705
#
#
#
# Elastic Compliance Matrix: (Units=1/GPa)
#
#
# Indices 1 2 3 4 5 6 
#
# 1 0.009982 -0.001797 -0.003142 0.000000 0.000000 0.000000
# 2 -0.001797 0.011562 -0.007582 0.000000 0.000000 0.000000
# 3 -0.003142 -0.007582 0.030329 0.000000 0.000000 0.000000
# 4 0.000000 0.000000 0.000000 -0.038550 0.000000 0.000000
# 5 0.000000 0.000000 0.000000 0.000000 0.052079 0.000000
# 6 0.000000 0.000000 0.000000 0.000000 0.000000 0.039572
#
#
# Mechanical properties :
#
#
# Convention : Reuss Voigt Hill
#
# Bulk Modulus (GPa) = 37.26854 47.22726 42.24790
# Shear Modulus (GPa) = 35.98193 16.09799 26.03996
#
# Velocity S-wave (km/s) = 4.21251 2.81763 3.58360
# Velocity P-wave (km/s) = 6.48383 5.82036 6.16103
#
# Compressibility (1/GPa) = 0.02683228
#
# Stress axis : x y z
#
# Youngs Moduli (GPa) = 100.17599 86.49206 32.97193
#
# Poissons Ratio (x) = 0.15539 0.10360
# Poissons Ratio (y) = 0.17997 0.24998
# Poissons Ratio (z) = 0.31476 0.65576
#
# Static dielectric constant tensor:
#      x y z
#    x 3.714170 0.000000 0.000000 
#    y 0.000000 3.992850 0.000000 
#    z 0.000000 0.000000 3.620450 
# 
# 
# High freq. dielectric constant tensor:
#      x y z
#    x 1.806620 0.000000 0.000000 
#    y 0.000000 1.803150 0.000000 
#    z 0.000000 0.000000 1.786400 
# 
# From -- ./inp_files/10053.got.cif
#   From: 2010.06.25/outbox.cif.g09.slc.cpg/sg58_6_cif.got.tgz:10053.got - 2010.06.26 21:38:00.
