data_PCOD8238717
_publ_section_title
;
Structure prediction by ZEFSAII (Michael W. Deem and Ramdas Pophale) SiO2 
 PCOD8238717
Probable space group: P N N M
;
_chemical_formula_sum "Si O2"
_cell_formula_units_Z 48
_cell_length_a 26.895755
_cell_length_b 9.930061
_cell_length_c 8.571068
_cell_angle_alpha 90.000000
_cell_angle_beta 90.000000
_cell_angle_gamma 90.000000
_cell_volume 2289.130738
_symmetry_space_group_name_H-M "P N N M"
_symmetry_group_IT_number 58
_symmetry_cell_setting 'orthorhombic'
loop_
_space_group_symop_operation_xyz
x,y,z
-x,-y,z
1/2+x,1/2-y,1/2-z
1/2-x,1/2+y,1/2-z
-x,-y,-z
x,y,-z
1/2-x,1/2+y,1/2+z
1/2+x,1/2-y,1/2+z
loop_
_atom_site_type_symbol
_atom_site_label
_atom_site_fract_x
_atom_site_fract_y
_atom_site_fract_z
Si Si1 0.793229 0.423098 0.319779
Si Si2 0.938552 0.767663 0.180271
Si Si3 0.113873 0.958795 0.179054
Si Si4 0.542927 0.754848 0.820274
Si Si5 0.897416 0.482128 0.181483
Si Si6 0.784313 0.117059 0.319736
O O1 0.784139 0.457566 0.500000
O O2 0.851470 0.429465 0.282542
O O3 0.773870 0.273230 0.279429
O O4 0.765128 0.532488 0.214885
O O5 0.911635 0.631764 0.235297
O O6 0.987945 0.795322 0.278904
O O7 0.899876 0.886872 0.212022
O O8 0.954182 0.758644 0.000000
O O9 0.081449 0.864688 0.289576
O O10 0.171824 0.941758 0.214052
O O11 0.103286 0.919140 0.000000
O O12 0.556008 0.885307 0.716743
O O13 0.545795 0.795841 0.000000
O O14 0.883449 0.476712 0.000000
O O15 0.799245 0.102117 0.500000
#
# Coordination Sequence:
#
# PCOD8238717 Si02
#       6
#     8   8   8   8   8   8
#     4  11  25  44  67  96 129 165 210 260 315 378
#     4  10  24  42  63  94 127 166 214 261 311 375
#     4  11  23  42  67  93 127 168 211 262 318 374
#     4  12  24  40  63  94 129 168 214 261 313 377
#     4  11  23  42  67  93 127 168 211 262 318 374
#     4  11  25  44  67  96 129 165 210 260 315 378
#
# _framework density 20.968657
#
# number of rings (size 3 to 8) (size 9 to 14) (size 15 to 20)
#    0.000    1.000    1.667    4.500    2.333    8.667 
#    0.000    0.000    0.000    0.000    0.000    0.000 
#    0.000    0.000    0.000    0.000    0.000    0.000 
#
# Total GULP energy -595643.870901 kJ/mol
# GULP energy per Si atom -12409.247310 kJ/mol
# Density = 2.092093 g / cm^3
# Si number density = 20.968657 Si / 1000 Ang^3
#
#
#
# Elastic Constant Matrix: (Units=GPa)
#
#
# Indices 1 2 3 4 5 6 
#
# 1 68.6043 14.4369 22.8648 0.0000 0.0000 0.0000
# 2 14.4369 101.9017 34.6870 0.0000 0.0000 0.0000
# 3 22.8648 34.6870 57.6207 0.0000 0.0000 0.0000
# 4 0.0000 0.0000 0.0000 23.3349 0.0000 0.0000
# 5 0.0000 0.0000 0.0000 0.0000 31.7679 0.0000
# 6 0.0000 0.0000 0.0000 0.0000 0.0000 38.1916
#
#
#
# Elastic Compliance Matrix: (Units=1/GPa)
#
#
# Indices 1 2 3 4 5 6 
#
# 1 0.016799 -0.000139 -0.006582 0.000000 0.000000 0.000000
# 2 -0.000139 0.012344 -0.007375 0.000000 0.000000 0.000000
# 3 -0.006582 -0.007375 0.024407 0.000000 0.000000 0.000000
# 4 0.000000 0.000000 0.000000 0.042854 0.000000 0.000000
# 5 0.000000 0.000000 0.000000 0.000000 0.031478 0.000000
# 6 0.000000 0.000000 0.000000 0.000000 0.000000 0.026184
#
#
# Mechanical properties :
#
#
# Convention : Reuss Voigt Hill
#
# Bulk Modulus (GPa) = 39.43919 41.34492 40.39205
# Shear Modulus (GPa) = 26.21745 29.06807 27.64276
#
# Velocity S-wave (km/s) = 3.53982 3.72729 3.63476
# Velocity P-wave (km/s) = 5.96293 6.18740 6.07620
#
# Compressibility (1/GPa) = 0.02535549
#
# Stress axis : x y z
#
# Youngs Moduli (GPa) = 59.52562 81.01288 40.97222
#
# Poissons Ratio (x) = 0.01130 0.26969
# Poissons Ratio (y) = 0.00830 0.30219
# Poissons Ratio (z) = 0.39182 0.59751
#
# Static dielectric constant tensor:
#      x y z
#    x 3.662700 0.000000 0.000000 
#    y 0.000000 3.932240 0.000000 
#    z 0.000000 0.000000 3.726130 
# 
# 
# High freq. dielectric constant tensor:
#      x y z
#    x 1.822570 0.000000 0.000000 
#    y 0.000000 1.835220 0.000000 
#    z 0.000000 0.000000 1.823830 
# 
# From -- ./inp_files/10759.got.cif
#   From: 2010.06.25/outbox.cif.g09.slc.cpg/sg58_6_cif.got.tgz:10759.got - 2010.06.26 21:38:00.
