data_PCOD8238109
_publ_section_title
;
Structure prediction by ZEFSAII (Michael W. Deem and Ramdas Pophale) SiO2 
 PCOD8238109
Probable space group: P N N M
;
_chemical_formula_sum "Si O2"
_cell_formula_units_Z 48
_cell_length_a 11.825381
_cell_length_b 23.315912
_cell_length_c 9.016642
_cell_angle_alpha 90.000000
_cell_angle_beta 90.000000
_cell_angle_gamma 90.000000
_cell_volume 2486.064409
_symmetry_space_group_name_H-M "P N N M"
_symmetry_group_IT_number 58
_symmetry_cell_setting 'orthorhombic'
loop_
_space_group_symop_operation_xyz
x,y,z
-x,-y,z
1/2+x,1/2-y,1/2-z
1/2-x,1/2+y,1/2-z
-x,-y,-z
x,y,-z
1/2-x,1/2+y,1/2+z
1/2+x,1/2-y,1/2+z
loop_
_atom_site_type_symbol
_atom_site_label
_atom_site_fract_x
_atom_site_fract_y
_atom_site_fract_z
Si Si1 0.156531 0.280372 0.327772
Si Si2 0.200497 0.576387 0.329141
Si Si3 0.858812 0.136565 0.171972
Si Si4 0.109848 0.166638 0.170052
Si Si5 0.988143 0.628018 0.172825
Si Si6 0.716894 0.044518 0.327466
O O1 0.125517 0.281295 0.500000
O O2 0.277137 0.309740 0.296778
O O3 0.165118 0.215707 0.270481
O O4 0.057460 0.312966 0.240726
O O5 0.166459 0.568857 0.500000
O O6 0.319123 0.608737 0.310663
O O7 0.213108 0.514858 0.256794
O O8 0.105391 0.613404 0.249138
O O9 0.820707 0.081872 0.266865
O O10 0.983126 0.154119 0.225284
O O11 0.857096 0.118581 0.000000
O O12 0.109999 0.187602 0.000000
O O13 0.900852 0.576632 0.203017
O O14 0.009114 0.637806 0.000000
O O15 0.735907 0.032852 0.500000
#
# Coordination Sequence:
#
# PCOD8238109 Si02
#       6
#     8   8   8   8   8   8
#     4  10  21  37  60  87 112 146 193 238 285 343
#     4  11  23  37  57  87 120 154 194 239 286 343
#     4   9  20  40  61  81 111 152 192 231 286 348
#     4  10  23  40  57  83 118 155 191 234 290 343
#     4  10  21  38  60  85 116 153 192 239 294 342
#     4  10  21  38  60  86 115 151 192 240 292 341
#
# _framework density 19.307625000000002
#
# number of rings (size 3 to 8) (size 9 to 14) (size 15 to 20)
#    0.000    2.000    0.000    2.500    2.333    7.333 
#    0.000    3.333    0.000    0.000    0.000    0.000 
#    0.000    0.000    0.000    0.000    0.000    0.000 
#
# Total GULP energy -595498.416733 kJ/mol
# GULP energy per Si atom -12406.217015 kJ/mol
# Density = 1.926368 g / cm^3
# Si number density = 19.307625 Si / 1000 Ang^3
#
#
#
# Elastic Constant Matrix: (Units=GPa)
#
#
# Indices 1 2 3 4 5 6 
#
# 1 96.4002 8.9446 35.2713 0.0000 0.0000 0.0000
# 2 8.9446 45.7197 29.2185 0.0000 0.0000 0.0000
# 3 35.2713 29.2185 94.8167 0.0000 0.0000 0.0000
# 4 0.0000 0.0000 0.0000 41.5802 0.0000 0.0000
# 5 0.0000 0.0000 0.0000 0.0000 36.4970 0.0000
# 6 0.0000 0.0000 0.0000 0.0000 0.0000 16.0359
#
#
#
# Elastic Compliance Matrix: (Units=1/GPa)
#
#
# Indices 1 2 3 4 5 6 
#
# 1 0.012022 0.000630 -0.004666 0.000000 0.000000 0.000000
# 2 0.000630 0.027269 -0.008638 0.000000 0.000000 0.000000
# 3 -0.004666 -0.008638 0.014944 0.000000 0.000000 0.000000
# 4 0.000000 0.000000 0.000000 0.024050 0.000000 0.000000
# 5 0.000000 0.000000 0.000000 0.000000 0.027399 0.000000
# 6 0.000000 0.000000 0.000000 0.000000 0.000000 0.062360
#
#
# Mechanical properties :
#
#
# Convention : Reuss Voigt Hill
#
# Bulk Modulus (GPa) = 34.61637 42.64505 38.63071
# Shear Modulus (GPa) = 24.62779 29.72277 27.17528
#
# Velocity S-wave (km/s) = 3.57536 3.92782 3.75572
# Velocity P-wave (km/s) = 5.91709 6.53494 6.23368
#
# Compressibility (1/GPa) = 0.02888807
#
# Stress axis : x y z
#
# Youngs Moduli (GPa) = 83.17862 36.67135 66.91512
#
# Poissons Ratio (x) = -0.02311 0.31225
# Poissons Ratio (y) = -0.05242 0.57799
# Poissons Ratio (z) = 0.38815 0.31675
#
# Static dielectric constant tensor:
#      x y z
#    x 3.629720 0.000000 0.000000 
#    y 0.000000 3.539270 0.000000 
#    z 0.000000 0.000000 3.630070 
# 
# 
# High freq. dielectric constant tensor:
#      x y z
#    x 1.753270 0.000000 0.000000 
#    y 0.000000 1.754900 0.000000 
#    z 0.000000 0.000000 1.760820 
# 
# From -- ./inp_files/4204.got.cif
#   From: 2010.06.25/outbox.cif.g09.slc.cpg/sg58_3_cif.got.tgz:4204.got - 2010.06.26 21:38:00.
