data_PCOD8238890
_publ_section_title
;
Structure prediction by ZEFSAII (Michael W. Deem and Ramdas Pophale) SiO2 
 PCOD8238890
Probable space group: P N N M
;
_chemical_formula_sum "Si O2"
_cell_formula_units_Z 28
_cell_length_a 11.881878
_cell_length_b 7.739125
_cell_length_c 14.810411
_cell_angle_alpha 90.000000
_cell_angle_beta 90.000000
_cell_angle_gamma 90.000000
_cell_volume 1361.896365
_symmetry_space_group_name_H-M "P N N M"
_symmetry_group_IT_number 58
_symmetry_cell_setting 'orthorhombic'
loop_
_space_group_symop_operation_xyz
x,y,z
-x,-y,z
1/2+x,1/2-y,1/2-z
1/2-x,1/2+y,1/2-z
-x,-y,-z
x,y,-z
1/2-x,1/2+y,1/2+z
1/2+x,1/2-y,1/2+z
loop_
_atom_site_type_symbol
_atom_site_label
_atom_site_fract_x
_atom_site_fract_y
_atom_site_fract_z
Si Si1 0.409493 0.848125 0.221020
Si Si2 0.500000 0.500000 0.277187
Si Si3 0.631423 0.029316 0.403365
Si Si4 0.700126 0.644287 0.603874
O O1 0.468209 0.660474 0.211561
O O2 0.324047 0.896084 0.141691
O O3 0.500000 0.000000 0.221828
O O4 0.343765 0.845452 0.318565
O O5 0.395518 0.454199 0.340960
O O6 0.674867 0.107415 0.500000
O O7 0.689884 0.848249 0.384294
O O8 0.500000 0.000000 0.412486
O O9 0.692265 0.585077 0.500000
#
# Coordination Sequence:
#
# PCOD8238890 Si02
#       4
#     8   4   8   8
#     4  11  23  42  64  91 132 167 204 263 319 373
#     4  12  23  38  71  94 120 166 223 254 313 370
#     4   9  17  36  60  85 118 154 197 259 308 348
#     4  11  23  40  65  96 128 165 214 259 311 379
#
# _framework density 20.559569
#
# number of rings (size 3 to 8) (size 9 to 14) (size 15 to 20)
#    0.000    1.429    5.714    2.143    0.000    1.714 
#    0.000    0.714    0.000    0.000    0.000    0.000 
#    0.000    0.000    0.000    0.000    0.000    0.000 
#
# Total GULP energy -347023.931072 kJ/mol
# GULP energy per Si atom -12393.711824 kJ/mol
# Density = 2.051277 g / cm^3
# Si number density = 20.559569 Si / 1000 Ang^3
#
#
#
# Elastic Constant Matrix: (Units=GPa)
#
#
# Indices 1 2 3 4 5 6 
#
# 1 101.4162 38.6108 43.4266 0.0000 0.0000 0.0000
# 2 38.6108 85.6000 17.8387 0.0000 0.0000 0.0000
# 3 43.4266 17.8387 49.6370 0.0000 0.0000 0.0000
# 4 0.0000 0.0000 0.0000 14.7775 0.0000 0.0000
# 5 0.0000 0.0000 0.0000 0.0000 23.0666 0.0000
# 6 0.0000 0.0000 0.0000 0.0000 0.0000 25.2955
#
#
#
# Elastic Compliance Matrix: (Units=1/GPa)
#
#
# Indices 1 2 3 4 5 6 
#
# 1 0.017624 -0.005120 -0.013579 0.000000 0.000000 0.000000
# 2 -0.005120 0.014115 -0.000594 0.000000 0.000000 0.000000
# 3 -0.013579 -0.000594 0.032240 0.000000 0.000000 0.000000
# 4 0.000000 0.000000 0.000000 0.067671 0.000000 0.000000
# 5 0.000000 0.000000 0.000000 0.000000 0.043353 0.000000
# 6 0.000000 0.000000 0.000000 0.000000 0.000000 0.039533
#
#
# Mechanical properties :
#
#
# Convention : Reuss Voigt Hill
#
# Bulk Modulus (GPa) = 39.37905 48.48950 43.93428
# Shear Modulus (GPa) = 19.11427 21.74640 20.43033
#
# Velocity S-wave (km/s) = 3.05241 3.25580 3.15574
# Velocity P-wave (km/s) = 5.62300 6.14571 5.89016
#
# Compressibility (1/GPa) = 0.02539421
#
# Stress axis : x y z
#
# Youngs Moduli (GPa) = 56.74039 70.84532 31.01760
#
# Poissons Ratio (x) = 0.36271 0.42119
# Poissons Ratio (y) = 0.29050 0.01841
# Poissons Ratio (z) = 0.77049 0.04205
#
# Static dielectric constant tensor:
#      x y z
#    x 3.459280 0.000000 0.000000 
#    y 0.000000 3.715170 0.000000 
#    z 0.000000 0.000000 4.418300 
# 
# 
# High freq. dielectric constant tensor:
#      x y z
#    x 1.784310 0.000000 0.000000 
#    y 0.000000 1.802630 0.000000 
#    z 0.000000 0.000000 1.801030 
# 
# From -- ./inp_files/20531.got.cif
#   From: 2010.06.25/outbox.cif.g09.slc.cpg/sg58_11_cif.got.tgz:20531.got - 2010.06.26 21:38:00.
