data_PCOD8238206
_publ_section_title
;
Structure prediction by ZEFSAII (Michael W. Deem and Ramdas Pophale) SiO2 
 PCOD8238206
Probable space group: P N N M
;
_chemical_formula_sum "Si O2"
_cell_formula_units_Z 64
_cell_length_a 15.316369
_cell_length_b 23.923840
_cell_length_c 8.700615
_cell_angle_alpha 90.000000
_cell_angle_beta 90.000000
_cell_angle_gamma 90.000000
_cell_volume 3188.134696
_symmetry_space_group_name_H-M "P N N M"
_symmetry_group_IT_number 58
_symmetry_cell_setting 'orthorhombic'
loop_
_space_group_symop_operation_xyz
x,y,z
-x,-y,z
1/2+x,1/2-y,1/2-z
1/2-x,1/2+y,1/2-z
-x,-y,-z
x,y,-z
1/2-x,1/2+y,1/2+z
1/2+x,1/2-y,1/2+z
loop_
_atom_site_type_symbol
_atom_site_label
_atom_site_fract_x
_atom_site_fract_y
_atom_site_fract_z
Si Si1 0.251360 0.822169 0.818473
Si Si2 0.603066 0.885859 0.322789
Si Si3 0.346072 0.998920 0.179515
Si Si4 0.088024 0.894553 0.181346
Si Si5 0.659336 0.499415 0.820197
Si Si6 0.750544 0.802598 0.317618
Si Si7 0.405495 0.889824 0.675961
Si Si8 0.089969 0.122526 0.319433
O O1 0.168273 0.856834 0.758081
O O2 0.248065 0.759726 0.747324
O O3 0.341223 0.851293 0.772782
O O4 0.247555 0.818466 0.000000
O O5 0.624914 0.900715 0.500000
O O6 0.664650 0.835980 0.262052
O O7 0.503354 0.866208 0.303662
O O8 0.621705 0.939877 0.221717
O O9 0.246241 0.988847 0.224589
O O10 0.405377 0.953593 0.266291
O O11 0.356981 0.988814 0.000000
O O12 0.089691 0.953808 0.269836
O O13 0.998432 0.863835 0.227476
O O14 0.092508 0.904405 0.000000
O O15 0.622133 0.439260 0.776539
O O16 0.680223 0.503566 0.000000
O O17 0.751392 0.800388 0.500000
O O18 0.837480 0.833981 0.259607
O O19 0.375418 0.888130 0.500000
O O20 0.072525 0.128537 0.500000
#
# Coordination Sequence:
#
# PCOD8238206 Si02
#       8
#     8   8   8   8   8   8   8   8
#     4  10  22  40  61  84 117 159 199 244 297 345
#     4  10  21  40  63  88 117 156 202 241 289 352
#     4  12  23  36  59  90 124 156 189 239 304 357
#     4  11  23  37  57  89 124 157 192 239 299 351
#     4  11  21  37  62  88 117 153 198 241 289 357
#     4   9  19  40  64  84 113 157 203 244 292 348
#     4  11  23  38  62  90 119 156 199 244 289 350
#     4  10  21  38  62  87 113 155 199 240 290 348
#
# _framework density 20.074434
#
# number of rings (size 3 to 8) (size 9 to 14) (size 15 to 20)
#    0.000    1.500    2.500    3.000    0.000    6.500 
#    0.000    2.500    0.000    0.000    0.000    0.000 
#    0.000    0.000    0.000    0.000    0.000    0.000 
#
# Total GULP energy -793907.426988 kJ/mol
# GULP energy per Si atom -12404.803547 kJ/mol
# Density = 2.002874 g / cm^3
# Si number density = 20.074434 Si / 1000 Ang^3
#
#
#
# Elastic Constant Matrix: (Units=GPa)
#
#
# Indices 1 2 3 4 5 6 
#
# 1 110.5610 42.0271 23.4575 0.0000 0.0000 0.0000
# 2 42.0271 133.4389 16.5362 0.0000 0.0000 0.0000
# 3 23.4575 16.5362 22.8089 0.0000 0.0000 0.0000
# 4 0.0000 0.0000 0.0000 22.7999 0.0000 0.0000
# 5 0.0000 0.0000 0.0000 0.0000 24.8216 0.0000
# 6 0.0000 0.0000 0.0000 0.0000 0.0000 15.6057
#
#
#
# Elastic Compliance Matrix: (Units=1/GPa)
#
#
# Indices 1 2 3 4 5 6 
#
# 1 0.012303 -0.002535 -0.010815 0.000000 0.000000 0.000000
# 2 -0.002535 0.008756 -0.003741 0.000000 0.000000 0.000000
# 3 -0.010815 -0.003741 0.057678 0.000000 0.000000 0.000000
# 4 0.000000 0.000000 0.000000 0.043860 0.000000 0.000000
# 5 0.000000 0.000000 0.000000 0.000000 0.040288 0.000000
# 6 0.000000 0.000000 0.000000 0.000000 0.000000 0.064079
#
#
# Mechanical properties :
#
#
# Convention : Reuss Voigt Hill
#
# Bulk Modulus (GPa) = 22.44452 47.87226 35.15839
# Shear Modulus (GPa) = 18.11616 24.96463 21.54039
#
# Velocity S-wave (km/s) = 3.00734 3.53030 3.27926
# Velocity P-wave (km/s) = 4.82325 6.36526 5.64713
#
# Compressibility (1/GPa) = 0.04455431
#
# Stress axis : x y z
#
# Youngs Moduli (GPa) = 81.28180 114.20760 17.33775
#
# Poissons Ratio (x) = 0.28947 0.18751
# Poissons Ratio (y) = 0.20602 0.06487
# Poissons Ratio (z) = 0.87908 0.42729
#
# Static dielectric constant tensor:
#      x y z
#    x 3.786400 0.000000 0.000000 
#    y 0.000000 3.808020 0.000000 
#    z 0.000000 0.000000 3.414780 
# 
# 
# High freq. dielectric constant tensor:
#      x y z
#    x 1.797450 0.000000 0.000000 
#    y 0.000000 1.781330 0.000000 
#    z 0.000000 0.000000 1.766550 
# 
# From -- ./inp_files/6873.got.cif
#   From: 2010.06.25/outbox.cif.g09.slc.cpg/sg58_4_cif.got.tgz:6873.got - 2010.06.26 21:38:00.
