data_PCOD8238476
_publ_section_title
;
Structure prediction by ZEFSAII (Michael W. Deem and Ramdas Pophale) SiO2 
 PCOD8238476
Probable space group: P N N M
;
_chemical_formula_sum "Si O2"
_cell_formula_units_Z 40
_cell_length_a 15.662465
_cell_length_b 8.096451
_cell_length_c 14.975064
_cell_angle_alpha 90.000000
_cell_angle_beta 90.000000
_cell_angle_gamma 90.000000
_cell_volume 1898.993563
_symmetry_space_group_name_H-M "P N N M"
_symmetry_group_IT_number 58
_symmetry_cell_setting 'orthorhombic'
loop_
_space_group_symop_operation_xyz
x,y,z
-x,-y,z
1/2+x,1/2-y,1/2-z
1/2-x,1/2+y,1/2-z
-x,-y,-z
x,y,-z
1/2-x,1/2+y,1/2+z
1/2+x,1/2-y,1/2+z
loop_
_atom_site_type_symbol
_atom_site_label
_atom_site_fract_x
_atom_site_fract_y
_atom_site_fract_z
Si Si1 0.500000 0.500000 0.848912
Si Si2 0.358413 0.972160 0.000000
Si Si3 0.497858 0.249232 0.000000
Si Si4 0.327944 0.066023 0.189718
Si Si5 0.338969 0.417015 0.247982
Si Si6 0.952532 0.175849 0.102379
Si Si7 0.500000 0.000000 0.292947
O O1 0.582867 0.468238 0.786807
O O2 0.478211 0.344586 0.909403
O O3 0.305665 0.996419 0.909046
O O4 0.401171 0.791507 0.000000
O O5 0.437557 0.094769 0.000000
O O6 0.328777 0.262875 0.181624
O O7 0.416614 0.995364 0.229356
O O8 0.248832 0.016946 0.252864
O O9 0.362726 0.345886 0.346250
O O10 0.002366 0.331962 0.147431
O O11 0.934328 0.222538 0.000000
O O12 0.000000 0.000000 0.109332
#
# Coordination Sequence:
#
# PCOD8238476 Si02
#       7
#     4   4   4   8   8   8   4
#     4  11  22  44  65  96 132 172 213 268 326 393
#     4  11  22  40  64  99 128 162 218 268 324 386
#     4  10  22  38  72  94 128 166 212 270 335 381
#     4  11  26  41  67  96 128 173 213 267 328 387
#     4  11  25  41  65  94 131 170 219 260 325 392
#     4  10  22  40  67  93 122 170 216 265 320 373
#     4  10  23  45  66  92 130 172 218 265 325 390
#
# _framework density 21.063789
#
# number of rings (size 3 to 8) (size 9 to 14) (size 15 to 20)
#    0.000    1.400    3.000    1.500    9.800    0.000 
#    0.000    0.000   15.400    0.000    0.000    0.000 
#    0.000    0.000    0.000    0.000    0.000    0.000 
#
# Total GULP energy -495767.979756 kJ/mol
# GULP energy per Si atom -12394.199494 kJ/mol
# Density = 2.101585 g / cm^3
# Si number density = 21.063789 Si / 1000 Ang^3
#
#
#
# Elastic Constant Matrix: (Units=GPa)
#
#
# Indices 1 2 3 4 5 6 
#
# 1 133.3021 20.3965 35.9891 0.0000 0.0000 0.0000
# 2 20.3965 77.4788 17.5885 0.0000 0.0000 0.0000
# 3 35.9891 17.5885 124.9817 0.0000 0.0000 0.0000
# 4 0.0000 0.0000 0.0000 31.2907 0.0000 0.0000
# 5 0.0000 0.0000 0.0000 0.0000 20.6470 0.0000
# 6 0.0000 0.0000 0.0000 0.0000 0.0000 30.7494
#
#
#
# Elastic Compliance Matrix: (Units=1/GPa)
#
#
# Indices 1 2 3 4 5 6 
#
# 1 0.008347 -0.001706 -0.002163 0.000000 0.000000 0.000000
# 2 -0.001706 0.013681 -0.001434 0.000000 0.000000 0.000000
# 3 -0.002163 -0.001434 0.008826 0.000000 0.000000 0.000000
# 4 0.000000 0.000000 0.000000 0.031958 0.000000 0.000000
# 5 0.000000 0.000000 0.000000 0.000000 0.048433 0.000000
# 6 0.000000 0.000000 0.000000 0.000000 0.000000 0.032521
#
#
# Mechanical properties :
#
#
# Convention : Reuss Voigt Hill
#
# Bulk Modulus (GPa) = 49.39023 53.74566 51.56794
# Shear Modulus (GPa) = 31.03214 33.98999 32.51106
#
# Velocity S-wave (km/s) = 3.84245 4.02141 3.93295
# Velocity P-wave (km/s) = 6.57151 6.86537 6.72005
#
# Compressibility (1/GPa) = 0.02024692
#
# Stress axis : x y z
#
# Youngs Moduli (GPa) = 119.80481 73.09159 113.30225
#
# Poissons Ratio (x) = 0.12471 0.24512
# Poissons Ratio (y) = 0.20441 0.16248
# Poissons Ratio (z) = 0.25919 0.10482
#
# Static dielectric constant tensor:
#      x y z
#    x 3.602600 0.000000 0.000000 
#    y 0.000000 3.856780 0.000000 
#    z 0.000000 0.000000 4.041160 
# 
# 
# High freq. dielectric constant tensor:
#      x y z
#    x 1.807920 0.000000 0.000000 
#    y 0.000000 1.830120 0.000000 
#    z 0.000000 0.000000 1.834150 
# 
# From -- ./inp_files/21945.got.cif
#   From: 2010.06.25/outbox.cif.g09.slc.cpg/sg58_11_cif.got.tgz:21945.got - 2010.06.26 21:38:00.
