data_PCOD8238935
_publ_section_title
;
Structure prediction by ZEFSAII (Michael W. Deem and Ramdas Pophale) SiO2 
 PCOD8238935
Probable space group: P N N M
;
_chemical_formula_sum "Si O2"
_cell_formula_units_Z 32
_cell_length_a 9.156365
_cell_length_b 8.495092
_cell_length_c 17.281049
_cell_angle_alpha 90.000000
_cell_angle_beta 90.000000
_cell_angle_gamma 90.000000
_cell_volume 1344.191933
_symmetry_space_group_name_H-M "P N N M"
_symmetry_group_IT_number 58
_symmetry_cell_setting 'orthorhombic'
loop_
_space_group_symop_operation_xyz
x,y,z
-x,-y,z
1/2+x,1/2-y,1/2-z
1/2-x,1/2+y,1/2-z
-x,-y,-z
x,y,-z
1/2-x,1/2+y,1/2+z
1/2+x,1/2-y,1/2+z
loop_
_atom_site_type_symbol
_atom_site_label
_atom_site_fract_x
_atom_site_fract_y
_atom_site_fract_z
Si Si1 0.106676 0.225828 0.871682
Si Si2 0.195544 0.876385 0.913807
Si Si3 0.945282 0.668230 0.294555
Si Si4 0.892356 0.144720 0.412377
O O1 0.089630 0.223814 0.778859
O O2 0.214719 0.368683 0.901379
O O3 0.945735 0.237492 0.908359
O O4 0.166622 0.059174 0.900296
O O5 0.305601 0.818821 0.849064
O O6 0.262163 0.853920 0.000000
O O7 0.000000 0.500000 0.264011
O O8 0.078418 0.724283 0.347967
O O9 0.926783 0.197191 0.500000
O O10 0.000000 0.000000 0.391323
#
# Coordination Sequence:
#
# PCOD8238935 Si02
#       4
#     8   8   8   8
#     4  11  24  42  70 102 140 182 239 299 363 425
#     4  11  24  44  73 102 138 190 247 299 360 438
#     4  12  26  42  68 103 140 186 237 299 366 440
#     4  11  25  44  69  99 141 185 234 297 362 430
#
# _framework density 23.806125999999999
#
# number of rings (size 3 to 8) (size 9 to 14) (size 15 to 20)
#    0.000    0.750    2.500    5.250    7.000    1.000 
#    0.000    0.000    0.000    9.750    0.000    0.000 
#    0.000    0.000    0.000    0.000    0.000    0.000 
#
# Total GULP energy -396484.959065 kJ/mol
# GULP energy per Si atom -12390.154971 kJ/mol
# Density = 2.375194 g / cm^3
# Si number density = 23.806126 Si / 1000 Ang^3
#
#
#
# Elastic Constant Matrix: (Units=GPa)
#
#
# Indices 1 2 3 4 5 6 
#
# 1 126.8692 33.9804 17.7764 0.0000 0.0000 0.0000
# 2 33.9804 49.8498 15.2555 0.0000 0.0000 0.0000
# 3 17.7764 15.2555 155.2600 0.0000 0.0000 0.0000
# 4 0.0000 0.0000 0.0000 40.9745 0.0000 0.0000
# 5 0.0000 0.0000 0.0000 0.0000 32.7747 0.0000
# 6 0.0000 0.0000 0.0000 0.0000 0.0000 44.4194
#
#
#
# Elastic Compliance Matrix: (Units=1/GPa)
#
#
# Indices 1 2 3 4 5 6 
#
# 1 0.009676 -0.006451 -0.000474 0.000000 0.000000 0.000000
# 2 -0.006451 0.024983 -0.001716 0.000000 0.000000 0.000000
# 3 -0.000474 -0.001716 0.006664 0.000000 0.000000 0.000000
# 4 0.000000 0.000000 0.000000 0.024405 0.000000 0.000000
# 5 0.000000 0.000000 0.000000 0.000000 0.030511 0.000000
# 6 0.000000 0.000000 0.000000 0.000000 0.000000 0.022513
#
#
# Mechanical properties :
#
#
# Convention : Reuss Voigt Hill
#
# Bulk Modulus (GPa) = 41.59621 51.77817 46.68719
# Shear Modulus (GPa) = 34.71068 41.29817 38.00443
#
# Velocity S-wave (km/s) = 3.82259 4.16958 3.99985
# Velocity P-wave (km/s) = 6.08225 6.70654 6.40201
#
# Compressibility (1/GPa) = 0.02404065
#
# Stress axis : x y z
#
# Youngs Moduli (GPa) = 103.34490 40.02767 150.06662
#
# Poissons Ratio (x) = 0.25821 0.07114
# Poissons Ratio (y) = 0.66666 0.25754
# Poissons Ratio (z) = 0.04899 0.06869
#
# Static dielectric constant tensor:
#      x y z
#    x 4.941280 0.000000 0.000000 
#    y 0.000000 4.059710 0.000000 
#    z 0.000000 0.000000 4.337310 
# 
# 
# High freq. dielectric constant tensor:
#      x y z
#    x 1.965500 0.000000 0.000000 
#    y 0.000000 1.906190 0.000000 
#    z 0.000000 0.000000 1.962720 
# 
# From -- ./inp_files/20612.got.cif
#   From: 2010.06.25/outbox.cif.g09.slc.cpg/sg58_11_cif.got.tgz:20612.got - 2010.06.26 21:38:00.
