data_PCOD8238366
_publ_section_title
;
Structure prediction by ZEFSAII (Michael W. Deem and Ramdas Pophale) SiO2 
 PCOD8238366
Probable space group: P N N M
;
_chemical_formula_sum "Si O2"
_cell_formula_units_Z 64
_cell_length_a 9.099686
_cell_length_b 14.789062
_cell_length_c 23.293409
_cell_angle_alpha 90.000000
_cell_angle_beta 90.000000
_cell_angle_gamma 90.000000
_cell_volume 3134.729627
_symmetry_space_group_name_H-M "P N N M"
_symmetry_group_IT_number 58
_symmetry_cell_setting 'orthorhombic'
loop_
_space_group_symop_operation_xyz
x,y,z
-x,-y,z
1/2+x,1/2-y,1/2-z
1/2-x,1/2+y,1/2-z
-x,-y,-z
x,y,-z
1/2-x,1/2+y,1/2+z
1/2+x,1/2-y,1/2+z
loop_
_atom_site_type_symbol
_atom_site_label
_atom_site_fract_x
_atom_site_fract_y
_atom_site_fract_z
Si Si1 0.715037 0.650584 0.648134
Si Si2 0.242996 0.586380 0.064503
Si Si3 0.672354 0.995394 0.933646
Si Si4 0.701923 0.792742 0.936771
Si Si5 0.101011 0.917742 0.266532
Si Si6 0.637617 0.051605 0.347398
Si Si7 0.039606 0.199676 0.361319
Si Si8 0.007490 0.283884 0.903226
O O1 0.743791 0.566245 0.606434
O O2 0.687102 0.621858 0.712894
O O3 0.855227 0.715712 0.648662
O O4 0.568274 0.699862 0.627765
O O5 0.179002 0.494520 0.091554
O O6 0.380565 0.622732 0.101113
O O7 0.113538 0.660595 0.061401
O O8 0.296589 0.565770 0.000000
O O9 0.500000 0.000000 0.923434
O O10 0.719925 0.895127 0.914350
O O11 0.713338 0.016330 0.000000
O O12 0.605521 0.732308 0.894257
O O13 0.864748 0.752525 0.944204
O O14 0.626589 0.793693 0.000000
O O15 0.222454 0.959564 0.307932
O O16 0.006901 0.841524 0.299950
O O17 0.000000 0.000000 0.245550
O O18 0.587568 0.154643 0.355331
O O19 0.500000 0.000000 0.318549
#
# Coordination Sequence:
#
# PCOD8238366 Si02
#       8
#     8   8   8   8   8   8   8   8
#     4  11  27  44  69  94 126 179 217 270 340 389
#     4  10  21  40  66  95 136 178 211 259 333 398
#     4  10  22  43  68  98 129 161 210 272 330 398
#     4  11  22  38  67  98 132 168 212 271 328 390
#     4  12  26  46  67  94 132 173 224 279 316 383
#     4  10  22  43  63  94 134 171 213 271 323 385
#     4  11  23  44  65  97 130 170 227 270 317 386
#     4  10  23  40  62  97 131 165 220 263 325 393
#
# _framework density 20.416433999999999
#
# number of rings (size 3 to 8) (size 9 to 14) (size 15 to 20)
#    0.000    1.375    3.750    0.750    3.500    5.750 
#    0.000    1.875    0.000    0.000    0.000    0.000 
#    0.000    0.000    0.000    0.000    0.000    0.000 
#
# Total GULP energy -793703.652370 kJ/mol
# GULP energy per Si atom -12401.619568 kJ/mol
# Density = 2.036997 g / cm^3
# Si number density = 20.416434 Si / 1000 Ang^3
#
#
#
# Elastic Constant Matrix: (Units=GPa)
#
#
# Indices 1 2 3 4 5 6 
#
# 1 97.7239 36.9272 30.2852 0.0000 0.0000 0.0000
# 2 36.9272 84.7158 21.0358 0.0000 0.0000 0.0000
# 3 30.2852 21.0358 89.9230 0.0000 0.0000 0.0000
# 4 0.0000 0.0000 0.0000 20.9825 0.0000 0.0000
# 5 0.0000 0.0000 0.0000 0.0000 21.2271 0.0000
# 6 0.0000 0.0000 0.0000 0.0000 0.0000 35.8245
#
#
#
# Elastic Compliance Matrix: (Units=1/GPa)
#
#
# Indices 1 2 3 4 5 6 
#
# 1 0.013095 -0.004898 -0.003265 0.000000 0.000000 0.000000
# 2 -0.004898 0.014364 -0.001711 0.000000 0.000000 0.000000
# 3 -0.003265 -0.001711 0.012620 0.000000 0.000000 0.000000
# 4 0.000000 0.000000 0.000000 0.047659 0.000000 0.000000
# 5 0.000000 0.000000 0.000000 0.000000 0.047110 0.000000
# 6 0.000000 0.000000 0.000000 0.000000 0.000000 0.027914
#
#
# Mechanical properties :
#
#
# Convention : Reuss Voigt Hill
#
# Bulk Modulus (GPa) = 49.17972 49.87322 49.52647
# Shear Modulus (GPa) = 26.41517 27.88113 27.14815
#
# Velocity S-wave (km/s) = 3.60087 3.69944 3.65049
# Velocity P-wave (km/s) = 6.43653 6.53673 6.48682
#
# Compressibility (1/GPa) = 0.02033359
#
# Stress axis : x y z
#
# Youngs Moduli (GPa) = 76.36336 69.61970 79.23725
#
# Poissons Ratio (x) = 0.34096 0.25868
# Poissons Ratio (y) = 0.37399 0.13555
# Poissons Ratio (z) = 0.24930 0.11910
#
# Static dielectric constant tensor:
#      x y z
#    x 3.803630 0.000000 0.000000 
#    y 0.000000 3.836190 0.000000 
#    z 0.000000 0.000000 3.456040 
# 
# 
# High freq. dielectric constant tensor:
#      x y z
#    x 1.811360 0.000000 0.000000 
#    y 0.000000 1.809070 0.000000 
#    z 0.000000 0.000000 1.781330 
# 
# From -- ./inp_files/31641.got.cif
#   From: 2010.06.25/outbox.cif.g09.slc.cpg/sg58_16_cif.got.tgz:31641.got - 2010.06.26 21:38:00.
