data_PCOD8238912
_publ_section_title
;
Structure prediction by ZEFSAII (Michael W. Deem and Ramdas Pophale) SiO2 
 PCOD8238912
Probable space group: P N N M
;
_chemical_formula_sum "Si O2"
_cell_formula_units_Z 32
_cell_length_a 7.547968
_cell_length_b 11.769963
_cell_length_c 16.976680
_cell_angle_alpha 90.000000
_cell_angle_beta 90.000000
_cell_angle_gamma 90.000000
_cell_volume 1508.196437
_symmetry_space_group_name_H-M "P N N M"
_symmetry_group_IT_number 58
_symmetry_cell_setting 'orthorhombic'
loop_
_space_group_symop_operation_xyz
x,y,z
-x,-y,z
1/2+x,1/2-y,1/2-z
1/2-x,1/2+y,1/2-z
-x,-y,-z
x,y,-z
1/2-x,1/2+y,1/2+z
1/2+x,1/2-y,1/2+z
loop_
_atom_site_type_symbol
_atom_site_label
_atom_site_fract_x
_atom_site_fract_y
_atom_site_fract_z
Si Si1 0.513247 0.626915 0.910673
Si Si2 0.309232 0.724655 0.668061
Si Si3 0.709415 0.008352 0.909156
Si Si4 0.206258 0.753425 0.156678
O O1 0.500000 0.500000 0.876827
O O2 0.656209 0.692136 0.859517
O O3 0.321463 0.687637 0.908602
O O4 0.581193 0.626188 0.000000
O O5 0.298959 0.604574 0.624253
O O6 0.288034 0.710622 0.761184
O O7 0.500288 0.780250 0.649574
O O8 0.775709 0.111701 0.855443
O O9 0.500000 0.000000 0.902123
O O10 0.767654 0.024977 0.000000
#
# Coordination Sequence:
#
# PCOD8238912 Si02
#       4
#     8   8   8   8
#     4  11  26  47  69  97 139 181 225 279 340 408
#     4  12  25  43  70 102 137 179 226 282 340 405
#     4  11  23  43  71 102 139 176 224 284 345 406
#     4  12  25  43  70 102 137 179 226 282 340 405
#
# _framework density 21.217396000000001
#
# number of rings (size 3 to 8) (size 9 to 14) (size 15 to 20)
#    0.000    0.500    5.000    2.250    3.500    6.000 
#    0.000    2.500    0.000    0.000    0.000    0.000 
#    0.000    0.000    0.000    0.000    0.000    0.000 
#
# Total GULP energy -396993.700339 kJ/mol
# GULP energy per Si atom -12406.053136 kJ/mol
# Density = 2.116910 g / cm^3
# Si number density = 21.217396 Si / 1000 Ang^3
#
#
#
# Elastic Constant Matrix: (Units=GPa)
#
#
# Indices 1 2 3 4 5 6 
#
# 1 139.8400 32.6356 10.4110 0.0000 0.0000 0.0000
# 2 32.6356 111.8277 11.8204 0.0000 0.0000 0.0000
# 3 10.4110 11.8204 75.1088 0.0000 0.0000 0.0000
# 4 0.0000 0.0000 0.0000 24.5224 0.0000 0.0000
# 5 0.0000 0.0000 0.0000 0.0000 21.9588 0.0000
# 6 0.0000 0.0000 0.0000 0.0000 0.0000 20.0342
#
#
#
# Elastic Compliance Matrix: (Units=1/GPa)
#
#
# Indices 1 2 3 4 5 6 
#
# 1 0.007713 -0.002174 -0.000727 0.000000 0.000000 0.000000
# 2 -0.002174 0.009706 -0.001226 0.000000 0.000000 0.000000
# 3 -0.000727 -0.001226 0.013608 0.000000 0.000000 0.000000
# 4 0.000000 0.000000 0.000000 0.040779 0.000000 0.000000
# 5 0.000000 0.000000 0.000000 0.000000 0.045540 0.000000
# 6 0.000000 0.000000 0.000000 0.000000 0.000000 0.049915
#
#
# Mechanical properties :
#
#
# Convention : Reuss Voigt Hill
#
# Bulk Modulus (GPa) = 43.91272 48.50116 46.20694
# Shear Modulus (GPa) = 27.30668 31.43037 29.36853
#
# Velocity S-wave (km/s) = 3.59136 3.85301 3.72448
# Velocity P-wave (km/s) = 6.15944 6.53475 6.34987
#
# Compressibility (1/GPa) = 0.02277245
#
# Stress axis : x y z
#
# Youngs Moduli (GPa) = 129.65954 103.02494 73.48745
#
# Poissons Ratio (x) = 0.22397 0.05342
# Poissons Ratio (y) = 0.28188 0.09011
# Poissons Ratio (z) = 0.09425 0.12633
#
# Static dielectric constant tensor:
#      x y z
#    x 4.031850 0.000000 0.000000 
#    y 0.000000 3.899860 0.000000 
#    z 0.000000 0.000000 3.888810 
# 
# 
# High freq. dielectric constant tensor:
#      x y z
#    x 1.847160 0.000000 0.000000 
#    y 0.000000 1.832170 0.000000 
#    z 0.000000 0.000000 1.838800 
# 
# From -- ./inp_files/19096.got.cif
#   From: 2010.06.25/outbox.cif.g09.slc.cpg/sg58_10_cif.got.tgz:19096.got - 2010.06.26 21:38:00.
