data_PCOD8238721
_publ_section_title
;
Structure prediction by ZEFSAII (Michael W. Deem and Ramdas Pophale) SiO2 
 PCOD8238721
Probable space group: P N N M
;
_chemical_formula_sum "Si O2"
_cell_formula_units_Z 48
_cell_length_a 8.570076
_cell_length_b 13.535533
_cell_length_c 20.083204
_cell_angle_alpha 90.000000
_cell_angle_beta 90.000000
_cell_angle_gamma 90.000000
_cell_volume 2329.662640
_symmetry_space_group_name_H-M "P N N M"
_symmetry_group_IT_number 58
_symmetry_cell_setting 'orthorhombic'
loop_
_space_group_symop_operation_xyz
x,y,z
-x,-y,z
1/2+x,1/2-y,1/2-z
1/2-x,1/2+y,1/2-z
-x,-y,-z
x,y,-z
1/2-x,1/2+y,1/2+z
1/2+x,1/2-y,1/2+z
loop_
_atom_site_type_symbol
_atom_site_label
_atom_site_fract_x
_atom_site_fract_y
_atom_site_fract_z
Si Si1 0.073487 0.104705 0.923986
Si Si2 0.227278 0.776480 0.924526
Si Si3 0.100868 0.402351 0.666328
Si Si4 0.170328 0.121056 0.683886
Si Si5 0.692708 0.593502 0.795569
Si Si6 0.206048 0.696721 0.320727
O O1 0.955183 0.197184 0.916425
O O2 0.218517 0.124045 0.875041
O O3 0.134047 0.098496 0.000000
O O4 0.000000 0.000000 0.902667
O O5 0.315890 0.877557 0.903503
O O6 0.285292 0.684317 0.880744
O O7 0.269865 0.750116 0.000000
O O8 0.235540 0.408296 0.721569
O O9 0.000000 0.500000 0.662167
O O10 0.982214 0.311008 0.677978
O O11 0.256026 0.168588 0.745778
O O12 0.992193 0.109840 0.706190
O O13 0.235839 0.009828 0.668895
O O14 0.759005 0.689641 0.834751
#
# Coordination Sequence:
#
# PCOD8238721 Si02
#       6
#     8   8   8   8   8   8
#     4  10  24  43  66  95 130 173 210 260 332 397
#     4  11  24  44  64  90 134 178 220 265 324 394
#     4  12  23  37  62 103 126 162 211 274 338 384
#     4  11  24  41  65  94 126 174 220 266 330 383
#     4  11  23  40  62  96 128 165 214 271 327 379
#     4  12  22  37  66  93 130 163 212 270 319 396
#
# _framework density 20.603842
#
# number of rings (size 3 to 8) (size 9 to 14) (size 15 to 20)
#    0.000    0.833    5.000    2.000    4.667    1.000 
#    0.000    2.500    0.000    2.000    0.000    0.000 
#    0.000    0.000    0.000    0.000    0.000    0.000 
#
# Total GULP energy -594883.876198 kJ/mol
# GULP energy per Si atom -12393.414087 kJ/mol
# Density = 2.055695 g / cm^3
# Si number density = 20.603842 Si / 1000 Ang^3
#
#
#
# Elastic Constant Matrix: (Units=GPa)
#
#
# Indices 1 2 3 4 5 6 
#
# 1 69.5050 15.8995 49.0755 0.0000 0.0000 0.0000
# 2 15.8995 131.8584 39.5494 0.0000 0.0000 0.0000
# 3 49.0755 39.5494 126.3249 0.0000 0.0000 0.0000
# 4 0.0000 0.0000 0.0000 28.8114 0.0000 0.0000
# 5 0.0000 0.0000 0.0000 0.0000 13.3227 0.0000
# 6 0.0000 0.0000 0.0000 0.0000 0.0000 30.5999
#
#
#
# Elastic Compliance Matrix: (Units=1/GPa)
#
#
# Indices 1 2 3 4 5 6 
#
# 1 0.019827 -0.000089 -0.007675 0.000000 0.000000 0.000000
# 2 -0.000089 0.008370 -0.002586 0.000000 0.000000 0.000000
# 3 -0.007675 -0.002586 0.011707 0.000000 0.000000 0.000000
# 4 0.000000 0.000000 0.000000 0.034709 0.000000 0.000000
# 5 0.000000 0.000000 0.000000 0.000000 0.075060 0.000000
# 6 0.000000 0.000000 0.000000 0.000000 0.000000 0.032680
#
#
# Mechanical properties :
#
#
# Convention : Reuss Voigt Hill
#
# Bulk Modulus (GPa) = 52.06917 59.63747 55.85332
# Shear Modulus (GPa) = 23.87175 29.42439 26.64807
#
# Velocity S-wave (km/s) = 3.40752 3.78312 3.60023
# Velocity P-wave (km/s) = 6.38812 6.93472 6.66702
#
# Compressibility (1/GPa) = 0.01920522
#
# Stress axis : x y z
#
# Youngs Moduli (GPa) = 50.43743 119.47069 85.41765
#
# Poissons Ratio (x) = 0.01061 0.65554
# Poissons Ratio (y) = 0.00448 0.22089
# Poissons Ratio (z) = 0.38708 0.30896
#
# Static dielectric constant tensor:
#      x y z
#    x 3.917490 0.000000 0.000000 
#    y 0.000000 4.321500 0.000000 
#    z 0.000000 0.000000 3.503880 
# 
# 
# High freq. dielectric constant tensor:
#      x y z
#    x 1.811940 0.000000 0.000000 
#    y 0.000000 1.829200 0.000000 
#    z 0.000000 0.000000 1.777470 
# 
# From -- ./inp_files/25257.got.cif
#   From: 2010.06.25/outbox.cif.g09.slc.cpg/sg58_13_cif.got.tgz:25257.got - 2010.06.26 21:38:00.
