data_PCOD8238392
_publ_section_title
;
Structure prediction by ZEFSAII (Michael W. Deem and Ramdas Pophale) SiO2 
 PCOD8238392
Probable space group: P N N M
;
_chemical_formula_sum "Si O2"
_cell_formula_units_Z 56
_cell_length_a 14.821155
_cell_length_b 21.291977
_cell_length_c 8.595684
_cell_angle_alpha 90.000000
_cell_angle_beta 90.000000
_cell_angle_gamma 90.000000
_cell_volume 2712.554538
_symmetry_space_group_name_H-M "P N N M"
_symmetry_group_IT_number 58
_symmetry_cell_setting 'orthorhombic'
loop_
_space_group_symop_operation_xyz
x,y,z
-x,-y,z
1/2+x,1/2-y,1/2-z
1/2-x,1/2+y,1/2-z
-x,-y,-z
x,y,-z
1/2-x,1/2+y,1/2+z
1/2+x,1/2-y,1/2+z
loop_
_atom_site_type_symbol
_atom_site_label
_atom_site_fract_x
_atom_site_fract_y
_atom_site_fract_z
Si Si1 0.681487 0.731550 0.683052
Si Si2 0.740586 0.472518 0.818276
Si Si3 0.682875 0.338129 0.816900
Si Si4 0.014318 0.237923 0.680342
Si Si5 0.926317 0.446691 0.324915
Si Si6 0.434760 0.861343 0.683588
Si Si7 0.744494 0.099015 0.184011
O O1 0.694075 0.731299 0.500000
O O2 0.744714 0.787405 0.754154
O O3 0.576729 0.740302 0.721388
O O4 0.708909 0.662593 0.747834
O O5 0.697136 0.408332 0.748776
O O6 0.846075 0.469683 0.783024
O O7 0.701202 0.536051 0.737155
O O8 0.721614 0.478553 0.000000
O O9 0.578510 0.321410 0.780328
O O10 0.700635 0.339392 0.000000
O O11 0.988674 0.240309 0.500000
O O12 0.078605 0.295523 0.728413
O O13 0.893703 0.429464 0.500000
O O14 0.000000 0.500000 0.332913
O O15 0.968486 0.386556 0.239731
O O16 0.434322 0.852474 0.500000
O O17 0.354220 0.906418 0.738628
O O18 0.734208 0.098662 0.000000
#
# Coordination Sequence:
#
# PCOD8238392 Si02
#       7
#     8   8   8   8   8   8   8
#     4  10  21  41  65  89 120 161 207 254 306 362
#     4  11  22  37  60  88 121 159 204 254 304 363
#     4   9  20  40  62  86 121 162 197 245 309 362
#     4  11  22  40  64  90 120 157 202 253 308 363
#     4  11  22  35  54  82 119 157 194 240 301 366
#     4  12  23  36  58  87 119 155 199 247 300 363
#     4  11  22  39  61  85 121 162 198 246 307 361
#
# _framework density 20.644745
#
# number of rings (size 3 to 8) (size 9 to 14) (size 15 to 20)
#    0.000    1.286    2.857    3.857    0.000    2.857 
#    0.000    4.286    0.000    4.286    0.000    0.000 
#    0.000    0.000    0.000    0.000    0.000    0.000 
#
# Total GULP energy -694238.804067 kJ/mol
# GULP energy per Si atom -12397.121501 kJ/mol
# Density = 2.059776 g / cm^3
# Si number density = 20.644745 Si / 1000 Ang^3
#
#
#
# Elastic Constant Matrix: (Units=GPa)
#
#
# Indices 1 2 3 4 5 6 
#
# 1 53.9104 22.5157 4.5687 0.0000 0.0000 0.0000
# 2 22.5157 144.0260 17.6528 0.0000 0.0000 0.0000
# 3 4.5687 17.6528 41.1781 0.0000 0.0000 0.0000
# 4 0.0000 0.0000 0.0000 31.5083 0.0000 0.0000
# 5 0.0000 0.0000 0.0000 0.0000 17.0529 0.0000
# 6 0.0000 0.0000 0.0000 0.0000 0.0000 28.1920
#
#
#
# Elastic Compliance Matrix: (Units=1/GPa)
#
#
# Indices 1 2 3 4 5 6 
#
# 1 0.019878 -0.002995 -0.000922 0.000000 0.000000 0.000000
# 2 -0.002995 0.007779 -0.003003 0.000000 0.000000 0.000000
# 3 -0.000922 -0.003003 0.025674 0.000000 0.000000 0.000000
# 4 0.000000 0.000000 0.000000 0.031738 0.000000 0.000000
# 5 0.000000 0.000000 0.000000 0.000000 0.058641 0.000000
# 6 0.000000 0.000000 0.000000 0.000000 0.000000 0.035471
#
#
# Mechanical properties :
#
#
# Convention : Reuss Voigt Hill
#
# Bulk Modulus (GPa) = 25.32049 36.50988 30.91519
# Shear Modulus (GPa) = 24.25014 28.30911 26.27963
#
# Velocity S-wave (km/s) = 3.43102 3.70706 3.57171
# Velocity P-wave (km/s) = 5.29031 6.00385 5.65834
#
# Compressibility (1/GPa) = 0.03949370
#
# Stress axis : x y z
#
# Youngs Moduli (GPa) = 50.30662 128.54505 38.94946
#
# Poissons Ratio (x) = 0.38494 0.03590
# Poissons Ratio (y) = 0.15065 0.11695
# Poissons Ratio (z) = 0.04637 0.38599
#
# Static dielectric constant tensor:
#      x y z
#    x 3.507560 0.000000 0.000000 
#    y 0.000000 4.356480 0.000000 
#    z 0.000000 0.000000 3.557580 
# 
# 
# High freq. dielectric constant tensor:
#      x y z
#    x 1.783030 0.000000 0.000000 
#    y 0.000000 1.826500 0.000000 
#    z 0.000000 0.000000 1.792550 
# 
# From -- ./inp_files/6355.got.cif
#   From: 2010.06.25/outbox.cif.g09.slc.cpg/sg58_4_cif.got.tgz:6355.got - 2010.06.26 21:38:00.
