data_PCOD8238319
_publ_section_title
;
Structure prediction by ZEFSAII (Michael W. Deem and Ramdas Pophale) SiO2 
 PCOD8238319
Probable space group: P N N M
;
_chemical_formula_sum "Si O2"
_cell_formula_units_Z 48
_cell_length_a 8.421500
_cell_length_b 17.219546
_cell_length_c 15.366820
_cell_angle_alpha 90.000000
_cell_angle_beta 90.000000
_cell_angle_gamma 90.000000
_cell_volume 2228.410284
_symmetry_space_group_name_H-M "P N N M"
_symmetry_group_IT_number 58
_symmetry_cell_setting 'orthorhombic'
loop_
_space_group_symop_operation_xyz
x,y,z
-x,-y,z
1/2+x,1/2-y,1/2-z
1/2-x,1/2+y,1/2-z
-x,-y,-z
x,y,-z
1/2-x,1/2+y,1/2+z
1/2+x,1/2-y,1/2+z
loop_
_atom_site_type_symbol
_atom_site_label
_atom_site_fract_x
_atom_site_fract_y
_atom_site_fract_z
Si Si1 0.170582 0.957646 0.000000
Si Si2 0.626220 0.779828 0.332569
Si Si3 0.891428 0.925890 0.500000
Si Si4 0.207965 0.209592 0.840591
Si Si5 0.317633 0.526936 0.325648
Si Si6 0.911254 0.235150 0.500000
Si Si7 0.236180 0.286223 0.500000
Si Si8 0.647261 0.951112 0.346010
O O1 0.256892 0.982890 0.910138
O O2 0.159789 0.864367 0.000000
O O3 0.000000 0.000000 0.000000
O O4 0.724932 0.754067 0.248262
O O5 0.475926 0.726855 0.346473
O O6 0.733926 0.768122 0.417146
O O7 0.573616 0.868569 0.319247
O O8 0.783499 0.933049 0.414847
O O9 0.003247 0.849330 0.500000
O O10 0.000000 0.000000 0.500000
O O11 0.210627 0.117052 0.845436
O O12 0.301202 0.253201 0.916618
O O13 0.500000 0.500000 0.312365
O O14 0.221400 0.504902 0.238189
O O15 0.046708 0.302352 0.500000
O O16 0.500000 0.000000 0.384663
#
# Coordination Sequence:
#
# PCOD8238319 Si02
#       8
#     4   8   4   8   8   4   4   8
#     4  10  21  39  68 100 130 178 223 271 339 403
#     4  11  23  42  66 100 137 177 226 279 346 405
#     4  12  27  47  70  93 132 188 232 284 350 409
#     4  11  25  41  71 100 139 181 229 284 342 414
#     4  10  22  43  68 102 140 181 233 275 346 421
#     4  12  26  46  67 103 135 179 240 279 348 411
#     4  12  23  44  70  97 140 179 223 289 336 411
#     4  11  25  43  67 101 137 176 232 288 347 409
#
# _framework density 21.540019999999998
#
# number of rings (size 3 to 8) (size 9 to 14) (size 15 to 20)
#    0.000    1.000    1.667    4.750    4.667    5.333 
#    0.000    1.250    0.000    0.000    0.000    0.000 
#    0.000    0.000    0.000    0.000    0.000    0.000 
#
# Total GULP energy -595033.102313 kJ/mol
# GULP energy per Si atom -12396.522965 kJ/mol
# Density = 2.149099 g / cm^3
# Si number density = 21.540020 Si / 1000 Ang^3
#
#
#
# Elastic Constant Matrix: (Units=GPa)
#
#
# Indices 1 2 3 4 5 6 
#
# 1 72.4754 26.8248 34.9884 0.0000 0.0000 0.0000
# 2 26.8248 96.2073 36.2078 0.0000 0.0000 0.0000
# 3 34.9884 36.2078 175.0533 0.0000 0.0000 0.0000
# 4 0.0000 0.0000 0.0000 30.9013 0.0000 0.0000
# 5 0.0000 0.0000 0.0000 0.0000 19.9976 0.0000
# 6 0.0000 0.0000 0.0000 0.0000 0.0000 37.5385
#
#
#
# Elastic Compliance Matrix: (Units=1/GPa)
#
#
# Indices 1 2 3 4 5 6 
#
# 1 0.016351 -0.003610 -0.002521 0.000000 0.000000 0.000000
# 2 -0.003610 0.012069 -0.001775 0.000000 0.000000 0.000000
# 3 -0.002521 -0.001775 0.006584 0.000000 0.000000 0.000000
# 4 0.000000 0.000000 0.000000 0.032361 0.000000 0.000000
# 5 0.000000 0.000000 0.000000 0.000000 0.050006 0.000000
# 6 0.000000 0.000000 0.000000 0.000000 0.000000 0.026639
#
#
# Mechanical properties :
#
#
# Convention : Reuss Voigt Hill
#
# Bulk Modulus (GPa) = 52.10792 59.97536 56.04164
# Shear Modulus (GPa) = 30.08069 34.06848 32.07458
#
# Velocity S-wave (km/s) = 3.74103 3.98129 3.86303
# Velocity P-wave (km/s) = 6.55013 7.00274 6.78021
#
# Compressibility (1/GPa) = 0.01919094
#
# Stress axis : x y z
#
# Youngs Moduli (GPa) = 61.15746 82.85880 151.89272
#
# Poissons Ratio (x) = 0.29913 0.38299
# Poissons Ratio (y) = 0.22079 0.26957
# Poissons Ratio (z) = 0.15421 0.14705
#
# Static dielectric constant tensor:
#      x y z
#    x 3.793220 0.000000 0.000000 
#    y 0.000000 3.894820 0.000000 
#    z 0.000000 0.000000 4.264840 
# 
# 
# High freq. dielectric constant tensor:
#      x y z
#    x 1.840140 0.000000 0.000000 
#    y 0.000000 1.849230 0.000000 
#    z 0.000000 0.000000 1.867420 
# 
# From -- ./inp_files/19931.got.cif
#   From: 2010.06.25/outbox.cif.g09.slc.cpg/sg58_10_cif.got.tgz:19931.got - 2010.06.26 21:38:00.
