data_PCOD8238431
_publ_section_title
;
Structure prediction by ZEFSAII (Michael W. Deem and Ramdas Pophale) SiO2 
 PCOD8238431
Probable space group: P N N M
;
_chemical_formula_sum "Si O2"
_cell_formula_units_Z 56
_cell_length_a 13.521494
_cell_length_b 9.253583
_cell_length_c 19.913813
_cell_angle_alpha 90.000000
_cell_angle_beta 90.000000
_cell_angle_gamma 90.000000
_cell_volume 2491.661427
_symmetry_space_group_name_H-M "P N N M"
_symmetry_group_IT_number 58
_symmetry_cell_setting 'orthorhombic'
loop_
_space_group_symop_operation_xyz
x,y,z
-x,-y,z
1/2+x,1/2-y,1/2-z
1/2-x,1/2+y,1/2-z
-x,-y,-z
x,y,-z
1/2-x,1/2+y,1/2+z
1/2+x,1/2-y,1/2+z
loop_
_atom_site_type_symbol
_atom_site_label
_atom_site_fract_x
_atom_site_fract_y
_atom_site_fract_z
Si Si1 0.852117 0.007167 0.077349
Si Si2 0.049970 0.348918 0.742640
Si Si3 0.070845 0.271094 0.111922
Si Si4 0.237562 0.915515 0.575910
Si Si5 0.134490 0.672183 0.078036
Si Si6 0.267167 0.003467 0.799728
Si Si7 0.356727 0.303819 0.206587
O O1 0.864406 0.167132 0.108658
O O2 0.764131 0.949354 0.124932
O O3 0.945576 0.897270 0.088104
O O4 0.819586 0.014432 0.000000
O O5 0.097292 0.279385 0.809574
O O6 0.142216 0.388088 0.694337
O O7 0.000000 0.500000 0.762407
O O8 0.974470 0.230846 0.711457
O O9 0.164695 0.318478 0.068106
O O10 0.977786 0.374528 0.095178
O O11 0.191562 0.929113 0.500000
O O12 0.159817 0.850400 0.628704
O O13 0.280731 0.067170 0.607312
O O14 0.153011 0.674068 0.000000
O O15 0.178291 0.934914 0.754932
O O16 0.302340 0.156897 0.768894
#
# Coordination Sequence:
#
# PCOD8238431 Si02
#       7
#     8   8   8   8   8   8   8
#     4  11  23  38  60  89 126 163 203 262 325 382
#     4  10  22  39  62  92 126 169 215 264 324 381
#     4  12  20  36  62  92 124 159 208 265 321 390
#     4  11  22  39  62  89 124 167 213 263 321 381
#     4  10  22  35  56  88 125 165 199 250 325 391
#     4  11  22  41  63  89 126 165 212 265 322 380
#     4  11  24  40  64  92 124 171 215 265 321 388
#
# _framework density 22.474964
#
# number of rings (size 3 to 8) (size 9 to 14) (size 15 to 20)
#    0.000    1.143    2.857    3.857    4.000    2.286 
#    0.000    1.429    0.000    2.571    0.000    3.000 
#    0.000    0.000    0.000    0.000    0.000    0.000 
#
# Total GULP energy -693743.919740 kJ/mol
# GULP energy per Si atom -12388.284281 kJ/mol
# Density = 2.242381 g / cm^3
# Si number density = 22.474964 Si / 1000 Ang^3
#
#
#
# Elastic Constant Matrix: (Units=GPa)
#
#
# Indices 1 2 3 4 5 6 
#
# 1 45.8865 -0.5251 21.2906 0.0000 0.0000 0.0000
# 2 -0.5251 80.6132 22.3877 0.0000 0.0000 0.0000
# 3 21.2906 22.3877 98.7153 0.0000 0.0000 0.0000
# 4 0.0000 0.0000 0.0000 26.9917 0.0000 0.0000
# 5 0.0000 0.0000 0.0000 0.0000 25.1604 0.0000
# 6 0.0000 0.0000 0.0000 0.0000 0.0000 24.3408
#
#
#
# Elastic Compliance Matrix: (Units=1/GPa)
#
#
# Indices 1 2 3 4 5 6 
#
# 1 0.024441 0.001732 -0.005664 0.000000 0.000000 0.000000
# 2 0.001732 0.013362 -0.003404 0.000000 0.000000 0.000000
# 3 -0.005664 -0.003404 0.012124 0.000000 0.000000 0.000000
# 4 0.000000 0.000000 0.000000 0.037048 0.000000 0.000000
# 5 0.000000 0.000000 0.000000 0.000000 0.039745 0.000000
# 6 0.000000 0.000000 0.000000 0.000000 0.000000 0.041083
#
#
# Mechanical properties :
#
#
# Convention : Reuss Voigt Hill
#
# Bulk Modulus (GPa) = 28.36521 34.61348 31.48934
# Shear Modulus (GPa) = 25.74322 27.43603 26.58963
#
# Velocity S-wave (km/s) = 3.38807 3.49770 3.44332
# Velocity P-wave (km/s) = 5.28712 5.63437 5.46350
#
# Compressibility (1/GPa) = 0.03525446
#
# Stress axis : x y z
#
# Youngs Moduli (GPa) = 40.91521 74.84176 82.48279
#
# Poissons Ratio (x) = -0.12964 0.46720
# Poissons Ratio (y) = -0.07088 0.28076
# Poissons Ratio (z) = 0.23175 0.25475
#
# Static dielectric constant tensor:
#      x y z
#    x 3.870580 0.000000 0.000000 
#    y 0.000000 4.684040 0.000000 
#    z 0.000000 0.000000 3.783620 
# 
# 
# High freq. dielectric constant tensor:
#      x y z
#    x 1.849440 0.000000 0.000000 
#    y 0.000000 1.914130 0.000000 
#    z 0.000000 0.000000 1.871540 
# 
# From -- ./inp_files/30026.got.cif
#   From: 2010.06.25/outbox.cif.g09.slc.cpg/sg58_16_cif.got.tgz:30026.got - 2010.06.26 21:38:00.
