data_PCOD8238487
_publ_section_title
;
Structure prediction by ZEFSAII (Michael W. Deem and Ramdas Pophale) SiO2 
 PCOD8238487
Probable space group: P N N M
;
_chemical_formula_sum "Si O2"
_cell_formula_units_Z 64
_cell_length_a 15.413845
_cell_length_b 8.712967
_cell_length_c 22.451780
_cell_angle_alpha 90.000000
_cell_angle_beta 90.000000
_cell_angle_gamma 90.000000
_cell_volume 3015.281302
_symmetry_space_group_name_H-M "P N N M"
_symmetry_group_IT_number 58
_symmetry_cell_setting 'orthorhombic'
loop_
_space_group_symop_operation_xyz
x,y,z
-x,-y,z
1/2+x,1/2-y,1/2-z
1/2-x,1/2+y,1/2-z
-x,-y,-z
x,y,-z
1/2-x,1/2+y,1/2+z
1/2+x,1/2-y,1/2+z
loop_
_atom_site_type_symbol
_atom_site_label
_atom_site_fract_x
_atom_site_fract_y
_atom_site_fract_z
Si Si1 0.357144 0.544657 0.269770
Si Si2 0.087843 0.938786 0.105719
Si Si3 0.909693 0.437411 0.648422
Si Si4 0.921943 0.391742 0.932218
Si Si5 0.752896 0.405179 0.567464
Si Si6 0.585115 0.574438 0.850430
Si Si7 0.180412 0.399700 0.247828
Si Si8 0.773936 0.574460 0.883675
O O1 0.409248 0.524707 0.330712
O O2 0.416452 0.484389 0.216839
O O3 0.271975 0.439806 0.278146
O O4 0.332172 0.718195 0.253773
O O5 0.081880 0.754953 0.110892
O O6 0.172275 0.978306 0.066500
O O7 0.000000 0.000000 0.074115
O O8 0.833909 0.481447 0.601908
O O9 0.918373 0.256168 0.652951
O O10 0.893036 0.514783 0.713165
O O11 0.000000 0.500000 0.622711
O O12 0.829884 0.480455 0.931169
O O13 0.000000 0.500000 0.909495
O O14 0.939409 0.339174 0.000000
O O15 0.781144 0.366584 0.500000
O O16 0.721210 0.254217 0.602049
O O17 0.500000 0.500000 0.882391
O O18 0.672939 0.520910 0.884447
O O19 0.182117 0.460812 0.180196
#
# Coordination Sequence:
#
# PCOD8238487 Si02
#       8
#     8   8   8   8   8   8   8   8
#     4  11  22  38  63  94 132 167 214 263 323 405
#     4  12  25  41  65  95 127 169 217 268 328 390
#     4  11  24  41  66  97 134 174 223 273 336 394
#     4  11  26  44  64  93 128 171 221 273 326 386
#     4  11  23  45  69  94 131 175 228 276 327 390
#     4  10  22  39  61  97 131 177 211 264 329 390
#     4  11  21  39  63  97 131 170 214 269 336 399
#     4  10  22  40  69  93 128 172 217 272 330 390
#
# _framework density 21.225216
#
# number of rings (size 3 to 8) (size 9 to 14) (size 15 to 20)
#    0.000    1.125    2.500    4.125    5.250    3.750 
#    0.000    0.000    0.000    9.375    0.000    0.000 
#    0.000    0.000    0.000    0.000    0.000    0.000 
#
# Total GULP energy -793662.538970 kJ/mol
# GULP energy per Si atom -12400.977171 kJ/mol
# Density = 2.117691 g / cm^3
# Si number density = 21.225216 Si / 1000 Ang^3
#
#
#
# Elastic Constant Matrix: (Units=GPa)
#
#
# Indices 1 2 3 4 5 6 
#
# 1 166.6258 72.6735 36.5710 0.0000 0.0000 0.0000
# 2 72.6735 122.3667 24.5265 0.0000 0.0000 0.0000
# 3 36.5710 24.5265 71.3175 0.0000 0.0000 0.0000
# 4 0.0000 0.0000 0.0000 23.8354 0.0000 0.0000
# 5 0.0000 0.0000 0.0000 0.0000 18.4890 0.0000
# 6 0.0000 0.0000 0.0000 0.0000 0.0000 41.6451
#
#
#
# Elastic Compliance Matrix: (Units=1/GPa)
#
#
# Indices 1 2 3 4 5 6 
#
# 1 0.008608 -0.004540 -0.002853 0.000000 0.000000 0.000000
# 2 -0.004540 0.011172 -0.001514 0.000000 0.000000 0.000000
# 3 -0.002853 -0.001514 0.016005 0.000000 0.000000 0.000000
# 4 0.000000 0.000000 0.000000 0.041954 0.000000 0.000000
# 5 0.000000 0.000000 0.000000 0.000000 0.054086 0.000000
# 6 0.000000 0.000000 0.000000 0.000000 0.000000 0.024012
#
#
# Mechanical properties :
#
#
# Convention : Reuss Voigt Hill
#
# Bulk Modulus (GPa) = 55.64375 69.76135 62.70255
# Shear Modulus (GPa) = 27.83306 31.89650 29.86478
#
# Velocity S-wave (km/s) = 3.62514 3.88076 3.75513
# Velocity P-wave (km/s) = 6.61778 7.28141 6.95751
#
# Compressibility (1/GPa) = 0.01797147
#
# Stress axis : x y z
#
# Youngs Moduli (GPa) = 116.17296 89.50819 62.47975
#
# Poissons Ratio (x) = 0.40641 0.17823
# Poissons Ratio (y) = 0.52748 0.09459
# Poissons Ratio (z) = 0.33139 0.13550
#
# Static dielectric constant tensor:
#      x y z
#    x 4.006770 0.000000 0.000000 
#    y 0.000000 3.742770 0.000000 
#    z 0.000000 0.000000 3.615530 
# 
# 
# High freq. dielectric constant tensor:
#      x y z
#    x 1.845840 0.000000 0.000000 
#    y 0.000000 1.832410 0.000000 
#    z 0.000000 0.000000 1.812460 
# 
# From -- ./inp_files/32220.got.cif
#   From: 2010.06.25/outbox.cif.g09.slc.cpg/sg58_17_cif.got.tgz:32220.got - 2010.06.26 21:38:00.
