data_PCOD8238255
_publ_section_title
;
Structure prediction by ZEFSAII (Michael W. Deem and Ramdas Pophale) SiO2 
 PCOD8238255
Probable space group: P N N M
;
_chemical_formula_sum "Si O2"
_cell_formula_units_Z 56
_cell_length_a 16.129323
_cell_length_b 19.836153
_cell_length_c 9.015573
_cell_angle_alpha 90.000000
_cell_angle_beta 90.000000
_cell_angle_gamma 90.000000
_cell_volume 2884.475953
_symmetry_space_group_name_H-M "P N N M"
_symmetry_group_IT_number 58
_symmetry_cell_setting 'orthorhombic'
loop_
_space_group_symop_operation_xyz
x,y,z
-x,-y,z
1/2+x,1/2-y,1/2-z
1/2-x,1/2+y,1/2-z
-x,-y,-z
x,y,-z
1/2-x,1/2+y,1/2+z
1/2+x,1/2-y,1/2+z
loop_
_atom_site_type_symbol
_atom_site_label
_atom_site_fract_x
_atom_site_fract_y
_atom_site_fract_z
Si Si1 0.028540 0.170763 0.828816
Si Si2 0.314012 0.234259 0.171324
Si Si3 0.002768 0.696868 0.673409
Si Si4 0.740175 0.019963 0.324582
Si Si5 0.845476 0.132581 0.174629
Si Si6 0.931043 0.555272 0.674044
Si Si7 0.199576 0.110460 0.829240
O O1 0.045651 0.240439 0.744135
O O2 0.101758 0.117776 0.795874
O O3 0.942206 0.136745 0.779780
O O4 0.025744 0.190493 0.000000
O O5 0.400382 0.198975 0.216903
O O6 0.298114 0.300421 0.270255
O O7 0.240854 0.182374 0.204460
O O8 0.315509 0.256677 0.000000
O O9 0.990215 0.702051 0.500000
O O10 0.964898 0.626968 0.731460
O O11 0.741591 0.026987 0.500000
O O12 0.809764 0.067577 0.254989
O O13 0.650369 0.039051 0.265563
O O14 0.761169 0.943883 0.279326
O O15 0.832242 0.124740 0.000000
O O16 0.909361 0.555943 0.500000
O O17 0.000000 0.500000 0.710204
O O18 0.215925 0.089090 0.000000
#
# Coordination Sequence:
#
# PCOD8238255 Si02
#       7
#     8   8   8   8   8   8   8
#     4   9  20  37  59  86 113 149 193 243 296 349
#     4   9  18  35  60  88 118 151 188 235 290 350
#     4   9  18  33  56  85 115 149 188 232 283 346
#     4  12  26  40  57  85 119 156 200 247 296 346
#     4  10  21  39  60  84 118 156 197 242 295 355
#     4  10  21  39  62  87 119 158 196 235 291 358
#     4  10  21  39  61  84 114 152 196 242 299 359
#
# _framework density 19.414269999999998
#
# number of rings (size 3 to 8) (size 9 to 14) (size 15 to 20)
#    0.000    2.143    0.000    2.571    2.000    5.429 
#    0.000    5.714    0.000    0.000    0.000    0.000 
#    0.000    0.000    0.000    0.000    0.000    0.000 
#
# Total GULP energy -694609.151498 kJ/mol
# GULP energy per Si atom -12403.734848 kJ/mol
# Density = 1.937008 g / cm^3
# Si number density = 19.414270 Si / 1000 Ang^3
#
#
#
# Elastic Constant Matrix: (Units=GPa)
#
#
# Indices 1 2 3 4 5 6 
#
# 1 71.9293 10.9394 24.9680 0.0000 0.0000 0.0000
# 2 10.9394 36.4524 17.3459 0.0000 0.0000 0.0000
# 3 24.9680 17.3459 61.0583 0.0000 0.0000 0.0000
# 4 0.0000 0.0000 0.0000 35.9618 0.0000 0.0000
# 5 0.0000 0.0000 0.0000 0.0000 26.3630 0.0000
# 6 0.0000 0.0000 0.0000 0.0000 0.0000 30.1326
#
#
#
# Elastic Compliance Matrix: (Units=1/GPa)
#
#
# Indices 1 2 3 4 5 6 
#
# 1 0.016327 -0.001992 -0.006110 0.000000 0.000000 0.000000
# 2 -0.001992 0.031964 -0.008266 0.000000 0.000000 0.000000
# 3 -0.006110 -0.008266 0.021225 0.000000 0.000000 0.000000
# 4 0.000000 0.000000 0.000000 0.027807 0.000000 0.000000
# 5 0.000000 0.000000 0.000000 0.000000 0.037932 0.000000
# 6 0.000000 0.000000 0.000000 0.000000 0.000000 0.033187
#
#
# Mechanical properties :
#
#
# Convention : Reuss Voigt Hill
#
# Bulk Modulus (GPa) = 27.18966 30.66073 28.92519
# Shear Modulus (GPa) = 23.42603 26.23726 24.83164
#
# Velocity S-wave (km/s) = 3.47744 3.68018 3.58025
# Velocity P-wave (km/s) = 5.49171 5.82113 5.65881
#
# Compressibility (1/GPa) = 0.03677868
#
# Stress axis : x y z
#
# Youngs Moduli (GPa) = 61.25006 31.28496 47.11485
#
# Poissons Ratio (x) = 0.06232 0.28789
# Poissons Ratio (y) = 0.12201 0.38945
# Poissons Ratio (z) = 0.37426 0.25860
#
# Static dielectric constant tensor:
#      x y z
#    x 3.670470 0.000000 0.000000 
#    y 0.000000 3.583700 0.000000 
#    z 0.000000 0.000000 3.475680 
# 
# 
# High freq. dielectric constant tensor:
#      x y z
#    x 1.764110 0.000000 0.000000 
#    y 0.000000 1.759310 0.000000 
#    z 0.000000 0.000000 1.746960 
# 
# From -- ./inp_files/6268.got.cif
#   From: 2010.06.25/outbox.cif.g09.slc.cpg/sg58_4_cif.got.tgz:6268.got - 2010.06.26 21:38:00.
