data_PCOD8238263
_publ_section_title
;
Structure prediction by ZEFSAII (Michael W. Deem and Ramdas Pophale) SiO2 
 PCOD8238263
Probable space group: P N N M
;
_chemical_formula_sum "Si O2"
_cell_formula_units_Z 64
_cell_length_a 11.927994
_cell_length_b 20.863458
_cell_length_c 13.065475
_cell_angle_alpha 90.000000
_cell_angle_beta 90.000000
_cell_angle_gamma 90.000000
_cell_volume 3251.463680
_symmetry_space_group_name_H-M "P N N M"
_symmetry_group_IT_number 58
_symmetry_cell_setting 'orthorhombic'
loop_
_space_group_symop_operation_xyz
x,y,z
-x,-y,z
1/2+x,1/2-y,1/2-z
1/2-x,1/2+y,1/2-z
-x,-y,-z
x,y,-z
1/2-x,1/2+y,1/2+z
1/2+x,1/2-y,1/2+z
loop_
_atom_site_type_symbol
_atom_site_label
_atom_site_fract_x
_atom_site_fract_y
_atom_site_fract_z
Si Si1 0.024327 0.353019 0.214642
Si Si2 0.771279 0.560230 0.221518
Si Si3 0.140760 0.235291 0.882460
Si Si4 0.625237 0.380788 0.751374
Si Si5 0.072931 0.877136 0.384743
Si Si6 0.597473 0.769747 0.884675
Si Si7 0.132906 0.004688 0.884899
Si Si8 0.818861 0.423344 0.120939
O O1 0.118779 0.401356 0.256732
O O2 0.082270 0.302783 0.138616
O O3 0.964204 0.319045 0.309974
O O4 0.939492 0.394897 0.147774
O O5 0.699273 0.603293 0.143125
O O6 0.694749 0.551035 0.322031
O O7 0.804672 0.493845 0.168172
O O8 0.088152 0.184734 0.803328
O O9 0.272054 0.236030 0.858037
O O10 0.116713 0.216121 0.000000
O O11 0.517597 0.410777 0.810196
O O12 0.668755 0.427458 0.662230
O O13 0.725593 0.374489 0.833733
O O14 0.050558 0.900337 0.500000
O O15 0.048789 0.801494 0.374526
O O16 0.579941 0.795552 0.000000
O O17 0.177983 0.000715 0.000000
O O18 0.000000 0.000000 0.880253
O O19 0.804400 0.427631 0.000000
#
# Coordination Sequence:
#
# PCOD8238263 Si02
#       8
#     8   8   8   8   8   8   8   8
#     4  12  23  41  65  93 130 161 206 260 313 377
#     4  11  24  40  63  91 127 169 208 256 308 374
#     4  11  22  38  63  88 118 162 206 249 308 377
#     4  11  21  39  62  90 124 159 205 261 311 368
#     4  11  21  37  63  92 122 162 210 256 308 374
#     4  10  22  40  62  89 122 165 205 250 309 371
#     4  10  21  39  61  86 120 160 205 255 306 360
#     4  11  25  41  61  93 130 169 208 258 316 369
#
# _framework density 19.683443
#
# number of rings (size 3 to 8) (size 9 to 14) (size 15 to 20)
#    0.000    1.125    5.000    1.875    0.000    2.500 
#    0.000    1.875    0.000    2.250    0.000    0.000 
#    0.000    0.000    0.000    0.000    0.000    0.000 
#
# Total GULP energy -793634.879854 kJ/mol
# GULP energy per Si atom -12400.544998 kJ/mol
# Density = 1.963864 g / cm^3
# Si number density = 19.683443 Si / 1000 Ang^3
#
#
#
# Elastic Constant Matrix: (Units=GPa)
#
#
# Indices 1 2 3 4 5 6 
#
# 1 116.2157 38.4548 60.1406 0.0000 0.0000 0.0000
# 2 38.4548 83.2537 52.8614 0.0000 0.0000 0.0000
# 3 60.1406 52.8614 150.6687 0.0000 0.0000 0.0000
# 4 0.0000 0.0000 0.0000 21.2954 0.0000 0.0000
# 5 0.0000 0.0000 0.0000 0.0000 25.8530 0.0000
# 6 0.0000 0.0000 0.0000 0.0000 0.0000 35.6244
#
#
#
# Elastic Compliance Matrix: (Units=1/GPa)
#
#
# Indices 1 2 3 4 5 6 
#
# 1 0.011421 -0.003063 -0.003484 0.000000 0.000000 0.000000
# 2 -0.003063 0.016276 -0.004488 0.000000 0.000000 0.000000
# 3 -0.003484 -0.004488 0.009602 0.000000 0.000000 0.000000
# 4 0.000000 0.000000 0.000000 0.046958 0.000000 0.000000
# 5 0.000000 0.000000 0.000000 0.000000 0.038680 0.000000
# 6 0.000000 0.000000 0.000000 0.000000 0.000000 0.028071
#
#
# Mechanical properties :
#
#
# Convention : Reuss Voigt Hill
#
# Bulk Modulus (GPa) = 65.66264 72.56131 69.11198
# Shear Modulus (GPa) = 28.06544 29.79998 28.93271
#
# Velocity S-wave (km/s) = 3.78013 3.89519 3.83809
# Velocity P-wave (km/s) = 7.24460 7.56136 7.40467
#
# Compressibility (1/GPa) = 0.01522936
#
# Stress axis : x y z
#
# Youngs Moduli (GPa) = 87.55551 61.44114 104.14215
#
# Poissons Ratio (x) = 0.18821 0.36285
# Poissons Ratio (y) = 0.26820 0.46734
# Poissons Ratio (z) = 0.30506 0.27572
#
# Static dielectric constant tensor:
#      x y z
#    x 3.602920 0.000000 0.000000 
#    y 0.000000 3.535040 0.000000 
#    z 0.000000 0.000000 3.630430 
# 
# 
# High freq. dielectric constant tensor:
#      x y z
#    x 1.770920 0.000000 0.000000 
#    y 0.000000 1.763910 0.000000 
#    z 0.000000 0.000000 1.773790 
# 
# From -- ./inp_files/14854.got.cif
#   From: 2010.06.25/outbox.cif.g09.slc.cpg/sg58_8_cif.got.tgz:14854.got - 2010.06.26 21:38:00.
