data_PCOD8238466
_publ_section_title
;
Structure prediction by ZEFSAII (Michael W. Deem and Ramdas Pophale) SiO2 
 PCOD8238466
Probable space group: P N N M
;
_chemical_formula_sum "Si O2"
_cell_formula_units_Z 64
_cell_length_a 12.029831
_cell_length_b 28.953278
_cell_length_c 9.006111
_cell_angle_alpha 90.000000
_cell_angle_beta 90.000000
_cell_angle_gamma 90.000000
_cell_volume 3136.855851
_symmetry_space_group_name_H-M "P N N M"
_symmetry_group_IT_number 58
_symmetry_cell_setting 'orthorhombic'
loop_
_space_group_symop_operation_xyz
x,y,z
-x,-y,z
1/2+x,1/2-y,1/2-z
1/2-x,1/2+y,1/2-z
-x,-y,-z
x,y,-z
1/2-x,1/2+y,1/2+z
1/2+x,1/2-y,1/2+z
loop_
_atom_site_type_symbol
_atom_site_label
_atom_site_fract_x
_atom_site_fract_y
_atom_site_fract_z
Si Si1 0.052708 0.561611 0.834687
Si Si2 0.863043 0.340529 0.833621
Si Si3 0.473369 0.779683 0.828628
Si Si4 0.800809 0.562425 0.172193
Si Si5 0.260156 0.525415 0.674681
Si Si6 0.356217 0.609883 0.174395
Si Si7 0.768131 0.660368 0.323897
Si Si8 0.455768 0.320110 0.828658
O O1 0.049776 0.617173 0.827203
O O2 0.135647 0.542601 0.710724
O O3 0.927586 0.544074 0.807190
O O4 0.094090 0.546241 0.000000
O O5 0.744153 0.357184 0.769865
O O6 0.912468 0.298680 0.740183
O O7 0.846940 0.321909 0.000000
O O8 0.363280 0.804534 0.764255
O O9 0.468147 0.724911 0.797897
O O10 0.480504 0.791333 0.000000
O O11 0.721165 0.524450 0.248629
O O12 0.784137 0.610707 0.251793
O O13 0.769157 0.567982 0.000000
O O14 0.276285 0.520603 0.500000
O O15 0.351036 0.561294 0.738841
O O16 0.472336 0.634516 0.210047
O O17 0.340137 0.599910 0.000000
O O18 0.771452 0.655133 0.500000
O O19 0.650807 0.681554 0.275812
O O20 0.417665 0.321336 0.000000
#
# Coordination Sequence:
#
# PCOD8238466 Si02
#       8
#     8   8   8   8   8   8   8   8
#     4   9  18  33  53  81 118 159 200 240 287 352
#     4   9  17  32  57  86 115 152 195 239 288 346
#     4  10  22  38  59  88 121 154 191 242 300 358
#     4  11  21  37  60  84 118 163 207 246 296 363
#     4  11  22  34  55  88 124 157 198 251 308 359
#     4   9  20  40  62  83 115 159 207 250 292 353
#     4  11  24  41  62  91 126 156 196 254 310 354
#     4  10  23  43  64  85 116 160 206 247 294 360
#
# _framework density 20.402595000000002
#
# number of rings (size 3 to 8) (size 9 to 14) (size 15 to 20)
#    0.000    2.000    1.250    3.000    1.750    6.000 
#    0.000    0.625    0.000    3.750    0.000    0.000 
#    0.000    0.000    0.000    0.000    0.000    0.000 
#
# Total GULP energy -793645.621849 kJ/mol
# GULP energy per Si atom -12400.712841 kJ/mol
# Density = 2.035616 g / cm^3
# Si number density = 20.402595 Si / 1000 Ang^3
#
#
#
# Elastic Constant Matrix: (Units=GPa)
#
#
# Indices 1 2 3 4 5 6 
#
# 1 70.4618 28.8174 30.7466 0.0000 0.0000 0.0000
# 2 28.8174 100.7536 49.4583 0.0000 0.0000 0.0000
# 3 30.7466 49.4583 89.8443 0.0000 0.0000 0.0000
# 4 0.0000 0.0000 0.0000 33.6669 0.0000 0.0000
# 5 0.0000 0.0000 0.0000 0.0000 25.9865 0.0000
# 6 0.0000 0.0000 0.0000 0.0000 0.0000 16.9436
#
#
#
# Elastic Compliance Matrix: (Units=1/GPa)
#
#
# Indices 1 2 3 4 5 6 
#
# 1 0.017236 -0.002788 -0.004364 0.000000 0.000000 0.000000
# 2 -0.002788 0.014051 -0.006781 0.000000 0.000000 0.000000
# 3 -0.004364 -0.006781 0.016357 0.000000 0.000000 0.000000
# 4 0.000000 0.000000 0.000000 0.029703 0.000000 0.000000
# 5 0.000000 0.000000 0.000000 0.000000 0.038482 0.000000
# 6 0.000000 0.000000 0.000000 0.000000 0.000000 0.059019
#
#
# Mechanical properties :
#
#
# Convention : Reuss Voigt Hill
#
# Bulk Modulus (GPa) = 50.55914 53.23380 51.89647
# Shear Modulus (GPa) = 23.88837 25.45521 24.67179
#
# Velocity S-wave (km/s) = 3.42548 3.53604 3.48120
# Velocity P-wave (km/s) = 6.36237 6.54368 6.45366
#
# Compressibility (1/GPa) = 0.01977882
#
# Stress axis : x y z
#
# Youngs Moduli (GPa) = 58.01642 71.16802 61.13683
#
# Poissons Ratio (x) = 0.19839 0.26681
# Poissons Ratio (y) = 0.16173 0.41457
# Poissons Ratio (z) = 0.25319 0.48259
#
# Static dielectric constant tensor:
#      x y z
#    x 3.529150 0.000000 0.000000 
#    y 0.000000 3.785820 0.000000 
#    z 0.000000 0.000000 3.532470 
# 
# 
# High freq. dielectric constant tensor:
#      x y z
#    x 1.777880 0.000000 0.000000 
#    y 0.000000 1.808040 0.000000 
#    z 0.000000 0.000000 1.784720 
# 
# From -- ./inp_files/4663.got.cif
#   From: 2010.06.25/outbox.cif.g09.slc.cpg/sg58_3_cif.got.tgz:4663.got - 2010.06.26 21:38:00.
