data_PCOD8238580
_publ_section_title
;
Structure prediction by ZEFSAII (Michael W. Deem and Ramdas Pophale) SiO2 
 PCOD8238580
Probable space group: P N N M
;
_chemical_formula_sum "Si O2"
_cell_formula_units_Z 48
_cell_length_a 15.902986
_cell_length_b 8.946029
_cell_length_c 15.233384
_cell_angle_alpha 90.000000
_cell_angle_beta 90.000000
_cell_angle_gamma 90.000000
_cell_volume 2167.231818
_symmetry_space_group_name_H-M "P N N M"
_symmetry_group_IT_number 58
_symmetry_cell_setting 'orthorhombic'
loop_
_space_group_symop_operation_xyz
x,y,z
-x,-y,z
1/2+x,1/2-y,1/2-z
1/2-x,1/2+y,1/2-z
-x,-y,-z
x,y,-z
1/2-x,1/2+y,1/2+z
1/2+x,1/2-y,1/2+z
loop_
_atom_site_type_symbol
_atom_site_label
_atom_site_fract_x
_atom_site_fract_y
_atom_site_fract_z
Si Si1 0.019970 0.827202 0.402582
Si Si2 0.355875 0.576802 0.404813
Si Si3 0.379627 0.242611 0.597832
Si Si4 0.961073 0.730782 0.218547
Si Si5 0.181852 0.500742 0.202066
Si Si6 0.797717 0.256068 0.651656
O O1 0.989453 0.773033 0.500000
O O2 0.119591 0.796535 0.398699
O O3 0.971083 0.744548 0.323847
O O4 0.000000 0.000000 0.391122
O O5 0.402117 0.594382 0.500000
O O6 0.334219 0.402303 0.389862
O O7 0.415139 0.625511 0.324322
O O8 0.272965 0.679228 0.413495
O O9 0.416939 0.225131 0.500000
O O10 0.449474 0.218666 0.672296
O O11 0.312946 0.109130 0.616173
O O12 0.906994 0.584406 0.200474
O O13 0.183588 0.606048 0.285648
O O14 0.260285 0.387548 0.203298
#
# Coordination Sequence:
#
# PCOD8238580 Si02
#       6
#     8   8   8   8   8   8
#     4  11  25  44  69  98 132 178 229 277 329 390
#     4  10  22  41  69 101 134 176 218 271 340 407
#     4  11  22  39  66 103 137 169 215 271 338 408
#     4  11  23  41  67  97 136 174 219 275 335 403
#     4  11  25  40  66  96 131 177 220 276 340 395
#     4  11  24  43  68  94 136 176 229 273 333 401
#
# _framework density 22.148069
#
# number of rings (size 3 to 8) (size 9 to 14) (size 15 to 20)
#    0.000    1.167    1.667    4.000    4.667    6.000 
#    0.000    2.500    0.000    0.000    0.000    0.000 
#    0.000    0.000    0.000    0.000    0.000    0.000 
#
# Total GULP energy -594929.928979 kJ/mol
# GULP energy per Si atom -12394.373520 kJ/mol
# Density = 2.209766 g / cm^3
# Si number density = 22.148069 Si / 1000 Ang^3
#
#
#
# Elastic Constant Matrix: (Units=GPa)
#
#
# Indices 1 2 3 4 5 6 
#
# 1 56.1581 19.3054 17.1214 0.0000 0.0000 0.0000
# 2 19.3054 112.3300 38.1293 0.0000 0.0000 0.0000
# 3 17.1214 38.1293 152.6261 0.0000 0.0000 0.0000
# 4 0.0000 0.0000 0.0000 29.3958 0.0000 0.0000
# 5 0.0000 0.0000 0.0000 0.0000 24.9187 0.0000
# 6 0.0000 0.0000 0.0000 0.0000 0.0000 26.8545
#
#
#
# Elastic Compliance Matrix: (Units=1/GPa)
#
#
# Indices 1 2 3 4 5 6 
#
# 1 0.019216 -0.002809 -0.001454 0.000000 0.000000 0.000000
# 2 -0.002809 0.010138 -0.002218 0.000000 0.000000 0.000000
# 3 -0.001454 -0.002218 0.007269 0.000000 0.000000 0.000000
# 4 0.000000 0.000000 0.000000 0.034018 0.000000 0.000000
# 5 0.000000 0.000000 0.000000 0.000000 0.040130 0.000000
# 6 0.000000 0.000000 0.000000 0.000000 0.000000 0.037238
#
#
# Mechanical properties :
#
#
# Convention : Reuss Voigt Hill
#
# Bulk Modulus (GPa) = 42.26210 52.24740 47.25475
# Shear Modulus (GPa) = 29.61080 32.67101 31.14090
#
# Velocity S-wave (km/s) = 3.66040 3.84489 3.75378
# Velocity P-wave (km/s) = 6.08175 6.58424 6.33798
#
# Compressibility (1/GPa) = 0.02366186
#
# Stress axis : x y z
#
# Youngs Moduli (GPa) = 52.04058 98.64049 137.56975
#
# Poissons Ratio (x) = 0.27708 0.20001
# Poissons Ratio (y) = 0.14618 0.30507
# Poissons Ratio (z) = 0.07566 0.21874
#
# Static dielectric constant tensor:
#      x y z
#    x 4.115730 0.000000 0.000000 
#    y 0.000000 4.258040 0.000000 
#    z 0.000000 0.000000 4.208530 
# 
# 
# High freq. dielectric constant tensor:
#      x y z
#    x 1.854930 0.000000 0.000000 
#    y 0.000000 1.888310 0.000000 
#    z 0.000000 0.000000 1.877510 
# 
# From -- ./inp_files/22761.got.cif
#   From: 2010.06.25/outbox.cif.g09.slc.cpg/sg58_12_cif.got.tgz:22761.got - 2010.06.26 21:38:00.
