data_PCOD8238513
_publ_section_title
;
Structure prediction by ZEFSAII (Michael W. Deem and Ramdas Pophale) SiO2 
 PCOD8238513
Probable space group: P N N M
;
_chemical_formula_sum "Si O2"
_cell_formula_units_Z 64
_cell_length_a 23.653223
_cell_length_b 15.329224
_cell_length_c 8.813232
_cell_angle_alpha 90.000000
_cell_angle_beta 90.000000
_cell_angle_gamma 90.000000
_cell_volume 3195.550605
_symmetry_space_group_name_H-M "P N N M"
_symmetry_group_IT_number 58
_symmetry_cell_setting 'orthorhombic'
loop_
_space_group_symop_operation_xyz
x,y,z
-x,-y,z
1/2+x,1/2-y,1/2-z
1/2-x,1/2+y,1/2-z
-x,-y,-z
x,y,-z
1/2-x,1/2+y,1/2+z
1/2+x,1/2-y,1/2+z
loop_
_atom_site_type_symbol
_atom_site_label
_atom_site_fract_x
_atom_site_fract_y
_atom_site_fract_z
Si Si1 0.368648 0.162883 0.175277
Si Si2 0.433606 0.992109 0.826075
Si Si3 0.364214 0.340648 0.321707
Si Si4 0.370799 0.837242 0.322069
Si Si5 0.935488 0.006628 0.323012
Si Si6 0.361658 0.660800 0.822861
Si Si7 0.748051 0.596024 0.177871
Si Si8 0.753504 0.910137 0.175411
O O1 0.405003 0.080910 0.233324
O O2 0.388169 0.247216 0.269238
O O3 0.302872 0.144444 0.204161
O O4 0.381448 0.181752 0.000000
O O5 0.500000 0.000000 0.809614
O O6 0.413589 0.913683 0.720764
O O7 0.415163 0.974385 0.000000
O O8 0.361906 0.344828 0.500000
O O9 0.405254 0.416268 0.265496
O O10 0.301108 0.350686 0.258835
O O11 0.374809 0.818665 0.500000
O O12 0.389605 0.751630 0.229155
O O13 0.307706 0.864081 0.272156
O O14 0.931794 0.028784 0.500000
O O15 0.905392 0.915719 0.284215
O O16 0.000000 0.000000 0.267929
O O17 0.305072 0.650833 0.724289
O O18 0.346668 0.662500 0.000000
O O19 0.745803 0.495271 0.221647
O O20 0.737791 0.603993 0.000000
O O21 0.759363 0.937678 0.000000
#
# Coordination Sequence:
#
# PCOD8238513 Si02
#       8
#     8   8   8   8   8   8   8   8
#     4  10  22  40  62  89 124 162 199 247 303 364
#     4  10  22  42  66  90 119 161 211 256 303 365
#     4  12  25  39  62  93 124 160 201 253 305 361
#     4  11  24  40  62  91 126 162 200 253 307 362
#     4  10  23  44  66  87 117 161 209 255 305 364
#     4  11  23  39  63  91 122 161 202 249 302 368
#     4  11  22  38  61  89 123 163 199 241 303 370
#     4  11  21  36  62  93 124 158 196 249 308 360
#
# _framework density 20.027847999999999
#
# number of rings (size 3 to 8) (size 9 to 14) (size 15 to 20)
#    0.000    1.250    2.500    3.375    0.000    8.000 
#    0.000    5.000    0.000    0.000    0.000    0.000 
#    0.000    0.000    0.000    0.000    0.000    0.000 
#
# Total GULP energy -794047.818254 kJ/mol
# GULP energy per Si atom -12406.997160 kJ/mol
# Density = 1.998226 g / cm^3
# Si number density = 20.027848 Si / 1000 Ang^3
#
#
#
# Elastic Constant Matrix: (Units=GPa)
#
#
# Indices 1 2 3 4 5 6 
#
# 1 106.2033 47.7121 46.8515 0.0000 0.0000 0.0000
# 2 47.7121 146.2506 45.8183 0.0000 0.0000 0.0000
# 3 46.8515 45.8183 64.2811 0.0000 0.0000 0.0000
# 4 0.0000 0.0000 0.0000 43.7884 0.0000 0.0000
# 5 0.0000 0.0000 0.0000 0.0000********** 0.0000
# 6 0.0000 0.0000 0.0000 0.0000 0.0000 2.4274
#
#
#
# Elastic Compliance Matrix: (Units=1/GPa)
#
#
# Indices 1 2 3 4 5 6 
#
# 1 0.014235 -0.001794 -0.009096 0.000000 0.000000 0.000000
# 2 -0.001794 0.009030 -0.005128 0.000000 0.000000 0.000000
# 3 -0.009096 -0.005128 0.025842 0.000000 0.000000 0.000000
# 4 0.000000 0.000000 0.000000 0.022837 0.000000 0.000000
# 5 0.000000 0.000000 0.000000 0.000000 -0.000064 0.000000
# 6 0.000000 0.000000 0.000000 0.000000 0.000000 0.411971
#
#
# Mechanical properties :
#
#
# Convention : Reuss Voigt Hill
#
# Bulk Modulus (GPa) = 58.58695 66.38876 62.48785
# Shear Modulus (GPa) = 9.58631 -3085.10654 -1537.76011
#
# Velocity S-wave (km/s) = 2.19018 -39.29062 -27.73946
# Velocity P-wave (km/s) = 5.97596 45.00129 31.53890
#
# Compressibility (1/GPa) = 0.01706865
#
# Stress axis : x y z
#
# Youngs Moduli (GPa) = 70.25079 110.74747 38.69688
#
# Poissons Ratio (x) = 0.19870 0.35199
# Poissons Ratio (y) = 0.12604 0.19845
# Poissons Ratio (z) = 0.63901 0.56796
#
# Static dielectric constant tensor:
#      x y z
#    x 3.544650 0.000000 0.000000 
#    y 0.000000 3.738930 0.000000 
#    z 0.000000 0.000000 3.630370 
# 
# 
# High freq. dielectric constant tensor:
#      x y z
#    x 1.778460 0.000000 0.000000 
#    y 0.000000 1.797580 0.000000 
#    z 0.000000 0.000000 1.781700 
# 
# From -- ./inp_files/10020.got.cif
#   From: 2010.06.25/outbox.cif.g09.slc.cpg/sg58_6_cif.got.tgz:10020.got - 2010.06.26 21:38:00.
