data_PCOD8238276
_publ_section_title
;
Structure prediction by ZEFSAII (Michael W. Deem and Ramdas Pophale) SiO2 
 PCOD8238276
Probable space group: P N N M
;
_chemical_formula_sum "Si O2"
_cell_formula_units_Z 48
_cell_length_a 11.976104
_cell_length_b 23.269965
_cell_length_c 8.130402
_cell_angle_alpha 90.000000
_cell_angle_beta 90.000000
_cell_angle_gamma 90.000000
_cell_volume 2265.809056
_symmetry_space_group_name_H-M "P N N M"
_symmetry_group_IT_number 58
_symmetry_cell_setting 'orthorhombic'
loop_
_space_group_symop_operation_xyz
x,y,z
-x,-y,z
1/2+x,1/2-y,1/2-z
1/2-x,1/2+y,1/2-z
-x,-y,-z
x,y,-z
1/2-x,1/2+y,1/2+z
1/2+x,1/2-y,1/2+z
loop_
_atom_site_type_symbol
_atom_site_label
_atom_site_fract_x
_atom_site_fract_y
_atom_site_fract_z
Si Si1 0.767670 0.118517 0.804150
Si Si2 0.003924 0.934347 0.195002
Si Si3 0.919827 0.348742 0.809839
Si Si4 0.935900 0.551634 0.688207
Si Si5 0.672088 0.340649 0.690841
Si Si6 0.109457 0.280687 0.310568
O O1 0.685554 0.067506 0.738415
O O2 0.715071 0.180060 0.745016
O O3 0.889998 0.102264 0.734159
O O4 0.771830 0.119200 0.000000
O O5 0.893704 0.898437 0.247308
O O6 0.013806 0.938617 0.000000
O O7 0.000000 0.000000 0.266319
O O8 0.801596 0.347014 0.723809
O O9 0.987145 0.393491 0.701568
O O10 0.994560 0.291121 0.791622
O O11 0.906537 0.365601 0.000000
O O12 0.917717 0.533679 0.500000
O O13 0.000000 0.500000 0.783066
O O14 0.649023 0.328584 0.500000
O O15 0.633457 0.286283 0.795210
O O16 0.088441 0.296102 0.500000
#
# Coordination Sequence:
#
# PCOD8238276 Si02
#       6
#     8   8   8   8   8   8
#     4   8  16  32  54  83 116 149 187 236 294 355
#     4   9  19  34  56  87 120 155 197 243 293 360
#     4  11  23  39  58  83 120 157 200 249 299 357
#     4   9  18  33  59  88 115 149 193 246 302 361
#     4  11  23  37  60  91 121 154 199 248 304 368
#     4  10  21  39  62  88 119 153 197 250 309 367
#
# _framework density 21.184486
#
# number of rings (size 3 to 8) (size 9 to 14) (size 15 to 20)
#    0.000    2.333    0.000    3.500    4.667    0.333 
#    0.000    0.000    0.000    3.000    0.000    0.000 
#    0.000    0.000    0.000    0.000    0.000    0.000 
#
# Total GULP energy -594704.709386 kJ/mol
# GULP energy per Si atom -12389.681446 kJ/mol
# Density = 2.113627 g / cm^3
# Si number density = 21.184486 Si / 1000 Ang^3
#
#
#
# Elastic Constant Matrix: (Units=GPa)
#
#
# Indices 1 2 3 4 5 6 
#
# 1 153.9604 53.9387 1.9452 0.0000 0.0000 0.0000
# 2 53.9387 87.4982 5.2894 0.0000 0.0000 0.0000
# 3 1.9452 5.2894 32.4939 0.0000 0.0000 0.0000
# 4 0.0000 0.0000 0.0000 17.3007 0.0000 0.0000
# 5 0.0000 0.0000 0.0000 0.0000 10.4340 0.0000
# 6 0.0000 0.0000 0.0000 0.0000 0.0000 7.6716
#
#
#
# Elastic Compliance Matrix: (Units=1/GPa)
#
#
# Indices 1 2 3 4 5 6 
#
# 1 0.008288 -0.005130 0.000339 0.000000 0.000000 0.000000
# 2 -0.005130 0.014717 -0.002089 0.000000 0.000000 0.000000
# 3 0.000339 -0.002089 0.031095 0.000000 0.000000 0.000000
# 4 0.000000 0.000000 0.000000 0.057801 0.000000 0.000000
# 5 0.000000 0.000000 0.000000 0.000000 0.095840 0.000000
# 6 0.000000 0.000000 0.000000 0.000000 0.000000 0.130352
#
#
# Mechanical properties :
#
#
# Convention : Reuss Voigt Hill
#
# Bulk Modulus (GPa) = 24.78855 44.03323 34.41089
# Shear Modulus (GPa) = 13.68742 21.26654 17.47698
#
# Velocity S-wave (km/s) = 2.54462 3.17183 2.87538
# Velocity P-wave (km/s) = 4.51222 5.85190 5.22517
#
# Compressibility (1/GPa) = 0.04034120
#
# Stress axis : x y z
#
# Youngs Moduli (GPa) = 120.65582 67.94727 32.15977
#
# Poissons Ratio (x) = 0.34855 -0.01090
# Poissons Ratio (y) = 0.61893 0.06717
# Poissons Ratio (z) = -0.04089 0.14192
#
# Static dielectric constant tensor:
#      x y z
#    x 5.526300 0.000000 0.000000 
#    y 0.000000 4.009520 0.000000 
#    z 0.000000 0.000000 3.355300 
# 
# 
# High freq. dielectric constant tensor:
#      x y z
#    x 1.841300 0.000000 0.000000 
#    y 0.000000 1.831950 0.000000 
#    z 0.000000 0.000000 1.788210 
# 
# From -- ./inp_files/4225.got.cif
#   From: 2010.06.25/outbox.cif.g09.slc.cpg/sg58_3_cif.got.tgz:4225.got - 2010.06.26 21:38:00.
