data_PCOD8238844
_publ_section_title
;
Structure prediction by ZEFSAII (Michael W. Deem and Ramdas Pophale) SiO2 
 PCOD8238844
Probable space group: P N N M
;
_chemical_formula_sum "Si O2"
_cell_formula_units_Z 56
_cell_length_a 22.179826
_cell_length_b 14.708350
_cell_length_c 8.251908
_cell_angle_alpha 90.000000
_cell_angle_beta 90.000000
_cell_angle_gamma 90.000000
_cell_volume 2692.008755
_symmetry_space_group_name_H-M "P N N M"
_symmetry_group_IT_number 58
_symmetry_cell_setting 'orthorhombic'
loop_
_space_group_symop_operation_xyz
x,y,z
-x,-y,z
1/2+x,1/2-y,1/2-z
1/2-x,1/2+y,1/2-z
-x,-y,-z
x,y,-z
1/2-x,1/2+y,1/2+z
1/2+x,1/2-y,1/2+z
loop_
_atom_site_type_symbol
_atom_site_label
_atom_site_fract_x
_atom_site_fract_y
_atom_site_fract_z
Si Si1 0.729357 0.813954 0.312318
Si Si2 0.818737 0.956204 0.188322
Si Si3 0.244867 0.378118 0.187912
Si Si4 0.111203 0.418730 0.807552
Si Si5 0.514753 0.224257 0.693641
Si Si6 0.899019 0.379865 0.192788
Si Si7 0.954387 0.923629 0.192827
O O1 0.735405 0.840522 0.500000
O O2 0.783454 0.861783 0.215091
O O3 0.731206 0.706113 0.291070
O O4 0.665650 0.847927 0.240518
O O5 0.886873 0.944667 0.252800
O O6 0.788558 0.036529 0.289610
O O7 0.818177 0.982013 0.000000
O O8 0.178856 0.402981 0.255482
O O9 0.242733 0.351012 0.000000
O O10 0.088362 0.517343 0.747142
O O11 0.067673 0.340651 0.737768
O O12 0.110611 0.416775 0.000000
O O13 0.515809 0.223564 0.500000
O O14 0.451127 0.186350 0.760414
O O15 0.524762 0.325721 0.761457
O O16 0.898716 0.375219 0.000000
O O17 0.956186 0.921600 0.000000
O O18 0.000000 0.000000 0.261030
#
# Coordination Sequence:
#
# PCOD8238844 Si02
#       7
#     8   8   8   8   8   8   8
#     4  11  22  37  57  86 119 154 194 240 292 352
#     4  11  22  38  60  87 117 154 194 240 296 350
#     4  11  22  37  58  85 118 154 193 240 291 351
#     4   9  16  30  50  78 110 140 180 233 289 338
#     4   9  16  27  48  76 109 144 180 233 290 331
#     4   9  17  29  49  79 111 140 179 234 289 337
#     4   9  19  33  51  80 115 148 190 243 288 335
#
# _framework density 20.802308
#
# number of rings (size 3 to 8) (size 9 to 14) (size 15 to 20)
#    0.000    2.143    1.429    2.571    2.000    4.000 
#    0.000    0.000    0.000    1.714    0.000    4.000 
#    0.000    0.000    0.000    0.000    0.000    0.000 
#
# Total GULP energy -694489.104116 kJ/mol
# GULP energy per Si atom -12401.591145 kJ/mol
# Density = 2.075496 g / cm^3
# Si number density = 20.802308 Si / 1000 Ang^3
#
#
#
# Elastic Constant Matrix: (Units=GPa)
#
#
# Indices 1 2 3 4 5 6 
#
# 1 188.9282 93.3450 13.5856 0.0000 0.0000 0.0000
# 2 93.3450 172.3154 3.2672 0.0000 0.0000 0.0000
# 3 13.5856 3.2672 20.3762 0.0000 0.0000 0.0000
# 4 0.0000 0.0000 0.0000 29.1225 0.0000 0.0000
# 5 0.0000 0.0000 0.0000 0.0000 19.3936 0.0000
# 6 0.0000 0.0000 0.0000 0.0000 0.0000 40.7177
#
#
#
# Elastic Compliance Matrix: (Units=1/GPa)
#
#
# Indices 1 2 3 4 5 6 
#
# 1 0.007605 -0.004036 -0.004424 0.000000 0.000000 0.000000
# 2 -0.004036 0.007963 0.001414 0.000000 0.000000 0.000000
# 3 -0.004424 0.001414 0.051799 0.000000 0.000000 0.000000
# 4 0.000000 0.000000 0.000000 0.034338 0.000000 0.000000
# 5 0.000000 0.000000 0.000000 0.000000 0.051563 0.000000
# 6 0.000000 0.000000 0.000000 0.000000 0.000000 0.024559
#
#
# Mechanical properties :
#
#
# Convention : Reuss Voigt Hill
#
# Bulk Modulus (GPa) = 18.76992 66.89060 42.83026
# Shear Modulus (GPa) = 23.84617 35.94157 29.89387
#
# Velocity S-wave (km/s) = 3.38941 4.16115 3.79495
# Velocity P-wave (km/s) = 4.93559 7.43721 6.31158
#
# Compressibility (1/GPa) = 0.05327674
#
# Stress axis : x y z
#
# Youngs Moduli (GPa) = 131.48965 125.58397 19.30524
#
# Poissons Ratio (x) = 0.50685 0.08540
# Poissons Ratio (y) = 0.53068 -0.02730
# Poissons Ratio (z) = 0.58165 -0.17759
#
# Static dielectric constant tensor:
#      x y z
#    x 4.011490 0.000000 0.000000 
#    y 0.000000 3.902160 0.000000 
#    z 0.000000 0.000000 3.092080 
# 
# 
# High freq. dielectric constant tensor:
#      x y z
#    x 1.826860 0.000000 0.000000 
#    y 0.000000 1.828430 0.000000 
#    z 0.000000 0.000000 1.756250 
# 
# From -- ./inp_files/6392.got.cif
#   From: 2010.06.25/outbox.cif.g09.slc.cpg/sg58_4_cif.got.tgz:6392.got - 2010.06.26 21:38:00.
