data_PCOD8238416
_publ_section_title
;
Structure prediction by ZEFSAII (Michael W. Deem and Ramdas Pophale) SiO2 
 PCOD8238416
Probable space group: P N N M
;
_chemical_formula_sum "Si O2"
_cell_formula_units_Z 48
_cell_length_a 17.530665
_cell_length_b 9.097366
_cell_length_c 13.702641
_cell_angle_alpha 90.000000
_cell_angle_beta 90.000000
_cell_angle_gamma 90.000000
_cell_volume 2185.336592
_symmetry_space_group_name_H-M "P N N M"
_symmetry_group_IT_number 58
_symmetry_cell_setting 'orthorhombic'
loop_
_space_group_symop_operation_xyz
x,y,z
-x,-y,z
1/2+x,1/2-y,1/2-z
1/2-x,1/2+y,1/2-z
-x,-y,-z
x,y,-z
1/2-x,1/2+y,1/2+z
1/2+x,1/2-y,1/2+z
loop_
_atom_site_type_symbol
_atom_site_label
_atom_site_fract_x
_atom_site_fract_y
_atom_site_fract_z
Si Si1 0.581590 0.069075 0.608267
Si Si2 0.419944 0.581723 0.110652
Si Si3 0.836383 0.352079 0.251312
Si Si4 0.436946 0.607032 0.388623
Si Si5 0.189663 0.974398 0.217344
Si Si6 0.476992 0.159438 0.886703
O O1 0.617643 0.089929 0.500000
O O2 0.570839 0.230145 0.659555
O O3 0.500000 0.000000 0.599546
O O4 0.634792 0.956298 0.665042
O O5 0.500000 0.500000 0.123544
O O6 0.354278 0.529734 0.184635
O O7 0.445849 0.748511 0.132729
O O8 0.388543 0.561562 0.000000
O O9 0.799300 0.200895 0.212645
O O10 0.770336 0.447773 0.300552
O O11 0.902219 0.297367 0.325260
O O12 0.500000 0.500000 0.336908
O O13 0.461051 0.629734 0.500000
O O14 0.357816 0.521953 0.377591
O O15 0.500000 0.000000 0.850047
O O16 0.453140 0.167418 0.000000
#
# Coordination Sequence:
#
# PCOD8238416 Si02
#       6
#     8   8   8   8   8   8
#     4  10  22  41  65  92 123 164 210 258 311 370
#     4  10  21  42  69  94 121 163 216 264 314 378
#     4  12  26  41  62  94 132 172 211 264 322 383
#     4  10  22  41  66  93 123 163 211 260 312 374
#     4  12  26  40  62  94 129 170 211 260 327 381
#     4  10  23  42  68  97 126 165 213 265 318 378
#
# _framework density 21.964580000000002
#
# number of rings (size 3 to 8) (size 9 to 14) (size 15 to 20)
#    0.000    1.333    1.667    3.000    7.000    3.333 
#    0.000    0.000    0.000    0.000    0.000    0.000 
#    0.000    0.000    0.000    0.000    0.000    0.000 
#
# Total GULP energy -594871.881671 kJ/mol
# GULP energy per Si atom -12393.164201 kJ/mol
# Density = 2.191459 g / cm^3
# Si number density = 21.964580 Si / 1000 Ang^3
#
#
#
# Elastic Constant Matrix: (Units=GPa)
#
#
# Indices 1 2 3 4 5 6 
#
# 1 77.2526 20.8947 10.4536 0.0000 0.0000 0.0000
# 2 20.8947 167.4521 7.3384 0.0000 0.0000 0.0000
# 3 10.4536 7.3384 52.4075 0.0000 0.0000 0.0000
# 4 0.0000 0.0000 0.0000 31.6349 0.0000 0.0000
# 5 0.0000 0.0000 0.0000 0.0000 22.6606 0.0000
# 6 0.0000 0.0000 0.0000 0.0000 0.0000 40.3924
#
#
#
# Elastic Compliance Matrix: (Units=1/GPa)
#
#
# Indices 1 2 3 4 5 6 
#
# 1 0.013718 -0.001602 -0.002512 0.000000 0.000000 0.000000
# 2 -0.001602 0.006196 -0.000548 0.000000 0.000000 0.000000
# 3 -0.002512 -0.000548 0.019659 0.000000 0.000000 0.000000
# 4 0.000000 0.000000 0.000000 0.031611 0.000000 0.000000
# 5 0.000000 0.000000 0.000000 0.000000 0.044129 0.000000
# 6 0.000000 0.000000 0.000000 0.000000 0.000000 0.024757
#
#
# Mechanical properties :
#
#
# Convention : Reuss Voigt Hill
#
# Bulk Modulus (GPa) = 33.05883 41.60950 37.33417
# Shear Modulus (GPa) = 31.35269 36.16596 33.75933
#
# Velocity S-wave (km/s) = 3.78222 4.06218 3.92470
# Velocity P-wave (km/s) = 5.84442 6.40209 6.12960
#
# Compressibility (1/GPa) = 0.03024910
#
# Stress axis : x y z
#
# Youngs Moduli (GPa) = 72.89881 161.40166 50.86721
#
# Poissons Ratio (x) = 0.25850 0.12778
# Poissons Ratio (y) = 0.11675 0.02788
# Poissons Ratio (z) = 0.18312 0.08846
#
# Static dielectric constant tensor:
#      x y z
#    x 2.457310 0.000000 0.000000 
#    y 0.000000 11.330430 0.000000 
#    z 0.000000 0.000000 4.055440 
# 
# 
# High freq. dielectric constant tensor:
#      x y z
#    x 1.842580 0.000000 0.000000 
#    y 0.000000 1.893710 0.000000 
#    z 0.000000 0.000000 1.859540 
# 
# From -- ./inp_files/19838.got.cif
#   From: 2010.06.25/outbox.cif.g09.slc.cpg/sg58_10_cif.got.tgz:19838.got - 2010.06.26 21:38:00.
