data_PCOD8238137
_publ_section_title
;
Structure prediction by ZEFSAII (Michael W. Deem and Ramdas Pophale) SiO2 
 PCOD8238137
Probable space group: P N N M
;
_chemical_formula_sum "Si O2"
_cell_formula_units_Z 64
_cell_length_a 15.163444
_cell_length_b 11.484685
_cell_length_c 17.966790
_cell_angle_alpha 90.000000
_cell_angle_beta 90.000000
_cell_angle_gamma 90.000000
_cell_volume 3128.869367
_symmetry_space_group_name_H-M "P N N M"
_symmetry_group_IT_number 58
_symmetry_cell_setting 'orthorhombic'
loop_
_space_group_symop_operation_xyz
x,y,z
-x,-y,z
1/2+x,1/2-y,1/2-z
1/2-x,1/2+y,1/2-z
-x,-y,-z
x,y,-z
1/2-x,1/2+y,1/2+z
1/2+x,1/2-y,1/2+z
loop_
_atom_site_type_symbol
_atom_site_label
_atom_site_fract_x
_atom_site_fract_y
_atom_site_fract_z
Si Si1 0.833276 0.722541 0.689660
Si Si2 0.999919 0.867478 0.843888
Si Si3 0.599026 0.966959 0.790516
Si Si4 0.348515 0.193391 0.349361
Si Si5 0.864114 0.292276 0.412912
Si Si6 0.598437 0.023726 0.583090
Si Si7 0.826356 0.746703 0.855604
Si Si8 0.000671 0.865769 0.667265
O O1 0.845929 0.585278 0.701566
O O2 0.744822 0.742988 0.643726
O O3 0.812693 0.779888 0.769716
O O4 0.913225 0.789832 0.647360
O O5 0.911256 0.819074 0.881998
O O6 0.009154 0.855668 0.755350
O O7 0.081235 0.791588 0.872606
O O8 0.000000 0.000000 0.870300
O O9 0.634279 0.875027 0.729022
O O10 0.603367 0.908542 0.871855
O O11 0.500000 0.000000 0.768978
O O12 0.349466 0.097575 0.414432
O O13 0.887222 0.300934 0.500000
O O14 0.759126 0.276455 0.403817
O O15 0.914564 0.184232 0.375287
O O16 0.597308 0.075154 0.500000
O O17 0.500000 0.000000 0.613443
O O18 0.648663 0.111005 0.637814
O O19 0.000000 0.000000 0.641706
#
# Coordination Sequence:
#
# PCOD8238137 Si02
#       8
#     8   8   8   8   8   8   8   8
#     4  11  23  37  68  99 123 161 218 273 319 377
#     4  10  21  37  64  96 129 160 208 272 327 381
#     4  12  22  43  68  95 129 170 225 270 319 381
#     4  12  22  39  67  98 128 164 211 276 326 382
#     4  12  26  43  64  94 136 179 217 266 329 399
#     4  11  23  40  65  94 128 167 215 269 326 389
#     4  11  21  40  64  95 127 170 211 269 327 384
#     4  10  22  41  61  93 129 165 213 265 322 381
#
# _framework density 20.454673
#
# number of rings (size 3 to 8) (size 9 to 14) (size 15 to 20)
#    0.000    0.875    6.250    1.500    3.500    1.500 
#    0.000    1.250    0.000    1.875    0.000    0.000 
#    0.000    0.000    0.000    0.000    0.000    0.000 
#
# Total GULP energy -793369.503750 kJ/mol
# GULP energy per Si atom -12396.398496 kJ/mol
# Density = 2.040812 g / cm^3
# Si number density = 20.454673 Si / 1000 Ang^3
#
#
#
# Elastic Constant Matrix: (Units=GPa)
#
#
# Indices 1 2 3 4 5 6 
#
# 1 128.6633 49.1253 15.9952 0.0000 0.0000 0.0000
# 2 49.1253 135.8471 12.2147 0.0000 0.0000 0.0000
# 3 15.9952 12.2147 60.0137 0.0000 0.0000 0.0000
# 4 0.0000 0.0000 0.0000 18.6346 0.0000 0.0000
# 5 0.0000 0.0000 0.0000 0.0000 5.1846 0.0000
# 6 0.0000 0.0000 0.0000 0.0000 0.0000 34.9309
#
#
#
# Elastic Compliance Matrix: (Units=1/GPa)
#
#
# Indices 1 2 3 4 5 6 
#
# 1 0.009206 -0.003166 -0.001809 0.000000 0.000000 0.000000
# 2 -0.003166 0.008588 -0.000904 0.000000 0.000000 0.000000
# 3 -0.001809 -0.000904 0.017329 0.000000 0.000000 0.000000
# 4 0.000000 0.000000 0.000000 0.053664 0.000000 0.000000
# 5 0.000000 0.000000 0.000000 0.000000 0.192878 0.000000
# 6 0.000000 0.000000 0.000000 0.000000 0.000000 0.028628
#
#
# Mechanical properties :
#
#
# Convention : Reuss Voigt Hill
#
# Bulk Modulus (GPa) = 42.80162 53.24384 48.02273
# Shear Modulus (GPa) = 15.15888 28.22928 21.69408
#
# Velocity S-wave (km/s) = 2.72526 3.71899 3.26021
# Velocity P-wave (km/s) = 5.55637 6.67292 6.14008
#
# Compressibility (1/GPa) = 0.02336360
#
# Stress axis : x y z
#
# Youngs Moduli (GPa) = 108.62322 116.44759 57.70664
#
# Poissons Ratio (x) = 0.36873 0.10440
# Poissons Ratio (y) = 0.34395 0.05216
# Poissons Ratio (z) = 0.19652 0.10526
#
# Static dielectric constant tensor:
#      x y z
#    x 3.775040 0.000000 0.000000 
#    y 0.000000 3.870290 0.000000 
#    z 0.000000 0.000000 3.356610 
# 
# 
# High freq. dielectric constant tensor:
#      x y z
#    x 1.805810 0.000000 0.000000 
#    y 0.000000 1.810930 0.000000 
#    z 0.000000 0.000000 1.766670 
# 
# From -- ./inp_files/27017.got.cif
#   From: 2010.06.25/outbox.cif.g09.slc.cpg/sg58_14_cif.got.tgz:27017.got - 2010.06.26 21:38:00.
