data_PCOD8238149
_publ_section_title
;
Structure prediction by ZEFSAII (Michael W. Deem and Ramdas Pophale) SiO2 
 PCOD8238149
Probable space group: P N N M
;
_chemical_formula_sum "Si O2"
_cell_formula_units_Z 64
_cell_length_a 12.711575
_cell_length_b 27.854076
_cell_length_c 8.770861
_cell_angle_alpha 90.000000
_cell_angle_beta 90.000000
_cell_angle_gamma 90.000000
_cell_volume 3105.491528
_symmetry_space_group_name_H-M "P N N M"
_symmetry_group_IT_number 58
_symmetry_cell_setting 'orthorhombic'
loop_
_space_group_symop_operation_xyz
x,y,z
-x,-y,z
1/2+x,1/2-y,1/2-z
1/2-x,1/2+y,1/2-z
-x,-y,-z
x,y,-z
1/2-x,1/2+y,1/2+z
1/2+x,1/2-y,1/2+z
loop_
_atom_site_type_symbol
_atom_site_label
_atom_site_fract_x
_atom_site_fract_y
_atom_site_fract_z
Si Si1 0.865691 0.871047 0.826119
Si Si2 0.763322 0.697078 0.822024
Si Si3 0.979585 0.651686 0.818835
Si Si4 0.400482 0.368165 0.673196
Si Si5 0.682015 0.798137 0.821377
Si Si6 0.247174 0.048754 0.328750
Si Si7 0.404573 0.466130 0.827586
Si Si8 0.464206 0.052503 0.178655
O O1 0.781097 0.831139 0.786375
O O2 0.848796 0.916107 0.714806
O O3 0.981287 0.848884 0.797422
O O4 0.855893 0.888870 0.000000
O O5 0.876791 0.680357 0.756720
O O6 0.678350 0.656431 0.789416
O O7 0.717527 0.746640 0.752558
O O8 0.776815 0.704852 0.000000
O O9 0.081115 0.681121 0.764831
O O10 0.975130 0.596896 0.756957
O O11 0.979699 0.648648 0.000000
O O12 0.364775 0.358207 0.500000
O O13 0.397762 0.424628 0.703996
O O14 0.654578 0.795738 0.000000
O O15 0.286304 0.060261 0.500000
O O16 0.340852 0.058157 0.211110
O O17 0.205507 0.994657 0.318268
O O18 0.500000 0.500000 0.779241
O O19 0.421563 0.446556 0.000000
O O20 0.500000 0.000000 0.241653
O O21 0.485603 0.056247 0.000000
#
# Coordination Sequence:
#
# PCOD8238149 Si02
#       8
#     8   8   8   8   8   8   8   8
#     4  10  21  38  62  91 124 160 202 257 313 368
#     4  10  25  45  65  91 127 169 206 256 319 373
#     4  11  24  43  68  97 128 163 213 265 313 375
#     4  11  24  39  62  93 126 166 212 260 309 372
#     4  10  22  43  68  91 122 164 205 254 320 375
#     4  11  22  37  61  90 120 161 210 255 308 370
#     4  10  21  38  58  85 125 165 201 249 304 365
#     4  11  25  43  63  89 126 168 210 260 318 378
#
# _framework density 20.608654000000001
#
# number of rings (size 3 to 8) (size 9 to 14) (size 15 to 20)
#    0.000    1.500    2.500    1.500    3.500    4.250 
#    0.000    0.000    0.000    0.000    0.000    0.000 
#    0.000    0.000    0.000    0.000    0.000    0.000 
#
# Total GULP energy -793686.657716 kJ/mol
# GULP energy per Si atom -12401.354027 kJ/mol
# Density = 2.056175 g / cm^3
# Si number density = 20.608654 Si / 1000 Ang^3
#
#
#
# Elastic Constant Matrix: (Units=GPa)
#
#
# Indices 1 2 3 4 5 6 
#
# 1 117.8324 58.5401 32.2419 0.0000 0.0000 0.0000
# 2 58.5401 129.0865 34.8218 0.0000 0.0000 0.0000
# 3 32.2419 34.8218 48.2346 0.0000 0.0000 0.0000
# 4 0.0000 0.0000 0.0000 27.8934 0.0000 0.0000
# 5 0.0000 0.0000 0.0000 0.0000 23.8318 0.0000
# 6 0.0000 0.0000 0.0000 0.0000 0.0000 33.1294
#
#
#
# Elastic Compliance Matrix: (Units=1/GPa)
#
#
# Indices 1 2 3 4 5 6 
#
# 1 0.011860 -0.004023 -0.005023 0.000000 0.000000 0.000000
# 2 -0.004023 0.010985 -0.005241 0.000000 0.000000 0.000000
# 3 -0.005023 -0.005241 0.027873 0.000000 0.000000 0.000000
# 4 0.000000 0.000000 0.000000 0.035851 0.000000 0.000000
# 5 0.000000 0.000000 0.000000 0.000000 0.041961 0.000000
# 6 0.000000 0.000000 0.000000 0.000000 0.000000 0.030185
#
#
# Mechanical properties :
#
#
# Convention : Reuss Voigt Hill
#
# Bulk Modulus (GPa) = 45.16033 60.70677 52.93355
# Shear Modulus (GPa) = 25.68441 28.27423 26.97932
#
# Velocity S-wave (km/s) = 3.53412 3.70801 3.62211
# Velocity P-wave (km/s) = 6.21403 6.91761 6.57524
#
# Compressibility (1/GPa) = 0.02214333
#
# Stress axis : x y z
#
# Youngs Moduli (GPa) = 84.31749 91.03201 35.87672
#
# Poissons Ratio (x) = 0.36626 0.18021
# Poissons Ratio (y) = 0.33925 0.18803
# Poissons Ratio (z) = 0.42353 0.47710
#
# Static dielectric constant tensor:
#      x y z
#    x 3.842020 0.000000 0.000000 
#    y 0.000000 3.890490 0.000000 
#    z 0.000000 0.000000 3.571820 
# 
# 
# High freq. dielectric constant tensor:
#      x y z
#    x 1.815190 0.000000 0.000000 
#    y 0.000000 1.808930 0.000000 
#    z 0.000000 0.000000 1.797160 
# 
# From -- ./inp_files/4825.got.cif
#   From: 2010.06.25/outbox.cif.g09.slc.cpg/sg58_3_cif.got.tgz:4825.got - 2010.06.26 21:38:00.
