data_PCOD8238493
_publ_section_title
;
Structure prediction by ZEFSAII (Michael W. Deem and Ramdas Pophale) SiO2 
 PCOD8238493
Probable space group: P N N M
;
_chemical_formula_sum "Si O2"
_cell_formula_units_Z 64
_cell_length_a 18.628939
_cell_length_b 11.443952
_cell_length_c 15.144500
_cell_angle_alpha 90.000000
_cell_angle_beta 90.000000
_cell_angle_gamma 90.000000
_cell_volume 3228.636021
_symmetry_space_group_name_H-M "P N N M"
_symmetry_group_IT_number 58
_symmetry_cell_setting 'orthorhombic'
loop_
_space_group_symop_operation_xyz
x,y,z
-x,-y,z
1/2+x,1/2-y,1/2-z
1/2-x,1/2+y,1/2-z
-x,-y,-z
x,y,-z
1/2-x,1/2+y,1/2+z
1/2+x,1/2-y,1/2+z
loop_
_atom_site_type_symbol
_atom_site_label
_atom_site_fract_x
_atom_site_fract_y
_atom_site_fract_z
Si Si1 0.887981 0.296172 0.398930
Si Si2 0.183124 0.340416 0.251874
Si Si3 0.681242 0.338891 0.100230
Si Si4 0.721327 0.324537 0.601007
Si Si5 0.418444 0.459283 0.165577
Si Si6 0.075520 0.551312 0.242075
Si Si7 0.656807 0.812977 0.401680
Si Si8 0.326052 0.430216 0.328315
O O1 0.904292 0.330098 0.500000
O O2 0.804773 0.313698 0.375501
O O3 0.912377 0.164574 0.382119
O O4 0.932020 0.383552 0.335999
O O5 0.155998 0.263869 0.334844
O O6 0.177448 0.263375 0.163236
O O7 0.131470 0.448201 0.244812
O O8 0.263361 0.388238 0.262660
O O9 0.633778 0.453298 0.113473
O O10 0.764849 0.367642 0.120758
O O11 0.673112 0.293447 0.000000
O O12 0.706057 0.289376 0.500000
O O13 0.695877 0.456195 0.617116
O O14 0.500000 0.500000 0.159279
O O15 0.395684 0.454361 0.268133
O O16 0.098826 0.643377 0.167937
O O17 0.000000 0.500000 0.213276
O O18 0.633287 0.850221 0.500000
O O19 0.658649 0.672182 0.397980
#
# Coordination Sequence:
#
# PCOD8238493 Si02
#       8
#     8   8   8   8   8   8   8   8
#     4  11  24  42  62  93 129 166 209 260 316 374
#     4  11  22  39  64  90 125 163 207 263 310 376
#     4  10  22  39  64  95 123 160 208 259 315 372
#     4  11  22  39  69  99 122 159 212 271 322 370
#     4  12  24  39  65  92 129 173 210 254 316 378
#     4  12  26  42  63  89 128 175 209 249 314 380
#     4  10  22  42  68  92 120 159 211 268 316 370
#     4  11  20  41  69  91 124 162 211 262 320 371
#
# _framework density 19.822611999999999
#
# number of rings (size 3 to 8) (size 9 to 14) (size 15 to 20)
#    0.000    1.000    5.000    2.250    1.750    3.000 
#    0.000    0.000    0.000    0.750    0.000    0.000 
#    0.000    0.000    0.000    0.000    0.000    0.000 
#
# Total GULP energy -793895.251971 kJ/mol
# GULP energy per Si atom -12404.613312 kJ/mol
# Density = 1.977750 g / cm^3
# Si number density = 19.822612 Si / 1000 Ang^3
#
#
#
# Elastic Constant Matrix: (Units=GPa)
#
#
# Indices 1 2 3 4 5 6 
#
# 1 65.1352 34.8192 40.3836 0.0000 0.0000 0.0000
# 2 34.8192 108.6701 42.1765 0.0000 0.0000 0.0000
# 3 40.3836 42.1765 114.5574 0.0000 0.0000 0.0000
# 4 0.0000 0.0000 0.0000 10.3128 0.0000 0.0000
# 5 0.0000 0.0000 0.0000 0.0000 23.8098 0.0000
# 6 0.0000 0.0000 0.0000 0.0000 0.0000 18.9770
#
#
#
# Elastic Compliance Matrix: (Units=1/GPa)
#
#
# Indices 1 2 3 4 5 6 
#
# 1 0.021447 -0.004594 -0.005869 0.000000 0.000000 0.000000
# 2 -0.004594 0.011720 -0.002696 0.000000 0.000000 0.000000
# 3 -0.005869 -0.002696 0.011791 0.000000 0.000000 0.000000
# 4 0.000000 0.000000 0.000000 0.096967 0.000000 0.000000
# 5 0.000000 0.000000 0.000000 0.000000 0.042000 0.000000
# 6 0.000000 0.000000 0.000000 0.000000 0.000000 0.052695
#
#
# Mechanical properties :
#
#
# Convention : Reuss Voigt Hill
#
# Bulk Modulus (GPa) = 53.64604 58.12463 55.88533
# Shear Modulus (GPa) = 18.57687 22.01881 20.29784
#
# Velocity S-wave (km/s) = 3.06462 3.33647 3.20343
# Velocity P-wave (km/s) = 6.29637 6.65047 6.47584
#
# Compressibility (1/GPa) = 0.01864071
#
# Stress axis : x y z
#
# Youngs Moduli (GPa) = 46.62566 85.32165 84.81273
#
# Poissons Ratio (x) = 0.39197 0.49778
# Poissons Ratio (y) = 0.21420 0.22862
# Poissons Ratio (z) = 0.27366 0.22999
#
# Static dielectric constant tensor:
#      x y z
#    x 3.314460 0.000000 0.000000 
#    y 0.000000 3.693310 0.000000 
#    z 0.000000 0.000000 3.704810 
# 
# 
# High freq. dielectric constant tensor:
#      x y z
#    x 1.748770 0.000000 0.000000 
#    y 0.000000 1.785550 0.000000 
#    z 0.000000 0.000000 1.782200 
# 
# From -- ./inp_files/22957.got.cif
#   From: 2010.06.25/outbox.cif.g09.slc.cpg/sg58_12_cif.got.tgz:22957.got - 2010.06.26 21:38:00.
