data_PCOD8238084
_publ_section_title
;
Structure prediction by ZEFSAII (Michael W. Deem and Ramdas Pophale) SiO2 
 PCOD8238084
Probable space group: P N N M
;
_chemical_formula_sum "Si O2"
_cell_formula_units_Z 56
_cell_length_a 11.124628
_cell_length_b 15.271043
_cell_length_c 18.108542
_cell_angle_alpha 90.000000
_cell_angle_beta 90.000000
_cell_angle_gamma 90.000000
_cell_volume 3076.363728
_symmetry_space_group_name_H-M "P N N M"
_symmetry_group_IT_number 58
_symmetry_cell_setting 'orthorhombic'
loop_
_space_group_symop_operation_xyz
x,y,z
-x,-y,z
1/2+x,1/2-y,1/2-z
1/2-x,1/2+y,1/2-z
-x,-y,-z
x,y,-z
1/2-x,1/2+y,1/2+z
1/2+x,1/2-y,1/2+z
loop_
_atom_site_type_symbol
_atom_site_label
_atom_site_fract_x
_atom_site_fract_y
_atom_site_fract_z
Si Si1 0.762742 0.343068 0.837087
Si Si2 0.729610 0.158157 0.347051
Si Si3 0.493445 0.100234 0.585182
Si Si4 0.135336 0.335547 0.316798
Si Si5 0.859366 0.001702 0.417126
Si Si6 0.141973 0.495872 0.582088
Si Si7 0.651679 0.838615 0.175069
O O1 0.693817 0.252067 0.849537
O O2 0.682241 0.416194 0.874528
O O3 0.781380 0.361776 0.750867
O O4 0.893302 0.342281 0.874130
O O5 0.617840 0.150419 0.402429
O O6 0.684880 0.143395 0.264034
O O7 0.824989 0.084589 0.368155
O O8 0.795250 0.250073 0.358986
O O9 0.459729 0.097126 0.500000
O O10 0.500000 0.000000 0.616545
O O11 0.181162 0.412793 0.369724
O O12 0.991201 0.328620 0.313651
O O13 0.801672 0.005349 0.500000
O O14 0.000000 0.000000 0.425004
O O15 0.197858 0.487528 0.500000
O O16 0.188425 0.584910 0.619056
O O17 0.000000 0.500000 0.577080
#
# Coordination Sequence:
#
# PCOD8238084 Si02
#       7
#     8   8   8   8   8   8   8
#     4  11  21  36  58  84 116 151 192 236 286 347
#     4  11  21  36  58  84 116 151 192 236 286 347
#     4  11  22  36  58  87 117 153 190 230 288 351
#     4  10  21  37  59  84 113 148 194 241 284 336
#     4  11  23  37  55  85 121 153 186 238 302 353
#     4   9  19  34  54  79 106 143 185 230 281 329
#     4  10  21  37  59  84 113 148 194 241 284 336
#
# _framework density 18.203309999999998
#
# number of rings (size 3 to 8) (size 9 to 14) (size 15 to 20)
#    0.000    1.571    2.857    2.571    0.000    2.286 
#    0.000    2.857    0.000    0.000    0.000    2.000 
#    0.000    0.000    0.000    0.000    0.000    0.000 
#
# Total GULP energy -694487.822032 kJ/mol
# GULP energy per Si atom -12401.568251 kJ/mol
# Density = 1.816188 g / cm^3
# Si number density = 18.203310 Si / 1000 Ang^3
#
#
#
# Elastic Constant Matrix: (Units=GPa)
#
#
# Indices 1 2 3 4 5 6 
#
# 1 71.6762 48.9116 28.0772 0.0000 0.0000 0.0000
# 2 48.9116 157.0120 75.2829 0.0000 0.0000 0.0000
# 3 28.0772 75.2829 90.7848 0.0000 0.0000 0.0000
# 4 0.0000 0.0000 0.0000 -73.6075 0.0000 0.0000
# 5 0.0000 0.0000 0.0000 0.0000 30.4654 0.0000
# 6 0.0000 0.0000 0.0000 0.0000 0.0000 23.6664
#
#
#
# Elastic Compliance Matrix: (Units=1/GPa)
#
#
# Indices 1 2 3 4 5 6 
#
# 1 0.017842 -0.004834 -0.001509 0.000000 0.000000 0.000000
# 2 -0.004834 0.011883 -0.008358 0.000000 0.000000 0.000000
# 3 -0.001509 -0.008358 0.018413 0.000000 0.000000 0.000000
# 4 0.000000 0.000000 0.000000 -0.013586 0.000000 0.000000
# 5 0.000000 0.000000 0.000000 0.000000 0.032824 0.000000
# 6 0.000000 0.000000 0.000000 0.000000 0.000000 0.042254
#
#
# Mechanical properties :
#
#
# Convention : Reuss Voigt Hill
#
# Bulk Modulus (GPa) = 53.38026 69.33514 61.35770
# Shear Modulus (GPa) = 34.41674 7.25160 20.83417
#
# Velocity S-wave (km/s) = 4.35292 1.99808 3.38676
# Velocity P-wave (km/s) = 7.39270 6.59508 7.00525
#
# Compressibility (1/GPa) = 0.01873352
#
# Stress axis : x y z
#
# Youngs Moduli (GPa) = 56.04832 84.15685 54.30959
#
# Poissons Ratio (x) = 0.40685 0.08195
# Poissons Ratio (y) = 0.27096 0.45394
# Poissons Ratio (z) = 0.08458 0.70342
#
# Static dielectric constant tensor:
#      x y z
#    x 3.344100 0.000000 0.000000 
#    y 0.000000 3.325270 0.000000 
#    z 0.000000 0.000000 3.555890 
# 
# 
# High freq. dielectric constant tensor:
#      x y z
#    x 1.698940 0.000000 0.000000 
#    y 0.000000 1.710510 0.000000 
#    z 0.000000 0.000000 1.716570 
# 
# From -- ./inp_files/21297.got.cif
#   From: 2010.06.25/outbox.cif.g09.slc.cpg/sg58_11_cif.got.tgz:21297.got - 2010.06.26 21:38:00.
