data_PCOD8238176
_publ_section_title
;
Structure prediction by ZEFSAII (Michael W. Deem and Ramdas Pophale) SiO2 
 PCOD8238176
Probable space group: P N N M
;
_chemical_formula_sum "Si O2"
_cell_formula_units_Z 64
_cell_length_a 30.578652
_cell_length_b 11.918755
_cell_length_c 8.567750
_cell_angle_alpha 90.000000
_cell_angle_beta 90.000000
_cell_angle_gamma 90.000000
_cell_volume 3122.597551
_symmetry_space_group_name_H-M "P N N M"
_symmetry_group_IT_number 58
_symmetry_cell_setting 'orthorhombic'
loop_
_space_group_symop_operation_xyz
x,y,z
-x,-y,z
1/2+x,1/2-y,1/2-z
1/2-x,1/2+y,1/2-z
-x,-y,-z
x,y,-z
1/2-x,1/2+y,1/2+z
1/2+x,1/2-y,1/2+z
loop_
_atom_site_type_symbol
_atom_site_label
_atom_site_fract_x
_atom_site_fract_y
_atom_site_fract_z
Si Si1 0.123768 0.135069 0.183933
Si Si2 0.042907 0.263287 0.681678
Si Si3 0.207628 0.730787 0.181334
Si Si4 0.451485 0.237009 0.317759
Si Si5 0.826586 0.488580 0.677808
Si Si6 0.797447 0.711621 0.817315
Si Si7 0.870841 0.116184 0.814517
Si Si8 0.572431 0.993620 0.178026
O O1 0.077842 0.189887 0.226110
O O2 0.164230 0.208021 0.249120
O O3 0.126571 0.009418 0.254744
O O4 0.127881 0.126282 0.000000
O O5 0.051713 0.245299 0.500000
O O6 0.046501 0.394508 0.727068
O O7 0.994822 0.221901 0.728659
O O8 0.183866 0.612764 0.206822
O O9 0.251042 0.731183 0.285178
O O10 0.174818 0.828494 0.239517
O O11 0.219503 0.744854 0.000000
O O12 0.458547 0.257516 0.500000
O O13 0.411457 0.310654 0.249779
O O14 0.442076 0.106168 0.289982
O O15 0.815708 0.454655 0.500000
O O16 0.797665 0.594919 0.725201
O O17 0.876830 0.522185 0.699104
O O18 0.803908 0.689341 0.000000
O O19 0.873303 0.117629 0.000000
O O20 0.561475 0.958944 0.000000
#
# Coordination Sequence:
#
# PCOD8238176 Si02
#       8
#     8   8   8   8   8   8   8   8
#     4  10  22  42  64  85 117 160 205 249 298 361
#     4  11  23  40  60  88 123 157 199 249 309 363
#     4  11  23  41  65  93 126 163 206 255 309 366
#     4  11  22  38  62  90 120 157 204 249 301 366
#     4  11  22  40  65  91 125 165 204 251 309 364
#     4  11  24  40  63  95 125 159 207 256 306 368
#     4   9  21  41  62  86 119 160 201 248 301 359
#     4  10  21  38  60  87 123 160 196 248 308 360
#
# _framework density 20.495757999999999
#
# number of rings (size 3 to 8) (size 9 to 14) (size 15 to 20)
#    0.000    1.500    2.500    2.250    1.750    4.000 
#    0.000    5.000    0.000    0.000    0.000    0.000 
#    0.000    0.000    0.000    0.000    0.000    0.000 
#
# Total GULP energy -793954.823039 kJ/mol
# GULP energy per Si atom -12405.544110 kJ/mol
# Density = 2.044911 g / cm^3
# Si number density = 20.495758 Si / 1000 Ang^3
#
#
#
# Elastic Constant Matrix: (Units=GPa)
#
#
# Indices 1 2 3 4 5 6 
#
# 1 118.4209 37.2048 16.8140 0.0000 0.0000 0.0000
# 2 37.2048 117.3782 17.2204 0.0000 0.0000 0.0000
# 3 16.8140 17.2204 28.4537 0.0000 0.0000 0.0000
# 4 0.0000 0.0000 0.0000 23.6600 0.0000 0.0000
# 5 0.0000 0.0000 0.0000 0.0000 32.1847 0.0000
# 6 0.0000 0.0000 0.0000 0.0000 0.0000 25.9705
#
#
#
# Elastic Compliance Matrix: (Units=1/GPa)
#
#
# Indices 1 2 3 4 5 6 
#
# 1 0.009837 -0.002486 -0.004309 0.000000 0.000000 0.000000
# 2 -0.002486 0.009978 -0.004570 0.000000 0.000000 0.000000
# 3 -0.004309 -0.004570 0.040456 0.000000 0.000000 0.000000
# 4 0.000000 0.000000 0.000000 0.042265 0.000000 0.000000
# 5 0.000000 0.000000 0.000000 0.000000 0.031071 0.000000
# 6 0.000000 0.000000 0.000000 0.000000 0.000000 0.038505
#
#
# Mechanical properties :
#
#
# Convention : Reuss Voigt Hill
#
# Bulk Modulus (GPa) = 26.63598 45.19236 35.91417
# Shear Modulus (GPa) = 24.11317 29.23060 26.67188
#
# Velocity S-wave (km/s) = 3.43373 3.78057 3.61132
# Velocity P-wave (km/s) = 5.36141 6.41518 5.91182
#
# Compressibility (1/GPa) = 0.03754321
#
# Stress axis : x y z
#
# Youngs Moduli (GPa) = 101.65456 100.22204 24.71793
#
# Poissons Ratio (x) = 0.24915 0.10650
# Poissons Ratio (y) = 0.25271 0.11295
# Poissons Ratio (z) = 0.43798 0.45798
#
# Static dielectric constant tensor:
#      x y z
#    x 3.807430 0.000000 0.000000 
#    y 0.000000 3.786790 0.000000 
#    z 0.000000 0.000000 3.463040 
# 
# 
# High freq. dielectric constant tensor:
#      x y z
#    x 1.814450 0.000000 0.000000 
#    y 0.000000 1.802790 0.000000 
#    z 0.000000 0.000000 1.785670 
# 
# From -- ./inp_files/4767.got.cif
#   From: 2010.06.25/outbox.cif.g09.slc.cpg/sg58_3_cif.got.tgz:4767.got - 2010.06.26 21:38:00.
