data_PCOD8238839
_publ_section_title
;
Structure prediction by ZEFSAII (Michael W. Deem and Ramdas Pophale) SiO2 
 PCOD8238839
Probable space group: P N N M
;
_chemical_formula_sum "Si O2"
_cell_formula_units_Z 48
_cell_length_a 23.363271
_cell_length_b 11.799242
_cell_length_c 8.902545
_cell_angle_alpha 90.000000
_cell_angle_beta 90.000000
_cell_angle_gamma 90.000000
_cell_volume 2454.154684
_symmetry_space_group_name_H-M "P N N M"
_symmetry_group_IT_number 58
_symmetry_cell_setting 'orthorhombic'
loop_
_space_group_symop_operation_xyz
x,y,z
-x,-y,z
1/2+x,1/2-y,1/2-z
1/2-x,1/2+y,1/2-z
-x,-y,-z
x,y,-z
1/2-x,1/2+y,1/2+z
1/2+x,1/2-y,1/2+z
loop_
_atom_site_type_symbol
_atom_site_label
_atom_site_fract_x
_atom_site_fract_y
_atom_site_fract_z
Si Si1 0.653577 0.092303 0.175114
Si Si2 0.143794 0.642249 0.171319
Si Si3 0.781806 0.145754 0.173272
Si Si4 0.916279 0.780905 0.176975
Si Si5 0.046236 0.816691 0.825847
Si Si6 0.876939 0.003529 0.322944
O O1 0.715875 0.139358 0.219905
O O2 0.606327 0.159484 0.269376
O O3 0.649298 0.960517 0.214434
O O4 0.641388 0.108815 0.000000
O O5 0.196755 0.726570 0.201891
O O6 0.084480 0.706328 0.205986
O O7 0.144882 0.597915 0.000000
O O8 0.817084 0.058190 0.273983
O O9 0.791766 0.111715 0.000000
O O10 0.982308 0.789522 0.226290
O O11 0.879447 0.877940 0.256186
O O12 0.909271 0.791866 0.000000
O O13 0.069022 0.923980 0.733712
O O14 0.049732 0.851253 0.000000
O O15 0.878964 0.995274 0.500000
#
# Coordination Sequence:
#
# PCOD8238839 Si02
#       6
#     8   8   8   8   8   8
#     4  11  24  39  57  88 121 152 194 245 295 343
#     4   9  19  39  62  82 110 153 199 238 285 347
#     4   9  21  41  61  82 115 157 197 237 288 354
#     4  11  23  39  60  86 118 158 200 239 289 352
#     4   9  20  40  63  85 115 158 202 239 285 352
#     4  11  22  36  60  92 121 151 193 246 300 344
#
# _framework density 19.558669999999999
#
# number of rings (size 3 to 8) (size 9 to 14) (size 15 to 20)
#    0.000    2.000    0.000    4.000    2.333    8.000 
#    0.000    3.333    0.000    0.000    0.000    0.000 
#    0.000    0.000    0.000    0.000    0.000    0.000 
#
# Total GULP energy -595479.373102 kJ/mol
# GULP energy per Si atom -12405.820273 kJ/mol
# Density = 1.951415 g / cm^3
# Si number density = 19.558670 Si / 1000 Ang^3
#
#
#
# Elastic Constant Matrix: (Units=GPa)
#
#
# Indices 1 2 3 4 5 6 
#
# 1 68.4348 25.0800 31.3667 0.0000 0.0000 0.0000
# 2 25.0800 97.6295 36.6928 0.0000 0.0000 0.0000
# 3 31.3667 36.6928 84.8067 0.0000 0.0000 0.0000
# 4 0.0000 0.0000 0.0000 35.9056 0.0000 0.0000
# 5 0.0000 0.0000 0.0000 0.0000 25.4833 0.0000
# 6 0.0000 0.0000 0.0000 0.0000 0.0000 19.9586
#
#
#
# Elastic Compliance Matrix: (Units=1/GPa)
#
#
# Indices 1 2 3 4 5 6 
#
# 1 0.018112 -0.002550 -0.005596 0.000000 0.000000 0.000000
# 2 -0.002550 0.012591 -0.004505 0.000000 0.000000 0.000000
# 3 -0.005596 -0.004505 0.015810 0.000000 0.000000 0.000000
# 4 0.000000 0.000000 0.000000 0.027851 0.000000 0.000000
# 5 0.000000 0.000000 0.000000 0.000000 0.039241 0.000000
# 6 0.000000 0.000000 0.000000 0.000000 0.000000 0.050104
#
#
# Mechanical properties :
#
#
# Convention : Reuss Voigt Hill
#
# Bulk Modulus (GPa) = 47.14141 48.57224 47.85683
# Shear Modulus (GPa) = 25.49992 26.78492 26.14242
#
# Velocity S-wave (km/s) = 3.61469 3.70464 3.65994
# Velocity P-wave (km/s) = 6.44796 6.57170 6.51012
#
# Compressibility (1/GPa) = 0.02121277
#
# Stress axis : x y z
#
# Youngs Moduli (GPa) = 55.21328 79.42323 63.25066
#
# Poissons Ratio (x) = 0.20250 0.35393
# Poissons Ratio (y) = 0.14077 0.28492
# Poissons Ratio (z) = 0.30895 0.35777
#
# Static dielectric constant tensor:
#      x y z
#    x 3.726780 0.000000 0.000000 
#    y 0.000000 3.469980 0.000000 
#    z 0.000000 0.000000 3.463200 
# 
# 
# High freq. dielectric constant tensor:
#      x y z
#    x 1.767810 0.000000 0.000000 
#    y 0.000000 1.763170 0.000000 
#    z 0.000000 0.000000 1.760320 
# 
# From -- ./inp_files/9730.got.cif
#   From: 2010.06.25/outbox.cif.g09.slc.cpg/sg58_5_cif.got.tgz:9730.got - 2010.06.26 21:38:00.
