data_PCOD8238296
_publ_section_title
;
Structure prediction by ZEFSAII (Michael W. Deem and Ramdas Pophale) SiO2 
 PCOD8238296
Probable space group: P N N M
;
_chemical_formula_sum "Si O2"
_cell_formula_units_Z 48
_cell_length_a 16.410642
_cell_length_b 18.775714
_cell_length_c 7.796768
_cell_angle_alpha 90.000000
_cell_angle_beta 90.000000
_cell_angle_gamma 90.000000
_cell_volume 2402.352013
_symmetry_space_group_name_H-M "P N N M"
_symmetry_group_IT_number 58
_symmetry_cell_setting 'orthorhombic'
loop_
_space_group_symop_operation_xyz
x,y,z
-x,-y,z
1/2+x,1/2-y,1/2-z
1/2-x,1/2+y,1/2-z
-x,-y,-z
x,y,-z
1/2-x,1/2+y,1/2+z
1/2+x,1/2-y,1/2+z
loop_
_atom_site_type_symbol
_atom_site_label
_atom_site_fract_x
_atom_site_fract_y
_atom_site_fract_z
Si Si1 0.847329 0.177531 0.807477
Si Si2 0.373157 0.169953 0.192695
Si Si3 0.807150 0.592619 0.303088
Si Si4 0.564541 0.603217 0.000000
Si Si5 0.234098 0.058996 0.800986
Si Si6 0.984473 0.578541 0.805968
Si Si7 0.614936 0.440909 0.000000
O O1 0.858227 0.262403 0.813133
O O2 0.753768 0.157738 0.759344
O O3 0.908660 0.143061 0.672529
O O4 0.866122 0.148208 0.000000
O O5 0.310425 0.108449 0.242659
O O6 0.463969 0.138217 0.207032
O O7 0.359290 0.196911 0.000000
O O8 0.834053 0.591306 0.500000
O O9 0.759867 0.520851 0.254090
O O10 0.889699 0.600328 0.195777
O O11 0.599853 0.524634 0.000000
O O12 0.467319 0.604125 0.000000
O O13 0.161537 0.081149 0.674133
O O14 0.206224 0.065994 0.000000
O O15 0.000000 0.500000 0.723676
O O16 0.016406 0.577626 0.000000
#
# Coordination Sequence:
#
# PCOD8238296 Si02
#       7
#     8   8   8   4   8   8   4
#     4  11  24  44  66  89 130 174 213 262 325 384
#     4  11  23  41  64  91 130 173 212 263 320 382
#     4  10  21  39  63  90 123 169 210 257 319 381
#     4  11  24  44  66  97 121 171 214 264 332 368
#     4  10  22  39  64  96 129 164 210 264 320 377
#     4  11  23  35  59  95 130 167 212 264 318 380
#     4  11  24  40  72  94 125 160 219 278 308 387
#
# _framework density 19.980419000000001
#
# number of rings (size 3 to 8) (size 9 to 14) (size 15 to 20)
#    0.000    1.333    4.167    1.000    4.667    1.333 
#    3.000    1.667    0.000    0.000    0.000    0.000 
#    0.000    0.000    0.000    0.000    0.000    0.000 
#
# Total GULP energy -595362.200679 kJ/mol
# GULP energy per Si atom -12403.379181 kJ/mol
# Density = 1.993494 g / cm^3
# Si number density = 19.980419 Si / 1000 Ang^3
#
#
#
# Elastic Constant Matrix: (Units=GPa)
#
#
# Indices 1 2 3 4 5 6 
#
# 1 142.0316 47.6656 55.8573 0.0000 0.0000 0.0000
# 2 47.6656 97.0811 26.7412 0.0000 0.0000 0.0000
# 3 55.8573 26.7412 98.0680 0.0000 0.0000 0.0000
# 4 0.0000 0.0000 0.0000 16.5493 0.0000 0.0000
# 5 0.0000 0.0000 0.0000 0.0000 27.4283 0.0000
# 6 0.0000 0.0000 0.0000 0.0000 0.0000 32.5154
#
#
#
# Elastic Compliance Matrix: (Units=1/GPa)
#
#
# Indices 1 2 3 4 5 6 
#
# 1 0.010152 -0.003667 -0.004782 0.000000 0.000000 0.000000
# 2 -0.003667 0.012462 -0.001309 0.000000 0.000000 0.000000
# 3 -0.004782 -0.001309 0.013278 0.000000 0.000000 0.000000
# 4 0.000000 0.000000 0.000000 0.060426 0.000000 0.000000
# 5 0.000000 0.000000 0.000000 0.000000 0.036459 0.000000
# 6 0.000000 0.000000 0.000000 0.000000 0.000000 0.030755
#
#
# Mechanical properties :
#
#
# Convention : Reuss Voigt Hill
#
# Bulk Modulus (GPa) = 61.07241 66.41210 63.74226
# Shear Modulus (GPa) = 26.52416 29.09303 27.80860
#
# Velocity S-wave (km/s) = 3.64745 3.82000 3.73472
# Velocity P-wave (km/s) = 6.95493 7.26411 7.11120
#
# Compressibility (1/GPa) = 0.01637401
#
# Stress axis : x y z
#
# Youngs Moduli (GPa) = 98.50030 80.24447 75.31233
#
# Poissons Ratio (x) = 0.29428 0.36018
# Poissons Ratio (y) = 0.36123 0.09861
# Poissons Ratio (z) = 0.47108 0.10507
#
# Static dielectric constant tensor:
#      x y z
#    x 3.519470 0.000000 0.000000 
#    y 0.000000 3.533460 0.000000 
#    z 0.000000 0.000000 3.617780 
# 
# 
# High freq. dielectric constant tensor:
#      x y z
#    x 1.774520 0.000000 0.000000 
#    y 0.000000 1.769900 0.000000 
#    z 0.000000 0.000000 1.789720 
# 
# From -- ./inp_files/5931.got.cif
#   From: 2010.06.25/outbox.cif.g09.slc.cpg/sg58_3_cif.got.tgz:5931.got - 2010.06.26 21:38:00.
