data_PCOD8238627
_publ_section_title
;
Structure prediction by ZEFSAII (Michael W. Deem and Ramdas Pophale) SiO2 
 PCOD8238627
Probable space group: P N N M
;
_chemical_formula_sum "Si O2"
_cell_formula_units_Z 24
_cell_length_a 14.925109
_cell_length_b 4.998862
_cell_length_c 15.307020
_cell_angle_alpha 90.000000
_cell_angle_beta 90.000000
_cell_angle_gamma 90.000000
_cell_volume 1142.034724
_symmetry_space_group_name_H-M "P N N M"
_symmetry_group_IT_number 58
_symmetry_cell_setting 'orthorhombic'
loop_
_space_group_symop_operation_xyz
x,y,z
-x,-y,z
1/2+x,1/2-y,1/2-z
1/2-x,1/2+y,1/2-z
-x,-y,-z
x,y,-z
1/2-x,1/2+y,1/2+z
1/2+x,1/2-y,1/2+z
loop_
_atom_site_type_symbol
_atom_site_label
_atom_site_fract_x
_atom_site_fract_y
_atom_site_fract_z
Si Si1 0.238514 0.006883 0.500000
Si Si2 0.500000 0.500000 0.355492
Si Si3 0.143110 0.010730 0.000000
Si Si4 0.919600 0.801219 0.404482
Si Si5 0.000000 0.500000 0.262247
O O1 0.323547 0.205051 0.500000
O O2 0.177122 0.051559 0.412828
O O3 0.270964 0.702488 0.500000
O O4 0.585035 0.425203 0.414454
O O5 0.471321 0.247589 0.297483
O O6 0.940395 0.670243 0.500000
O O7 0.917260 0.579368 0.327436
O O8 0.000000 0.000000 0.378241
#
# Coordination Sequence:
#
# PCOD8238627 Si02
#       5
#     4   4   4   8   4
#     4  10  23  38  74  90 131 161 218 261 321 387
#     4  11  26  42  71  84 130 176 231 260 314 369
#     4  11  24  48  62  94 119 185 223 265 308 377
#     4   9  21  38  69  96 130 170 200 253 332 406
#     4  12  21  41  68 100 124 172 212 271 315 398
#
# _framework density 21.015122999999999
#
# number of rings (size 3 to 8) (size 9 to 14) (size 15 to 20)
#    1.000    0.667    1.667    2.500    4.667    2.667 
#    0.000    6.667    0.000    0.000    0.000    0.000 
#    0.000    0.000    0.000    0.000    0.000    0.000 
#
# Total GULP energy -297388.922043 kJ/mol
# GULP energy per Si atom -12391.205085 kJ/mol
# Density = 2.096729 g / cm^3
# Si number density = 21.015123 Si / 1000 Ang^3
#
#
#
# Elastic Constant Matrix: (Units=GPa)
#
#
# Indices 1 2 3 4 5 6 
#
# 1 93.4022 26.3943 36.2366 0.0000 0.0000 0.0000
# 2 26.3943 106.1637 57.5187 0.0000 0.0000 0.0000
# 3 36.2366 57.5187 141.9786 0.0000 0.0000 0.0000
# 4 0.0000 0.0000 0.0000 42.5286 0.0000 0.0000
# 5 0.0000 0.0000 0.0000 0.0000 -0.3039 0.0000
# 6 0.0000 0.0000 0.0000 0.0000 0.0000 39.8438
#
#
#
# Elastic Compliance Matrix: (Units=1/GPa)
#
#
# Indices 1 2 3 4 5 6 
#
# 1 0.012122 -0.001714 -0.002400 0.000000 0.000000 0.000000
# 2 -0.001714 0.012311 -0.004550 0.000000 0.000000 0.000000
# 3 -0.002400 -0.004550 0.009499 0.000000 0.000000 0.000000
# 4 0.000000 0.000000 0.000000 0.023514 0.000000 0.000000
# 5 0.000000 0.000000 0.000000 0.000000 -3.290993 0.000000
# 6 0.000000 0.000000 0.000000 0.000000 0.000000 0.025098
#
#
# Mechanical properties :
#
#
# Convention : Reuss Voigt Hill
#
# Bulk Modulus (GPa) = 60.22272 64.64931 62.43601
# Shear Modulus (GPa) = -1.56957 31.17336 14.80190
#
# Velocity S-wave (km/s) = -0.86516 3.85564 2.65683
# Velocity P-wave (km/s) = 5.26508 7.11697 6.25989
#
# Compressibility (1/GPa) = 0.01660503
#
# Stress axis : x y z
#
# Youngs Moduli (GPa) = 82.49762 81.23103 105.27415
#
# Poissons Ratio (x) = 0.13920 0.25261
# Poissons Ratio (y) = 0.14137 0.47899
# Poissons Ratio (z) = 0.19795 0.36959
#
# Static dielectric constant tensor:
#      x y z
#    x 3.530730 0.000000 0.000000 
#    y 0.000000 3.752270 0.000000 
#    z 0.000000 0.000000 3.879740 
# 
# 
# High freq. dielectric constant tensor:
#      x y z
#    x 1.796810 0.000000 0.000000 
#    y 0.000000 1.827460 0.000000 
#    z 0.000000 0.000000 1.821330 
# 
# From -- ./inp_files/21714.got.cif
#   From: 2010.06.25/outbox.cif.g09.slc.cpg/sg58_11_cif.got.tgz:21714.got - 2010.06.26 21:38:00.
