data_PCOD8238091
_publ_section_title
;
Structure prediction by ZEFSAII (Michael W. Deem and Ramdas Pophale) SiO2 
 PCOD8238091
Probable space group: P N N M
;
_chemical_formula_sum "Si O2"
_cell_formula_units_Z 56
_cell_length_a 13.245415
_cell_length_b 16.409876
_cell_length_c 13.048032
_cell_angle_alpha 90.000000
_cell_angle_beta 90.000000
_cell_angle_gamma 90.000000
_cell_volume 2836.063055
_symmetry_space_group_name_H-M "P N N M"
_symmetry_group_IT_number 58
_symmetry_cell_setting 'orthorhombic'
loop_
_space_group_symop_operation_xyz
x,y,z
-x,-y,z
1/2+x,1/2-y,1/2-z
1/2-x,1/2+y,1/2-z
-x,-y,-z
x,y,-z
1/2-x,1/2+y,1/2+z
1/2+x,1/2-y,1/2+z
loop_
_atom_site_type_symbol
_atom_site_label
_atom_site_fract_x
_atom_site_fract_y
_atom_site_fract_z
Si Si1 0.035983 0.807579 0.797145
Si Si2 0.188167 0.391514 0.797604
Si Si3 0.174052 0.754374 0.380195
Si Si4 0.316072 0.440461 0.381026
Si Si5 0.482304 0.140682 0.614688
Si Si6 0.776113 0.442057 0.886106
Si Si7 0.682204 0.378614 0.692084
O O1 0.073215 0.778249 0.683842
O O2 0.091109 0.889275 0.834384
O O3 0.059815 0.732362 0.872360
O O4 0.916818 0.822853 0.805802
O O5 0.235140 0.309528 0.840352
O O6 0.215554 0.411553 0.679299
O O7 0.234426 0.461938 0.868862
O O8 0.067857 0.382212 0.803293
O O9 0.149096 0.765459 0.500000
O O10 0.219836 0.663998 0.360212
O O11 0.301422 0.420333 0.500000
O O12 0.337686 0.536371 0.366530
O O13 0.526080 0.130588 0.500000
O O14 0.392549 0.078238 0.634366
O O15 0.703807 0.392845 0.811356
O O16 0.741679 0.418389 0.000000
#
# Coordination Sequence:
#
# PCOD8238091 Si02
#       7
#     8   8   8   8   8   8   8
#     4  11  23  38  58  91 121 151 200 254 291 355
#     4  10  21  37  60  87 116 150 197 242 291 355
#     4  11  22  38  59  84 119 159 198 243 296 356
#     4  10  23  41  61  88 121 158 201 248 299 355
#     4  11  20  34  60  88 117 153 192 242 295 342
#     4  10  21  37  59  86 116 150 193 245 297 350
#     4  11  22  39  62  85 119 159 201 245 297 359
#
# _framework density 19.745681000000001
#
# number of rings (size 3 to 8) (size 9 to 14) (size 15 to 20)
#    0.000    1.429    2.857    3.000    0.000    4.000 
#    0.000    0.714    0.000    6.857    0.000    0.000 
#    0.000    0.000    0.000    0.000    0.000    0.000 
#
# Total GULP energy -694350.865834 kJ/mol
# GULP energy per Si atom -12399.122604 kJ/mol
# Density = 1.970074 g / cm^3
# Si number density = 19.745681 Si / 1000 Ang^3
#
#
#
# Elastic Constant Matrix: (Units=GPa)
#
#
# Indices 1 2 3 4 5 6 
#
# 1 49.2437 7.6399 38.2705 0.0000 0.0000 0.0000
# 2 7.6399 75.3531 32.1416 0.0000 0.0000 0.0000
# 3 38.2705 32.1416 111.3317 0.0000 0.0000 0.0000
# 4 0.0000 0.0000 0.0000 21.3710 0.0000 0.0000
# 5 0.0000 0.0000 0.0000 0.0000 22.7456 0.0000
# 6 0.0000 0.0000 0.0000 0.0000 0.0000 22.8411
#
#
#
# Elastic Compliance Matrix: (Units=1/GPa)
#
#
# Indices 1 2 3 4 5 6 
#
# 1 0.027846 0.001437 -0.009987 0.000000 0.000000 0.000000
# 2 0.001437 0.015209 -0.004885 0.000000 0.000000 0.000000
# 3 -0.009987 -0.004885 0.013825 0.000000 0.000000 0.000000
# 4 0.000000 0.000000 0.000000 0.046792 0.000000 0.000000
# 5 0.000000 0.000000 0.000000 0.000000 0.043965 0.000000
# 6 0.000000 0.000000 0.000000 0.000000 0.000000 0.043781
#
#
# Mechanical properties :
#
#
# Convention : Reuss Voigt Hill
#
# Bulk Modulus (GPa) = 33.32204 43.55916 38.44060
# Shear Modulus (GPa) = 21.90196 23.91665 22.90930
#
# Velocity S-wave (km/s) = 3.33408 3.48406 3.40989
# Velocity P-wave (km/s) = 5.63327 6.18812 5.91720
#
# Compressibility (1/GPa) = 0.03001016
#
# Stress axis : x y z
#
# Youngs Moduli (GPa) = 35.91230 65.75184 72.33113
#
# Poissons Ratio (x) = -0.09446 0.72235
# Poissons Ratio (y) = -0.05159 0.35331
# Poissons Ratio (z) = 0.35865 0.32117
#
# Static dielectric constant tensor:
#      x y z
#    x 3.392220 0.000000 0.000000 
#    y 0.000000 3.773500 0.000000 
#    z 0.000000 0.000000 3.602760 
# 
# 
# High freq. dielectric constant tensor:
#      x y z
#    x 1.754260 0.000000 0.000000 
#    y 0.000000 1.789970 0.000000 
#    z 0.000000 0.000000 1.764880 
# 
# From -- ./inp_files/15660.got.cif
#   From: 2010.06.25/outbox.cif.g09.slc.cpg/sg58_8_cif.got.tgz:15660.got - 2010.06.26 21:38:00.
