data_PCOD8238351
_publ_section_title
;
Structure prediction by ZEFSAII (Michael W. Deem and Ramdas Pophale) SiO2 
 PCOD8238351
Probable space group: P N N M
;
_chemical_formula_sum "Si O2"
_cell_formula_units_Z 64
_cell_length_a 24.656869
_cell_length_b 14.423002
_cell_length_c 8.801654
_cell_angle_alpha 90.000000
_cell_angle_beta 90.000000
_cell_angle_gamma 90.000000
_cell_volume 3130.097629
_symmetry_space_group_name_H-M "P N N M"
_symmetry_group_IT_number 58
_symmetry_cell_setting 'orthorhombic'
loop_
_space_group_symop_operation_xyz
x,y,z
-x,-y,z
1/2+x,1/2-y,1/2-z
1/2-x,1/2+y,1/2-z
-x,-y,-z
x,y,-z
1/2-x,1/2+y,1/2+z
1/2+x,1/2-y,1/2+z
loop_
_atom_site_type_symbol
_atom_site_label
_atom_site_fract_x
_atom_site_fract_y
_atom_site_fract_z
Si Si1 0.140131 0.075863 0.174867
Si Si2 0.211675 0.771301 0.327160
Si Si3 0.349423 0.938019 0.674237
Si Si4 0.556816 0.951246 0.175916
Si Si5 0.232296 0.987402 0.331831
Si Si6 0.409243 0.250720 0.821261
Si Si7 0.823030 0.750850 0.322632
Si Si8 0.447280 0.447884 0.820101
O O1 0.202262 0.045105 0.201688
O O2 0.135543 0.180385 0.236148
O O3 0.104306 0.007094 0.273746
O O4 0.123462 0.070460 0.000000
O O5 0.219478 0.735851 0.500000
O O6 0.152761 0.741831 0.259051
O O7 0.260659 0.730261 0.226736
O O8 0.215069 0.881306 0.320712
O O9 0.353587 0.903897 0.500000
O O10 0.344904 0.850309 0.783546
O O11 0.400425 0.999277 0.717112
O O12 0.296167 0.000715 0.697222
O O13 0.556157 0.841590 0.218944
O O14 0.500000 0.000000 0.210826
O O15 0.573155 0.963505 0.000000
O O16 0.216927 0.025410 0.500000
O O17 0.440269 0.342226 0.755717
O O18 0.403703 0.264960 0.000000
O O19 0.827994 0.767812 0.500000
O O20 0.500000 0.500000 0.750607
O O21 0.451865 0.444783 0.000000
#
# Coordination Sequence:
#
# PCOD8238351 Si02
#       8
#     8   8   8   8   8   8   8   8
#     4  12  24  37  57  88 127 164 202 249 308 367
#     4   9  17  34  58  84 119 157 200 252 307 359
#     4  10  22  41  62  87 120 158 205 259 314 365
#     4  10  22  39  61  90 124 164 213 260 306 364
#     4   9  18  35  58  84 118 155 195 248 305 367
#     4   9  18  36  60  87 119 157 201 255 305 356
#     4  11  23  38  59  88 125 163 206 250 304 376
#     4  10  21  40  65  90 120 165 215 256 306 365
#
# _framework density 20.446646000000001
#
# number of rings (size 3 to 8) (size 9 to 14) (size 15 to 20)
#    0.000    2.000    1.250    3.375    1.750    4.000 
#    0.000    3.125    0.000    0.000    0.000    0.000 
#    0.000    0.000    0.000    0.000    0.000    0.000 
#
# Total GULP energy -793481.468580 kJ/mol
# GULP energy per Si atom -12398.147947 kJ/mol
# Density = 2.040011 g / cm^3
# Si number density = 20.446646 Si / 1000 Ang^3
#
#
#
# Elastic Constant Matrix: (Units=GPa)
#
#
# Indices 1 2 3 4 5 6 
#
# 1 98.2626 56.5184 15.7806 0.0000 0.0000 0.0000
# 2 56.5184 105.8551 8.5685 0.0000 0.0000 0.0000
# 3 15.7806 8.5685 32.3507 0.0000 0.0000 0.0000
# 4 0.0000 0.0000 0.0000 20.5350 0.0000 0.0000
# 5 0.0000 0.0000 0.0000 0.0000 25.4169 0.0000
# 6 0.0000 0.0000 0.0000 0.0000 0.0000 30.9001
#
#
#
# Elastic Compliance Matrix: (Units=1/GPa)
#
#
# Indices 1 2 3 4 5 6 
#
# 1 0.015596 -0.007880 -0.005520 0.000000 0.000000 0.000000
# 2 -0.007880 0.013635 0.000232 0.000000 0.000000 0.000000
# 3 -0.005520 0.000232 0.033543 0.000000 0.000000 0.000000
# 4 0.000000 0.000000 0.000000 0.048697 0.000000 0.000000
# 5 0.000000 0.000000 0.000000 0.000000 0.039344 0.000000
# 6 0.000000 0.000000 0.000000 0.000000 0.000000 0.032362
#
#
# Mechanical properties :
#
#
# Convention : Reuss Voigt Hill
#
# Bulk Modulus (GPa) = 27.44430 44.24482 35.84456
# Shear Modulus (GPa) = 22.55712 25.74381 24.15046
#
# Velocity S-wave (km/s) = 3.32508 3.55219 3.44051
# Velocity P-wave (km/s) = 5.30971 6.20566 5.77509
#
# Compressibility (1/GPa) = 0.03643744
#
# Stress axis : x y z
#
# Youngs Moduli (GPa) = 64.11972 73.33835 29.81288
#
# Poissons Ratio (x) = 0.57791 0.16458
# Poissons Ratio (y) = 0.50527 -0.00693
# Poissons Ratio (z) = 0.35397 -0.01704
#
# Static dielectric constant tensor:
#      x y z
#    x 3.778970 0.000000 0.000000 
#    y 0.000000 3.860970 0.000000 
#    z 0.000000 0.000000 3.416280 
# 
# 
# High freq. dielectric constant tensor:
#      x y z
#    x 1.792030 0.000000 0.000000 
#    y 0.000000 1.808270 0.000000 
#    z 0.000000 0.000000 1.774430 
# 
# From -- ./inp_files/10085.got.cif
#   From: 2010.06.25/outbox.cif.g09.slc.cpg/sg58_6_cif.got.tgz:10085.got - 2010.06.26 21:38:00.
