data_PCOD8238569
_publ_section_title
;
Structure prediction by ZEFSAII (Michael W. Deem and Ramdas Pophale) SiO2 
 PCOD8238569
Probable space group: P N N M
;
_chemical_formula_sum "Si O2"
_cell_formula_units_Z 32
_cell_length_a 19.852224
_cell_length_b 10.274412
_cell_length_c 7.731428
_cell_angle_alpha 90.000000
_cell_angle_beta 90.000000
_cell_angle_gamma 90.000000
_cell_volume 1576.978816
_symmetry_space_group_name_H-M "P N N M"
_symmetry_group_IT_number 58
_symmetry_cell_setting 'orthorhombic'
loop_
_space_group_symop_operation_xyz
x,y,z
-x,-y,z
1/2+x,1/2-y,1/2-z
1/2-x,1/2+y,1/2-z
-x,-y,-z
x,y,-z
1/2-x,1/2+y,1/2+z
1/2+x,1/2-y,1/2+z
loop_
_atom_site_type_symbol
_atom_site_label
_atom_site_fract_x
_atom_site_fract_y
_atom_site_fract_z
Si Si1 0.964626 0.136574 0.308721
Si Si2 0.290971 0.087416 0.194993
Si Si3 0.613055 0.989182 0.500000
Si Si4 0.189212 0.878990 0.299037
Si Si5 0.488561 0.798281 0.500000
O O1 0.963960 0.203004 0.500000
O O2 0.888326 0.125050 0.238582
O O3 0.009092 0.216602 0.175202
O O4 0.000000 0.000000 0.324516
O O5 0.344541 0.028013 0.326381
O O6 0.224366 0.997986 0.198564
O O7 0.276229 0.238848 0.244613
O O8 0.320856 0.084574 0.000000
O O9 0.584319 0.134775 0.500000
O O10 0.550888 0.893949 0.500000
O O11 0.195507 0.912557 0.500000
#
# Coordination Sequence:
#
# PCOD8238569 Si02
#       5
#     8   8   4   8   4
#     4  10  22  41  64  93 129 168 211 260 314 378
#     4  11  24  41  65  92 127 167 208 265 323 376
#     4  11  24  42  62  96 123 164 213 259 315 378
#     4  10  22  41  64  94 127 165 213 259 313 380
#     4  11  23  40  68  88 129 169 207 262 309 382
#
# _framework density 20.291964
#
# number of rings (size 3 to 8) (size 9 to 14) (size 15 to 20)
#    0.000    1.500    3.750    0.375    3.500    3.000 
#    0.000    5.000    0.000    0.000    0.000    0.000 
#    0.000    0.000    0.000    0.000    0.000    0.000 
#
# Total GULP energy -396767.885920 kJ/mol
# GULP energy per Si atom -12398.996435 kJ/mol
# Density = 2.024578 g / cm^3
# Si number density = 20.291964 Si / 1000 Ang^3
#
#
#
# Elastic Constant Matrix: (Units=GPa)
#
#
# Indices 1 2 3 4 5 6 
#
# 1 52.5917 42.8656 24.4695 0.0000 0.0000 0.0000
# 2 42.8656 113.3043 35.4684 0.0000 0.0000 0.0000
# 3 24.4695 35.4684 106.0947 0.0000 0.0000 0.0000
# 4 0.0000 0.0000 0.0000 31.8747 0.0000 0.0000
# 5 0.0000 0.0000 0.0000 0.0000 15.4820 0.0000
# 6 0.0000 0.0000 0.0000 0.0000 0.0000 40.9739
#
#
#
# Elastic Compliance Matrix: (Units=1/GPa)
#
#
# Indices 1 2 3 4 5 6 
#
# 1 0.028499 -0.009744 -0.003315 0.000000 0.000000 0.000000
# 2 -0.009744 0.013189 -0.002162 0.000000 0.000000 0.000000
# 3 -0.003315 -0.002162 0.010913 0.000000 0.000000 0.000000
# 4 0.000000 0.000000 0.000000 0.031373 0.000000 0.000000
# 5 0.000000 0.000000 0.000000 0.000000 0.064591 0.000000
# 6 0.000000 0.000000 0.000000 0.000000 0.000000 0.024406
#
#
# Mechanical properties :
#
#
# Convention : Reuss Voigt Hill
#
# Bulk Modulus (GPa) = 45.12983 53.06640 49.09811
# Shear Modulus (GPa) = 23.71924 28.94525 26.33225
#
# Velocity S-wave (km/s) = 3.42262 3.78092 3.60623
# Velocity P-wave (km/s) = 6.15692 6.72820 6.44889
#
# Compressibility (1/GPa) = 0.02215829
#
# Stress axis : x y z
#
# Youngs Moduli (GPa) = 35.08899 75.82135 91.63438
#
# Poissons Ratio (x) = 0.73880 0.30381
# Poissons Ratio (y) = 0.34191 0.19810
# Poissons Ratio (z) = 0.11634 0.16391
#
# Static dielectric constant tensor:
#      x y z
#    x 3.735680 0.000000 0.000000 
#    y 0.000000 3.866040 0.000000 
#    z 0.000000 0.000000 4.258650 
# 
# 
# High freq. dielectric constant tensor:
#      x y z
#    x 1.782520 0.000000 0.000000 
#    y 0.000000 1.794970 0.000000 
#    z 0.000000 0.000000 1.805360 
# 
# From -- ./inp_files/2202.got.cif
#   From: 2010.06.25/outbox.cif.g09.slc.cpg/sg58_2_cif.got.tgz:2202.got - 2010.06.26 21:38:00.
