data_PCOD8238123
_publ_section_title
;
Structure prediction by ZEFSAII (Michael W. Deem and Ramdas Pophale) SiO2 
 PCOD8238123
Probable space group: P N N M
;
_chemical_formula_sum "Si O2"
_cell_formula_units_Z 64
_cell_length_a 13.273739
_cell_length_b 17.426734
_cell_length_c 14.277732
_cell_angle_alpha 90.000000
_cell_angle_beta 90.000000
_cell_angle_gamma 90.000000
_cell_volume 3302.695251
_symmetry_space_group_name_H-M "P N N M"
_symmetry_group_IT_number 58
_symmetry_cell_setting 'orthorhombic'
loop_
_space_group_symop_operation_xyz
x,y,z
-x,-y,z
1/2+x,1/2-y,1/2-z
1/2-x,1/2+y,1/2-z
-x,-y,-z
x,y,-z
1/2-x,1/2+y,1/2+z
1/2+x,1/2-y,1/2+z
loop_
_atom_site_type_symbol
_atom_site_label
_atom_site_fract_x
_atom_site_fract_y
_atom_site_fract_z
Si Si1 0.308611 0.496088 0.108450
Si Si2 0.890016 0.523875 0.216675
Si Si3 0.185025 0.166295 0.105642
Si Si4 0.615606 0.662030 0.183114
Si Si5 0.828091 0.695289 0.237901
Si Si6 0.977478 0.713859 0.605376
Si Si7 0.441366 0.572456 0.739168
Si Si8 0.384678 0.079275 0.104761
O O1 0.195890 0.508823 0.147809
O O2 0.345621 0.408200 0.118796
O O3 0.384130 0.552275 0.163893
O O4 0.311205 0.519662 0.000000
O O5 0.882667 0.615440 0.216354
O O6 0.873198 0.489032 0.320766
O O7 0.000000 0.500000 0.177886
O O8 0.158181 0.248209 0.150153
O O9 0.133890 0.095815 0.158369
O O10 0.302167 0.146262 0.112670
O O11 0.145477 0.169584 0.000000
O O12 0.707638 0.685698 0.252304
O O13 0.575153 0.731916 0.120667
O O14 0.521213 0.639844 0.246641
O O15 0.881573 0.732835 0.328552
O O16 0.939259 0.726037 0.500000
O O17 0.010964 0.625192 0.621988
O O18 0.500000 0.500000 0.698967
O O19 0.382319 0.042665 0.000000
#
# Coordination Sequence:
#
# PCOD8238123 Si02
#       8
#     8   8   8   8   8   8   8   8
#     4  10  22  38  58  89 124 160 207 258 306 361
#     4  11  22  38  61  88 127 167 200 249 312 373
#     4  11  22  40  64  89 119 160 206 252 303 370
#     4  10  21  37  61  87 122 158 203 253 303 363
#     4  11  23  38  60  91 126 155 201 259 307 368
#     4  11  21  36  62  90 118 159 204 251 309 368
#     4  10  21  39  63  89 119 158 207 255 306 358
#     4  10  21  38  63  89 115 156 209 254 301 361
#
# _framework density 19.378114
#
# number of rings (size 3 to 8) (size 9 to 14) (size 15 to 20)
#    0.000    1.500    5.000    0.375    0.000    6.000 
#    0.000    0.625    0.000    0.000    0.000    0.000 
#    0.000    0.000    0.000    0.000    0.000    0.000 
#
# Total GULP energy -793406.678864 kJ/mol
# GULP energy per Si atom -12396.979357 kJ/mol
# Density = 1.933401 g / cm^3
# Si number density = 19.378114 Si / 1000 Ang^3
#
#
#
# Elastic Constant Matrix: (Units=GPa)
#
#
# Indices 1 2 3 4 5 6 
#
# 1 121.9115 34.0696 60.1798 0.0000 0.0000 0.0000
# 2 34.0696 89.6188 49.6314 0.0000 0.0000 0.0000
# 3 60.1798 49.6314 136.0564 0.0000 0.0000 0.0000
# 4 0.0000 0.0000 0.0000 24.9906 0.0000 0.0000
# 5 0.0000 0.0000 0.0000 0.0000 16.2918 0.0000
# 6 0.0000 0.0000 0.0000 0.0000 0.0000 33.1044
#
#
#
# Elastic Compliance Matrix: (Units=1/GPa)
#
#
# Indices 1 2 3 4 5 6 
#
# 1 0.010725 -0.001817 -0.004081 0.000000 0.000000 0.000000
# 2 -0.001817 0.014291 -0.004409 0.000000 0.000000 0.000000
# 3 -0.004081 -0.004409 0.010763 0.000000 0.000000 0.000000
# 4 0.000000 0.000000 0.000000 0.040015 0.000000 0.000000
# 5 0.000000 0.000000 0.000000 0.000000 0.061380 0.000000
# 6 0.000000 0.000000 0.000000 0.000000 0.000000 0.030207
#
#
# Mechanical properties :
#
#
# Convention : Reuss Voigt Hill
#
# Bulk Modulus (GPa) = 65.94355 70.59425 68.26890
# Shear Modulus (GPa) = 25.89968 28.45776 27.17872
#
# Velocity S-wave (km/s) = 3.65984 3.83633 3.74912
# Velocity P-wave (km/s) = 7.20854 7.49214 7.35171
#
# Compressibility (1/GPa) = 0.01516448
#
# Stress axis : x y z
#
# Youngs Moduli (GPa) = 93.23998 69.97332 92.90690
#
# Poissons Ratio (x) = 0.12715 0.37915
# Poissons Ratio (y) = 0.16943 0.40967
# Poissons Ratio (z) = 0.38051 0.30854
#
# Static dielectric constant tensor:
#      x y z
#    x 3.775440 0.000000 0.000000 
#    y 0.000000 3.554860 0.000000 
#    z 0.000000 0.000000 3.323000 
# 
# 
# High freq. dielectric constant tensor:
#      x y z
#    x 1.764070 0.000000 0.000000 
#    y 0.000000 1.760360 0.000000 
#    z 0.000000 0.000000 1.732630 
# 
# From -- ./inp_files/15905.got.cif
#   From: 2010.06.25/outbox.cif.g09.slc.cpg/sg58_8_cif.got.tgz:15905.got - 2010.06.26 21:38:00.
