data_PCOD8238899
_publ_section_title
;
Structure prediction by ZEFSAII (Michael W. Deem and Ramdas Pophale) SiO2 
 PCOD8238899
Probable space group: P N N M
;
_chemical_formula_sum "Si O2"
_cell_formula_units_Z 32
_cell_length_a 11.805921
_cell_length_b 6.975507
_cell_length_c 16.973942
_cell_angle_alpha 90.000000
_cell_angle_beta 90.000000
_cell_angle_gamma 90.000000
_cell_volume 1397.842902
_symmetry_space_group_name_H-M "P N N M"
_symmetry_group_IT_number 58
_symmetry_cell_setting 'orthorhombic'
loop_
_space_group_symop_operation_xyz
x,y,z
-x,-y,z
1/2+x,1/2-y,1/2-z
1/2-x,1/2+y,1/2-z
-x,-y,-z
x,y,-z
1/2-x,1/2+y,1/2+z
1/2+x,1/2-y,1/2+z
loop_
_atom_site_type_symbol
_atom_site_label
_atom_site_fract_x
_atom_site_fract_y
_atom_site_fract_z
Si Si1 0.746138 0.124837 0.673977
Si Si2 0.709418 0.690174 0.352809
Si Si3 0.114744 0.586037 0.588592
Si Si4 0.528469 0.222755 0.589877
O O1 0.756230 0.109211 0.767455
O O2 0.857330 0.228649 0.641035
O O3 0.638672 0.254270 0.645262
O O4 0.737759 0.913802 0.638122
O O5 0.787134 0.574330 0.413272
O O6 0.577249 0.655358 0.375016
O O7 0.093304 0.657006 0.500000
O O8 0.000000 0.500000 0.625588
O O9 0.554030 0.287895 0.500000
O O10 0.500000 0.000000 0.592087
#
# Coordination Sequence:
#
# PCOD8238899 Si02
#       4
#     8   8   8   8
#     4  11  23  41  68  98 131 172 217 275 333 395
#     4  11  23  41  68  98 131 172 217 275 333 395
#     4  11  26  45  65  93 135 179 223 271 328 396
#     4   9  20  39  65  95 128 164 215 273 330 390
#
# _framework density 22.892416000000001
#
# number of rings (size 3 to 8) (size 9 to 14) (size 15 to 20)
#    0.000    1.500    2.500    1.500    3.500    5.000 
#    0.000    5.000    0.000    0.000    0.000    0.000 
#    0.000    0.000    0.000    0.000    0.000    0.000 
#
# Total GULP energy -396956.968165 kJ/mol
# GULP energy per Si atom -12404.905255 kJ/mol
# Density = 2.284031 g / cm^3
# Si number density = 22.892416 Si / 1000 Ang^3
#
#
#
# Elastic Constant Matrix: (Units=GPa)
#
#
# Indices 1 2 3 4 5 6 
#
# 1 106.1609 1.0078 34.5312 0.0000 0.0000 0.0000
# 2 1.0078 26.9912 -13.9781 0.0000 0.0000 0.0000
# 3 34.5312 -13.9781 108.6740 0.0000 0.0000 0.0000
# 4 0.0000 0.0000 0.0000 25.1883 0.0000 0.0000
# 5 0.0000 0.0000 0.0000 0.0000 44.3382 0.0000
# 6 0.0000 0.0000 0.0000 0.0000 0.0000 36.9833
#
#
#
# Elastic Compliance Matrix: (Units=1/GPa)
#
#
# Indices 1 2 3 4 5 6 
#
# 1 0.010637 -0.002301 -0.003676 0.000000 0.000000 0.000000
# 2 -0.002301 0.040191 0.005901 0.000000 0.000000 0.000000
# 3 -0.003676 0.005901 0.011129 0.000000 0.000000 0.000000
# 4 0.000000 0.000000 0.000000 0.039701 0.000000 0.000000
# 5 0.000000 0.000000 0.000000 0.000000 0.022554 0.000000
# 6 0.000000 0.000000 0.000000 0.000000 0.000000 0.027039
#
#
# Mechanical properties :
#
#
# Convention : Reuss Voigt Hill
#
# Bulk Modulus (GPa) = 16.18007 31.66088 23.92047
# Shear Modulus (GPa) = 29.06899 35.98631 32.52765
#
# Velocity S-wave (km/s) = 3.56730 3.96912 3.77356
# Velocity P-wave (km/s) = 4.90416 5.90470 5.42753
#
# Compressibility (1/GPa) = 0.06180445
#
# Stress axis : x y z
#
# Youngs Moduli (GPa) = 94.00988 24.88134 89.85689
#
# Poissons Ratio (x) = 0.05725 0.33031
# Poissons Ratio (y) = 0.21630 -0.53021
# Poissons Ratio (z) = 0.34557 -0.14681
#
# Static dielectric constant tensor:
#      x y z
#    x 4.354830 0.000000 0.000000 
#    y 0.000000 4.054260 0.000000 
#    z 0.000000 0.000000 3.934420 
# 
# 
# High freq. dielectric constant tensor:
#      x y z
#    x 1.906500 0.000000 0.000000 
#    y 0.000000 1.915590 0.000000 
#    z 0.000000 0.000000 1.899170 
# 
# From -- ./inp_files/19189.got.cif
#   From: 2010.06.25/outbox.cif.g09.slc.cpg/sg58_10_cif.got.tgz:19189.got - 2010.06.26 21:38:00.
