data_PCOD8238023
_publ_section_title
;
Structure prediction by ZEFSAII (Michael W. Deem and Ramdas Pophale) SiO2 
 PCOD8238023
Probable space group: P N N M
;
_chemical_formula_sum "Si O2"
_cell_formula_units_Z 64
_cell_length_a 20.029027
_cell_length_b 19.976009
_cell_length_c 8.950157
_cell_angle_alpha 90.000000
_cell_angle_beta 90.000000
_cell_angle_gamma 90.000000
_cell_volume 3580.958027
_symmetry_space_group_name_H-M "P N N M"
_symmetry_group_IT_number 58
_symmetry_cell_setting 'orthorhombic'
loop_
_space_group_symop_operation_xyz
x,y,z
-x,-y,z
1/2+x,1/2-y,1/2-z
1/2-x,1/2+y,1/2-z
-x,-y,-z
x,y,-z
1/2-x,1/2+y,1/2+z
1/2+x,1/2-y,1/2+z
loop_
_atom_site_type_symbol
_atom_site_label
_atom_site_fract_x
_atom_site_fract_y
_atom_site_fract_z
Si Si1 0.925798 0.173503 0.822784
Si Si2 0.576206 0.324800 0.675421
Si Si3 0.825111 0.925177 0.670921
Si Si4 0.919838 0.673784 0.823802
Si Si5 0.673139 0.933734 0.675292
Si Si6 0.571537 0.823856 0.675752
Si Si7 0.319996 0.422116 0.824239
Si Si8 0.818889 0.573979 0.323167
O O1 0.910443 0.249251 0.768464
O O2 0.878584 0.124729 0.731980
O O3 0.001407 0.155547 0.774531
O O4 0.914842 0.164907 0.000000
O O5 0.578350 0.325739 0.500000
O O6 0.628989 0.377591 0.733001
O O7 0.594816 0.249906 0.727532
O O8 0.843159 0.912019 0.500000
O O9 0.748059 0.907863 0.704001
O O10 0.839602 0.001799 0.715415
O O11 0.873929 0.627100 0.724692
O O12 0.996223 0.655880 0.782363
O O13 0.906335 0.663182 0.000000
O O14 0.661571 0.947790 0.500000
O O15 0.623056 0.878020 0.742491
O O16 0.658993 0.002047 0.761805
O O17 0.579584 0.823081 0.500000
O O18 0.251649 0.402179 0.743059
O O19 0.308569 0.413531 0.000000
O O20 0.813291 0.571020 0.500000
#
# Coordination Sequence:
#
# PCOD8238023 Si02
#       8
#     8   8   8   8   8   8   8   8
#     4   9  18  34  54  79 106 134 170 212 253 299
#     4   9  19  34  53  76 105 137 171 210 253 300
#     4   9  19  33  50  73 103 134 171 215 255 300
#     4   9  18  35  55  76 103 137 173 209 249 303
#     4   9  18  35  55  75 100 134 172 211 253 304
#     4   8  16  33  57  78 101 136 175 208 248 304
#     4  10  21  37  54  75 102 135 172 211 254 306
#     4  11  22  35  52  76 104 135 169 212 258 302
#
# _framework density 17.872312000000001
#
# number of rings (size 3 to 8) (size 9 to 14) (size 15 to 20)
#    0.000    2.750    0.000    3.750    0.000    5.500 
#    0.000    9.375    0.000    0.000    0.000    0.000 
#    0.000    0.000    0.000    0.000    0.000    0.000 
#
# Total GULP energy -793511.090290 kJ/mol
# GULP energy per Si atom -12398.610786 kJ/mol
# Density = 1.783163 g / cm^3
# Si number density = 17.872312 Si / 1000 Ang^3
#
#
#
# Elastic Constant Matrix: (Units=GPa)
#
#
# Indices 1 2 3 4 5 6 
#
# 1 110.1767 77.8458 30.2749 0.0000 0.0000 0.0000
# 2 77.8458 98.8378 30.3244 0.0000 0.0000 0.0000
# 3 30.2749 30.3244 45.6485 0.0000 0.0000 0.0000
# 4 0.0000 0.0000 0.0000 25.7417 0.0000 0.0000
# 5 0.0000 0.0000 0.0000 0.0000 30.7442 0.0000
# 6 0.0000 0.0000 0.0000 0.0000 0.0000 34.7648
#
#
#
# Elastic Compliance Matrix: (Units=1/GPa)
#
#
# Indices 1 2 3 4 5 6 
#
# 1 0.020947 -0.015368 -0.003683 0.000000 0.000000 0.000000
# 2 -0.015368 0.023982 -0.005739 0.000000 0.000000 0.000000
# 3 -0.003683 -0.005739 0.028162 0.000000 0.000000 0.000000
# 4 0.000000 0.000000 0.000000 0.038847 0.000000 0.000000
# 5 0.000000 0.000000 0.000000 0.000000 0.032527 0.000000
# 6 0.000000 0.000000 0.000000 0.000000 0.000000 0.028765
#
#
# Mechanical properties :
#
#
# Convention : Reuss Voigt Hill
#
# Bulk Modulus (GPa) = 42.53489 59.06148 50.79819
# Shear Modulus (GPa) = 21.67817 25.99800 23.83808
#
# Velocity S-wave (km/s) = 3.48652 3.81813 3.65608
# Velocity P-wave (km/s) = 6.32920 7.24952 6.80494
#
# Compressibility (1/GPa) = 0.02351011
#
# Stress axis : x y z
#
# Youngs Moduli (GPa) = 47.74061 41.69756 35.50879
#
# Poissons Ratio (x) = 0.64079 0.13079
# Poissons Ratio (y) = 0.73366 0.20380
# Poissons Ratio (z) = 0.17584 0.23932
#
# Static dielectric constant tensor:
#      x y z
#    x 3.631080 0.000000 0.000000 
#    y 0.000000 3.650430 0.000000 
#    z 0.000000 0.000000 3.086060 
# 
# 
# High freq. dielectric constant tensor:
#      x y z
#    x 1.697650 0.000000 0.000000 
#    y 0.000000 1.696610 0.000000 
#    z 0.000000 0.000000 1.674740 
# 
# From -- ./inp_files/8404.got.cif
#   From: 2010.06.25/outbox.cif.g09.slc.cpg/sg58_5_cif.got.tgz:8404.got - 2010.06.26 21:38:00.
