data_PCOD8238940
_publ_section_title
;
Structure prediction by ZEFSAII (Michael W. Deem and Ramdas Pophale) SiO2 
 PCOD8238940
Probable space group: P N N M
;
_chemical_formula_sum "Si O2"
_cell_formula_units_Z 28
_cell_length_a 16.763551
_cell_length_b 7.690610
_cell_length_c 9.623079
_cell_angle_alpha 90.000000
_cell_angle_beta 90.000000
_cell_angle_gamma 90.000000
_cell_volume 1240.625946
_symmetry_space_group_name_H-M "P N N M"
_symmetry_group_IT_number 58
_symmetry_cell_setting 'orthorhombic'
loop_
_space_group_symop_operation_xyz
x,y,z
-x,-y,z
1/2+x,1/2-y,1/2-z
1/2-x,1/2+y,1/2-z
-x,-y,-z
x,y,-z
1/2-x,1/2+y,1/2+z
1/2+x,1/2-y,1/2+z
loop_
_atom_site_type_symbol
_atom_site_label
_atom_site_fract_x
_atom_site_fract_y
_atom_site_fract_z
Si Si1 0.664531 0.383133 0.153544
Si Si2 0.061698 0.646392 0.155999
Si Si3 0.000000 0.000000 0.751145
Si Si4 0.304390 0.013811 0.160952
O O1 0.575032 0.454941 0.154903
O O2 0.661590 0.177972 0.181839
O O3 0.716876 0.476925 0.271167
O O4 0.700490 0.419354 0.000000
O O5 0.137056 0.647420 0.260012
O O6 0.000000 0.500000 0.207391
O O7 0.020144 0.834360 0.153570
O O8 0.091385 0.604033 0.000000
O O9 0.298595 0.068864 0.000000
#
# Coordination Sequence:
#
# PCOD8238940 Si02
#       4
#     8   8   4   8
#     4  11  25  44  68 100 138 181 230 284 344 409
#     4  11  24  44  70 101 137 177 224 279 338 402
#     4  12  24  44  72 106 136 184 226 284 340 412
#     4  11  25  45  69  99 138 182 231 284 342 410
#
# _framework density 22.569254999999998
#
# number of rings (size 3 to 8) (size 9 to 14) (size 15 to 20)
#    0.000    0.857    2.857    3.429    0.000   12.000 
#    0.000    0.000    0.000    0.000    0.000    0.000 
#    0.000    0.000    0.000    0.000    0.000    0.000 
#
# Total GULP energy -347359.539001 kJ/mol
# GULP energy per Si atom -12405.697821 kJ/mol
# Density = 2.251789 g / cm^3
# Si number density = 22.569255 Si / 1000 Ang^3
#
#
#
# Elastic Constant Matrix: (Units=GPa)
#
#
# Indices 1 2 3 4 5 6 
#
# 1 146.0233 49.8495 70.8594 0.0000 0.0000 0.0000
# 2 49.8495 117.9794 36.4619 0.0000 0.0000 0.0000
# 3 70.8594 36.4619 150.7542 0.0000 0.0000 0.0000
# 4 0.0000 0.0000 0.0000 18.9999 0.0000 0.0000
# 5 0.0000 0.0000 0.0000 0.0000 28.7636 0.0000
# 6 0.0000 0.0000 0.0000 0.0000 0.0000 42.1364
#
#
#
# Elastic Compliance Matrix: (Units=1/GPa)
#
#
# Indices 1 2 3 4 5 6 
#
# 1 0.009717 -0.002912 -0.003863 0.000000 0.000000 0.000000
# 2 -0.002912 0.010033 -0.001058 0.000000 0.000000 0.000000
# 3 -0.003863 -0.001058 0.008705 0.000000 0.000000 0.000000
# 4 0.000000 0.000000 0.000000 0.052632 0.000000 0.000000
# 5 0.000000 0.000000 0.000000 0.000000 0.034766 0.000000
# 6 0.000000 0.000000 0.000000 0.000000 0.000000 0.023732
#
#
# Mechanical properties :
#
#
# Convention : Reuss Voigt Hill
#
# Bulk Modulus (GPa) = 78.18916 81.01096 79.60006
# Shear Modulus (GPa) = 31.34517 35.15240 33.24878
#
# Velocity S-wave (km/s) = 3.73076 3.95084 3.84238
# Velocity P-wave (km/s) = 7.29914 7.53555 7.41829
#
# Compressibility (1/GPa) = 0.01278950
#
# Stress axis : x y z
#
# Youngs Moduli (GPa) = 102.91477 99.66762 114.87724
#
# Poissons Ratio (x) = 0.29021 0.44377
# Poissons Ratio (y) = 0.29966 0.12155
# Poissons Ratio (z) = 0.39756 0.10546
#
# Static dielectric constant tensor:
#      x y z
#    x 3.980750 0.000000 0.000000 
#    y 0.000000 4.093240 0.000000 
#    z 0.000000 0.000000 3.872020 
# 
# 
# High freq. dielectric constant tensor:
#      x y z
#    x 1.891150 0.000000 0.000000 
#    y 0.000000 1.901180 0.000000 
#    z 0.000000 0.000000 1.886850 
# 
# From -- ./inp_files/7321.got.cif
#   From: 2010.06.25/outbox.cif.g09.slc.cpg/sg58_4_cif.got.tgz:7321.got - 2010.06.26 21:38:00.
