data_PCOD8238995
_publ_section_title
;
Structure prediction by ZEFSAII (Michael W. Deem and Ramdas Pophale) SiO2 
 PCOD8238995
Probable space group: P N N M
;
_chemical_formula_sum "Si O2"
_cell_formula_units_Z 56
_cell_length_a 20.353522
_cell_length_b 16.308635
_cell_length_c 9.460427
_cell_angle_alpha 90.000000
_cell_angle_beta 90.000000
_cell_angle_gamma 90.000000
_cell_volume 3140.276743
_symmetry_space_group_name_H-M "P N N M"
_symmetry_group_IT_number 58
_symmetry_cell_setting 'orthorhombic'
loop_
_space_group_symop_operation_xyz
x,y,z
-x,-y,z
1/2+x,1/2-y,1/2-z
1/2-x,1/2+y,1/2-z
-x,-y,-z
x,y,-z
1/2-x,1/2+y,1/2+z
1/2+x,1/2-y,1/2+z
loop_
_atom_site_type_symbol
_atom_site_label
_atom_site_fract_x
_atom_site_fract_y
_atom_site_fract_z
Si Si1 0.193192 0.496971 0.663283
Si Si2 0.888489 0.191324 0.666926
Si Si3 0.447110 0.935475 0.831650
Si Si4 0.779179 0.315908 0.663631
Si Si5 0.181167 0.971011 0.335724
Si Si6 0.526509 0.247073 0.831685
Si Si7 0.153189 0.155258 0.665377
O O1 0.204215 0.474428 0.500000
O O2 0.125222 0.460167 0.721755
O O3 0.190759 0.594273 0.686206
O O4 0.251976 0.456269 0.750537
O O5 0.892447 0.202020 0.500000
O O6 0.832384 0.252198 0.724487
O O7 0.871283 0.098120 0.709656
O O8 0.959144 0.215588 0.732049
O O9 0.464415 0.845175 0.774092
O O10 0.500000 0.000000 0.770366
O O11 0.448826 0.937706 0.000000
O O12 0.762625 0.299378 0.500000
O O13 0.713028 0.303060 0.752111
O O14 0.199219 0.963489 0.500000
O O15 0.148918 0.058591 0.300148
O O16 0.586313 0.303757 0.779202
O O17 0.524353 0.246718 0.000000
O O18 0.164385 0.171380 0.500000
#
# Coordination Sequence:
#
# PCOD8238995 Si02
#       7
#     8   8   8   8   8   8   8
#     4   9  17  29  47  70  92 117 152 191 231 273
#     4   9  17  29  46  67  92 123 157 190 228 275
#     4   9  16  26  43  68  96 120 147 190 238 277
#     4   9  17  30  48  68  92 122 155 190 227 274
#     4   9  18  31  46  67  93 122 155 188 228 274
#     4   9  17  28  44  68  94 120 153 193 234 273
#     4   9  18  31  47  69  95 121 151 193 237 273
#
# _framework density 17.832823999999999
#
# number of rings (size 3 to 8) (size 9 to 14) (size 15 to 20)
#    0.000    3.000    0.000    0.857    2.000    4.000 
#    0.000    2.857    0.000    2.143    0.000    4.000 
#    0.000    0.000    0.000    0.000    0.000    0.000 
#
# Total GULP energy -694371.125953 kJ/mol
# GULP energy per Si atom -12399.484392 kJ/mol
# Density = 1.779224 g / cm^3
# Si number density = 17.832824 Si / 1000 Ang^3
#
#
#
# Elastic Constant Matrix: (Units=GPa)
#
#
# Indices 1 2 3 4 5 6 
#
# 1 187.7351 102.2209 36.7826 0.0000 0.0000 0.0000
# 2 102.2209 121.6158 23.8048 0.0000 0.0000 0.0000
# 3 36.7826 23.8048 24.4146 0.0000 0.0000 0.0000
# 4 0.0000 0.0000 0.0000 13.4624 0.0000 0.0000
# 5 0.0000 0.0000 0.0000 0.0000 23.6926 0.0000
# 6 0.0000 0.0000 0.0000 0.0000 0.0000 37.3102
#
#
#
# Elastic Compliance Matrix: (Units=1/GPa)
#
#
# Indices 1 2 3 4 5 6 
#
# 1 0.011419 -0.007700 -0.009696 0.000000 0.000000 0.000000
# 2 -0.007700 0.015354 -0.003370 0.000000 0.000000 0.000000
# 3 -0.009696 -0.003370 0.058853 0.000000 0.000000 0.000000
# 4 0.000000 0.000000 0.000000 0.074281 0.000000 0.000000
# 5 0.000000 0.000000 0.000000 0.000000 0.042207 0.000000
# 6 0.000000 0.000000 0.000000 0.000000 0.000000 0.026802
#
#
# Mechanical properties :
#
#
# Convention : Reuss Voigt Hill
#
# Bulk Modulus (GPa) = 22.67888 73.26467 47.97177
# Shear Modulus (GPa) = 17.53483 26.29018 21.91251
#
# Velocity S-wave (km/s) = 3.13915 3.84377 3.50919
# Velocity P-wave (km/s) = 5.08764 7.80210 6.58623
#
# Compressibility (1/GPa) = 0.04409389
#
# Stress axis : x y z
#
# Youngs Moduli (GPa) = 87.57315 65.12806 16.99162
#
# Poissons Ratio (x) = 0.50149 0.16475
# Poissons Ratio (y) = 0.67432 0.05726
# Poissons Ratio (z) = 0.84910 0.21948
#
# Static dielectric constant tensor:
#      x y z
#    x 3.496750 0.000000 0.000000 
#    y 0.000000 3.438550 0.000000 
#    z 0.000000 0.000000 2.849980 
# 
# 
# High freq. dielectric constant tensor:
#      x y z
#    x 1.697830 0.000000 0.000000 
#    y 0.000000 1.701170 0.000000 
#    z 0.000000 0.000000 1.633410 
# 
# From -- ./inp_files/16570.got.cif
#   From: 2010.06.25/outbox.cif.g09.slc.cpg/sg58_9_cif.got.tgz:16570.got - 2010.06.26 21:38:00.
