data_PCOD8238073
_publ_section_title
;
Structure prediction by ZEFSAII (Michael W. Deem and Ramdas Pophale) SiO2 
 PCOD8238073
Probable space group: P N N M
;
_chemical_formula_sum "Si O2"
_cell_formula_units_Z 56
_cell_length_a 15.951942
_cell_length_b 19.444027
_cell_length_c 9.214917
_cell_angle_alpha 90.000000
_cell_angle_beta 90.000000
_cell_angle_gamma 90.000000
_cell_volume 2858.190722
_symmetry_space_group_name_H-M "P N N M"
_symmetry_group_IT_number 58
_symmetry_cell_setting 'orthorhombic'
loop_
_space_group_symop_operation_xyz
x,y,z
-x,-y,z
1/2+x,1/2-y,1/2-z
1/2-x,1/2+y,1/2-z
-x,-y,-z
x,y,-z
1/2-x,1/2+y,1/2+z
1/2+x,1/2-y,1/2+z
loop_
_atom_site_type_symbol
_atom_site_label
_atom_site_fract_x
_atom_site_fract_y
_atom_site_fract_z
Si Si1 0.101853 0.540760 0.159978
Si Si2 0.528729 0.840397 0.829439
Si Si3 0.717328 0.617055 0.332805
Si Si4 0.595177 0.495290 0.330090
Si Si5 0.326190 0.226988 0.331281
Si Si6 0.220937 0.096794 0.664082
Si Si7 0.617509 0.112068 0.663415
O O1 0.063031 0.584007 0.291118
O O2 0.202691 0.542968 0.178045
O O3 0.069840 0.462022 0.164556
O O4 0.080078 0.572974 0.000000
O O5 0.589695 0.783868 0.761392
O O6 0.436221 0.833592 0.757636
O O7 0.521266 0.829755 0.000000
O O8 0.742941 0.607200 0.500000
O O9 0.639032 0.568256 0.293420
O O10 0.699425 0.695971 0.296776
O O11 0.793686 0.596193 0.232621
O O12 0.500000 0.500000 0.270470
O O13 0.594847 0.480234 0.500000
O O14 0.643649 0.430686 0.259476
O O15 0.347560 0.215519 0.500000
O O16 0.253456 0.172751 0.284204
O O17 0.187705 0.101786 0.500000
O O18 0.627755 0.140021 0.500000
#
# Coordination Sequence:
#
# PCOD8238073 Si02
#       7
#     8   8   8   8   8   8   8
#     4   9  18  33  54  80 112 147 182 223 279 342
#     4  11  22  34  53  83 115 147 190 234 279 338
#     4  10  21  39  61  82 114 154 193 243 297 345
#     4  10  21  37  58  86 117 148 188 242 296 346
#     4   9  20  40  60  79 113 156 194 235 296 356
#     4   9  17  34  58  82 107 144 190 233 280 343
#     4  11  21  35  56  82 114 148 186 230 286 350
#
# _framework density 19.592814000000001
#
# number of rings (size 3 to 8) (size 9 to 14) (size 15 to 20)
#    0.000    2.143    1.429    3.000    0.000    6.000 
#    2.571    0.000    0.000    0.000    0.000    0.000 
#    0.000    0.000    0.000    0.000    0.000    0.000 
#
# Total GULP energy -694237.510033 kJ/mol
# GULP energy per Si atom -12397.098393 kJ/mol
# Density = 1.954822 g / cm^3
# Si number density = 19.592814 Si / 1000 Ang^3
#
#
#
# Elastic Constant Matrix: (Units=GPa)
#
#
# Indices 1 2 3 4 5 6 
#
# 1 96.9539 28.3135 46.1583 0.0000 0.0000 0.0000
# 2 28.3135 91.5283 31.5354 0.0000 0.0000 0.0000
# 3 46.1583 31.5354 90.6711 0.0000 0.0000 0.0000
# 4 0.0000 0.0000 0.0000 21.7151 0.0000 0.0000
# 5 0.0000 0.0000 0.0000 0.0000 29.4440 0.0000
# 6 0.0000 0.0000 0.0000 0.0000 0.0000 15.9616
#
#
#
# Elastic Compliance Matrix: (Units=1/GPa)
#
#
# Indices 1 2 3 4 5 6 
#
# 1 0.013968 -0.002126 -0.006372 0.000000 0.000000 0.000000
# 2 -0.002126 0.012737 -0.003348 0.000000 0.000000 0.000000
# 3 -0.006372 -0.003348 0.015437 0.000000 0.000000 0.000000
# 4 0.000000 0.000000 0.000000 0.046051 0.000000 0.000000
# 5 0.000000 0.000000 0.000000 0.000000 0.033963 0.000000
# 6 0.000000 0.000000 0.000000 0.000000 0.000000 0.062651
#
#
# Mechanical properties :
#
#
# Convention : Reuss Voigt Hill
#
# Bulk Modulus (GPa) = 54.19518 54.57419 54.38469
# Shear Modulus (GPa) = 23.29412 24.96720 24.13066
#
# Velocity S-wave (km/s) = 3.45180 3.57361 3.51323
# Velocity P-wave (km/s) = 6.60359 6.70390 6.65393
#
# Compressibility (1/GPa) = 0.01845183
#
# Stress axis : x y z
#
# Youngs Moduli (GPa) = 71.59024 78.51421 64.78020
#
# Poissons Ratio (x) = 0.16690 0.41276
# Poissons Ratio (y) = 0.15218 0.21686
# Poissons Ratio (z) = 0.45615 0.26284
#
# Static dielectric constant tensor:
#      x y z
#    x 3.613600 0.000000 0.000000 
#    y 0.000000 3.459520 0.000000 
#    z 0.000000 0.000000 3.432550 
# 
# 
# High freq. dielectric constant tensor:
#      x y z
#    x 1.765260 0.000000 0.000000 
#    y 0.000000 1.747490 0.000000 
#    z 0.000000 0.000000 1.755170 
# 
# From -- ./inp_files/6395.got.cif
#   From: 2010.06.25/outbox.cif.g09.slc.cpg/sg58_4_cif.got.tgz:6395.got - 2010.06.26 21:38:00.
