data_PCOD8238694
_publ_section_title
;
Structure prediction by ZEFSAII (Michael W. Deem and Ramdas Pophale) SiO2 
 PCOD8238694
Probable space group: P N N M
;
_chemical_formula_sum "Si O2"
_cell_formula_units_Z 48
_cell_length_a 14.778058
_cell_length_b 9.722348
_cell_length_c 16.095043
_cell_angle_alpha 90.000000
_cell_angle_beta 90.000000
_cell_angle_gamma 90.000000
_cell_volume 2312.494296
_symmetry_space_group_name_H-M "P N N M"
_symmetry_group_IT_number 58
_symmetry_cell_setting 'orthorhombic'
loop_
_space_group_symop_operation_xyz
x,y,z
-x,-y,z
1/2+x,1/2-y,1/2-z
1/2-x,1/2+y,1/2-z
-x,-y,-z
x,y,-z
1/2-x,1/2+y,1/2+z
1/2+x,1/2-y,1/2+z
loop_
_atom_site_type_symbol
_atom_site_label
_atom_site_fract_x
_atom_site_fract_y
_atom_site_fract_z
Si Si1 0.256448 0.486848 0.194330
Si Si2 0.642447 0.393748 0.500000
Si Si3 0.421663 0.609683 0.093079
Si Si4 0.434096 0.314408 0.500000
Si Si5 0.573762 0.893138 0.355775
Si Si6 0.234916 0.678014 0.653661
Si Si7 0.534454 0.850729 0.166893
O O1 0.341588 0.542932 0.144713
O O2 0.167470 0.526777 0.144593
O O3 0.255804 0.550736 0.285975
O O4 0.255523 0.321912 0.202696
O O5 0.539751 0.346004 0.500000
O O6 0.636182 0.558697 0.500000
O O7 0.694869 0.333020 0.578873
O O8 0.500000 0.500000 0.088853
O O9 0.457956 0.745739 0.137722
O O10 0.388455 0.646649 0.000000
O O11 0.412924 0.233504 0.416496
O O12 0.546053 0.834424 0.265896
O O13 0.500000 0.000000 0.390428
O O14 0.131005 0.671484 0.621342
O O15 0.500000 0.000000 0.142035
#
# Coordination Sequence:
#
# PCOD8238694 Si02
#       7
#     8   4   8   4   8   8   8
#     4  11  26  43  73 100 137 183 230 284 347 409
#     4  11  28  42  73  97 151 175 231 288 345 413
#     4  11  25  43  68 100 132 177 228 281 338 403
#     4  11  25  44  64 110 133 187 226 279 351 405
#     4  10  23  43  69  98 138 176 234 280 340 410
#     4  11  26  47  69 102 136 182 230 283 348 413
#     4  10  24  44  68  98 135 177 228 284 341 402
#
# _framework density 20.756809000000001
#
# number of rings (size 3 to 8) (size 9 to 14) (size 15 to 20)
#    0.000    1.333    1.667    1.250   17.500    0.333 
#    0.000    0.000    0.000    0.000    0.000    0.000 
#    0.000    0.000    0.000    0.000    0.000    0.000 
#
# Total GULP energy -595325.005915 kJ/mol
# GULP energy per Si atom -12402.604290 kJ/mol
# Density = 2.070957 g / cm^3
# Si number density = 20.756809 Si / 1000 Ang^3
#
#
#
# Elastic Constant Matrix: (Units=GPa)
#
#
# Indices 1 2 3 4 5 6 
#
# 1 97.4608 25.7031 27.8302 0.0000 0.0000 0.0000
# 2 25.7031 139.1870 41.5202 0.0000 0.0000 0.0000
# 3 27.8302 41.5202 66.5041 0.0000 0.0000 0.0000
# 4 0.0000 0.0000 0.0000 34.4948 0.0000 0.0000
# 5 0.0000 0.0000 0.0000 0.0000 111.5821 0.0000
# 6 0.0000 0.0000 0.0000 0.0000 0.0000 37.2061
#
#
#
# Elastic Compliance Matrix: (Units=1/GPa)
#
#
# Indices 1 2 3 4 5 6 
#
# 1 0.011737 -0.000863 -0.004373 0.000000 0.000000 0.000000
# 2 -0.000863 0.008892 -0.005191 0.000000 0.000000 0.000000
# 3 -0.004373 -0.005191 0.020107 0.000000 0.000000 0.000000
# 4 0.000000 0.000000 0.000000 0.028990 0.000000 0.000000
# 5 0.000000 0.000000 0.000000 0.000000 0.008962 0.000000
# 6 0.000000 0.000000 0.000000 0.000000 0.000000 0.026877
#
#
# Mechanical properties :
#
#
# Convention : Reuss Voigt Hill
#
# Bulk Modulus (GPa) = 50.29255 54.80655 52.54955
# Shear Modulus (GPa) = 37.58103 50.52983 44.05543
#
# Velocity S-wave (km/s) = 4.25966 4.93929 4.61201
# Velocity P-wave (km/s) = 6.96240 7.68051 7.33025
#
# Compressibility (1/GPa) = 0.01988366
#
# Stress axis : x y z
#
# Youngs Moduli (GPa) = 85.20234 112.45665 49.73358
#
# Poissons Ratio (x) = 0.09705 0.21747
# Poissons Ratio (y) = 0.07353 0.25815
# Poissons Ratio (z) = 0.37257 0.58371
#
# Static dielectric constant tensor:
#      x y z
#    x 3.958570 0.000000 0.000000 
#    y 0.000000 3.942890 0.000000 
#    z 0.000000 0.000000 3.712920 
# 
# 
# High freq. dielectric constant tensor:
#      x y z
#    x 1.830990 0.000000 0.000000 
#    y 0.000000 1.825720 0.000000 
#    z 0.000000 0.000000 1.806600 
# 
# From -- ./inp_files/25333.got.cif
#   From: 2010.06.25/outbox.cif.g09.slc.cpg/sg58_13_cif.got.tgz:25333.got - 2010.06.26 21:38:00.
