data_PCOD8238978
_publ_section_title
;
Structure prediction by ZEFSAII (Michael W. Deem and Ramdas Pophale) SiO2 
 PCOD8238978
Probable space group: P N N M
;
_chemical_formula_sum "Si O2"
_cell_formula_units_Z 48
_cell_length_a 16.672921
_cell_length_b 18.330234
_cell_length_c 9.796868
_cell_angle_alpha 90.000000
_cell_angle_beta 90.000000
_cell_angle_gamma 90.000000
_cell_volume 2994.104528
_symmetry_space_group_name_H-M "P N N M"
_symmetry_group_IT_number 58
_symmetry_cell_setting 'orthorhombic'
loop_
_space_group_symop_operation_xyz
x,y,z
-x,-y,z
1/2+x,1/2-y,1/2-z
1/2-x,1/2+y,1/2-z
-x,-y,-z
x,y,-z
1/2-x,1/2+y,1/2+z
1/2+x,1/2-y,1/2+z
loop_
_atom_site_type_symbol
_atom_site_label
_atom_site_fract_x
_atom_site_fract_y
_atom_site_fract_z
Si Si1 0.921130 0.307826 0.848187
Si Si2 0.919488 0.786499 0.849109
Si Si3 0.998453 0.584120 0.658589
Si Si4 0.518959 0.579110 0.662110
Si Si5 0.333962 0.330886 0.661064
Si Si6 0.844434 0.677319 0.341621
O O1 0.932494 0.375276 0.744891
O O2 0.853387 0.252197 0.789826
O O3 0.002227 0.262596 0.856821
O O4 0.899239 0.337601 0.000000
O O5 0.857984 0.751808 0.741907
O O6 0.945445 0.867161 0.799318
O O7 0.879625 0.789881 0.000000
O O8 0.019498 0.594644 0.500000
O O9 0.000000 0.500000 0.701406
O O10 0.910088 0.615631 0.692726
O O11 0.500000 0.500000 0.726847
O O12 0.526391 0.573140 0.500000
O O13 0.603195 0.610277 0.723379
O O14 0.347316 0.330167 0.500000
O O15 0.243272 0.353275 0.700369
O O16 0.847001 0.698899 0.500000
#
# Coordination Sequence:
#
# PCOD8238978 Si02
#       6
#     8   8   8   8   8   8
#     4   8  14  26  43  59  76 102 137 170 196 231
#     4   8  14  25  41  61  81 100 129 168 201 233
#     4   9  17  28  41  60  86 111 135 164 200 245
#     4   8  13  23  41  63  84 105 132 168 206 241
#     4   8  14  25  41  60  80 105 139 173 202 236
#     4   9  16  27  43  59  79 110 140 166 201 243
#
# _framework density 16.031504000000002
#
# number of rings (size 3 to 8) (size 9 to 14) (size 15 to 20)
#    0.000    3.667    0.000    2.000    0.000    0.333 
#    0.000    2.500    0.000    5.500    0.000    0.000 
#    0.000    0.000    0.000    0.000    0.000    0.000 
#
# Total GULP energy -594748.532932 kJ/mol
# GULP energy per Si atom -12390.594436 kJ/mol
# Density = 1.599502 g / cm^3
# Si number density = 16.031504 Si / 1000 Ang^3
#
#
#
# Elastic Constant Matrix: (Units=GPa)
#
#
# Indices 1 2 3 4 5 6 
#
# 1 80.2473 46.7021 26.6174 0.0000 0.0000 0.0000
# 2 46.7021 129.9334 40.0515 0.0000 0.0000 0.0000
# 3 26.6174 40.0515 39.0164 0.0000 0.0000 0.0000
# 4 0.0000 0.0000 0.0000 16.0407 0.0000 0.0000
# 5 0.0000 0.0000 0.0000 0.0000 14.7357 0.0000
# 6 0.0000 0.0000 0.0000 0.0000 0.0000 17.4519
#
#
#
# Elastic Compliance Matrix: (Units=1/GPa)
#
#
# Indices 1 2 3 4 5 6 
#
# 1 0.017283 -0.003771 -0.007920 0.000000 0.000000 0.000000
# 2 -0.003771 0.012082 -0.009830 0.000000 0.000000 0.000000
# 3 -0.007920 -0.009830 0.041124 0.000000 0.000000 0.000000
# 4 0.000000 0.000000 0.000000 0.062341 0.000000 0.000000
# 5 0.000000 0.000000 0.000000 0.000000 0.067862 0.000000
# 6 0.000000 0.000000 0.000000 0.000000 0.000000 0.057300
#
#
# Mechanical properties :
#
#
# Convention : Reuss Voigt Hill
#
# Bulk Modulus (GPa) = 36.43286 52.88211 44.65748
# Shear Modulus (GPa) = 16.11960 18.70074 17.41017
#
# Velocity S-wave (km/s) = 3.17439 3.41911 3.29902
# Velocity P-wave (km/s) = 6.01754 6.97460 6.51367
#
# Compressibility (1/GPa) = 0.02744775
#
# Stress axis : x y z
#
# Youngs Moduli (GPa) = 57.86062 82.77111 24.31699
#
# Poissons Ratio (x) = 0.31211 0.19258
# Poissons Ratio (y) = 0.21818 0.23903
# Poissons Ratio (z) = 0.45824 0.81360
#
# Static dielectric constant tensor:
#      x y z
#    x 3.065210 0.000000 0.000000 
#    y 0.000000 3.238080 0.000000 
#    z 0.000000 0.000000 2.944950 
# 
# 
# High freq. dielectric constant tensor:
#      x y z
#    x 1.599440 0.000000 0.000000 
#    y 0.000000 1.607960 0.000000 
#    z 0.000000 0.000000 1.582710 
# 
# From -- ./inp_files/7835.got.cif
#   From: 2010.06.25/outbox.cif.g09.slc.cpg/sg58_4_cif.got.tgz:7835.got - 2010.06.26 21:38:00.
