data_PCOD8238792
_publ_section_title
;
Structure prediction by ZEFSAII (Michael W. Deem and Ramdas Pophale) SiO2 
 PCOD8238792
Probable space group: P N N M
;
_chemical_formula_sum "Si O2"
_cell_formula_units_Z 40
_cell_length_a 18.046533
_cell_length_b 13.593666
_cell_length_c 9.098227
_cell_angle_alpha 90.000000
_cell_angle_beta 90.000000
_cell_angle_gamma 90.000000
_cell_volume 2231.963783
_symmetry_space_group_name_H-M "P N N M"
_symmetry_group_IT_number 58
_symmetry_cell_setting 'orthorhombic'
loop_
_space_group_symop_operation_xyz
x,y,z
-x,-y,z
1/2+x,1/2-y,1/2-z
1/2-x,1/2+y,1/2-z
-x,-y,-z
x,y,-z
1/2-x,1/2+y,1/2+z
1/2+x,1/2-y,1/2+z
loop_
_atom_site_type_symbol
_atom_site_label
_atom_site_fract_x
_atom_site_fract_y
_atom_site_fract_z
Si Si1 0.965240 0.099373 0.674575
Si Si2 0.970480 0.695183 0.331066
Si Si3 0.160592 0.412699 0.825711
Si Si4 0.187358 0.820940 0.325422
Si Si5 0.631567 0.887288 0.830598
O O1 0.961903 0.091808 0.500000
O O2 0.881839 0.114933 0.736263
O O3 0.015975 0.192331 0.718479
O O4 0.000000 0.000000 0.743391
O O5 0.944506 0.689601 0.500000
O O6 0.907587 0.651704 0.228568
O O7 0.044487 0.631669 0.309329
O O8 0.236152 0.364222 0.763726
O O9 0.156880 0.523394 0.769597
O O10 0.159879 0.413885 0.000000
O O11 0.184631 0.824772 0.500000
O O12 0.178107 0.707493 0.276706
O O13 0.648345 0.912519 0.000000
#
# Coordination Sequence:
#
# PCOD8238792 Si02
#       5
#     8   8   8   8   8
#     4   8  14  28  51  73  92 120 162 206 236 267
#     4   9  18  32  51  73  95 126 167 201 232 281
#     4  11  21  31  48  75 103 126 152 196 249 290
#     4   8  17  32  46  66  97 127 153 189 242 290
#     4   9  18  35  53  66  91 131 167 196 231 282
#
# _framework density 17.921437000000001
#
# number of rings (size 3 to 8) (size 9 to 14) (size 15 to 20)
#    0.000    3.000    0.000    3.600    0.000    4.800 
#    0.000    4.000    0.000    3.000    0.000    0.000 
#    0.000    0.000    0.000    0.000    0.000    0.000 
#
# Total GULP energy -495880.727749 kJ/mol
# GULP energy per Si atom -12397.018194 kJ/mol
# Density = 1.788065 g / cm^3
# Si number density = 17.921437 Si / 1000 Ang^3
#
#
#
# Elastic Constant Matrix: (Units=GPa)
#
#
# Indices 1 2 3 4 5 6 
#
# 1 125.0481 91.3996 41.1474 0.0000 0.0000 0.0000
# 2 91.3996 154.3227 40.0596 0.0000 0.0000 0.0000
# 3 41.1474 40.0596 43.2999 0.0000 0.0000 0.0000
# 4 0.0000 0.0000 0.0000 16.7667 0.0000 0.0000
# 5 0.0000 0.0000 0.0000 0.0000 19.8137 0.0000
# 6 0.0000 0.0000 0.0000 0.0000 0.0000 27.5563
#
#
#
# Elastic Compliance Matrix: (Units=1/GPa)
#
#
# Indices 1 2 3 4 5 6 
#
# 1 0.016210 -0.007372 -0.008583 0.000000 0.000000 0.000000
# 2 -0.007372 0.011881 -0.003986 0.000000 0.000000 0.000000
# 3 -0.008583 -0.003986 0.034939 0.000000 0.000000 0.000000
# 4 0.000000 0.000000 0.000000 0.059642 0.000000 0.000000
# 5 0.000000 0.000000 0.000000 0.000000 0.050470 0.000000
# 6 0.000000 0.000000 0.000000 0.000000 0.000000 0.036289
#
#
# Mechanical properties :
#
#
# Convention : Reuss Voigt Hill
#
# Bulk Modulus (GPa) = 43.20314 74.20932 58.70623
# Shear Modulus (GPa) = 19.45291 22.83160 21.14226
#
# Velocity S-wave (km/s) = 3.29820 3.57316 3.43843
# Velocity P-wave (km/s) = 6.21799 7.64992 6.97082
#
# Compressibility (1/GPa) = 0.02314647
#
# Stress axis : x y z
#
# Youngs Moduli (GPa) = 61.69047 84.16762 28.62122
#
# Poissons Ratio (x) = 0.62052 0.24567
# Poissons Ratio (y) = 0.45481 0.11408
# Poissons Ratio (z) = 0.52951 0.33549
#
# Static dielectric constant tensor:
#      x y z
#    x 3.554210 0.000000 0.000000 
#    y 0.000000 3.546940 0.000000 
#    z 0.000000 0.000000 2.867360 
# 
# 
# High freq. dielectric constant tensor:
#      x y z
#    x 1.696550 0.000000 0.000000 
#    y 0.000000 1.706370 0.000000 
#    z 0.000000 0.000000 1.650770 
# 
# From -- ./inp_files/3784.got.cif
#   From: 2010.06.25/outbox.cif.g09.slc.cpg/sg58_2_cif.got.tgz:3784.got - 2010.06.26 21:38:00.
