data_PCOD8238003
_publ_section_title
;
Structure prediction by ZEFSAII (Michael W. Deem and Ramdas Pophale) SiO2 
 PCOD8238003
Probable space group: P N N M
;
_chemical_formula_sum "Si O2"
_cell_formula_units_Z 64
_cell_length_a 19.387999
_cell_length_b 19.012815
_cell_length_c 8.616134
_cell_angle_alpha 90.000000
_cell_angle_beta 90.000000
_cell_angle_gamma 90.000000
_cell_volume 3176.083091
_symmetry_space_group_name_H-M "P N N M"
_symmetry_group_IT_number 58
_symmetry_cell_setting 'orthorhombic'
loop_
_space_group_symop_operation_xyz
x,y,z
-x,-y,z
1/2+x,1/2-y,1/2-z
1/2-x,1/2+y,1/2-z
-x,-y,-z
x,y,-z
1/2-x,1/2+y,1/2+z
1/2+x,1/2-y,1/2+z
loop_
_atom_site_type_symbol
_atom_site_label
_atom_site_fract_x
_atom_site_fract_y
_atom_site_fract_z
Si Si1 0.032018 0.803377 0.684381
Si Si2 0.672230 0.631591 0.816166
Si Si3 0.846190 0.461378 0.677752
Si Si4 0.796008 0.974362 0.317367
Si Si5 0.400551 0.900862 0.678671
Si Si6 0.616892 0.343116 0.817526
Si Si7 0.699399 0.209606 0.818667
Si Si8 0.963889 0.356036 0.321044
O O1 0.032247 0.808885 0.500000
O O2 0.097302 0.846663 0.751093
O O3 0.040605 0.723348 0.739244
O O4 0.959917 0.833091 0.753685
O O5 0.687875 0.552808 0.755896
O O6 0.729838 0.687309 0.763989
O O7 0.670906 0.632045 0.000000
O O8 0.850911 0.487087 0.500000
O O9 0.768437 0.443412 0.724161
O O10 0.873992 0.521154 0.791059
O O11 0.889439 0.390574 0.703656
O O12 0.780060 0.974347 0.500000
O O13 0.859098 0.922105 0.277560
O O14 0.387004 0.881806 0.500000
O O15 0.360114 0.846756 0.786986
O O16 0.481135 0.898394 0.718742
O O17 0.671370 0.284812 0.754138
O O18 0.611721 0.330444 0.000000
O O19 0.714974 0.212894 0.000000
O O20 0.987340 0.359649 0.500000
#
# Coordination Sequence:
#
# PCOD8238003 Si02
#       8
#     8   8   8   8   8   8   8   8
#     4   9  18  36  60  85 115 152 196 241 285 340
#     4  10  21  36  59  88 118 150 192 245 290 335
#     4  11  23  37  57  85 118 159 196 232 287 354
#     4  10  21  37  57  87 120 151 195 244 291 339
#     4  12  23  37  59  86 117 152 192 244 294 346
#     4   9  19  36  60  85 114 153 195 241 289 341
#     4  11  21  37  61  84 115 157 196 234 287 353
#     4  10  21  38  58  83 117 155 196 236 283 353
#
# _framework density 20.150607000000001
#
# number of rings (size 3 to 8) (size 9 to 14) (size 15 to 20)
#    0.000    1.750    2.500    2.250    1.750    3.000 
#    0.000    3.750    0.000    0.000    0.000    1.750 
#    0.000    0.000    0.000    0.000    0.000    0.000 
#
# Total GULP energy -793688.685632 kJ/mol
# GULP energy per Si atom -12401.385713 kJ/mol
# Density = 2.010474 g / cm^3
# Si number density = 20.150607 Si / 1000 Ang^3
#
#
#
# Elastic Constant Matrix: (Units=GPa)
#
#
# Indices 1 2 3 4 5 6 
#
# 1 151.4294 62.7198 15.8250 0.0000 0.0000 0.0000
# 2 62.7198 85.9044 12.8022 0.0000 0.0000 0.0000
# 3 15.8250 12.8022 26.6205 0.0000 0.0000 0.0000
# 4 0.0000 0.0000 0.0000 18.6910 0.0000 0.0000
# 5 0.0000 0.0000 0.0000 0.0000 23.4565 0.0000
# 6 0.0000 0.0000 0.0000 0.0000 0.0000 38.5869
#
#
#
# Elastic Compliance Matrix: (Units=1/GPa)
#
#
# Indices 1 2 3 4 5 6 
#
# 1 0.009621 -0.006649 -0.002522 0.000000 0.000000 0.000000
# 2 -0.006649 0.017134 -0.004288 0.000000 0.000000 0.000000
# 3 -0.002522 -0.004288 0.041126 0.000000 0.000000 0.000000
# 4 0.000000 0.000000 0.000000 0.053502 0.000000 0.000000
# 5 0.000000 0.000000 0.000000 0.000000 0.042632 0.000000
# 6 0.000000 0.000000 0.000000 0.000000 0.000000 0.025916
#
#
# Mechanical properties :
#
#
# Convention : Reuss Voigt Hill
#
# Bulk Modulus (GPa) = 24.41116 49.62759 37.01937
# Shear Modulus (GPa) = 21.69176 27.65401 24.67289
#
# Velocity S-wave (km/s) = 3.28454 3.70857 3.50297
# Velocity P-wave (km/s) = 5.15023 6.55894 5.89681
#
# Compressibility (1/GPa) = 0.04096487
#
# Stress axis : x y z
#
# Youngs Moduli (GPa) = 103.93880 58.36327 24.31538
#
# Poissons Ratio (x) = 0.38803 0.06132
# Poissons Ratio (y) = 0.69105 0.10426
# Poissons Ratio (z) = 0.26213 0.25024
#
# Static dielectric constant tensor:
#      x y z
#    x 3.880030 0.000000 0.000000 
#    y 0.000000 3.733140 0.000000 
#    z 0.000000 0.000000 3.312360 
# 
# 
# High freq. dielectric constant tensor:
#      x y z
#    x 1.797380 0.000000 0.000000 
#    y 0.000000 1.789350 0.000000 
#    z 0.000000 0.000000 1.752960 
# 
# From -- ./inp_files/8353.got.cif
#   From: 2010.06.25/outbox.cif.g09.slc.cpg/sg58_5_cif.got.tgz:8353.got - 2010.06.26 21:38:00.
