data_PCOD8238974
_publ_section_title
;
Structure prediction by ZEFSAII (Michael W. Deem and Ramdas Pophale) SiO2 
 PCOD8238974
Probable space group: P N N M
;
_chemical_formula_sum "Si O2"
_cell_formula_units_Z 64
_cell_length_a 20.061322
_cell_length_b 20.328286
_cell_length_c 9.882381
_cell_angle_alpha 90.000000
_cell_angle_beta 90.000000
_cell_angle_gamma 90.000000
_cell_volume 4030.156438
_symmetry_space_group_name_H-M "P N N M"
_symmetry_group_IT_number 58
_symmetry_cell_setting 'orthorhombic'
loop_
_space_group_symop_operation_xyz
x,y,z
-x,-y,z
1/2+x,1/2-y,1/2-z
1/2-x,1/2+y,1/2-z
-x,-y,-z
x,y,-z
1/2-x,1/2+y,1/2+z
1/2+x,1/2-y,1/2+z
loop_
_atom_site_type_symbol
_atom_site_label
_atom_site_fract_x
_atom_site_fract_y
_atom_site_fract_z
Si Si1 0.681910 0.509272 0.655077
Si Si2 0.275901 0.821833 0.349093
Si Si3 0.795592 0.523059 0.149903
Si Si4 0.988767 0.191006 0.839093
Si Si5 0.340427 0.337842 0.656361
Si Si6 0.441293 0.955391 0.339198
Si Si7 0.047367 0.056142 0.160330
Si Si8 0.076852 0.309957 0.161165
O O1 0.702613 0.498785 0.500000
O O2 0.745175 0.489399 0.745538
O O3 0.657546 0.583808 0.678826
O O4 0.623335 0.459889 0.699165
O O5 0.258460 0.795306 0.500000
O O6 0.283806 0.899616 0.355121
O O7 0.216883 0.802860 0.245639
O O8 0.346700 0.792409 0.297167
O O9 0.871153 0.510341 0.199638
O O10 0.784009 0.493113 0.000000
O O11 0.911374 0.191293 0.795208
O O12 0.026068 0.126715 0.779575
O O13 0.026393 0.255124 0.780151
O O14 0.993389 0.189927 0.000000
O O15 0.326115 0.320985 0.500000
O O16 0.447574 0.951570 0.500000
O O17 0.445213 0.881120 0.279886
O O18 0.500000 0.000000 0.276115
O O19 0.038048 0.056228 0.000000
O O20 0.000000 0.000000 0.223596
O O21 0.073884 0.312414 0.000000
#
# Coordination Sequence:
#
# PCOD8238974 Si02
#       8
#     8   8   8   8   8   8   8   8
#     4   9  15  23  38  59  81 104 133 164 193 230
#     4   8  14  25  40  57  78 102 131 164 195 233
#     4   8  14  24  39  59  80 102 128 162 200 235
#     4   9  15  23  38  59  80 101 131 169 201 229
#     4   9  15  23  39  62  81 100 130 167 199 229
#     4   8  13  23  41  61  77  97 131 170 203 236
#     4   9  14  22  36  56  80 104 131 164 197 227
#     4   8  14  24  39  59  78  99 132 169 199 232
#
# _framework density 15.880276
#
# number of rings (size 3 to 8) (size 9 to 14) (size 15 to 20)
#    0.000    3.500    1.250    1.500    0.000    0.000 
#    0.000    0.000    2.750    2.250    0.000    0.000 
#    0.000    0.000    0.000    0.000    0.000    0.000 
#
# Total GULP energy -793097.985408 kJ/mol
# GULP energy per Si atom -12392.156022 kJ/mol
# Density = 1.584413 g / cm^3
# Si number density = 15.880276 Si / 1000 Ang^3
#
#
#
# Elastic Constant Matrix: (Units=GPa)
#
#
# Indices 1 2 3 4 5 6 
#
# 1 163.4868 62.5531 51.2115 0.0000 0.0000 0.0000
# 2 62.5531 65.8299 19.0395 0.0000 0.0000 0.0000
# 3 51.2115 19.0395 38.3153 0.0000 0.0000 0.0000
# 4 0.0000 0.0000 0.0000 6.5245 0.0000 0.0000
# 5 0.0000 0.0000 0.0000 0.0000 23.5335 0.0000
# 6 0.0000 0.0000 0.0000 0.0000 0.0000 23.8390
#
#
#
# Elastic Compliance Matrix: (Units=1/GPa)
#
#
# Indices 1 2 3 4 5 6 
#
# 1 0.014162 -0.009322 -0.014296 0.000000 0.000000 0.000000
# 2 -0.009322 0.023877 0.000595 0.000000 0.000000 0.000000
# 3 -0.014296 0.000595 0.044911 0.000000 0.000000 0.000000
# 4 0.000000 0.000000 0.000000 0.153269 0.000000 0.000000
# 5 0.000000 0.000000 0.000000 0.000000 0.042493 0.000000
# 6 0.000000 0.000000 0.000000 0.000000 0.000000 0.041948
#
#
# Mechanical properties :
#
#
# Convention : Reuss Voigt Hill
#
# Bulk Modulus (GPa) = 27.09770 59.24892 43.17331
# Shear Modulus (GPa) = 13.19241 19.76791 16.48016
#
# Velocity S-wave (km/s) = 2.88539 3.53201 3.22495
# Velocity P-wave (km/s) = 5.31050 7.35012 6.41193
#
# Compressibility (1/GPa) = 0.03690350
#
# Stress axis : x y z
#
# Youngs Moduli (GPa) = 70.61359 41.88203 22.26619
#
# Poissons Ratio (x) = 0.39042 0.31831
# Poissons Ratio (y) = 0.65826 -0.01325
# Poissons Ratio (z) = 1.00948 -0.02492
#
# Static dielectric constant tensor:
#      x y z
#    x 3.333150 0.000000 0.000000 
#    y 0.000000 2.961470 0.000000 
#    z 0.000000 0.000000 2.697050 
# 
# 
# High freq. dielectric constant tensor:
#      x y z
#    x 1.623100 0.000000 0.000000 
#    y 0.000000 1.576060 0.000000 
#    z 0.000000 0.000000 1.554860 
# 
# From -- ./inp_files/17200.got.cif
#   From: 2010.06.25/outbox.cif.g09.slc.cpg/sg58_9_cif.got.tgz:17200.got - 2010.06.26 21:38:00.
