data_PCOD8238025
_publ_section_title
;
Structure prediction by ZEFSAII (Michael W. Deem and Ramdas Pophale) SiO2 
 PCOD8238025
Probable space group: P N N M
;
_chemical_formula_sum "Si O2"
_cell_formula_units_Z 64
_cell_length_a 12.733723
_cell_length_b 28.194131
_cell_length_c 8.779225
_cell_angle_alpha 90.000000
_cell_angle_beta 90.000000
_cell_angle_gamma 90.000000
_cell_volume 3151.884476
_symmetry_space_group_name_H-M "P N N M"
_symmetry_group_IT_number 58
_symmetry_cell_setting 'orthorhombic'
loop_
_space_group_symop_operation_xyz
x,y,z
-x,-y,z
1/2+x,1/2-y,1/2-z
1/2-x,1/2+y,1/2-z
-x,-y,-z
x,y,-z
1/2-x,1/2+y,1/2+z
1/2+x,1/2-y,1/2+z
loop_
_atom_site_type_symbol
_atom_site_label
_atom_site_fract_x
_atom_site_fract_y
_atom_site_fract_z
Si Si1 0.951635 0.407515 0.821394
Si Si2 0.126278 0.099643 0.169723
Si Si3 0.997874 0.820929 0.680457
Si Si4 0.825748 0.332959 0.668042
Si Si5 0.763529 0.472112 0.178648
Si Si6 0.174022 0.246330 0.818582
Si Si7 0.280201 0.330835 0.319717
Si Si8 0.685956 0.078766 0.679772
O O1 0.915822 0.354135 0.776800
O O2 0.869153 0.446426 0.757855
O O3 0.066973 0.418331 0.756515
O O4 0.956941 0.411548 0.000000
O O5 0.228364 0.131804 0.163514
O O6 0.158895 0.049448 0.244148
O O7 0.038718 0.126440 0.269243
O O8 0.081391 0.091049 0.000000
O O9 0.992047 0.816914 0.500000
O O10 0.115091 0.812749 0.737911
O O11 0.928244 0.779439 0.753481
O O12 0.875012 0.327499 0.500000
O O13 0.780124 0.282846 0.726206
O O14 0.768401 0.527250 0.218524
O O15 0.754770 0.462747 0.000000
O O16 0.185036 0.297721 0.740908
O O17 0.161988 0.250516 0.000000
O O18 0.291882 0.327089 0.500000
O O19 0.257125 0.384542 0.271298
O O20 0.691454 0.089685 0.500000
#
# Coordination Sequence:
#
# PCOD8238025 Si02
#       8
#     8   8   8   8   8   8   8   8
#     4   9  17  30  53  83 114 149 187 229 279 335
#     4   9  17  32  55  84 115 145 182 231 283 336
#     4  11  22  40  65  89 114 147 187 233 287 342
#     4   8  16  30  51  80 112 143 178 224 274 328
#     4   9  17  32  56  84 113 149 193 237 285 343
#     4  10  21  40  63  87 115 148 189 236 285 339
#     4  12  26  42  59  83 116 154 194 235 284 340
#     4  10  21  37  54  77 114 155 194 240 290 339
#
# _framework density 20.305312000000001
#
# number of rings (size 3 to 8) (size 9 to 14) (size 15 to 20)
#    0.000    2.250    0.000    4.125    0.000    7.000 
#    0.000    3.125    0.000    7.500    0.000    0.000 
#    0.000    0.000    0.000    0.000    0.000    0.000 
#
# Total GULP energy -793558.535623 kJ/mol
# GULP energy per Si atom -12399.352119 kJ/mol
# Density = 2.025910 g / cm^3
# Si number density = 20.305312 Si / 1000 Ang^3
#
#
#
# Elastic Constant Matrix: (Units=GPa)
#
#
# Indices 1 2 3 4 5 6 
#
# 1 66.0350 33.6394 24.4768 0.0000 0.0000 0.0000
# 2 33.6394 97.1451 33.7197 0.0000 0.0000 0.0000
# 3 24.4768 33.7197 82.1957 0.0000 0.0000 0.0000
# 4 0.0000 0.0000 0.0000 32.1923 0.0000 0.0000
# 5 0.0000 0.0000 0.0000 0.0000 26.1224 0.0000
# 6 0.0000 0.0000 0.0000 0.0000 0.0000 25.4709
#
#
#
# Elastic Compliance Matrix: (Units=1/GPa)
#
#
# Indices 1 2 3 4 5 6 
#
# 1 0.019208 -0.005441 -0.003488 0.000000 0.000000 0.000000
# 2 -0.005441 0.013544 -0.003936 0.000000 0.000000 0.000000
# 3 -0.003488 -0.003936 0.014819 0.000000 0.000000 0.000000
# 4 0.000000 0.000000 0.000000 0.031063 0.000000 0.000000
# 5 0.000000 0.000000 0.000000 0.000000 0.038281 0.000000
# 6 0.000000 0.000000 0.000000 0.000000 0.000000 0.039260
#
#
# Mechanical properties :
#
#
# Convention : Reuss Voigt Hill
#
# Bulk Modulus (GPa) = 45.78308 47.67195 46.72751
# Shear Modulus (GPa) = 26.42894 26.99313 26.71103
#
# Velocity S-wave (km/s) = 3.61165 3.65000 3.63088
# Velocity P-wave (km/s) = 6.32363 6.42587 6.37496
#
# Compressibility (1/GPa) = 0.02184213
#
# Stress axis : x y z
#
# Youngs Moduli (GPa) = 52.06203 73.83280 67.47868
#
# Poissons Ratio (x) = 0.40170 0.23536
# Poissons Ratio (y) = 0.28325 0.26561
# Poissons Ratio (z) = 0.18159 0.29062
#
# Static dielectric constant tensor:
#      x y z
#    x 3.629690 0.000000 0.000000 
#    y 0.000000 3.783610 0.000000 
#    z 0.000000 0.000000 3.660990 
# 
# 
# High freq. dielectric constant tensor:
#      x y z
#    x 1.779070 0.000000 0.000000 
#    y 0.000000 1.792560 0.000000 
#    z 0.000000 0.000000 1.787450 
# 
# From -- ./inp_files/4810.got.cif
#   From: 2010.06.25/outbox.cif.g09.slc.cpg/sg58_3_cif.got.tgz:4810.got - 2010.06.26 21:38:00.
