data_PCOD8238592
_publ_section_title
;
Structure prediction by ZEFSAII (Michael W. Deem and Ramdas Pophale) SiO2 
 PCOD8238592
Probable space group: P N N M
;
_chemical_formula_sum "Si O2"
_cell_formula_units_Z 24
_cell_length_a 16.974087
_cell_length_b 9.689455
_cell_length_c 7.804132
_cell_angle_alpha 90.000000
_cell_angle_beta 90.000000
_cell_angle_gamma 90.000000
_cell_volume 1283.542875
_symmetry_space_group_name_H-M "P N N M"
_symmetry_group_IT_number 58
_symmetry_cell_setting 'orthorhombic'
loop_
_space_group_symop_operation_xyz
x,y,z
-x,-y,z
1/2+x,1/2-y,1/2-z
1/2-x,1/2+y,1/2-z
-x,-y,-z
x,y,-z
1/2-x,1/2+y,1/2+z
1/2+x,1/2-y,1/2+z
loop_
_atom_site_type_symbol
_atom_site_label
_atom_site_fract_x
_atom_site_fract_y
_atom_site_fract_z
Si Si1 0.426984 0.599832 0.500000
Si Si2 0.184868 0.022133 0.693081
Si Si3 0.180820 0.725132 0.187455
Si Si4 0.534372 0.849399 0.500000
O O1 0.500000 0.500000 0.500000
O O2 0.379639 0.572223 0.673055
O O3 0.457000 0.755485 0.500000
O O4 0.160397 0.065643 0.500000
O O5 0.192969 0.855909 0.689752
O O6 0.267344 0.094158 0.747798
O O7 0.088858 0.677681 0.169647
O O8 0.210296 0.775234 0.000000
O O9 0.500000 0.000000 0.500000
#
# Coordination Sequence:
#
# PCOD8238592 Si02
#       4
#     4   8   8   4
#     4  12  22  44  64  90 128 166 202 263 310 369
#     4  11  23  38  64  92 124 168 209 250 313 380
#     4   9  21  40  58  93 122 159 211 247 307 376
#     4  10  22  42  64  92 128 162 210 260 316 361
#
# _framework density 18.698246999999999
#
# number of rings (size 3 to 8) (size 9 to 14) (size 15 to 20)
#    1.000    0.667    5.000    0.000    7.000    0.667 
#    0.000    0.000    0.000    2.000    0.000    0.000 
#    0.000    0.000    0.000    0.000    0.000    0.000 
#
# Total GULP energy -297375.422780 kJ/mol
# GULP energy per Si atom -12390.642616 kJ/mol
# Density = 1.865569 g / cm^3
# Si number density = 18.698247 Si / 1000 Ang^3
#
#
#
# Elastic Constant Matrix: (Units=GPa)
#
#
# Indices 1 2 3 4 5 6 
#
# 1 104.3584 67.9787 46.2554 0.0000 0.0000 0.0000
# 2 67.9787 159.8279 35.6465 0.0000 0.0000 0.0000
# 3 46.2554 35.6465 93.0678 0.0000 0.0000 0.0000
# 4 0.0000 0.0000 0.0000 4.9279 0.0000 0.0000
# 5 0.0000 0.0000 0.0000 0.0000 33.7108 0.0000
# 6 0.0000 0.0000 0.0000 0.0000 0.0000 48.7664
#
#
#
# Elastic Compliance Matrix: (Units=1/GPa)
#
#
# Indices 1 2 3 4 5 6 
#
# 1 0.015604 -0.005365 -0.005700 0.000000 0.000000 0.000000
# 2 -0.005365 0.008686 -0.000660 0.000000 0.000000 0.000000
# 3 -0.005700 -0.000660 0.013831 0.000000 0.000000 0.000000
# 4 0.000000 0.000000 0.000000 0.202928 0.000000 0.000000
# 5 0.000000 0.000000 0.000000 0.000000 0.029664 0.000000
# 6 0.000000 0.000000 0.000000 0.000000 0.000000 0.020506
#
#
# Mechanical properties :
#
#
# Convention : Reuss Voigt Hill
#
# Bulk Modulus (GPa) = 68.17104 73.00171 70.58638
# Shear Modulus (GPa) = 15.64653 31.30593 23.47623
#
# Velocity S-wave (km/s) = 2.89587 4.09622 3.54719
# Velocity P-wave (km/s) = 6.90790 7.84212 7.38979
#
# Compressibility (1/GPa) = 0.01466898
#
# Stress axis : x y z
#
# Youngs Moduli (GPa) = 64.08649 115.12753 72.30242
#
# Poissons Ratio (x) = 0.61771 0.41214
# Poissons Ratio (y) = 0.34385 0.04774
# Poissons Ratio (z) = 0.36531 0.07601
#
# Static dielectric constant tensor:
#      x y z
#    x 7.293530 0.000000 0.000000 
#    y 0.000000 3.507340 0.000000 
#    z 0.000000 0.000000 3.313350 
# 
# 
# High freq. dielectric constant tensor:
#      x y z
#    x 1.720260 0.000000 0.000000 
#    y 0.000000 1.734970 0.000000 
#    z 0.000000 0.000000 1.707430 
# 
# From -- ./inp_files/4933.got.cif
#   From: 2010.06.25/outbox.cif.g09.slc.cpg/sg58_3_cif.got.tgz:4933.got - 2010.06.26 21:38:00.
