data_PCOD8238412
_publ_section_title
;
Structure prediction by ZEFSAII (Michael W. Deem and Ramdas Pophale) SiO2 
 PCOD8238412
Probable space group: P N N M
;
_chemical_formula_sum "Si O2"
_cell_formula_units_Z 56
_cell_length_a 21.581009
_cell_length_b 14.312545
_cell_length_c 8.863108
_cell_angle_alpha 90.000000
_cell_angle_beta 90.000000
_cell_angle_gamma 90.000000
_cell_volume 2737.629376
_symmetry_space_group_name_H-M "P N N M"
_symmetry_group_IT_number 58
_symmetry_cell_setting 'orthorhombic'
loop_
_space_group_symop_operation_xyz
x,y,z
-x,-y,z
1/2+x,1/2-y,1/2-z
1/2-x,1/2+y,1/2-z
-x,-y,-z
x,y,-z
1/2-x,1/2+y,1/2+z
1/2+x,1/2-y,1/2+z
loop_
_atom_site_type_symbol
_atom_site_label
_atom_site_fract_x
_atom_site_fract_y
_atom_site_fract_z
Si Si1 0.765169 0.680258 0.823136
Si Si2 0.396881 0.074852 0.673061
Si Si3 0.241949 0.630953 0.826302
Si Si4 0.951821 0.077061 0.174589
Si Si5 0.311892 0.477308 0.674005
Si Si6 0.095344 0.362881 0.823490
Si Si7 0.019749 0.727615 0.677239
O O1 0.735050 0.763004 0.727184
O O2 0.726435 0.588761 0.784560
O O3 0.835984 0.665894 0.773485
O O4 0.759335 0.700810 0.000000
O O5 0.414429 0.096893 0.500000
O O6 0.323440 0.079889 0.696746
O O7 0.431217 0.148880 0.776771
O O8 0.418134 0.970759 0.718623
O O9 0.293871 0.582350 0.722047
O O10 0.262670 0.627542 0.000000
O O11 0.958149 0.172712 0.264056
O O12 0.884275 0.035026 0.201715
O O13 0.964604 0.099104 0.000000
O O14 0.000000 0.000000 0.235708
O O15 0.294314 0.458906 0.500000
O O16 0.048285 0.295951 0.737517
O O17 0.086144 0.347485 0.000000
O O18 0.016889 0.732266 0.500000
#
# Coordination Sequence:
#
# PCOD8238412 Si02
#       7
#     8   8   8   8   8   8   8
#     4  11  23  41  64  94 128 168 213 260 316 378
#     4  10  21  42  66  90 123 171 214 247 305 382
#     4  11  23  40  64  95 129 166 208 258 314 377
#     4  10  24  46  68  89 121 170 219 255 302 380
#     4  11  23  41  66  96 126 164 211 263 315 370
#     4  10  22  42  65  88 122 169 214 253 307 384
#     4  12  26  40  61  96 129 161 204 266 323 363
#
# _framework density 20.455653000000002
#
# number of rings (size 3 to 8) (size 9 to 14) (size 15 to 20)
#    0.000    1.286    1.429    3.857    2.000    9.429 
#    0.000    0.000    0.000    0.000    0.000    0.000 
#    0.000    0.000    0.000    0.000    0.000    0.000 
#
# Total GULP energy -694778.253322 kJ/mol
# GULP energy per Si atom -12406.754524 kJ/mol
# Density = 2.040909 g / cm^3
# Si number density = 20.455653 Si / 1000 Ang^3
#
#
#
# Elastic Constant Matrix: (Units=GPa)
#
#
# Indices 1 2 3 4 5 6 
#
# 1 83.9294 5.8589 35.7569 0.0000 0.0000 0.0000
# 2 5.8589 45.1834 13.8933 0.0000 0.0000 0.0000
# 3 35.7569 13.8933 69.5850 0.0000 0.0000 0.0000
# 4 0.0000 0.0000 0.0000 19.6354 0.0000 0.0000
# 5 0.0000 0.0000 0.0000 0.0000 28.6275 0.0000
# 6 0.0000 0.0000 0.0000 0.0000 0.0000 33.5028
#
#
#
# Elastic Compliance Matrix: (Units=1/GPa)
#
#
# Indices 1 2 3 4 5 6 
#
# 1 0.015263 0.000461 -0.007935 0.000000 0.000000 0.000000
# 2 0.000461 0.023594 -0.004947 0.000000 0.000000 0.000000
# 3 -0.007935 -0.004947 0.019436 0.000000 0.000000 0.000000
# 4 0.000000 0.000000 0.000000 0.050928 0.000000 0.000000
# 5 0.000000 0.000000 0.000000 0.000000 0.034931 0.000000
# 6 0.000000 0.000000 0.000000 0.000000 0.000000 0.029848
#
#
# Mechanical properties :
#
#
# Convention : Reuss Voigt Hill
#
# Bulk Modulus (GPa) = 29.89588 34.41290 32.15439
# Shear Modulus (GPa) = 23.81011 25.89904 24.85457
#
# Velocity S-wave (km/s) = 3.41543 3.56210 3.48953
# Velocity P-wave (km/s) = 5.49547 5.81186 5.65588
#
# Compressibility (1/GPa) = 0.03344943
#
# Stress axis : x y z
#
# Youngs Moduli (GPa) = 65.51672 42.38442 51.45015
#
# Poissons Ratio (x) = -0.01953 0.40827
# Poissons Ratio (y) = -0.03019 0.25455
# Poissons Ratio (z) = 0.51989 0.20970
#
# Static dielectric constant tensor:
#      x y z
#    x 3.797990 0.000000 0.000000 
#    y 0.000000 3.753290 0.000000 
#    z 0.000000 0.000000 3.650160 
# 
# 
# High freq. dielectric constant tensor:
#      x y z
#    x 1.810200 0.000000 0.000000 
#    y 0.000000 1.811840 0.000000 
#    z 0.000000 0.000000 1.795640 
# 
# From -- ./inp_files/6289.got.cif
#   From: 2010.06.25/outbox.cif.g09.slc.cpg/sg58_4_cif.got.tgz:6289.got - 2010.06.26 21:38:00.
