data_PCOD8238480
_publ_section_title
;
Structure prediction by ZEFSAII (Michael W. Deem and Ramdas Pophale) SiO2 
 PCOD8238480
Probable space group: P N N M
;
_chemical_formula_sum "Si O2"
_cell_formula_units_Z 52
_cell_length_a 9.368893
_cell_length_b 16.713817
_cell_length_c 16.783885
_cell_angle_alpha 90.000000
_cell_angle_beta 90.000000
_cell_angle_gamma 90.000000
_cell_volume 2628.187933
_symmetry_space_group_name_H-M "P N N M"
_symmetry_group_IT_number 58
_symmetry_cell_setting 'orthorhombic'
loop_
_space_group_symop_operation_xyz
x,y,z
-x,-y,z
1/2+x,1/2-y,1/2-z
1/2-x,1/2+y,1/2-z
-x,-y,-z
x,y,-z
1/2-x,1/2+y,1/2+z
1/2+x,1/2-y,1/2+z
loop_
_atom_site_type_symbol
_atom_site_label
_atom_site_fract_x
_atom_site_fract_y
_atom_site_fract_z
Si Si1 0.840566 0.717351 0.303761
Si Si2 0.407634 0.229390 0.093247
Si Si3 0.138617 0.121697 0.908593
Si Si4 0.589019 0.073938 0.593461
Si Si5 0.000000 0.000000 0.201689
Si Si6 0.671986 0.615359 0.193318
Si Si7 0.470361 0.239906 0.658021
O O1 0.785150 0.636797 0.262736
O O2 0.699901 0.768805 0.327482
O O3 0.935364 0.696726 0.382008
O O4 0.946072 0.760648 0.240171
O O5 0.287565 0.164252 0.115284
O O6 0.383408 0.308417 0.144916
O O7 0.403837 0.250539 0.000000
O O8 0.118327 0.042254 0.854591
O O9 0.007735 0.184776 0.898648
O O10 0.142741 0.093521 0.000000
O O11 0.602073 0.071074 0.500000
O O12 0.746102 0.060590 0.629595
O O13 0.522215 0.158382 0.618416
O O14 0.500000 0.000000 0.627138
O O15 0.049906 0.931578 0.261799
#
# Coordination Sequence:
#
# PCOD8238480 Si02
#       7
#     8   8   8   8   4   8   8
#     4  11  20  38  63  96 122 164 220 263 311 393
#     4  11  23  41  67  97 130 172 220 276 334 388
#     4  11  22  41  67  92 130 174 217 271 331 395
#     4  10  22  39  59  90 127 166 211 264 328 386
#     4  12  25  42  63 102 130 174 222 268 331 394
#     4  11  23  40  63  89 128 170 213 270 321 391
#     4  11  20  37  66  89 124 169 217 268 316 390
#
# _framework density 19.785495999999998
#
# number of rings (size 3 to 8) (size 9 to 14) (size 15 to 20)
#    0.000    1.077    6.154    1.154    0.000    6.154 
#    0.000    3.077    0.000    1.846    0.000    0.000 
#    0.000    0.000    0.000    0.000    0.000    0.000 
#
# Total GULP energy -644445.334481 kJ/mol
# GULP energy per Si atom -12393.179509 kJ/mol
# Density = 1.974046 g / cm^3
# Si number density = 19.785496 Si / 1000 Ang^3
#
#
#
# Elastic Constant Matrix: (Units=GPa)
#
#
# Indices 1 2 3 4 5 6 
#
# 1 118.1657 16.5403 51.2196 0.0000 0.0000 0.0000
# 2 16.5403 65.0813 35.5355 0.0000 0.0000 0.0000
# 3 51.2196 35.5355 91.9717 0.0000 0.0000 0.0000
# 4 0.0000 0.0000 0.0000 30.3848 0.0000 0.0000
# 5 0.0000 0.0000 0.0000 0.0000 31.5175 0.0000
# 6 0.0000 0.0000 0.0000 0.0000 0.0000 25.7281
#
#
#
# Elastic Compliance Matrix: (Units=1/GPa)
#
#
# Indices 1 2 3 4 5 6 
#
# 1 0.011181 0.000708 -0.006500 0.000000 0.000000 0.000000
# 2 0.000708 0.019518 -0.007935 0.000000 0.000000 0.000000
# 3 -0.006500 -0.007935 0.017559 0.000000 0.000000 0.000000
# 4 0.000000 0.000000 0.000000 0.032911 0.000000 0.000000
# 5 0.000000 0.000000 0.000000 0.000000 0.031728 0.000000
# 6 0.000000 0.000000 0.000000 0.000000 0.000000 0.038868
#
#
# Mechanical properties :
#
#
# Convention : Reuss Voigt Hill
#
# Bulk Modulus (GPa) = 48.07151 53.53438 50.80294
# Shear Modulus (GPa) = 26.85909 28.98766 27.92338
#
# Velocity S-wave (km/s) = 3.68844 3.83181 3.76081
# Velocity P-wave (km/s) = 6.51833 6.83324 6.67764
#
# Compressibility (1/GPa) = 0.02080234
#
# Stress axis : x y z
#
# Youngs Moduli (GPa) = 89.43563 51.23350 56.95077
#
# Poissons Ratio (x) = -0.03625 0.37020
# Poissons Ratio (y) = -0.06328 0.45193
# Poissons Ratio (z) = 0.58136 0.40656
#
# Static dielectric constant tensor:
#      x y z
#    x 3.923280 0.000000 0.000000 
#    y 0.000000 3.629290 0.000000 
#    z 0.000000 0.000000 3.840250 
# 
# 
# High freq. dielectric constant tensor:
#      x y z
#    x 1.772600 0.000000 0.000000 
#    y 0.000000 1.751930 0.000000 
#    z 0.000000 0.000000 1.785300 
# 
# From -- ./inp_files/25486.got.cif
#   From: 2010.06.25/outbox.cif.g09.slc.cpg/sg58_13_cif.got.tgz:25486.got - 2010.06.26 21:38:00.
