data_PCOD8238186
_publ_section_title
;
Structure prediction by ZEFSAII (Michael W. Deem and Ramdas Pophale) SiO2 
 PCOD8238186
Probable space group: P N N M
;
_chemical_formula_sum "Si O2"
_cell_formula_units_Z 40
_cell_length_a 8.785240
_cell_length_b 16.510966
_cell_length_c 13.351630
_cell_angle_alpha 90.000000
_cell_angle_beta 90.000000
_cell_angle_gamma 90.000000
_cell_volume 1936.691302
_symmetry_space_group_name_H-M "P N N M"
_symmetry_group_IT_number 58
_symmetry_cell_setting 'orthorhombic'
loop_
_space_group_symop_operation_xyz
x,y,z
-x,-y,z
1/2+x,1/2-y,1/2-z
1/2-x,1/2+y,1/2-z
-x,-y,-z
x,y,-z
1/2-x,1/2+y,1/2+z
1/2+x,1/2-y,1/2+z
loop_
_atom_site_type_symbol
_atom_site_label
_atom_site_fract_x
_atom_site_fract_y
_atom_site_fract_z
Si Si1 0.220380 0.811526 0.113111
Si Si2 0.427377 0.586341 0.385608
Si Si3 0.592253 0.080064 0.759586
Si Si4 0.787798 0.353886 0.787222
Si Si5 0.826940 0.002733 0.614123
O O1 0.048426 0.841693 0.125155
O O2 0.331686 0.885499 0.140161
O O3 0.258142 0.737845 0.188320
O O4 0.253449 0.784065 0.000000
O O5 0.500000 0.500000 0.353447
O O6 0.367726 0.580370 0.500000
O O7 0.286681 0.610106 0.314392
O O8 0.471016 0.144949 0.718432
O O9 0.724836 0.064907 0.678078
O O10 0.500000 0.000000 0.788521
O O11 0.738294 0.411919 0.878455
O O12 0.820991 0.032888 0.500000
O O13 0.000000 0.000000 0.654429
#
# Coordination Sequence:
#
# PCOD8238186 Si02
#       5
#     8   8   8   8   8
#     4  11  23  38  57  83 116 154 194 242 300 355
#     4  10  21  39  63  86 114 157 204 246 295 360
#     4  10  22  37  58  86 116 150 192 243 289 346
#     4  11  21  37  59  86 120 150 188 242 298 350
#     4  10  21  38  61  86 114 153 194 231 281 349
#
# _framework density 20.653782
#
# number of rings (size 3 to 8) (size 9 to 14) (size 15 to 20)
#    0.000    1.600    0.000    6.000    0.000    5.600 
#    0.000    1.000    0.000    0.000    0.000    0.000 
#    0.000    0.000    0.000    0.000    0.000    0.000 
#
# Total GULP energy -495984.868326 kJ/mol
# GULP energy per Si atom -12399.621708 kJ/mol
# Density = 2.060677 g / cm^3
# Si number density = 20.653782 Si / 1000 Ang^3
#
#
#
# Elastic Constant Matrix: (Units=GPa)
#
#
# Indices 1 2 3 4 5 6 
#
# 1 136.4236 31.3016 63.1886 0.0000 0.0000 0.0000
# 2 31.3016 91.1699 59.2995 0.0000 0.0000 0.0000
# 3 63.1886 59.2995 111.6014 0.0000 0.0000 0.0000
# 4 0.0000 0.0000 0.0000 34.0742 0.0000 0.0000
# 5 0.0000 0.0000 0.0000 0.0000 20.0710 0.0000
# 6 0.0000 0.0000 0.0000 0.0000 0.0000 27.9716
#
#
#
# Elastic Compliance Matrix: (Units=1/GPa)
#
#
# Indices 1 2 3 4 5 6 
#
# 1 0.009944 0.000379 -0.005832 0.000000 0.000000 0.000000
# 2 0.000379 0.016776 -0.009128 0.000000 0.000000 0.000000
# 3 -0.005832 -0.009128 0.017113 0.000000 0.000000 0.000000
# 4 0.000000 0.000000 0.000000 0.029348 0.000000 0.000000
# 5 0.000000 0.000000 0.000000 0.000000 0.049823 0.000000
# 6 0.000000 0.000000 0.000000 0.000000 0.000000 0.035750
#
#
# Mechanical properties :
#
#
# Convention : Reuss Voigt Hill
#
# Bulk Modulus (GPa) = 68.16439 71.86382 70.01410
# Shear Modulus (GPa) = 25.93264 28.78371 27.35818
#
# Velocity S-wave (km/s) = 3.54727 3.73718 3.64347
# Velocity P-wave (km/s) = 7.06063 7.31383 7.18835
#
# Compressibility (1/GPa) = 0.01467042
#
# Stress axis : x y z
#
# Youngs Moduli (GPa) = 100.55955 59.60968 58.43555
#
# Poissons Ratio (x) = -0.02259 0.34079
# Poissons Ratio (y) = -0.03811 0.53342
# Poissons Ratio (z) = 0.58645 0.54414
#
# Static dielectric constant tensor:
#      x y z
#    x 3.901410 0.000000 0.000000 
#    y 0.000000 3.628820 0.000000 
#    z 0.000000 0.000000 3.586470 
# 
# 
# High freq. dielectric constant tensor:
#      x y z
#    x 1.814910 0.000000 0.000000 
#    y 0.000000 1.804220 0.000000 
#    z 0.000000 0.000000 1.804510 
# 
# From -- ./inp_files/16181.got.cif
#   From: 2010.06.25/outbox.cif.g09.slc.cpg/sg58_9_cif.got.tgz:16181.got - 2010.06.26 21:38:00.
