data_PCOD8238594
_publ_section_title
;
Structure prediction by ZEFSAII (Michael W. Deem and Ramdas Pophale) SiO2 
 PCOD8238594
Probable space group: P N N M
;
_chemical_formula_sum "Si O2"
_cell_formula_units_Z 40
_cell_length_a 18.362569
_cell_length_b 12.240309
_cell_length_c 8.925018
_cell_angle_alpha 90.000000
_cell_angle_beta 90.000000
_cell_angle_gamma 90.000000
_cell_volume 2006.018449
_symmetry_space_group_name_H-M "P N N M"
_symmetry_group_IT_number 58
_symmetry_cell_setting 'orthorhombic'
loop_
_space_group_symop_operation_xyz
x,y,z
-x,-y,z
1/2+x,1/2-y,1/2-z
1/2-x,1/2+y,1/2-z
-x,-y,-z
x,y,-z
1/2-x,1/2+y,1/2+z
1/2+x,1/2-y,1/2+z
loop_
_atom_site_type_symbol
_atom_site_label
_atom_site_fract_x
_atom_site_fract_y
_atom_site_fract_z
Si Si1 0.811246 0.097707 0.328050
Si Si2 0.147146 0.456023 0.174537
Si Si3 0.448962 0.778124 0.175259
Si Si4 0.925410 0.945839 0.176717
Si Si5 0.114323 0.677097 0.672023
O O1 0.826510 0.064356 0.500000
O O2 0.727303 0.085603 0.284715
O O3 0.831274 0.223122 0.299508
O O4 0.857565 0.019873 0.221692
O O5 0.088737 0.387654 0.267282
O O6 0.140268 0.581860 0.219236
O O7 0.130115 0.442459 0.000000
O O8 0.413992 0.673300 0.253959
O O9 0.533778 0.784200 0.216187
O O10 0.435839 0.766724 0.000000
O O11 0.927557 0.933092 0.000000
O O12 0.000000 0.000000 0.237768
O O13 0.116755 0.636909 0.500000
#
# Coordination Sequence:
#
# PCOD8238594 Si02
#       5
#     8   8   8   8   8
#     4  10  23  43  63  89 126 168 207 249 309 373
#     4  11  25  41  62  94 129 163 205 259 314 363
#     4  11  23  41  67  92 121 166 212 252 308 373
#     4  11  23  39  63  95 126 158 203 259 312 359
#     4  10  22  42  65  88 122 167 211 253 303 371
#
# _framework density 19.939997000000002
#
# number of rings (size 3 to 8) (size 9 to 14) (size 15 to 20)
#    0.000    1.400    2.000    2.400    2.800    7.200 
#    0.000    0.000    0.000    0.000    0.000    0.000 
#    0.000    0.000    0.000    0.000    0.000    0.000 
#
# Total GULP energy -496332.014531 kJ/mol
# GULP energy per Si atom -12408.300363 kJ/mol
# Density = 1.989461 g / cm^3
# Si number density = 19.939997 Si / 1000 Ang^3
#
#
#
# Elastic Constant Matrix: (Units=GPa)
#
#
# Indices 1 2 3 4 5 6 
#
# 1 56.6205 17.0896 40.1808 0.0000 0.0000 0.0000
# 2 17.0896 96.7437 34.5868 0.0000 0.0000 0.0000
# 3 40.1808 34.5868 71.4235 0.0000 0.0000 0.0000
# 4 0.0000 0.0000 0.0000 40.4829 0.0000 0.0000
# 5 0.0000 0.0000 0.0000 0.0000 27.8111 0.0000
# 6 0.0000 0.0000 0.0000 0.0000 0.0000 25.0488
#
#
#
# Elastic Compliance Matrix: (Units=1/GPa)
#
#
# Indices 1 2 3 4 5 6 
#
# 1 0.029459 0.000872 -0.016995 0.000000 0.000000 0.000000
# 2 0.000872 0.012527 -0.006557 0.000000 0.000000 0.000000
# 3 -0.016995 -0.006557 0.026737 0.000000 0.000000 0.000000
# 4 0.000000 0.000000 0.000000 0.024702 0.000000 0.000000
# 5 0.000000 0.000000 0.000000 0.000000 0.035957 0.000000
# 6 0.000000 0.000000 0.000000 0.000000 0.000000 0.039922
#
#
# Mechanical properties :
#
#
# Convention : Reuss Voigt Hill
#
# Bulk Modulus (GPa) = 42.80229 45.38913 44.09571
# Shear Modulus (GPa) = 22.47702 27.53059 25.00381
#
# Velocity S-wave (km/s) = 3.36107 3.71977 3.54496
# Velocity P-wave (km/s) = 6.04769 6.42349 6.23842
#
# Compressibility (1/GPa) = 0.02336323
#
# Stress axis : x y z
#
# Youngs Moduli (GPa) = 33.94585 79.83025 37.40160
#
# Poissons Ratio (x) = -0.06961 0.63564
# Poissons Ratio (y) = -0.02960 0.24523
# Poissons Ratio (z) = 0.57691 0.52341
#
# Static dielectric constant tensor:
#      x y z
#    x 3.680000 0.000000 0.000000 
#    y 0.000000 3.615410 0.000000 
#    z 0.000000 0.000000 3.588660 
# 
# 
# High freq. dielectric constant tensor:
#      x y z
#    x 1.784640 0.000000 0.000000 
#    y 0.000000 1.790280 0.000000 
#    z 0.000000 0.000000 1.780840 
# 
# From -- ./inp_files/3772.got.cif
#   From: 2010.06.25/outbox.cif.g09.slc.cpg/sg58_2_cif.got.tgz:3772.got - 2010.06.26 21:38:00.
