data_PCOD8238750
_publ_section_title
;
Structure prediction by ZEFSAII (Michael W. Deem and Ramdas Pophale) SiO2 
 PCOD8238750
Probable space group: P N N M
;
_chemical_formula_sum "Si O2"
_cell_formula_units_Z 48
_cell_length_a 19.347305
_cell_length_b 5.060256
_cell_length_c 35.968125
_cell_angle_alpha 90.000000
_cell_angle_beta 90.000000
_cell_angle_gamma 90.000000
_cell_volume 3521.362747
_symmetry_space_group_name_H-M "P N N M"
_symmetry_group_IT_number 58
_symmetry_cell_setting 'orthorhombic'
loop_
_space_group_symop_operation_xyz
x,y,z
-x,-y,z
1/2+x,1/2-y,1/2-z
1/2-x,1/2+y,1/2-z
-x,-y,-z
x,y,-z
1/2-x,1/2+y,1/2+z
1/2+x,1/2-y,1/2+z
loop_
_atom_site_type_symbol
_atom_site_label
_atom_site_fract_x
_atom_site_fract_y
_atom_site_fract_z
Si Si1 0.130409 0.860528 0.843777
Si Si2 0.546389 0.743746 0.272810
Si Si3 0.170545 0.888130 0.274672
Si Si4 0.547319 0.251750 0.540053
Si Si5 0.238566 0.393632 0.299192
Si Si6 0.421906 0.886674 0.382119
O O1 0.094522 0.713881 0.808671
O O2 0.211414 0.896366 0.834936
O O3 0.127128 0.639239 0.875843
O O4 0.094139 0.139536 0.854617
O O5 0.500000 0.500000 0.283597
O O6 0.591027 0.664303 0.236456
O O7 0.500000 0.000000 0.264427
O O8 0.193931 0.657150 0.302077
O O9 0.215231 0.893482 0.237476
O O10 0.183055 0.155874 0.297799
O O11 0.500000 0.500000 0.549338
O O12 0.586691 0.292688 0.500000
O O13 0.595944 0.211740 0.575957
O O14 0.500000 0.000000 0.535818
O O15 0.500000 0.000000 0.376933
#
# Coordination Sequence:
#
# PCOD8238750 Si02
#       6
#     8   8   8   8   8   8
#     4  11  20  28  40  56  75  95 118 150 192 232
#     4  11  20  28  39  56  75  93 115 148 193 234
#     4   9  17  29  41  51  67  91 119 147 176 216
#     4   9  17  28  40  52  68  94 124 148 175 217
#     4   9  17  29  41  52  66  91 122 147 175 216
#     4  11  19  28  39  55  76  96 117 150 194 231
#
# _framework density 13.631088
#
# number of rings (size 3 to 8) (size 9 to 14) (size 15 to 20)
#    0.000    2.000    0.000    7.000    0.000    5.333 
#    0.000    0.000    0.000    0.000    0.000    0.000 
#    0.000    0.000    0.000    0.000    0.000    0.000 
#
# Total GULP energy -594725.847358 kJ/mol
# GULP energy per Si atom -12390.121820 kJ/mol
# Density = 1.360006 g / cm^3
# Si number density = 13.631088 Si / 1000 Ang^3
#
#
#
# Elastic Constant Matrix: (Units=GPa)
#
#
# Indices 1 2 3 4 5 6 
#
# 1 26.1370 3.8190 20.9509 0.0000 0.0000 0.0000
# 2 3.8190 81.0282 16.8407 0.0000 0.0000 0.0000
# 3 20.9509 16.8407 58.3773 0.0000 0.0000 0.0000
# 4 0.0000 0.0000 0.0000 17.6644 0.0000 0.0000
# 5 0.0000 0.0000 0.0000 0.0000 10.3440 0.0000
# 6 0.0000 0.0000 0.0000 0.0000 0.0000 18.9746
#
#
#
# Elastic Compliance Matrix: (Units=1/GPa)
#
#
# Indices 1 2 3 4 5 6 
#
# 1 0.053900 0.001574 -0.019798 0.000000 0.000000 0.000000
# 2 0.001574 0.013175 -0.004366 0.000000 0.000000 0.000000
# 3 -0.019798 -0.004366 0.025495 0.000000 0.000000 0.000000
# 4 0.000000 0.000000 0.000000 0.056611 0.000000 0.000000
# 5 0.000000 0.000000 0.000000 0.000000 0.096674 0.000000
# 6 0.000000 0.000000 0.000000 0.000000 0.000000 0.052702
#
#
# Mechanical properties :
#
#
# Convention : Reuss Voigt Hill
#
# Bulk Modulus (GPa) = 21.10142 27.64042 24.37092
# Shear Modulus (GPa) = 13.90697 17.65872 15.78284
#
# Velocity S-wave (km/s) = 3.19758 3.60317 3.40642
# Velocity P-wave (km/s) = 5.39877 6.13449 5.77835
#
# Compressibility (1/GPa) = 0.04739018
#
# Stress axis : x y z
#
# Youngs Moduli (GPa) = 18.55295 75.90410 39.22388
#
# Poissons Ratio (x) = -0.11950 0.77656
# Poissons Ratio (y) = -0.02921 0.17124
# Poissons Ratio (z) = 0.36731 0.33137
#
# Static dielectric constant tensor:
#      x y z
#    x 2.540970 0.000000 0.000000 
#    y 0.000000 2.886370 0.000000 
#    z 0.000000 0.000000 2.843010 
# 
# 
# High freq. dielectric constant tensor:
#      x y z
#    x 1.474460 0.000000 0.000000 
#    y 0.000000 1.549150 0.000000 
#    z 0.000000 0.000000 1.485160 
# 
# From -- ./inp_files/35108.got.cif
#   From: 2010.06.25/outbox.cif.g09.slc.cpg/sg58_18_cif.got.tgz:35108.got - 2010.06.26 21:38:00.
