data_PCOD8238869
_publ_section_title
;
Structure prediction by ZEFSAII (Michael W. Deem and Ramdas Pophale) SiO2 
 PCOD8238869
Probable space group: P N N M
;
_chemical_formula_sum "Si O2"
_cell_formula_units_Z 32
_cell_length_a 12.218026
_cell_length_b 9.576275
_cell_length_c 12.667721
_cell_angle_alpha 90.000000
_cell_angle_beta 90.000000
_cell_angle_gamma 90.000000
_cell_volume 1482.163602
_symmetry_space_group_name_H-M "P N N M"
_symmetry_group_IT_number 58
_symmetry_cell_setting 'orthorhombic'
loop_
_space_group_symop_operation_xyz
x,y,z
-x,-y,z
1/2+x,1/2-y,1/2-z
1/2-x,1/2+y,1/2-z
-x,-y,-z
x,y,-z
1/2-x,1/2+y,1/2+z
1/2+x,1/2-y,1/2+z
loop_
_atom_site_type_symbol
_atom_site_label
_atom_site_fract_x
_atom_site_fract_y
_atom_site_fract_z
Si Si1 0.612995 0.373904 0.000000
Si Si2 0.484376 0.762286 0.674510
Si Si3 0.500000 0.500000 0.185376
Si Si4 0.092727 0.669202 0.500000
Si Si5 0.175086 0.296135 0.000000
Si Si6 0.500000 0.000000 0.825630
Si Si7 0.143854 0.627328 0.000000
O O1 0.601722 0.467835 0.893522
O O2 0.520664 0.254893 0.000000
O O3 0.733944 0.309271 0.000000
O O4 0.527998 0.630264 0.740119
O O5 0.379872 0.723599 0.602417
O O6 0.584403 0.818418 0.604485
O O7 0.443709 0.881545 0.754622
O O8 0.195770 0.771786 0.500000
O O9 0.094925 0.570226 0.602829
O O10 0.145304 0.459524 0.000000
#
# Coordination Sequence:
#
# PCOD8238869 Si02
#       7
#     4   8   4   4   4   4   4
#     4  11  24  46  64  96 143 174 213 283 340 391
#     4  11  23  47  70 101 136 179 229 276 338 405
#     4  11  24  45  66 100 140 177 230 277 332 404
#     4  11  25  45  67 102 138 174 232 278 334 408
#     4  11  23  45  71 100 136 178 223 285 336 403
#     4  11  22  47  68  98 138 179 230 275 334 412
#     4  11  24  43  72  98 140 178 221 279 343 402
#
# _framework density 21.590057000000002
#
# number of rings (size 3 to 8) (size 9 to 14) (size 15 to 20)
#    0.000    1.000    5.000    2.250    0.000    4.000 
#   18.000    0.000    0.000    0.000    0.000    0.000 
#    0.000    0.000    0.000    0.000    0.000    0.000 
#
# Total GULP energy -396771.654005 kJ/mol
# GULP energy per Si atom -12399.114188 kJ/mol
# Density = 2.154092 g / cm^3
# Si number density = 21.590057 Si / 1000 Ang^3
#
#
#
# Elastic Constant Matrix: (Units=GPa)
#
#
# Indices 1 2 3 4 5 6 
#
# 1 142.7976 41.6140 53.9895 0.0000 0.0000 0.0000
# 2 41.6140 134.9072 76.7169 0.0000 0.0000 0.0000
# 3 53.9895 76.7169 167.9254 0.0000 0.0000 0.0000
# 4 0.0000 0.0000 0.0000 43.4904 0.0000 0.0000
# 5 0.0000 0.0000 0.0000 0.0000 4.3439 0.0000
# 6 0.0000 0.0000 0.0000 0.0000 0.0000 28.1896
#
#
#
# Elastic Compliance Matrix: (Units=1/GPa)
#
#
# Indices 1 2 3 4 5 6 
#
# 1 0.008159 -0.001385 -0.001991 0.000000 0.000000 0.000000
# 2 -0.001385 0.010249 -0.004237 0.000000 0.000000 0.000000
# 3 -0.001991 -0.004237 0.008531 0.000000 0.000000 0.000000
# 4 0.000000 0.000000 0.000000 0.022994 0.000000 0.000000
# 5 0.000000 0.000000 0.000000 0.000000 0.230208 0.000000
# 6 0.000000 0.000000 0.000000 0.000000 0.000000 0.035474
#
#
# Mechanical properties :
#
#
# Convention : Reuss Voigt Hill
#
# Bulk Modulus (GPa) = 85.36795 87.80790 86.58792
# Shear Modulus (GPa) = 14.93677 33.42544 24.18110
#
# Velocity S-wave (km/s) = 2.63313 3.93897 3.35029
# Velocity P-wave (km/s) = 6.99076 7.83876 7.42687
#
# Compressibility (1/GPa) = 0.01171400
#
# Stress axis : x y z
#
# Youngs Moduli (GPa) = 122.56282 97.56889 117.22319
#
# Poissons Ratio (x) = 0.13512 0.23334
# Poissons Ratio (y) = 0.16973 0.49669
# Poissons Ratio (z) = 0.24397 0.41341
#
# Static dielectric constant tensor:
#      x y z
#    x 3.610790 0.000000 0.000000 
#    y 0.000000 4.046720 0.000000 
#    z 0.000000 0.000000 4.369710 
# 
# 
# High freq. dielectric constant tensor:
#      x y z
#    x 1.813710 0.000000 0.000000 
#    y 0.000000 1.853280 0.000000 
#    z 0.000000 0.000000 1.874890 
# 
# From -- ./inp_files/13839.got.cif
#   From: 2010.06.25/outbox.cif.g09.slc.cpg/sg58_7_cif.got.tgz:13839.got - 2010.06.26 21:38:00.
