data_PCOD8238939
_publ_section_title
;
Structure prediction by ZEFSAII (Michael W. Deem and Ramdas Pophale) SiO2 
 PCOD8238939
Probable space group: P N N M
;
_chemical_formula_sum "Si O2"
_cell_formula_units_Z 44
_cell_length_a 12.941321
_cell_length_b 13.344327
_cell_length_c 11.436824
_cell_angle_alpha 90.000000
_cell_angle_beta 90.000000
_cell_angle_gamma 90.000000
_cell_volume 1975.061954
_symmetry_space_group_name_H-M "P N N M"
_symmetry_group_IT_number 58
_symmetry_cell_setting 'orthorhombic'
loop_
_space_group_symop_operation_xyz
x,y,z
-x,-y,z
1/2+x,1/2-y,1/2-z
1/2-x,1/2+y,1/2-z
-x,-y,-z
x,y,-z
1/2-x,1/2+y,1/2+z
1/2+x,1/2-y,1/2+z
loop_
_atom_site_type_symbol
_atom_site_label
_atom_site_fract_x
_atom_site_fract_y
_atom_site_fract_z
Si Si1 0.296810 0.080062 0.255475
Si Si2 0.390542 0.286117 0.251210
Si Si3 0.609854 0.300574 0.639040
Si Si4 0.822623 0.635180 0.707474
Si Si5 0.412808 0.366631 0.000000
Si Si6 0.280150 0.551678 0.000000
Si Si7 0.614276 0.257606 0.000000
O O1 0.384040 0.165274 0.261732
O O2 0.190719 0.122754 0.199689
O O3 0.280113 0.027557 0.381416
O O4 0.340592 0.983112 0.187469
O O5 0.497314 0.325500 0.306573
O O6 0.297140 0.339265 0.321563
O O7 0.370145 0.312520 0.115820
O O8 0.608620 0.315614 0.500000
O O9 0.643263 0.185917 0.669019
O O10 0.896560 0.689747 0.613853
O O11 0.534420 0.349486 0.000000
O O12 0.384181 0.483824 0.000000
O O13 0.284442 0.673528 0.000000
#
# Coordination Sequence:
#
# PCOD8238939 Si02
#       7
#     8   8   8   8   4   4   4
#     4  11  26  42  69 103 133 184 229 280 349 408
#     4  11  24  44  68  96 138 178 224 281 345 399
#     4  11  26  45  66  99 141 178 225 280 345 414
#     4  11  25  44  68  98 141 179 228 282 348 400
#     4  12  23  43  74  97 128 184 233 289 329 405
#     4  12  21  42  74  98 130 171 243 281 331 398
#     4  12  23  45  66 103 143 171 230 293 337 404
#
# _framework density 22.277782999999999
#
# number of rings (size 3 to 8) (size 9 to 14) (size 15 to 20)
#    0.000    0.727    7.273    0.273   10.182    1.455 
#    0.000    2.727    0.000    0.000    0.000    0.000 
#    0.000    0.000    0.000    0.000    0.000    0.000 
#
# Total GULP energy -545273.120681 kJ/mol
# GULP energy per Si atom -12392.570925 kJ/mol
# Density = 2.222708 g / cm^3
# Si number density = 22.277783 Si / 1000 Ang^3
#
#
#
# Elastic Constant Matrix: (Units=GPa)
#
#
# Indices 1 2 3 4 5 6 
#
# 1 52.3776 3.5857 33.6248 0.0000 0.0000 0.0000
# 2 3.5857 140.5585 34.7783 0.0000 0.0000 0.0000
# 3 33.6248 34.7783 133.9644 0.0000 0.0000 0.0000
# 4 0.0000 0.0000 0.0000 20.2777 0.0000 0.0000
# 5 0.0000 0.0000 0.0000 0.0000 23.1624 0.0000
# 6 0.0000 0.0000 0.0000 0.0000 0.0000 32.1685
#
#
#
# Elastic Compliance Matrix: (Units=1/GPa)
#
#
# Indices 1 2 3 4 5 6 
#
# 1 0.022864 0.000894 -0.005971 0.000000 0.000000 0.000000
# 2 0.000894 0.007638 -0.002207 0.000000 0.000000 0.000000
# 3 -0.005971 -0.002207 0.009536 0.000000 0.000000 0.000000
# 4 0.000000 0.000000 0.000000 0.049315 0.000000 0.000000
# 5 0.000000 0.000000 0.000000 0.000000 0.043173 0.000000
# 6 0.000000 0.000000 0.000000 0.000000 0.000000 0.031086
#
#
# Mechanical properties :
#
#
# Convention : Reuss Voigt Hill
#
# Bulk Modulus (GPa) = 39.26176 52.31979 45.79078
# Shear Modulus (GPa) = 26.78501 32.11583 29.45042
#
# Velocity S-wave (km/s) = 3.47121 3.80097 3.63983
# Velocity P-wave (km/s) = 5.80756 6.54212 6.18575
#
# Compressibility (1/GPa) = 0.02547007
#
# Stress axis : x y z
#
# Youngs Moduli (GPa) = 43.73669 130.92760 104.86139
#
# Poissons Ratio (x) = -0.11706 0.62612
# Poissons Ratio (y) = -0.03911 0.23146
# Poissons Ratio (z) = 0.26115 0.28899
#
# Static dielectric constant tensor:
#      x y z
#    x 3.904630 0.000000 0.000000 
#    y 0.000000 3.886360 0.000000 
#    z 0.000000 0.000000 4.028340 
# 
# 
# High freq. dielectric constant tensor:
#      x y z
#    x 1.867290 0.000000 0.000000 
#    y 0.000000 1.879870 0.000000 
#    z 0.000000 0.000000 1.875020 
# 
# From -- ./inp_files/15539.got.cif
#   From: 2010.06.25/outbox.cif.g09.slc.cpg/sg58_8_cif.got.tgz:15539.got - 2010.06.26 21:38:00.
