data_PCOD8238887
_publ_section_title
;
Structure prediction by ZEFSAII (Michael W. Deem and Ramdas Pophale) SiO2 
 PCOD8238887
Probable space group: P N N M
;
_chemical_formula_sum "Si O2"
_cell_formula_units_Z 40
_cell_length_a 7.580920
_cell_length_b 9.660847
_cell_length_c 25.958557
_cell_angle_alpha 90.000000
_cell_angle_beta 90.000000
_cell_angle_gamma 90.000000
_cell_volume 1901.155607
_symmetry_space_group_name_H-M "P N N M"
_symmetry_group_IT_number 58
_symmetry_cell_setting 'orthorhombic'
loop_
_space_group_symop_operation_xyz
x,y,z
-x,-y,z
1/2+x,1/2-y,1/2-z
1/2-x,1/2+y,1/2-z
-x,-y,-z
x,y,-z
1/2-x,1/2+y,1/2+z
1/2+x,1/2-y,1/2+z
loop_
_atom_site_type_symbol
_atom_site_label
_atom_site_fract_x
_atom_site_fract_y
_atom_site_fract_z
Si Si1 0.475374 0.344544 0.794257
Si Si2 0.857501 0.252056 0.812034
Si Si3 0.834755 0.409659 0.440906
Si Si4 0.150084 0.888442 0.402924
Si Si5 0.000000 0.000000 0.124208
Si Si6 0.500000 0.000000 0.376296
O O1 0.500000 0.500000 0.772818
O O2 0.650745 0.277731 0.817782
O O3 0.400860 0.249491 0.748818
O O4 0.341761 0.347760 0.842308
O O5 0.961080 0.374048 0.838741
O O6 0.909352 0.111184 0.839393
O O7 0.801441 0.450053 0.500000
O O8 0.882095 0.247182 0.437102
O O9 0.654341 0.436281 0.410538
O O10 0.000000 0.500000 0.419366
O O11 0.338533 0.960365 0.414220
O O12 0.000000 0.000000 0.415753
#
# Coordination Sequence:
#
# PCOD8238887 Si02
#       6
#     8   8   8   8   4   4
#     4  11  23  40  60 100 135 179 224 274 326 403
#     4  12  24  39  67  95 138 181 226 272 336 399
#     4  11  26  47  73 102 132 176 228 288 346 400
#     4  11  23  44  67  96 137 172 225 279 335 401
#     4  12  25  46  70 102 134 180 229 282 342 406
#     4  12  22  42  65  94 132 182 215 274 328 394
#
# _framework density 21.039835
#
# number of rings (size 3 to 8) (size 9 to 14) (size 15 to 20)
#    0.000    0.600    7.000    2.700    0.000    0.400 
#    1.800    0.500    0.000    0.000    0.000    0.000 
#    0.000    0.000    0.000    0.000    0.000    0.000 
#
# Total GULP energy -496127.706075 kJ/mol
# GULP energy per Si atom -12403.192652 kJ/mol
# Density = 2.099195 g / cm^3
# Si number density = 21.039835 Si / 1000 Ang^3
#
#
#
# Elastic Constant Matrix: (Units=GPa)
#
#
# Indices 1 2 3 4 5 6 
#
# 1 149.2393 50.9116 23.2849 0.0000 0.0000 0.0000
# 2 50.9116 130.4342 19.2964 0.0000 0.0000 0.0000
# 3 23.2849 19.2964 48.0585 0.0000 0.0000 0.0000
# 4 0.0000 0.0000 0.0000 21.0376 0.0000 0.0000
# 5 0.0000 0.0000 0.0000 0.0000 3.9884 0.0000
# 6 0.0000 0.0000 0.0000 0.0000 0.0000 37.6181
#
#
#
# Elastic Compliance Matrix: (Units=1/GPa)
#
#
# Indices 1 2 3 4 5 6 
#
# 1 0.008072 -0.002735 -0.002813 0.000000 0.000000 0.000000
# 2 -0.002735 0.009077 -0.002320 0.000000 0.000000 0.000000
# 3 -0.002813 -0.002320 0.023102 0.000000 0.000000 0.000000
# 4 0.000000 0.000000 0.000000 0.047534 0.000000 0.000000
# 5 0.000000 0.000000 0.000000 0.000000 0.250727 0.000000
# 6 0.000000 0.000000 0.000000 0.000000 0.000000 0.026583
#
#
# Mechanical properties :
#
#
# Convention : Reuss Voigt Hill
#
# Bulk Modulus (GPa) = 40.78800 57.19086 48.98943
# Shear Modulus (GPa) = 12.85335 28.14477 20.49906
#
# Velocity S-wave (km/s) = 2.47433 3.66141 3.12476
# Velocity P-wave (km/s) = 5.25274 6.71683 6.02939
#
# Compressibility (1/GPa) = 0.02451702
#
# Stress axis : x y z
#
# Youngs Moduli (GPa) = 123.87752 110.16492 43.28552
#
# Poissons Ratio (x) = 0.30127 0.12177
# Poissons Ratio (y) = 0.33877 0.10041
# Poissons Ratio (z) = 0.34849 0.25555
#
# Static dielectric constant tensor:
#      x y z
#    x 4.024040 0.000000 0.000000 
#    y 0.000000 3.607820 0.000000 
#    z 0.000000 0.000000 3.550230 
# 
# 
# High freq. dielectric constant tensor:
#      x y z
#    x 1.841120 0.000000 0.000000 
#    y 0.000000 1.835660 0.000000 
#    z 0.000000 0.000000 1.804650 
# 
# From -- ./inp_files/34453.got.cif
#   From: 2010.06.25/outbox.cif.g09.slc.cpg/sg58_18_cif.got.tgz:34453.got - 2010.06.26 21:38:00.
