data_PCOD8238395
_publ_section_title
;
Structure prediction by ZEFSAII (Michael W. Deem and Ramdas Pophale) SiO2 
 PCOD8238395
Probable space group: P N N M
;
_chemical_formula_sum "Si O2"
_cell_formula_units_Z 56
_cell_length_a 15.323016
_cell_length_b 12.272198
_cell_length_c 14.133964
_cell_angle_alpha 90.000000
_cell_angle_beta 90.000000
_cell_angle_gamma 90.000000
_cell_volume 2657.850748
_symmetry_space_group_name_H-M "P N N M"
_symmetry_group_IT_number 58
_symmetry_cell_setting 'orthorhombic'
loop_
_space_group_symop_operation_xyz
x,y,z
-x,-y,z
1/2+x,1/2-y,1/2-z
1/2-x,1/2+y,1/2-z
-x,-y,-z
x,y,-z
1/2-x,1/2+y,1/2+z
1/2+x,1/2-y,1/2+z
loop_
_atom_site_type_symbol
_atom_site_label
_atom_site_fract_x
_atom_site_fract_y
_atom_site_fract_z
Si Si1 0.425623 0.644775 0.396912
Si Si2 0.712372 0.097978 0.210539
Si Si3 0.628980 0.319606 0.198379
Si Si4 0.709505 0.529879 0.108984
Si Si5 0.551587 0.695735 0.107596
Si Si6 0.885057 0.105505 0.897270
Si Si7 0.411369 0.060261 0.888989
O O1 0.398849 0.695700 0.500000
O O2 0.362967 0.683931 0.312610
O O3 0.527305 0.675037 0.373969
O O4 0.415782 0.517064 0.403369
O O5 0.657650 0.198796 0.169097
O O6 0.714221 0.081711 0.324898
O O7 0.812881 0.119526 0.182936
O O8 0.672258 0.990398 0.163266
O O9 0.690006 0.409554 0.149771
O O10 0.529895 0.343270 0.169250
O O11 0.624204 0.604001 0.116898
O O12 0.741635 0.522389 0.000000
O O13 0.586342 0.813380 0.141536
O O14 0.518446 0.706395 0.000000
O O15 0.847407 0.141813 0.000000
O O16 0.500000 0.000000 0.856225
O O17 0.396104 0.045821 0.000000
#
# Coordination Sequence:
#
# PCOD8238395 Si02
#       7
#     8   8   8   8   8   8   8
#     4   9  19  37  59  87 119 154 203 258 306 365
#     4  12  24  38  62  93 128 168 212 260 319 381
#     4  12  23  38  65  91 124 167 214 260 317 387
#     4  11  26  43  61  92 132 168 210 266 324 383
#     4  10  22  41  67  92 122 166 213 264 325 383
#     4   9  18  35  60  88 117 150 198 257 308 357
#     4  10  21  41  65  93 126 161 211 269 320 377
#
# _framework density 21.069655000000001
#
# number of rings (size 3 to 8) (size 9 to 14) (size 15 to 20)
#    0.000    1.571    2.857    3.000    4.000    3.429 
#    0.000    0.000    0.000    0.429    0.000    0.000 
#    0.000    0.000    0.000    0.000    0.000    0.000 
#
# Total GULP energy -694148.680138 kJ/mol
# GULP energy per Si atom -12395.512145 kJ/mol
# Density = 2.102170 g / cm^3
# Si number density = 21.069655 Si / 1000 Ang^3
#
#
#
# Elastic Constant Matrix: (Units=GPa)
#
#
# Indices 1 2 3 4 5 6 
#
# 1 37.0286 5.2230 22.2705 0.0000 0.0000 0.0000
# 2 5.2230 82.0949 18.8955 0.0000 0.0000 0.0000
# 3 22.2705 18.8955 110.6099 0.0000 0.0000 0.0000
# 4 0.0000 0.0000 0.0000 27.8701 0.0000 0.0000
# 5 0.0000 0.0000 0.0000 0.0000 16.8594 0.0000
# 6 0.0000 0.0000 0.0000 0.0000 0.0000 22.6262
#
#
#
# Elastic Compliance Matrix: (Units=1/GPa)
#
#
# Indices 1 2 3 4 5 6 
#
# 1 0.030751 -0.000553 -0.006097 0.000000 0.000000 0.000000
# 2 -0.000553 0.012690 -0.002056 0.000000 0.000000 0.000000
# 3 -0.006097 -0.002056 0.010620 0.000000 0.000000 0.000000
# 4 0.000000 0.000000 0.000000 0.035881 0.000000 0.000000
# 5 0.000000 0.000000 0.000000 0.000000 0.059314 0.000000
# 6 0.000000 0.000000 0.000000 0.000000 0.000000 0.044197
#
#
# Mechanical properties :
#
#
# Convention : Reuss Voigt Hill
#
# Bulk Modulus (GPa) = 27.28711 35.83458 31.56084
# Shear Modulus (GPa) = 22.41343 25.69411 24.05377
#
# Velocity S-wave (km/s) = 3.26510 3.49590 3.38247
# Velocity P-wave (km/s) = 5.21474 5.77405 5.50151
#
# Compressibility (1/GPa) = 0.03664734
#
# Stress axis : x y z
#
# Youngs Moduli (GPa) = 32.51905 78.80520 94.16492
#
# Poissons Ratio (x) = 0.04359 0.57413
# Poissons Ratio (y) = 0.01799 0.19364
# Poissons Ratio (z) = 0.19827 0.16205
#
# Static dielectric constant tensor:
#      x y z
#    x 3.827680 0.000000 0.000000 
#    y 0.000000 3.611430 0.000000 
#    z 0.000000 0.000000 4.229890 
# 
# 
# High freq. dielectric constant tensor:
#      x y z
#    x 1.808280 0.000000 0.000000 
#    y 0.000000 1.806740 0.000000 
#    z 0.000000 0.000000 1.836920 
# 
# From -- ./inp_files/22190.got.cif
#   From: 2010.06.25/outbox.cif.g09.slc.cpg/sg58_12_cif.got.tgz:22190.got - 2010.06.26 21:38:00.
