data_PCOD8238201
_publ_section_title
;
Structure prediction by ZEFSAII (Michael W. Deem and Ramdas Pophale) SiO2 
 PCOD8238201
Probable space group: P N N M
;
_chemical_formula_sum "Si O2"
_cell_formula_units_Z 56
_cell_length_a 21.022684
_cell_length_b 15.009324
_cell_length_c 8.919584
_cell_angle_alpha 90.000000
_cell_angle_beta 90.000000
_cell_angle_gamma 90.000000
_cell_volume 2814.452314
_symmetry_space_group_name_H-M "P N N M"
_symmetry_group_IT_number 58
_symmetry_cell_setting 'orthorhombic'
loop_
_space_group_symop_operation_xyz
x,y,z
-x,-y,z
1/2+x,1/2-y,1/2-z
1/2-x,1/2+y,1/2-z
-x,-y,-z
x,y,-z
1/2-x,1/2+y,1/2+z
1/2+x,1/2-y,1/2+z
loop_
_atom_site_type_symbol
_atom_site_label
_atom_site_fract_x
_atom_site_fract_y
_atom_site_fract_z
Si Si1 0.769052 0.825086 0.178100
Si Si2 0.096513 0.251741 0.177364
Si Si3 0.628894 0.069908 0.829875
Si Si4 0.165955 0.817400 0.677173
Si Si5 0.444173 0.070184 0.667959
Si Si6 0.470851 0.251458 0.177073
Si Si7 0.730258 0.525622 0.669171
O O1 0.838922 0.794961 0.233357
O O2 0.713839 0.759237 0.242593
O O3 0.760252 0.926241 0.236990
O O4 0.764646 0.822146 0.000000
O O5 0.097196 0.353625 0.230854
O O6 0.034153 0.203897 0.249339
O O7 0.089588 0.249611 0.000000
O O8 0.704440 0.080240 0.828069
O O9 0.614463 0.974290 0.755878
O O10 0.602552 0.074377 0.000000
O O11 0.171842 0.817349 0.500000
O O12 0.093779 0.799701 0.729826
O O13 0.181357 0.916318 0.734682
O O14 0.423724 0.099968 0.500000
O O15 0.468055 0.151178 0.766472
O O16 0.500000 0.000000 0.658992
O O17 0.478354 0.254344 0.000000
O O18 0.703853 0.517515 0.500000
#
# Coordination Sequence:
#
# PCOD8238201 Si02
#       7
#     8   8   8   8   8   8   8
#     4   9  19  38  62  85 115 154 196 239 292 348
#     4  11  21  36  59  83 114 153 195 239 288 348
#     4  11  21  34  56  84 117 150 187 237 296 352
#     4  10  21  40  62  86 118 157 194 240 298 352
#     4  11  22  34  52  81 115 150 192 234 283 350
#     4  11  23  38  58  83 118 157 194 241 300 353
#     4  10  21  38  61  89 116 149 197 248 292 348
#
# _framework density 19.897300999999999
#
# number of rings (size 3 to 8) (size 9 to 14) (size 15 to 20)
#    0.000    1.571    2.857    2.571    0.000    4.571 
#    0.000    2.857    0.000    4.286    0.000    0.000 
#    0.000    0.000    0.000    0.000    0.000    0.000 
#
# Total GULP energy -694304.544129 kJ/mol
# GULP energy per Si atom -12398.295431 kJ/mol
# Density = 1.985201 g / cm^3
# Si number density = 19.897301 Si / 1000 Ang^3
#
#
#
# Elastic Constant Matrix: (Units=GPa)
#
#
# Indices 1 2 3 4 5 6 
#
# 1 130.1760 29.2634 41.3888 0.0000 0.0000 0.0000
# 2 29.2634 70.1571 9.4056 0.0000 0.0000 0.0000
# 3 41.3888 9.4056 53.4640 0.0000 0.0000 0.0000
# 4 0.0000 0.0000 0.0000 26.1759 0.0000 0.0000
# 5 0.0000 0.0000 0.0000 0.0000 26.4932 0.0000
# 6 0.0000 0.0000 0.0000 0.0000 0.0000 32.7473
#
#
#
# Elastic Compliance Matrix: (Units=1/GPa)
#
#
# Indices 1 2 3 4 5 6 
#
# 1 0.010979 -0.003523 -0.007880 0.000000 0.000000 0.000000
# 2 -0.003523 0.015729 -0.000040 0.000000 0.000000 0.000000
# 3 -0.007880 -0.000040 0.024811 0.000000 0.000000 0.000000
# 4 0.000000 0.000000 0.000000 0.038203 0.000000 0.000000
# 5 0.000000 0.000000 0.000000 0.000000 0.037746 0.000000
# 6 0.000000 0.000000 0.000000 0.000000 0.000000 0.030537
#
#
# Mechanical properties :
#
#
# Convention : Reuss Voigt Hill
#
# Bulk Modulus (GPa) = 34.92344 45.99029 40.45686
# Shear Modulus (GPa) = 26.25581 28.66589 27.46085
#
# Velocity S-wave (km/s) = 3.63652 3.79976 3.71904
# Velocity P-wave (km/s) = 5.93484 6.51268 6.23046
#
# Compressibility (1/GPa) = 0.02863407
#
# Stress axis : x y z
#
# Youngs Moduli (GPa) = 91.08116 63.57842 40.30453
#
# Poissons Ratio (x) = 0.22400 0.31759
# Poissons Ratio (y) = 0.32090 0.00159
# Poissons Ratio (z) = 0.71769 0.00252
#
# Static dielectric constant tensor:
#      x y z
#    x 3.960370 0.000000 0.000000 
#    y 0.000000 3.523870 0.000000 
#    z 0.000000 0.000000 3.576540 
# 
# 
# High freq. dielectric constant tensor:
#      x y z
#    x 1.786790 0.000000 0.000000 
#    y 0.000000 1.754930 0.000000 
#    z 0.000000 0.000000 1.763870 
# 
# From -- ./inp_files/6334.got.cif
#   From: 2010.06.25/outbox.cif.g09.slc.cpg/sg58_4_cif.got.tgz:6334.got - 2010.06.26 21:38:00.
