data_PCOD8238973
_publ_section_title
;
Structure prediction by ZEFSAII (Michael W. Deem and Ramdas Pophale) SiO2 
 PCOD8238973
Probable space group: P N N M
;
_chemical_formula_sum "Si O2"
_cell_formula_units_Z 56
_cell_length_a 18.762999
_cell_length_b 18.392573
_cell_length_c 9.787109
_cell_angle_alpha 90.000000
_cell_angle_beta 90.000000
_cell_angle_gamma 90.000000
_cell_volume 3377.529640
_symmetry_space_group_name_H-M "P N N M"
_symmetry_group_IT_number 58
_symmetry_cell_setting 'orthorhombic'
loop_
_space_group_symop_operation_xyz
x,y,z
-x,-y,z
1/2+x,1/2-y,1/2-z
1/2-x,1/2+y,1/2-z
-x,-y,-z
x,y,-z
1/2-x,1/2+y,1/2+z
1/2+x,1/2-y,1/2+z
loop_
_atom_site_type_symbol
_atom_site_label
_atom_site_fract_x
_atom_site_fract_y
_atom_site_fract_z
Si Si1 0.577908 0.525479 0.341681
Si Si2 0.543431 0.831847 0.661938
Si Si3 0.120500 0.811612 0.841615
Si Si4 0.756393 0.158001 0.652071
Si Si5 0.799501 0.990772 0.347780
Si Si6 0.146591 0.543906 0.162671
Si Si7 0.105949 0.386790 0.162567
O O1 0.500000 0.500000 0.295883
O O2 0.592081 0.508341 0.500000
O O3 0.584176 0.611145 0.310437
O O4 0.634970 0.478866 0.255499
O O5 0.541097 0.839719 0.500000
O O6 0.564799 0.750274 0.704582
O O7 0.601198 0.888832 0.721770
O O8 0.465438 0.849921 0.723217
O O9 0.193058 0.799435 0.756945
O O10 0.141087 0.803773 0.000000
O O11 0.764340 0.191931 0.500000
O O12 0.777889 0.074357 0.646850
O O13 0.674425 0.162259 0.704310
O O14 0.822191 0.964819 0.500000
O O15 0.729787 0.946918 0.294110
O O16 0.113358 0.468789 0.221259
O O17 0.143410 0.541287 0.000000
O O18 0.102603 0.390960 0.000000
#
# Coordination Sequence:
#
# PCOD8238973 Si02
#       7
#     8   8   8   8   8   8   8
#     4   9  17  29  43  58  79 108 141 175 205 232
#     4   9  15  23  38  61  87 109 131 165 205 243
#     4   9  17  28  42  60  81 108 139 167 200 240
#     4   8  14  26  43  60  79 104 134 166 197 235
#     4   8  14  25  42  63  82 100 128 165 203 243
#     4   8  13  22  38  61  86 107 128 161 204 245
#     4   8  13  22  39  62  83 105 134 165 199 239
#
# _framework density 16.580165000000001
#
# number of rings (size 3 to 8) (size 9 to 14) (size 15 to 20)
#    0.000    3.571    0.000    2.143    0.000    2.000 
#    0.000    1.429    0.000    3.429    0.000    0.000 
#    0.000    8.000    0.000    0.000    0.000    0.000 
#
# Total GULP energy -693982.819025 kJ/mol
# GULP energy per Si atom -12392.550340 kJ/mol
# Density = 1.654243 g / cm^3
# Si number density = 16.580165 Si / 1000 Ang^3
#
#
#
# Elastic Constant Matrix: (Units=GPa)
#
#
# Indices 1 2 3 4 5 6 
#
# 1 170.9377 54.9796 49.8989 0.0000 0.0000 0.0000
# 2 54.9796 58.0891 21.6499 0.0000 0.0000 0.0000
# 3 49.8989 21.6499 37.7329 0.0000 0.0000 0.0000
# 4 0.0000 0.0000 0.0000 10.1223 0.0000 0.0000
# 5 0.0000 0.0000 0.0000 0.0000 20.0863 0.0000
# 6 0.0000 0.0000 0.0000 0.0000 0.0000 22.1668
#
#
#
# Elastic Compliance Matrix: (Units=1/GPa)
#
#
# Indices 1 2 3 4 5 6 
#
# 1 0.011142 -0.006429 -0.011046 0.000000 0.000000 0.000000
# 2 -0.006429 0.025607 -0.006191 0.000000 0.000000 0.000000
# 3 -0.011046 -0.006191 0.044662 0.000000 0.000000 0.000000
# 4 0.000000 0.000000 0.000000 0.098792 0.000000 0.000000
# 5 0.000000 0.000000 0.000000 0.000000 0.049785 0.000000
# 6 0.000000 0.000000 0.000000 0.000000 0.000000 0.045112
#
#
# Mechanical properties :
#
#
# Convention : Reuss Voigt Hill
#
# Bulk Modulus (GPa) = 29.34306 57.75737 43.55021
# Shear Modulus (GPa) = 14.97939 19.82385 17.40162
#
# Velocity S-wave (km/s) = 3.00901 3.46155 3.24318
# Velocity P-wave (km/s) = 5.45970 7.13353 6.35199
#
# Compressibility (1/GPa) = 0.03407961
#
# Stress axis : x y z
#
# Youngs Moduli (GPa) = 89.74708 39.05180 22.39050
#
# Poissons Ratio (x) = 0.25106 0.24733
# Poissons Ratio (y) = 0.57699 0.13861
# Poissons Ratio (z) = 0.99137 0.24175
#
# Static dielectric constant tensor:
#      x y z
#    x 3.540050 0.000000 0.000000 
#    y 0.000000 2.983180 0.000000 
#    z 0.000000 0.000000 2.836120 
# 
# 
# High freq. dielectric constant tensor:
#      x y z
#    x 1.650210 0.000000 0.000000 
#    y 0.000000 1.610770 0.000000 
#    z 0.000000 0.000000 1.589050 
# 
# From -- ./inp_files/8170.got.cif
#   From: 2010.06.25/outbox.cif.g09.slc.cpg/sg58_5_cif.got.tgz:8170.got - 2010.06.26 21:38:00.
