data_PCOD8238106
_publ_section_title
;
Structure prediction by ZEFSAII (Michael W. Deem and Ramdas Pophale) SiO2 
 PCOD8238106
Probable space group: P N N M
;
_chemical_formula_sum "Si O2"
_cell_formula_units_Z 64
_cell_length_a 14.238466
_cell_length_b 25.093975
_cell_length_c 8.763145
_cell_angle_alpha 90.000000
_cell_angle_beta 90.000000
_cell_angle_gamma 90.000000
_cell_volume 3131.069166
_symmetry_space_group_name_H-M "P N N M"
_symmetry_group_IT_number 58
_symmetry_cell_setting 'orthorhombic'
loop_
_space_group_symop_operation_xyz
x,y,z
-x,-y,z
1/2+x,1/2-y,1/2-z
1/2-x,1/2+y,1/2-z
-x,-y,-z
x,y,-z
1/2-x,1/2+y,1/2+z
1/2+x,1/2-y,1/2+z
loop_
_atom_site_type_symbol
_atom_site_label
_atom_site_fract_x
_atom_site_fract_y
_atom_site_fract_z
Si Si1 0.258375 0.567044 0.319893
Si Si2 0.958399 0.443541 0.322355
Si Si3 0.392251 0.871122 0.675721
Si Si4 0.803004 0.118178 0.820176
Si Si5 0.396893 0.481992 0.180254
Si Si6 0.535022 0.243775 0.326450
Si Si7 0.203430 0.183892 0.176512
Si Si8 0.348276 0.269465 0.178683
O O1 0.277084 0.561834 0.500000
O O2 0.150404 0.556818 0.278494
O O3 0.320238 0.524249 0.233459
O O4 0.286074 0.625119 0.252928
O O5 0.973996 0.431995 0.500000
O O6 0.000000 0.500000 0.272871
O O7 0.011340 0.397777 0.229607
O O8 0.374269 0.884563 0.500000
O O9 0.303727 0.893559 0.768902
O O10 0.400451 0.807844 0.702502
O O11 0.874298 0.075316 0.751113
O O12 0.837002 0.175867 0.768309
O O13 0.807909 0.113604 0.000000
O O14 0.500000 0.500000 0.236347
O O15 0.393255 0.476704 0.000000
O O16 0.496236 0.243152 0.500000
O O17 0.597830 0.296041 0.297756
O O18 0.451258 0.245517 0.206012
O O19 0.276082 0.226233 0.248316
O O20 0.230423 0.179491 0.000000
O O21 0.330731 0.280149 0.000000
#
# Coordination Sequence:
#
# PCOD8238106 Si02
#       8
#     8   8   8   8   8   8   8   8
#     4  10  21  39  64  92 124 167 212 256 311 377
#     4  10  21  37  59  90 126 161 205 257 310 374
#     4  11  22  39  64  93 129 166 206 259 315 374
#     4  12  25  42  66  93 125 167 215 263 316 381
#     4  11  26  46  66  92 127 165 211 268 322 374
#     4  10  21  38  58  87 124 164 206 252 309 376
#     4   9  19  38  61  86 125 166 202 247 307 371
#     4  11  22  40  64  93 128 167 209 260 318 372
#
# _framework density 20.440301999999999
#
# number of rings (size 3 to 8) (size 9 to 14) (size 15 to 20)
#    0.000    1.500    1.250    3.750    1.750    4.750 
#    0.000    1.250    0.000    0.000    0.000    0.000 
#    0.000    0.000    0.000    0.000    0.000    0.000 
#
# Total GULP energy -793923.363574 kJ/mol
# GULP energy per Si atom -12405.052556 kJ/mol
# Density = 2.039378 g / cm^3
# Si number density = 20.440302 Si / 1000 Ang^3
#
#
#
# Elastic Constant Matrix: (Units=GPa)
#
#
# Indices 1 2 3 4 5 6 
#
# 1 77.4507 4.5764 25.3592 0.0000 0.0000 0.0000
# 2 4.5764 79.8504 16.0955 0.0000 0.0000 0.0000
# 3 25.3592 16.0955 63.3360 0.0000 0.0000 0.0000
# 4 0.0000 0.0000 0.0000 29.8468 0.0000 0.0000
# 5 0.0000 0.0000 0.0000 0.0000 31.1264 0.0000
# 6 0.0000 0.0000 0.0000 0.0000 0.0000 38.8699
#
#
#
# Elastic Compliance Matrix: (Units=1/GPa)
#
#
# Indices 1 2 3 4 5 6 
#
# 1 0.014870 0.000367 -0.006047 0.000000 0.000000 0.000000
# 2 0.000367 0.013209 -0.003503 0.000000 0.000000 0.000000
# 3 -0.006047 -0.003503 0.019100 0.000000 0.000000 0.000000
# 4 0.000000 0.000000 0.000000 0.033504 0.000000 0.000000
# 5 0.000000 0.000000 0.000000 0.000000 0.032127 0.000000
# 6 0.000000 0.000000 0.000000 0.000000 0.000000 0.025727
#
#
# Mechanical properties :
#
#
# Convention : Reuss Voigt Hill
#
# Bulk Modulus (GPa) = 34.70880 34.74435 34.72658
# Shear Modulus (GPa) = 30.02860 31.60903 30.81881
#
# Velocity S-wave (km/s) = 3.83703 3.93670 3.88718
# Velocity P-wave (km/s) = 6.05374 6.13990 6.09697
#
# Compressibility (1/GPa) = 0.02881114
#
# Stress axis : x y z
#
# Youngs Moduli (GPa) = 67.25103 75.70821 52.35535
#
# Poissons Ratio (x) = -0.02776 0.31659
# Poissons Ratio (y) = -0.02466 0.18343
# Poissons Ratio (z) = 0.40666 0.26524
#
# Static dielectric constant tensor:
#      x y z
#    x 3.754160 0.000000 0.000000 
#    y 0.000000 3.909540 0.000000 
#    z 0.000000 0.000000 3.525060 
# 
# 
# High freq. dielectric constant tensor:
#      x y z
#    x 1.809510 0.000000 0.000000 
#    y 0.000000 1.813940 0.000000 
#    z 0.000000 0.000000 1.782880 
# 
# From -- ./inp_files/6984.got.cif
#   From: 2010.06.25/outbox.cif.g09.slc.cpg/sg58_4_cif.got.tgz:6984.got - 2010.06.26 21:38:00.
