data_PCOD8238914
_publ_section_title
;
Structure prediction by ZEFSAII (Michael W. Deem and Ramdas Pophale) SiO2 
 PCOD8238914
Probable space group: P N N M
;
_chemical_formula_sum "Si O2"
_cell_formula_units_Z 32
_cell_length_a 13.065518
_cell_length_b 8.078584
_cell_length_c 12.796810
_cell_angle_alpha 90.000000
_cell_angle_beta 90.000000
_cell_angle_gamma 90.000000
_cell_volume 1350.714616
_symmetry_space_group_name_H-M "P N N M"
_symmetry_group_IT_number 58
_symmetry_cell_setting 'orthorhombic'
loop_
_space_group_symop_operation_xyz
x,y,z
-x,-y,z
1/2+x,1/2-y,1/2-z
1/2-x,1/2+y,1/2-z
-x,-y,-z
x,y,-z
1/2-x,1/2+y,1/2+z
1/2+x,1/2-y,1/2+z
loop_
_atom_site_type_symbol
_atom_site_label
_atom_site_fract_x
_atom_site_fract_y
_atom_site_fract_z
Si Si1 0.604119 0.646177 0.287641
Si Si2 0.327072 0.960020 0.500000
Si Si3 0.975140 0.686402 0.618572
Si Si4 0.514520 0.742226 0.500000
Si Si5 0.214130 0.122872 0.677704
O O1 0.528071 0.678204 0.191544
O O2 0.542001 0.637951 0.396415
O O3 0.685663 0.791357 0.278712
O O4 0.655105 0.466350 0.272494
O O5 0.393200 0.789973 0.500000
O O6 0.412081 0.101095 0.500000
O O7 0.251827 0.977747 0.599045
O O8 0.015050 0.705005 0.500000
O O9 0.000000 0.500000 0.658690
O O10 0.854506 0.733023 0.623486
#
# Coordination Sequence:
#
# PCOD8238914 Si02
#       5
#     8   4   8   4   8
#     4  11  25  42  70 101 143 184 238 288 353 420
#     4   9  20  40  71  94 136 185 243 282 355 413
#     4  11  25  45  70  99 136 179 232 294 352 415
#     4   9  22  42  66  99 137 194 231 298 343 415
#     4  11  23  44  69 105 136 185 234 287 350 418
#
# _framework density 23.691164000000001
#
# number of rings (size 3 to 8) (size 9 to 14) (size 15 to 20)
#    0.000    1.500    1.250    2.250   12.250    1.000 
#    2.250    2.500    0.000    0.000    0.000    0.000 
#    0.000    0.000    0.000    0.000    0.000    0.000 
#
# Total GULP energy -396730.197403 kJ/mol
# GULP energy per Si atom -12397.818669 kJ/mol
# Density = 2.363724 g / cm^3
# Si number density = 23.691164 Si / 1000 Ang^3
#
#
#
# Elastic Constant Matrix: (Units=GPa)
#
#
# Indices 1 2 3 4 5 6 
#
# 1 123.9963 49.9975 49.2480 0.0000 0.0000 0.0000
# 2 49.9975 91.6159 38.2947 0.0000 0.0000 0.0000
# 3 49.2480 38.2947 127.3260 0.0000 0.0000 0.0000
# 4 0.0000 0.0000 0.0000 -67.6002 0.0000 0.0000
# 5 0.0000 0.0000 0.0000 0.0000 21.7224 0.0000
# 6 0.0000 0.0000 0.0000 0.0000 0.0000 64.7920
#
#
#
# Elastic Compliance Matrix: (Units=1/GPa)
#
#
# Indices 1 2 3 4 5 6 
#
# 1 0.011174 -0.004909 -0.002846 0.000000 0.000000 0.000000
# 2 -0.004909 0.014641 -0.002505 0.000000 0.000000 0.000000
# 3 -0.002846 -0.002505 0.009708 0.000000 0.000000 0.000000
# 4 0.000000 0.000000 0.000000 -0.014793 0.000000 0.000000
# 5 0.000000 0.000000 0.000000 0.000000 0.046035 0.000000
# 6 0.000000 0.000000 0.000000 0.000000 0.000000 0.015434
#
#
# Mechanical properties :
#
#
# Convention : Reuss Voigt Hill
#
# Bulk Modulus (GPa) = 66.64577 68.66873 67.65725
# Shear Modulus (GPa) = 46.41685 17.47605 31.94645
#
# Velocity S-wave (km/s) = 4.43114 2.71894 3.67611
# Velocity P-wave (km/s) = 7.37375 6.23736 6.82923
#
# Compressibility (1/GPa) = 0.01500470
#
# Stress axis : x y z
#
# Youngs Moduli (GPa) = 89.49154 68.30179 103.00893
#
# Poissons Ratio (x) = 0.33527 0.29313
# Poissons Ratio (y) = 0.43928 0.25802
# Poissons Ratio (z) = 0.25467 0.17108
#
# Static dielectric constant tensor:
#      x y z
#    x 4.528040 0.000000 0.000000 
#    y 0.000000 4.039600 0.000000 
#    z 0.000000 0.000000 4.226510 
# 
# 
# High freq. dielectric constant tensor:
#      x y z
#    x 1.953550 0.000000 0.000000 
#    y 0.000000 1.930760 0.000000 
#    z 0.000000 0.000000 1.933660 
# 
# From -- ./inp_files/20681.got.cif
#   From: 2010.06.25/outbox.cif.g09.slc.cpg/sg58_11_cif.got.tgz:20681.got - 2010.06.26 21:38:00.
