data_PCOD8238659
_publ_section_title
;
Structure prediction by ZEFSAII (Michael W. Deem and Ramdas Pophale) SiO2 
 PCOD8238659
Probable space group: P N N M
;
_chemical_formula_sum "Si O2"
_cell_formula_units_Z 64
_cell_length_a 23.626673
_cell_length_b 15.196757
_cell_length_c 8.410497
_cell_angle_alpha 90.000000
_cell_angle_beta 90.000000
_cell_angle_gamma 90.000000
_cell_volume 3019.778925
_symmetry_space_group_name_H-M "P N N M"
_symmetry_group_IT_number 58
_symmetry_cell_setting 'orthorhombic'
loop_
_space_group_symop_operation_xyz
x,y,z
-x,-y,z
1/2+x,1/2-y,1/2-z
1/2-x,1/2+y,1/2-z
-x,-y,-z
x,y,-z
1/2-x,1/2+y,1/2+z
1/2+x,1/2-y,1/2+z
loop_
_atom_site_type_symbol
_atom_site_label
_atom_site_fract_x
_atom_site_fract_y
_atom_site_fract_z
Si Si1 0.249796 0.337548 0.684667
Si Si2 0.370551 0.911034 0.183954
Si Si3 0.246756 0.151362 0.184966
Si Si4 0.142468 0.913213 0.314906
Si Si5 0.067350 0.749505 0.315338
Si Si6 0.055028 0.261806 0.181349
Si Si7 0.639588 0.906564 0.684567
Si Si8 0.874639 0.890461 0.316782
O O1 0.247336 0.311595 0.500000
O O2 0.190007 0.375434 0.742976
O O3 0.265089 0.252239 0.788915
O O4 0.299155 0.408230 0.716082
O O5 0.417392 0.836400 0.208916
O O6 0.387162 0.997430 0.284439
O O7 0.368399 0.937425 0.000000
O O8 0.295630 0.089285 0.255725
O O9 0.189670 0.133845 0.279765
O O10 0.238423 0.130542 0.000000
O O11 0.157496 0.903998 0.500000
O O12 0.099610 0.837436 0.259160
O O13 0.113881 0.007219 0.278145
O O14 0.051076 0.755249 0.500000
O O15 0.106227 0.665149 0.286506
O O16 0.011375 0.741972 0.211504
O O17 0.082270 0.166718 0.213671
O O18 0.066387 0.287804 0.000000
O O19 0.635847 0.881728 0.500000
O O20 0.886435 0.868763 0.500000
#
# Coordination Sequence:
#
# PCOD8238659 Si02
#       8
#     8   8   8   8   8   8   8   8
#     4  11  22  37  64  96 130 167 209 259 319 380
#     4  11  24  43  67  96 130 170 213 262 319 383
#     4  12  23  38  63  95 132 172 212 256 318 385
#     4  10  23  41  66  95 128 168 212 261 318 378
#     4  11  24  45  68  92 125 169 217 268 321 378
#     4  12  26  44  66  94 127 168 215 268 322 379
#     4  12  25  42  66  98 132 168 212 264 321 383
#     4  11  23  42  66  96 130 168 214 264 320 381
#
# _framework density 21.193605999999999
#
# number of rings (size 3 to 8) (size 9 to 14) (size 15 to 20)
#    0.000    0.750    2.500    5.625    0.000    6.000 
#    0.000    5.000    0.000    0.000    0.000    0.000 
#    0.000    0.000    0.000    0.000    0.000    0.000 
#
# Total GULP energy -794182.996781 kJ/mol
# GULP energy per Si atom -12409.109325 kJ/mol
# Density = 2.114537 g / cm^3
# Si number density = 21.193606 Si / 1000 Ang^3
#
#
#
# Elastic Constant Matrix: (Units=GPa)
#
#
# Indices 1 2 3 4 5 6 
#
# 1 98.3581 28.1182 14.1137 0.0000 0.0000 0.0000
# 2 28.1182 116.3362 18.1507 0.0000 0.0000 0.0000
# 3 14.1137 18.1507 63.0205 0.0000 0.0000 0.0000
# 4 0.0000 0.0000 0.0000 29.1841 0.0000 0.0000
# 5 0.0000 0.0000 0.0000 0.0000 32.3677 0.0000
# 6 0.0000 0.0000 0.0000 0.0000 0.0000 12.1607
#
#
#
# Elastic Compliance Matrix: (Units=1/GPa)
#
#
# Indices 1 2 3 4 5 6 
#
# 1 0.011112 -0.002406 -0.001796 0.000000 0.000000 0.000000
# 2 -0.002406 0.009521 -0.002203 0.000000 0.000000 0.000000
# 3 -0.001796 -0.002203 0.016905 0.000000 0.000000 0.000000
# 4 0.000000 0.000000 0.000000 0.034265 0.000000 0.000000
# 5 0.000000 0.000000 0.000000 0.000000 0.030895 0.000000
# 6 0.000000 0.000000 0.000000 0.000000 0.000000 0.082232
#
#
# Mechanical properties :
#
#
# Convention : Reuss Voigt Hill
#
# Bulk Modulus (GPa) = 40.43958 44.27556 42.35757
# Shear Modulus (GPa) = 24.27391 29.23133 26.75262
#
# Velocity S-wave (km/s) = 3.38796 3.71786 3.55674
# Velocity P-wave (km/s) = 5.86744 6.27426 6.07425
#
# Compressibility (1/GPa) = 0.02472825
#
# Stress axis : x y z
#
# Youngs Moduli (GPa) = 89.99017 105.03112 59.15533
#
# Poissons Ratio (x) = 0.25267 0.10623
# Poissons Ratio (y) = 0.21648 0.13034
# Poissons Ratio (z) = 0.16160 0.23143
#
# Static dielectric constant tensor:
#      x y z
#    x 3.687770 0.000000 0.000000 
#    y 0.000000 3.976570 0.000000 
#    z 0.000000 0.000000 3.725760 
# 
# 
# High freq. dielectric constant tensor:
#      x y z
#    x 1.824540 0.000000 0.000000 
#    y 0.000000 1.843020 0.000000 
#    z 0.000000 0.000000 1.834540 
# 
# From -- ./inp_files/9973.got.cif
#   From: 2010.06.25/outbox.cif.g09.slc.cpg/sg58_5_cif.got.tgz:9973.got - 2010.06.26 21:38:00.
