data_PCOD8238043
_publ_section_title
;
Structure prediction by ZEFSAII (Michael W. Deem and Ramdas Pophale) SiO2 
 PCOD8238043
Probable space group: P N N M
;
_chemical_formula_sum "Si O2"
_cell_formula_units_Z 40
_cell_length_a 13.357106
_cell_length_b 17.955425
_cell_length_c 9.009304
_cell_angle_alpha 90.000000
_cell_angle_beta 90.000000
_cell_angle_gamma 90.000000
_cell_volume 2160.724037
_symmetry_space_group_name_H-M "P N N M"
_symmetry_group_IT_number 58
_symmetry_cell_setting 'orthorhombic'
loop_
_space_group_symop_operation_xyz
x,y,z
-x,-y,z
1/2+x,1/2-y,1/2-z
1/2-x,1/2+y,1/2-z
-x,-y,-z
x,y,-z
1/2-x,1/2+y,1/2+z
1/2+x,1/2-y,1/2+z
loop_
_atom_site_type_symbol
_atom_site_label
_atom_site_fract_x
_atom_site_fract_y
_atom_site_fract_z
Si Si1 0.613193 0.872023 0.330544
Si Si2 0.107523 0.032883 0.173539
Si Si3 0.296333 0.970152 0.673089
Si Si4 0.413666 0.838753 0.173813
Si Si5 0.331493 0.678208 0.171500
O O1 0.576903 0.861764 0.500000
O O2 0.529277 0.842250 0.219855
O O3 0.712690 0.824301 0.298740
O O4 0.633521 0.958676 0.297146
O O5 0.111132 0.117349 0.231088
O O6 0.189009 0.980715 0.251665
O O7 0.129778 0.032477 0.000000
O O8 0.000000 0.000000 0.212764
O O9 0.277898 0.958347 0.500000
O O10 0.349688 0.898704 0.738699
O O11 0.371434 0.758439 0.218342
O O12 0.403529 0.854199 0.000000
O O13 0.353368 0.659647 0.000000
#
# Coordination Sequence:
#
# PCOD8238043 Si02
#       5
#     8   8   8   8   8
#     4   9  19  37  56  74 104 144 181 220 269 322
#     4  10  21  37  58  83 110 142 181 226 273 320
#     4  10  21  37  57  80 108 145 185 222 267 325
#     4  11  22  35  55  84 113 140 178 227 273 319
#     4   9  21  39  55  77 111 146 180 222 270 322
#
# _framework density 18.512312000000001
#
# number of rings (size 3 to 8) (size 9 to 14) (size 15 to 20)
#    0.000    2.200    0.000    3.600    0.000   11.200 
#    0.000    6.000    0.000    0.000    0.000    0.000 
#    0.000    0.000    0.000    0.000    0.000    0.000 
#
# Total GULP energy -496174.103037 kJ/mol
# GULP energy per Si atom -12404.352576 kJ/mol
# Density = 1.847018 g / cm^3
# Si number density = 18.512312 Si / 1000 Ang^3
#
#
#
# Elastic Constant Matrix: (Units=GPa)
#
#
# Indices 1 2 3 4 5 6 
#
# 1 130.3470 87.1224 70.5416 0.0000 0.0000 0.0000
# 2 87.1224 121.1534 59.4344 0.0000 0.0000 0.0000
# 3 70.5416 59.4344 83.1378 0.0000 0.0000 0.0000
# 4 0.0000 0.0000 0.0000 14.4969 0.0000 0.0000
# 5 0.0000 0.0000 0.0000 0.0000 33.3003 0.0000
# 6 0.0000 0.0000 0.0000 0.0000 0.0000 26.5229
#
#
#
# Elastic Compliance Matrix: (Units=1/GPa)
#
#
# Indices 1 2 3 4 5 6 
#
# 1 0.018734 -0.008739 -0.009649 0.000000 0.000000 0.000000
# 2 -0.008739 0.016788 -0.004587 0.000000 0.000000 0.000000
# 3 -0.009649 -0.004587 0.023494 0.000000 0.000000 0.000000
# 4 0.000000 0.000000 0.000000 0.068980 0.000000 0.000000
# 5 0.000000 0.000000 0.000000 0.000000 0.030030 0.000000
# 6 0.000000 0.000000 0.000000 0.000000 0.000000 0.037703
#
#
# Mechanical properties :
#
#
# Convention : Reuss Voigt Hill
#
# Bulk Modulus (GPa) = 76.52280 85.42610 80.97445
# Shear Modulus (GPa) = 20.32226 22.70001 21.51114
#
# Velocity S-wave (km/s) = 3.31686 3.50553 3.41250
# Velocity P-wave (km/s) = 7.48963 7.91396 7.70472
#
# Compressibility (1/GPa) = 0.01306800
#
# Stress axis : x y z
#
# Youngs Moduli (GPa) = 53.37779 59.56494 42.56325
#
# Poissons Ratio (x) = 0.52052 0.41068
# Poissons Ratio (y) = 0.46645 0.19525
# Poissons Ratio (z) = 0.51503 0.27324
#
# Static dielectric constant tensor:
#      x y z
#    x 3.443610 0.000000 0.000000 
#    y 0.000000 3.439850 0.000000 
#    z 0.000000 0.000000 3.462800 
# 
# 
# High freq. dielectric constant tensor:
#      x y z
#    x 1.724530 0.000000 0.000000 
#    y 0.000000 1.718540 0.000000 
#    z 0.000000 0.000000 1.727240 
# 
# From -- ./inp_files/3777.got.cif
#   From: 2010.06.25/outbox.cif.g09.slc.cpg/sg58_2_cif.got.tgz:3777.got - 2010.06.26 21:38:00.
