data_PCOD8238457
_publ_section_title
;
Structure prediction by ZEFSAII (Michael W. Deem and Ramdas Pophale) SiO2 
 PCOD8238457
Probable space group: P N N M
;
_chemical_formula_sum "Si O2"
_cell_formula_units_Z 40
_cell_length_a 28.174493
_cell_length_b 7.753437
_cell_length_c 9.009041
_cell_angle_alpha 90.000000
_cell_angle_beta 90.000000
_cell_angle_gamma 90.000000
_cell_volume 1968.017407
_symmetry_space_group_name_H-M "P N N M"
_symmetry_group_IT_number 58
_symmetry_cell_setting 'orthorhombic'
loop_
_space_group_symop_operation_xyz
x,y,z
-x,-y,z
1/2+x,1/2-y,1/2-z
1/2-x,1/2+y,1/2-z
-x,-y,-z
x,y,-z
1/2-x,1/2+y,1/2+z
1/2+x,1/2-y,1/2+z
loop_
_atom_site_type_symbol
_atom_site_label
_atom_site_fract_x
_atom_site_fract_y
_atom_site_fract_z
Si Si1 0.898589 0.648468 0.326852
Si Si2 0.554992 0.467711 0.328507
Si Si3 0.612147 0.804574 0.675241
Si Si4 0.797294 0.183988 0.670516
Si Si5 0.796127 0.785478 0.331341
O O1 0.908941 0.631240 0.500000
O O2 0.930247 0.803145 0.265979
O O3 0.913283 0.471027 0.246530
O O4 0.843250 0.680174 0.293560
O O5 0.500000 0.500000 0.301289
O O6 0.566434 0.430063 0.500000
O O7 0.583450 0.635812 0.273195
O O8 0.611935 0.826798 0.500000
O O9 0.666148 0.793839 0.732281
O O10 0.803249 0.240094 0.500000
O O11 0.743962 0.223415 0.719379
O O12 0.808383 0.984279 0.694501
O O13 0.779165 0.752605 0.500000
#
# Coordination Sequence:
#
# PCOD8238457 Si02
#       5
#     8   8   8   8   8
#     4  11  23  41  65  93 128 165 208 261 315 375
#     4  10  23  44  68  93 124 166 214 264 318 378
#     4  11  23  40  64  92 125 164 208 258 313 374
#     4  11  22  37  58  86 123 163 208 257 304 365
#     4  10  22  38  56  85 123 164 207 253 307 368
#
# _framework density 20.325023999999999
#
# number of rings (size 3 to 8) (size 9 to 14) (size 15 to 20)
#    0.000    1.400    2.000    3.000    0.000    8.400 
#    0.000    4.000    0.000    0.000    0.000    0.000 
#    0.000    0.000    0.000    0.000    0.000    0.000 
#
# Total GULP energy -496275.329659 kJ/mol
# GULP energy per Si atom -12406.883241 kJ/mol
# Density = 2.027876 g / cm^3
# Si number density = 20.325024 Si / 1000 Ang^3
#
#
#
# Elastic Constant Matrix: (Units=GPa)
#
#
# Indices 1 2 3 4 5 6 
#
# 1 67.3930 23.6941 33.1814 0.0000 0.0000 0.0000
# 2 23.6941 94.0770 39.5953 0.0000 0.0000 0.0000
# 3 33.1814 39.5953 84.2172 0.0000 0.0000 0.0000
# 4 0.0000 0.0000 0.0000 35.7033 0.0000 0.0000
# 5 0.0000 0.0000 0.0000 0.0000 28.3831 0.0000
# 6 0.0000 0.0000 0.0000 0.0000 0.0000 22.6657
#
#
#
# Elastic Compliance Matrix: (Units=1/GPa)
#
#
# Indices 1 2 3 4 5 6 
#
# 1 0.018709 -0.002007 -0.006428 0.000000 0.000000 0.000000
# 2 -0.002007 0.013467 -0.005541 0.000000 0.000000 0.000000
# 3 -0.006428 -0.005541 0.017012 0.000000 0.000000 0.000000
# 4 0.000000 0.000000 0.000000 0.028009 0.000000 0.000000
# 5 0.000000 0.000000 0.000000 0.000000 0.035232 0.000000
# 6 0.000000 0.000000 0.000000 0.000000 0.000000 0.044120
#
#
# Mechanical properties :
#
#
# Convention : Reuss Voigt Hill
#
# Bulk Modulus (GPa) = 47.08843 48.73654 47.91248
# Shear Modulus (GPa) = 26.09909 27.29816 26.69863
#
# Velocity S-wave (km/s) = 3.58730 3.66878 3.62827
# Velocity P-wave (km/s) = 6.35424 6.47899 6.41692
#
# Compressibility (1/GPa) = 0.02123664
#
# Stress axis : x y z
#
# Youngs Moduli (GPa) = 53.45145 74.25499 58.78291
#
# Poissons Ratio (x) = 0.14900 0.37784
# Poissons Ratio (y) = 0.10726 0.32572
# Poissons Ratio (z) = 0.34357 0.41145
#
# Static dielectric constant tensor:
#      x y z
#    x 3.578370 0.000000 0.000000 
#    y 0.000000 3.847350 0.000000 
#    z 0.000000 0.000000 3.710790 
# 
# 
# High freq. dielectric constant tensor:
#      x y z
#    x 1.787080 0.000000 0.000000 
#    y 0.000000 1.811430 0.000000 
#    z 0.000000 0.000000 1.797690 
# 
# From -- ./inp_files/10272.got.cif
#   From: 2010.06.25/outbox.cif.g09.slc.cpg/sg58_6_cif.got.tgz:10272.got - 2010.06.26 21:38:00.
