data_PCOD8238921
_publ_section_title
;
Structure prediction by ZEFSAII (Michael W. Deem and Ramdas Pophale) SiO2 
 PCOD8238921
Probable space group: P N N M
;
_chemical_formula_sum "Si O2"
_cell_formula_units_Z 32
_cell_length_a 10.996156
_cell_length_b 8.880075
_cell_length_c 14.833338
_cell_angle_alpha 90.000000
_cell_angle_beta 90.000000
_cell_angle_gamma 90.000000
_cell_volume 1448.426357
_symmetry_space_group_name_H-M "P N N M"
_symmetry_group_IT_number 58
_symmetry_cell_setting 'orthorhombic'
loop_
_space_group_symop_operation_xyz
x,y,z
-x,-y,z
1/2+x,1/2-y,1/2-z
1/2-x,1/2+y,1/2-z
-x,-y,-z
x,y,-z
1/2-x,1/2+y,1/2+z
1/2+x,1/2-y,1/2+z
loop_
_atom_site_type_symbol
_atom_site_label
_atom_site_fract_x
_atom_site_fract_y
_atom_site_fract_z
Si Si1 0.668139 0.428673 0.103592
Si Si2 0.077700 0.643781 0.156897
Si Si3 0.396822 0.377550 0.500000
Si Si4 0.056212 0.762254 0.647978
Si Si5 0.139614 0.554759 0.500000
O O1 0.782441 0.399933 0.166384
O O2 0.577685 0.284142 0.103659
O O3 0.611473 0.572535 0.151475
O O4 0.705982 0.460968 0.000000
O O5 0.073326 0.779562 0.087061
O O6 0.031226 0.696330 0.253777
O O7 0.000000 0.500000 0.123600
O O8 0.500000 0.500000 0.500000
O O9 0.255683 0.439529 0.500000
O O10 0.146582 0.656150 0.590343
O O11 0.000000 0.500000 0.500000
#
# Coordination Sequence:
#
# PCOD8238921 Si02
#       5
#     8   8   4   8   4
#     4  11  23  48  75 105 146 193 248 301 371 442
#     4  12  29  47  73 104 151 198 239 296 380 447
#     4  12  31  46  70 107 153 193 243 300 371 451
#     4  11  25  43  76 109 140 189 247 309 359 436
#     4  12  24  45  74 105 140 183 247 305 361 429
#
# _framework density 22.092942000000001
#
# number of rings (size 3 to 8) (size 9 to 14) (size 15 to 20)
#    0.000    0.500    3.750    3.375   14.000    0.000 
#    0.000    0.000    0.000    0.000    0.000    0.000 
#    0.000    0.000    0.000    0.000    0.000    0.000 
#
# Total GULP energy -396609.868497 kJ/mol
# GULP energy per Si atom -12394.058391 kJ/mol
# Density = 2.204266 g / cm^3
# Si number density = 22.092942 Si / 1000 Ang^3
#
#
#
# Elastic Constant Matrix: (Units=GPa)
#
#
# Indices 1 2 3 4 5 6 
#
# 1 123.5302 63.3776 38.0919 0.0000 0.0000 0.0000
# 2 63.3776 120.4133 66.1443 0.0000 0.0000 0.0000
# 3 38.0919 66.1443 114.6767 0.0000 0.0000 0.0000
# 4 0.0000 0.0000 0.0000 42.9772 0.0000 0.0000
# 5 0.0000 0.0000 0.0000 0.0000 23.0981 0.0000
# 6 0.0000 0.0000 0.0000 0.0000 0.0000 34.9713
#
#
#
# Elastic Compliance Matrix: (Units=1/GPa)
#
#
# Indices 1 2 3 4 5 6 
#
# 1 0.011107 -0.005591 -0.000465 0.000000 0.000000 0.000000
# 2 -0.005591 0.014970 -0.006778 0.000000 0.000000 0.000000
# 3 -0.000465 -0.006778 0.012784 0.000000 0.000000 0.000000
# 4 0.000000 0.000000 0.000000 0.023268 0.000000 0.000000
# 5 0.000000 0.000000 0.000000 0.000000 0.043294 0.000000
# 6 0.000000 0.000000 0.000000 0.000000 0.000000 0.028595
#
#
# Mechanical properties :
#
#
# Convention : Reuss Voigt Hill
#
# Bulk Modulus (GPa) = 75.78689 77.09419 76.44054
# Shear Modulus (GPa) = 30.47260 32.94307 31.70784
#
# Velocity S-wave (km/s) = 3.71791 3.86568 3.79252
# Velocity P-wave (km/s) = 7.26695 7.40917 7.33841
#
# Compressibility (1/GPa) = 0.01319489
#
# Stress axis : x y z
#
# Youngs Moduli (GPa) = 90.03529 66.79884 78.22383
#
# Poissons Ratio (x) = 0.37345 0.03635
# Poissons Ratio (y) = 0.50335 0.53018
# Poissons Ratio (z) = 0.04184 0.45274
#
# Static dielectric constant tensor:
#      x y z
#    x 4.376060 0.000000 0.000000 
#    y 0.000000 4.333660 0.000000 
#    z 0.000000 0.000000 3.782800 
# 
# 
# High freq. dielectric constant tensor:
#      x y z
#    x 1.874440 0.000000 0.000000 
#    y 0.000000 1.885730 0.000000 
#    z 0.000000 0.000000 1.869180 
# 
# From -- ./inp_files/19196.got.cif
#   From: 2010.06.25/outbox.cif.g09.slc.cpg/sg58_10_cif.got.tgz:19196.got - 2010.06.26 21:38:00.
