data_PCOD8238840
_publ_section_title
;
Structure prediction by ZEFSAII (Michael W. Deem and Ramdas Pophale) SiO2 
 PCOD8238840
Probable space group: P N N M
;
_chemical_formula_sum "Si O2"
_cell_formula_units_Z 48
_cell_length_a 14.172396
_cell_length_b 8.462139
_cell_length_c 20.085074
_cell_angle_alpha 90.000000
_cell_angle_beta 90.000000
_cell_angle_gamma 90.000000
_cell_volume 2408.778520
_symmetry_space_group_name_H-M "P N N M"
_symmetry_group_IT_number 58
_symmetry_cell_setting 'orthorhombic'
loop_
_space_group_symop_operation_xyz
x,y,z
-x,-y,z
1/2+x,1/2-y,1/2-z
1/2-x,1/2+y,1/2-z
-x,-y,-z
x,y,-z
1/2-x,1/2+y,1/2+z
1/2+x,1/2-y,1/2+z
loop_
_atom_site_type_symbol
_atom_site_label
_atom_site_fract_x
_atom_site_fract_y
_atom_site_fract_z
Si Si1 0.025002 0.319675 0.774935
Si Si2 0.713358 0.324981 0.924134
Si Si3 0.976328 0.680832 0.380562
Si Si4 0.716742 0.325000 0.310486
Si Si5 0.832681 0.188646 0.190209
Si Si6 0.667192 0.680571 0.076635
O O1 0.035881 0.283775 0.697158
O O2 0.123649 0.282209 0.810293
O O3 0.000000 0.500000 0.789411
O O4 0.945120 0.208231 0.806412
O O5 0.620926 0.217706 0.917122
O O6 0.797391 0.257549 0.879572
O O7 0.689454 0.502378 0.901226
O O8 0.748524 0.320267 0.000000
O O9 0.000000 0.500000 0.394895
O O10 0.056722 0.791929 0.410977
O O11 0.786910 0.284240 0.250769
O O12 0.691405 0.506517 0.302767
O O13 0.770575 0.300548 0.379940
O O14 0.692654 0.711010 0.000000
#
# Coordination Sequence:
#
# PCOD8238840 Si02
#       6
#     8   8   8   8   8   8
#     4  11  23  40  63  94 125 159 203 255 306 359
#     4  11  24  41  62  90 126 166 205 251 308 367
#     4  11  22  36  61  93 126 163 202 253 308 363
#     4  12  24  40  64  92 123 162 205 254 304 361
#     4  12  24  40  64  92 123 162 205 254 304 361
#     4  11  24  41  62  90 126 166 205 251 308 367
#
# _framework density 19.927111
#
# number of rings (size 3 to 8) (size 9 to 14) (size 15 to 20)
#    0.000    0.667    3.333    5.500    0.000    6.000 
#    0.000    0.833    0.000    5.000    0.000    0.000 
#    0.000    0.000    0.000    0.000    0.000    0.000 
#
# Total GULP energy -595628.912710 kJ/mol
# GULP energy per Si atom -12408.935681 kJ/mol
# Density = 1.988176 g / cm^3
# Si number density = 19.927111 Si / 1000 Ang^3
#
#
#
# Elastic Constant Matrix: (Units=GPa)
#
#
# Indices 1 2 3 4 5 6 
#
# 1 74.0071 -11.6023 18.9099 0.0000 0.0000 0.0000
# 2 -11.6023 65.9003 23.6308 0.0000 0.0000 0.0000
# 3 18.9099 23.6308 84.5662 0.0000 0.0000 0.0000
# 4 0.0000 0.0000 0.0000 15.3027 0.0000 0.0000
# 5 0.0000 0.0000 0.0000 0.0000 20.9697 0.0000
# 6 0.0000 0.0000 0.0000 0.0000 0.0000 38.5442
#
#
#
# Elastic Compliance Matrix: (Units=1/GPa)
#
#
# Indices 1 2 3 4 5 6 
#
# 1 0.015392 0.004383 -0.004667 0.000000 0.000000 0.000000
# 2 0.004383 0.018112 -0.006041 0.000000 0.000000 0.000000
# 3 -0.004667 -0.006041 0.014557 0.000000 0.000000 0.000000
# 4 0.000000 0.000000 0.000000 0.065348 0.000000 0.000000
# 5 0.000000 0.000000 0.000000 0.000000 0.047688 0.000000
# 6 0.000000 0.000000 0.000000 0.000000 0.000000 0.025944
#
#
# Mechanical properties :
#
#
# Convention : Reuss Voigt Hill
#
# Bulk Modulus (GPa) = 28.23945 31.81670 30.02807
# Shear Modulus (GPa) = 23.64129 27.86567 25.75348
#
# Velocity S-wave (km/s) = 3.44814 3.74355 3.59887
# Velocity P-wave (km/s) = 5.48224 5.88954 5.68954
#
# Compressibility (1/GPa) = 0.03541146
#
# Stress axis : x y z
#
# Youngs Moduli (GPa) = 64.96972 55.21051 68.69665
#
# Poissons Ratio (x) = -0.24200 0.32058
# Poissons Ratio (y) = -0.28478 0.41502
# Poissons Ratio (z) = 0.30319 0.33355
#
# Static dielectric constant tensor:
#      x y z
#    x 3.800510 0.000000 0.000000 
#    y 0.000000 3.775040 0.000000 
#    z 0.000000 0.000000 3.686440 
# 
# 
# High freq. dielectric constant tensor:
#      x y z
#    x 1.779410 0.000000 0.000000 
#    y 0.000000 1.794320 0.000000 
#    z 0.000000 0.000000 1.772680 
# 
# From -- ./inp_files/5896.got.cif
#   From: 2010.06.25/outbox.cif.g09.slc.cpg/sg58_3_cif.got.tgz:5896.got - 2010.06.26 21:38:00.
