data_PCOD8238010
_publ_section_title
;
Structure prediction by ZEFSAII (Michael W. Deem and Ramdas Pophale) SiO2 
 PCOD8238010
Probable space group: P N N M
;
_chemical_formula_sum "Si O2"
_cell_formula_units_Z 64
_cell_length_a 22.146891
_cell_length_b 9.393410
_cell_length_c 14.677894
_cell_angle_alpha 90.000000
_cell_angle_beta 90.000000
_cell_angle_gamma 90.000000
_cell_volume 3053.513145
_symmetry_space_group_name_H-M "P N N M"
_symmetry_group_IT_number 58
_symmetry_cell_setting 'orthorhombic'
loop_
_space_group_symop_operation_xyz
x,y,z
-x,-y,z
1/2+x,1/2-y,1/2-z
1/2-x,1/2+y,1/2-z
-x,-y,-z
x,y,-z
1/2-x,1/2+y,1/2+z
1/2+x,1/2-y,1/2+z
loop_
_atom_site_type_symbol
_atom_site_label
_atom_site_fract_x
_atom_site_fract_y
_atom_site_fract_z
Si Si1 0.113511 0.873674 0.717040
Si Si2 0.398580 0.043737 0.398997
Si Si3 0.673415 0.684470 0.602116
Si Si4 0.102746 0.185222 0.725728
Si Si5 0.700058 0.794511 0.101217
Si Si6 0.481994 0.147192 0.239927
Si Si7 0.809748 0.618726 0.392811
Si Si8 0.658649 0.252601 0.600677
O O1 0.127071 0.884307 0.825339
O O2 0.173876 0.826399 0.666205
O O3 0.064951 0.751246 0.689479
O O4 0.091854 0.028915 0.680915
O O5 0.426462 0.029921 0.500000
O O6 0.341835 0.149630 0.400170
O O7 0.453298 0.093505 0.334969
O O8 0.367391 0.898886 0.366103
O O9 0.664616 0.615740 0.500000
O O10 0.742658 0.669991 0.633119
O O11 0.141354 0.286497 0.659857
O O12 0.137044 0.143144 0.819581
O O13 0.040817 0.258541 0.755016
O O14 0.770155 0.761374 0.098226
O O15 0.684884 0.953562 0.137487
O O16 0.672774 0.778531 0.000000
O O17 0.500000 0.000000 0.185523
O O18 0.821776 0.636680 0.500000
O O19 0.633466 0.292307 0.500000
#
# Coordination Sequence:
#
# PCOD8238010 Si02
#       8
#     8   8   8   8   8   8   8   8
#     4  11  24  39  61  90 122 160 206 255 306 359
#     4   9  19  35  59  91 121 160 206 248 299 359
#     4   9  19  36  59  88 126 162 196 245 305 368
#     4  12  24  38  61  90 121 163 207 254 302 351
#     4  10  22  40  62  89 123 159 198 251 310 372
#     4  11  22  41  61  82 118 164 206 256 292 355
#     4  10  22  40  63  90 123 162 205 251 311 369
#     4  10  21  36  60  94 129 162 200 243 303 372
#
# _framework density 20.959465999999999
#
# number of rings (size 3 to 8) (size 9 to 14) (size 15 to 20)
#    0.000    1.750    1.250    2.625    3.500    2.750 
#    0.000    0.625    0.000    7.500    0.000    0.000 
#    0.000    0.000    0.000    0.000    0.000    0.000 
#
# Total GULP energy -793039.550253 kJ/mol
# GULP energy per Si atom -12391.242973 kJ/mol
# Density = 2.091176 g / cm^3
# Si number density = 20.959466 Si / 1000 Ang^3
#
#
#
# Elastic Constant Matrix: (Units=GPa)
#
#
# Indices 1 2 3 4 5 6 
#
# 1 79.9268 61.9572 27.9863 0.0000 0.0000 0.0000
# 2 61.9572 129.9295 31.5010 0.0000 0.0000 0.0000
# 3 27.9863 31.5010 60.1778 0.0000 0.0000 0.0000
# 4 0.0000 0.0000 0.0000 9.4540 0.0000 0.0000
# 5 0.0000 0.0000 0.0000 0.0000 23.3594 0.0000
# 6 0.0000 0.0000 0.0000 0.0000 0.0000 38.6739
#
#
#
# Elastic Compliance Matrix: (Units=1/GPa)
#
#
# Indices 1 2 3 4 5 6 
#
# 1 0.021194 -0.008838 -0.005230 0.000000 0.000000 0.000000
# 2 -0.008838 0.012501 -0.002433 0.000000 0.000000 0.000000
# 3 -0.005230 -0.002433 0.020323 0.000000 0.000000 0.000000
# 4 0.000000 0.000000 0.000000 0.105776 0.000000 0.000000
# 5 0.000000 0.000000 0.000000 0.000000 0.042809 0.000000
# 6 0.000000 0.000000 0.000000 0.000000 0.000000 0.025857
#
#
# Mechanical properties :
#
#
# Convention : Reuss Voigt Hill
#
# Bulk Modulus (GPa) = 47.58508 56.99145 52.28827
# Shear Modulus (GPa) = 18.62410 24.20344 21.41377
#
# Velocity S-wave (km/s) = 2.98413 3.40188 3.19983
# Velocity P-wave (km/s) = 5.88439 6.53305 6.21719
#
# Compressibility (1/GPa) = 0.02101499
#
# Stress axis : x y z
#
# Youngs Moduli (GPa) = 47.18316 79.99296 49.20419
#
# Poissons Ratio (x) = 0.70701 0.25733
# Poissons Ratio (y) = 0.41703 0.11974
# Poissons Ratio (z) = 0.24676 0.19466
#
# Static dielectric constant tensor:
#      x y z
#    x 3.683640 0.000000 0.000000 
#    y 0.000000 4.004790 0.000000 
#    z 0.000000 0.000000 3.826800 
# 
# 
# High freq. dielectric constant tensor:
#      x y z
#    x 1.813100 0.000000 0.000000 
#    y 0.000000 1.837260 0.000000 
#    z 0.000000 0.000000 1.804860 
# 
# From -- ./inp_files/23555.got.cif
#   From: 2010.06.25/outbox.cif.g09.slc.cpg/sg58_12_cif.got.tgz:23555.got - 2010.06.26 21:38:00.
