data_PCOD8238307
_publ_section_title
;
Structure prediction by ZEFSAII (Michael W. Deem and Ramdas Pophale) SiO2 
 PCOD8238307
Probable space group: P N N M
;
_chemical_formula_sum "Si O2"
_cell_formula_units_Z 48
_cell_length_a 18.944833
_cell_length_b 14.927097
_cell_length_c 8.764421
_cell_angle_alpha 90.000000
_cell_angle_beta 90.000000
_cell_angle_gamma 90.000000
_cell_volume 2478.502533
_symmetry_space_group_name_H-M "P N N M"
_symmetry_group_IT_number 58
_symmetry_cell_setting 'orthorhombic'
loop_
_space_group_symop_operation_xyz
x,y,z
-x,-y,z
1/2+x,1/2-y,1/2-z
1/2-x,1/2+y,1/2-z
-x,-y,-z
x,y,-z
1/2-x,1/2+y,1/2+z
1/2+x,1/2-y,1/2+z
loop_
_atom_site_type_symbol
_atom_site_label
_atom_site_fract_x
_atom_site_fract_y
_atom_site_fract_z
Si Si1 0.424564 0.532604 0.321535
Si Si2 0.923542 0.779814 0.679589
Si Si3 0.671008 0.129592 0.677415
Si Si4 0.421032 0.225659 0.820417
Si Si5 0.177699 0.870569 0.821559
Si Si6 0.575944 0.961954 0.322873
O O1 0.500000 0.500000 0.256677
O O2 0.430431 0.551507 0.500000
O O3 0.401044 0.623586 0.241107
O O4 0.367067 0.458322 0.281316
O O5 0.923020 0.782494 0.500000
O O6 0.866246 0.708974 0.732959
O O7 0.001188 0.752693 0.739320
O O8 0.665108 0.152031 0.500000
O O9 0.751429 0.122645 0.726126
O O10 0.634321 0.035706 0.716179
O O11 0.364510 0.283028 0.728422
O O12 0.406470 0.122521 0.782123
O O13 0.412164 0.242199 0.000000
O O14 0.194875 0.864133 0.000000
O O15 0.576991 0.933540 0.500000
O O16 0.500000 0.000000 0.276191
#
# Coordination Sequence:
#
# PCOD8238307 Si02
#       6
#     8   8   8   8   8   8
#     4  10  21  39  64  91 120 162 209 253 304 363
#     4  11  23  38  62  94 126 162 205 254 305 363
#     4  11  24  42  64  90 125 162 203 255 310 368
#     4  11  23  38  62  94 126 162 205 254 305 363
#     4  11  24  42  64  90 125 162 203 255 310 368
#     4  10  21  39  64  91 120 162 209 253 304 363
#
# _framework density 19.366534000000001
#
# number of rings (size 3 to 8) (size 9 to 14) (size 15 to 20)
#    0.000    1.333    3.333    2.000    0.000    6.000 
#    0.000    3.333    0.000    0.000    0.000    0.000 
#    0.000    0.000    0.000    0.000    0.000    0.000 
#
# Total GULP energy -595544.304571 kJ/mol
# GULP energy per Si atom -12407.173012 kJ/mol
# Density = 1.932245 g / cm^3
# Si number density = 19.366534 Si / 1000 Ang^3
#
#
#
# Elastic Constant Matrix: (Units=GPa)
#
#
# Indices 1 2 3 4 5 6 
#
# 1 101.7027 33.8802 -1.5358 0.0000 0.0000 0.0000
# 2 33.8802 116.9236 16.6543 0.0000 0.0000 0.0000
# 3 -1.5358 16.6543 9.8096 0.0000 0.0000 0.0000
# 4 0.0000 0.0000 0.0000 183.2013 0.0000 0.0000
# 5 0.0000 0.0000 0.0000 0.0000 41.7105 0.0000
# 6 0.0000 0.0000 0.0000 0.0000 0.0000 27.6392
#
#
#
# Elastic Compliance Matrix: (Units=1/GPa)
#
#
# Indices 1 2 3 4 5 6 
#
# 1 0.011568 -0.004761 0.009895 0.000000 0.000000 0.000000
# 2 -0.004761 0.013240 -0.023224 0.000000 0.000000 0.000000
# 3 0.009895 -0.023224 0.142920 0.000000 0.000000 0.000000
# 4 0.000000 0.000000 0.000000 0.005458 0.000000 0.000000
# 5 0.000000 0.000000 0.000000 0.000000 0.023975 0.000000
# 6 0.000000 0.000000 0.000000 0.000000 0.000000 0.036180
#
#
# Mechanical properties :
#
#
# Convention : Reuss Voigt Hill
#
# Bulk Modulus (GPa) = 7.60185 36.27036 21.93611
# Shear Modulus (GPa) = 15.95544 62.47270 39.21407
#
# Velocity S-wave (km/s) = 2.87342 5.68578 4.50470
# Velocity P-wave (km/s) = 3.86555 7.86595 6.19741
#
# Compressibility (1/GPa) = 0.13154685
#
# Stress axis : x y z
#
# Youngs Moduli (GPa) = 86.44401 75.52703 6.99692
#
# Poissons Ratio (x) = 0.35962 -0.06923
# Poissons Ratio (y) = 0.41160 0.16250
# Poissons Ratio (z) = -0.85536 1.75406
#
# Static dielectric constant tensor:
#      x y z
#    x 3.550430 0.000000 0.000000 
#    y 0.000000 3.574210 0.000000 
#    z 0.000000 0.000000 3.503200 
# 
# 
# High freq. dielectric constant tensor:
#      x y z
#    x 1.756210 0.000000 0.000000 
#    y 0.000000 1.767440 0.000000 
#    z 0.000000 0.000000 1.757840 
# 
# From -- ./inp_files/5763.got.cif
#   From: 2010.06.25/outbox.cif.g09.slc.cpg/sg58_3_cif.got.tgz:5763.got - 2010.06.26 21:38:00.
