data_PCOD8238846
_publ_section_title
;
Structure prediction by ZEFSAII (Michael W. Deem and Ramdas Pophale) SiO2 
 PCOD8238846
Probable space group: P N N M
;
_chemical_formula_sum "Si O2"
_cell_formula_units_Z 40
_cell_length_a 4.856840
_cell_length_b 23.425024
_cell_length_c 16.331193
_cell_angle_alpha 90.000000
_cell_angle_beta 90.000000
_cell_angle_gamma 90.000000
_cell_volume 1858.025852
_symmetry_space_group_name_H-M "P N N M"
_symmetry_group_IT_number 58
_symmetry_cell_setting 'orthorhombic'
loop_
_space_group_symop_operation_xyz
x,y,z
-x,-y,z
1/2+x,1/2-y,1/2-z
1/2-x,1/2+y,1/2-z
-x,-y,-z
x,y,-z
1/2-x,1/2+y,1/2+z
1/2+x,1/2-y,1/2+z
loop_
_atom_site_type_symbol
_atom_site_label
_atom_site_fract_x
_atom_site_fract_y
_atom_site_fract_z
Si Si1 0.454991 0.064018 0.136897
Si Si2 0.416717 0.565634 0.092269
Si Si3 0.757894 0.214999 0.233822
Si Si4 0.937888 0.135911 0.091012
Si Si5 0.091649 0.397132 0.810776
O O1 0.147444 0.088611 0.127092
O O2 0.540745 0.063714 0.231988
O O3 0.646351 0.104746 0.083203
O O4 0.500000 0.000000 0.103640
O O5 0.500000 0.500000 0.098455
O O6 0.598039 0.598700 0.157651
O O7 0.104193 0.580569 0.116717
O O8 0.460488 0.587704 0.000000
O O9 0.517247 0.261015 0.213755
O O10 0.577709 0.169144 0.285389
O O11 0.897104 0.189826 0.151140
O O12 0.025392 0.157003 0.000000
#
# Coordination Sequence:
#
# PCOD8238846 Si02
#       5
#     8   8   8   8   8
#     4  11  22  37  62  92 123 163 200 237 295 370
#     4  11  22  37  59  89 127 163 194 243 310 368
#     4  11  23  43  66  86 115 161 213 262 310 354
#     4  11  24  41  61  90 126 158 198 251 304 361
#     4  11  22  39  61  87 119 157 209 254 294 366
#
# _framework density 21.528227000000001
#
# number of rings (size 3 to 8) (size 9 to 14) (size 15 to 20)
#    0.000    1.000    0.000    9.600    0.000    4.000 
#    0.000    6.000    0.000    0.000    0.000    0.000 
#    0.000    0.000    0.000    0.000    0.000    0.000 
#
# Total GULP energy -495841.182673 kJ/mol
# GULP energy per Si atom -12396.029567 kJ/mol
# Density = 2.147923 g / cm^3
# Si number density = 21.528227 Si / 1000 Ang^3
#
#
#
# Elastic Constant Matrix: (Units=GPa)
#
#
# Indices 1 2 3 4 5 6 
#
# 1 93.8996 30.0883 22.5592 0.0000 0.0000 0.0000
# 2 30.0883 98.1270 37.4394 0.0000 0.0000 0.0000
# 3 22.5592 37.4394 125.2669 0.0000 0.0000 0.0000
# 4 0.0000 0.0000 0.0000 15.9079 0.0000 0.0000
# 5 0.0000 0.0000 0.0000 0.0000 32.4972 0.0000
# 6 0.0000 0.0000 0.0000 0.0000 0.0000 51.1584
#
#
#
# Elastic Compliance Matrix: (Units=1/GPa)
#
#
# Indices 1 2 3 4 5 6 
#
# 1 0.011966 -0.003213 -0.001195 0.000000 0.000000 0.000000
# 2 -0.003213 0.012365 -0.003117 0.000000 0.000000 0.000000
# 3 -0.001195 -0.003117 0.009130 0.000000 0.000000 0.000000
# 4 0.000000 0.000000 0.000000 0.062862 0.000000 0.000000
# 5 0.000000 0.000000 0.000000 0.000000 0.030772 0.000000
# 6 0.000000 0.000000 0.000000 0.000000 0.000000 0.019547
#
#
# Mechanical properties :
#
#
# Convention : Reuss Voigt Hill
#
# Bulk Modulus (GPa) = 54.31417 55.27415 54.79416
# Shear Modulus (GPa) = 29.79210 35.05981 32.42596
#
# Velocity S-wave (km/s) = 3.72407 4.03991 3.88520
# Velocity P-wave (km/s) = 6.61631 6.89145 6.75528
#
# Compressibility (1/GPa) = 0.01841140
#
# Stress axis : x y z
#
# Youngs Moduli (GPa) = 83.56773 80.87040 109.53256
#
# Poissons Ratio (x) = 0.25987 0.13085
# Poissons Ratio (y) = 0.26854 0.34142
# Poissons Ratio (z) = 0.09983 0.25208
#
# Static dielectric constant tensor:
#      x y z
#    x 3.967890 0.000000 0.000000 
#    y 0.000000 3.844230 0.000000 
#    z 0.000000 0.000000 3.854610 
# 
# 
# High freq. dielectric constant tensor:
#      x y z
#    x 1.864610 0.000000 0.000000 
#    y 0.000000 1.835490 0.000000 
#    z 0.000000 0.000000 1.838190 
# 
# From -- ./inp_files/18484.got.cif
#   From: 2010.06.25/outbox.cif.g09.slc.cpg/sg58_10_cif.got.tgz:18484.got - 2010.06.26 21:38:00.
