data_PCOD8238253
_publ_section_title
;
Structure prediction by ZEFSAII (Michael W. Deem and Ramdas Pophale) SiO2 
 PCOD8238253
Probable space group: P N N M
;
_chemical_formula_sum "Si O2"
_cell_formula_units_Z 64
_cell_length_a 16.659880
_cell_length_b 22.025865
_cell_length_c 9.173062
_cell_angle_alpha 90.000000
_cell_angle_beta 90.000000
_cell_angle_gamma 90.000000
_cell_volume 3366.039211
_symmetry_space_group_name_H-M "P N N M"
_symmetry_group_IT_number 58
_symmetry_cell_setting 'orthorhombic'
loop_
_space_group_symop_operation_xyz
x,y,z
-x,-y,z
1/2+x,1/2-y,1/2-z
1/2-x,1/2+y,1/2-z
-x,-y,-z
x,y,-z
1/2-x,1/2+y,1/2+z
1/2+x,1/2-y,1/2+z
loop_
_atom_site_type_symbol
_atom_site_label
_atom_site_fract_x
_atom_site_fract_y
_atom_site_fract_z
Si Si1 0.784281 0.846751 0.328255
Si Si2 0.915037 0.758749 0.326432
Si Si3 0.038334 0.373002 0.328939
Si Si4 0.896605 0.951385 0.665545
Si Si5 0.652230 0.565805 0.329887
Si Si6 0.625081 0.905054 0.327666
Si Si7 0.829774 0.527127 0.330599
Si Si8 0.962597 0.141082 0.335407
O O1 0.797500 0.847419 0.500000
O O2 0.829541 0.786246 0.267564
O O3 0.828886 0.906617 0.268688
O O4 0.690160 0.852048 0.288236
O O5 0.914387 0.759641 0.500000
O O6 0.925964 0.690480 0.268797
O O7 0.988754 0.800990 0.271539
O O8 0.019661 0.369414 0.500000
O O9 0.100780 0.425467 0.292418
O O10 0.957009 0.386801 0.246096
O O11 0.876544 0.971754 0.500000
O O12 0.982079 0.918602 0.669966
O O13 0.898096 0.009570 0.768109
O O14 0.637739 0.570038 0.500000
O O15 0.745978 0.559224 0.291084
O O16 0.617110 0.627872 0.259551
O O17 0.613080 0.910985 0.500000
O O18 0.657449 0.968731 0.268634
O O19 0.832858 0.507845 0.500000
O O20 0.935110 0.154677 0.500000
#
# Coordination Sequence:
#
# PCOD8238253 Si02
#       8
#     8   8   8   8   8   8   8   8
#     4   8  15  30  54  82 105 133 177 222 261 311
#     4   8  16  35  59  78 100 139 187 220 253 317
#     4  10  21  39  60  78 105 144 184 223 266 323
#     4   9  16  30  51  74 103 139 180 218 260 318
#     4  11  21  31  46  75 113 143 174 218 272 323
#     4  11  21  35  59  88 111 136 177 230 280 318
#     4  10  22  38  54  78 110 147 184 220 267 328
#     4   9  18  32  53  77 101 137 182 221 260 319
#
# _framework density 19.013445999999998
#
# number of rings (size 3 to 8) (size 9 to 14) (size 15 to 20)
#    0.000    2.500    1.250    3.000    0.000    4.500 
#    2.250    0.625    0.000    2.250    0.000    0.000 
#    0.000    0.000    0.000    0.000    0.000    0.000 
#
# Total GULP energy -793298.097080 kJ/mol
# GULP energy per Si atom -12395.282767 kJ/mol
# Density = 1.897017 g / cm^3
# Si number density = 19.013446 Si / 1000 Ang^3
#
#
#
# Elastic Constant Matrix: (Units=GPa)
#
#
# Indices 1 2 3 4 5 6 
#
# 1 110.7413 46.5774 42.5358 0.0000 0.0000 0.0000
# 2 46.5774 72.7167 30.5905 0.0000 0.0000 0.0000
# 3 42.5358 30.5905 55.7494 0.0000 0.0000 0.0000
# 4 0.0000 0.0000 0.0000 17.2101 0.0000 0.0000
# 5 0.0000 0.0000 0.0000 0.0000 28.0478 0.0000
# 6 0.0000 0.0000 0.0000 0.0000 0.0000 16.3437
#
#
#
# Elastic Compliance Matrix: (Units=1/GPa)
#
#
# Indices 1 2 3 4 5 6 
#
# 1 0.014570 -0.006053 -0.007795 0.000000 0.000000 0.000000
# 2 -0.006053 0.020394 -0.006572 0.000000 0.000000 0.000000
# 3 -0.007795 -0.006572 0.027491 0.000000 0.000000 0.000000
# 4 0.000000 0.000000 0.000000 0.058105 0.000000 0.000000
# 5 0.000000 0.000000 0.000000 0.000000 0.035653 0.000000
# 6 0.000000 0.000000 0.000000 0.000000 0.000000 0.061186
#
#
# Mechanical properties :
#
#
# Convention : Reuss Voigt Hill
#
# Bulk Modulus (GPa) = 46.26549 53.17944 49.72247
# Shear Modulus (GPa) = 18.83624 20.28724 19.56174
#
# Velocity S-wave (km/s) = 3.15092 3.27003 3.21103
# Velocity P-wave (km/s) = 6.13381 6.50289 6.32104
#
# Compressibility (1/GPa) = 0.02161438
#
# Stress axis : x y z
#
# Youngs Moduli (GPa) = 68.63293 49.03392 36.37536
#
# Poissons Ratio (x) = 0.29682 0.28356
# Poissons Ratio (y) = 0.41546 0.23905
# Poissons Ratio (z) = 0.53501 0.32224
#
# Static dielectric constant tensor:
#      x y z
#    x 3.671100 0.000000 0.000000 
#    y 0.000000 3.662040 0.000000 
#    z 0.000000 0.000000 3.231180 
# 
# 
# High freq. dielectric constant tensor:
#      x y z
#    x 1.747090 0.000000 0.000000 
#    y 0.000000 1.729650 0.000000 
#    z 0.000000 0.000000 1.707500 
# 
# From -- ./inp_files/8339.got.cif
#   From: 2010.06.25/outbox.cif.g09.slc.cpg/sg58_5_cif.got.tgz:8339.got - 2010.06.26 21:38:00.
