data_PCOD8238527
_publ_section_title
;
Structure prediction by ZEFSAII (Michael W. Deem and Ramdas Pophale) SiO2 
 PCOD8238527
Probable space group: P N N M
;
_chemical_formula_sum "Si O2"
_cell_formula_units_Z 56
_cell_length_a 9.921424
_cell_length_b 20.106679
_cell_length_c 14.940181
_cell_angle_alpha 90.000000
_cell_angle_beta 90.000000
_cell_angle_gamma 90.000000
_cell_volume 2980.370208
_symmetry_space_group_name_H-M "P N N M"
_symmetry_group_IT_number 58
_symmetry_cell_setting 'orthorhombic'
loop_
_space_group_symop_operation_xyz
x,y,z
-x,-y,z
1/2+x,1/2-y,1/2-z
1/2-x,1/2+y,1/2-z
-x,-y,-z
x,y,-z
1/2-x,1/2+y,1/2+z
1/2+x,1/2-y,1/2+z
loop_
_atom_site_type_symbol
_atom_site_label
_atom_site_fract_x
_atom_site_fract_y
_atom_site_fract_z
Si Si1 0.087549 0.697165 0.097139
Si Si2 0.769955 0.125463 0.262824
Si Si3 0.624588 0.303979 0.364392
Si Si4 0.547082 0.574165 0.601231
Si Si5 0.572630 0.069195 0.395845
Si Si6 0.351967 0.751491 0.817025
Si Si7 0.382996 0.274345 0.900835
O O1 0.203566 0.727097 0.157936
O O2 0.967090 0.749589 0.086251
O O3 0.030069 0.627529 0.133584
O O4 0.151835 0.684506 0.000000
O O5 0.698861 0.070904 0.327138
O O6 0.657148 0.174127 0.221753
O O7 0.865619 0.167914 0.328068
O O8 0.846983 0.092917 0.178769
O O9 0.583614 0.377695 0.395682
O O10 0.595742 0.298680 0.258985
O O11 0.780521 0.287431 0.385968
O O12 0.500000 0.500000 0.621206
O O13 0.609806 0.579269 0.500000
O O14 0.618267 0.078403 0.500000
O O15 0.500000 0.000000 0.381427
O O16 0.463441 0.752384 0.894774
O O17 0.361710 0.303835 0.000000
#
# Coordination Sequence:
#
# PCOD8238527 Si02
#       7
#     8   8   8   8   8   8   8
#     4  11  20  35  60  86 116 158 203 244 294 363
#     4  11  22  39  61  90 120 162 197 262 295 362
#     4  11  20  37  60  86 115 157 207 249 292 357
#     4  11  24  42  63  87 117 165 214 250 298 364
#     4  10  22  40  64  92 123 164 204 243 302 378
#     4  11  21  34  58  92 124 154 200 252 306 349
#     4  11  21  35  60  94 125 154 194 255 312 358
#
# _framework density 18.789612999999999
#
# number of rings (size 3 to 8) (size 9 to 14) (size 15 to 20)
#    0.000    1.143    5.714    3.000    0.000    1.714 
#    0.000    0.000    0.000    1.286    0.000    0.000 
#    0.000    0.000    0.000    0.000    0.000    0.000 
#
# Total GULP energy -694038.531109 kJ/mol
# GULP energy per Si atom -12393.545198 kJ/mol
# Density = 1.874685 g / cm^3
# Si number density = 18.789613 Si / 1000 Ang^3
#
#
#
# Elastic Constant Matrix: (Units=GPa)
#
#
# Indices 1 2 3 4 5 6 
#
# 1 92.1476 35.8880 47.2092 0.0000 0.0000 0.0000
# 2 35.8880 117.6876 37.4420 0.0000 0.0000 0.0000
# 3 47.2092 37.4420 133.3326 0.0000 0.0000 0.0000
# 4 0.0000 0.0000 0.0000 28.4579 0.0000 0.0000
# 5 0.0000 0.0000 0.0000 0.0000 20.4057 0.0000
# 6 0.0000 0.0000 0.0000 0.0000 0.0000 19.5928
#
#
#
# Elastic Compliance Matrix: (Units=1/GPa)
#
#
# Indices 1 2 3 4 5 6 
#
# 1 0.014154 -0.002989 -0.004172 0.000000 0.000000 0.000000
# 2 -0.002989 0.009962 -0.001739 0.000000 0.000000 0.000000
# 3 -0.004172 -0.001739 0.009466 0.000000 0.000000 0.000000
# 4 0.000000 0.000000 0.000000 0.035140 0.000000 0.000000
# 5 0.000000 0.000000 0.000000 0.000000 0.049006 0.000000
# 6 0.000000 0.000000 0.000000 0.000000 0.000000 0.051039
#
#
# Mechanical properties :
#
#
# Convention : Reuss Voigt Hill
#
# Bulk Modulus (GPa) = 63.36732 64.91623 64.14178
# Shear Modulus (GPa) = 26.06526 28.53318 27.29922
#
# Velocity S-wave (km/s) = 3.72858 3.90110 3.81581
# Velocity P-wave (km/s) = 7.23424 7.41050 7.32290
#
# Compressibility (1/GPa) = 0.01578101
#
# Stress axis : x y z
#
# Youngs Moduli (GPa) = 70.65336 100.38364 105.64499
#
# Poissons Ratio (x) = 0.30002 0.44076
# Poissons Ratio (y) = 0.21116 0.18374
# Poissons Ratio (z) = 0.29477 0.17459
#
# Static dielectric constant tensor:
#      x y z
#    x 3.383140 0.000000 0.000000 
#    y 0.000000 3.319850 0.000000 
#    z 0.000000 0.000000 3.468080 
# 
# 
# High freq. dielectric constant tensor:
#      x y z
#    x 1.719080 0.000000 0.000000 
#    y 0.000000 1.707720 0.000000 
#    z 0.000000 0.000000 1.751800 
# 
# From -- ./inp_files/20154.got.cif
#   From: 2010.06.25/outbox.cif.g09.slc.cpg/sg58_11_cif.got.tgz:20154.got - 2010.06.26 21:38:00.
