data_PCOD8238070
_publ_section_title
;
Structure prediction by ZEFSAII (Michael W. Deem and Ramdas Pophale) SiO2 
 PCOD8238070
Probable space group: P N N M
;
_chemical_formula_sum "Si O2"
_cell_formula_units_Z 56
_cell_length_a 19.601774
_cell_length_b 16.643412
_cell_length_c 8.946200
_cell_angle_alpha 90.000000
_cell_angle_beta 90.000000
_cell_angle_gamma 90.000000
_cell_volume 2918.611872
_symmetry_space_group_name_H-M "P N N M"
_symmetry_group_IT_number 58
_symmetry_cell_setting 'orthorhombic'
loop_
_space_group_symop_operation_xyz
x,y,z
-x,-y,z
1/2+x,1/2-y,1/2-z
1/2-x,1/2+y,1/2-z
-x,-y,-z
x,y,-z
1/2-x,1/2+y,1/2+z
1/2+x,1/2-y,1/2+z
loop_
_atom_site_type_symbol
_atom_site_label
_atom_site_fract_x
_atom_site_fract_y
_atom_site_fract_z
Si Si1 0.109982 0.818162 0.324151
Si Si2 0.655175 0.347751 0.327152
Si Si3 0.519989 0.248498 0.674180
Si Si4 0.452591 0.930487 0.323460
Si Si5 0.662391 0.508287 0.170604
Si Si6 0.740836 0.740330 0.676281
Si Si7 0.199135 0.412258 0.172165
O O1 0.117584 0.806050 0.500000
O O2 0.035098 0.795781 0.270587
O O3 0.124005 0.910545 0.279938
O O4 0.165122 0.760947 0.244944
O O5 0.674807 0.348410 0.500000
O O6 0.592516 0.288877 0.295001
O O7 0.635512 0.437449 0.275886
O O8 0.720721 0.319721 0.233141
O O9 0.500316 0.253237 0.500000
O O10 0.523614 0.156954 0.733284
O O11 0.460401 0.932266 0.500000
O O12 0.374017 0.947613 0.278567
O O13 0.500000 0.000000 0.250831
O O14 0.743962 0.519153 0.191532
O O15 0.644714 0.486682 0.000000
O O16 0.734255 0.743645 0.500000
O O17 0.784204 0.663311 0.725173
O O18 0.197144 0.381429 0.000000
#
# Coordination Sequence:
#
# PCOD8238070 Si02
#       7
#     8   8   8   8   8   8   8
#     4  10  22  40  60  83 118 156 192 241 300 351
#     4  11  22  37  58  85 119 155 195 243 296 349
#     4  10  21  37  58  85 116 154 198 239 289 354
#     4   9  17  32  57  85 114 151 191 233 284 345
#     4   9  20  36  56  83 112 152 200 244 288 345
#     4  11  21  35  59  84 109 149 200 243 289 351
#     4   9  17  35  57  80 114 149 189 236 291 345
#
# _framework density 19.187203
#
# number of rings (size 3 to 8) (size 9 to 14) (size 15 to 20)
#    0.000    2.143    1.429    3.000    0.000    5.714 
#    0.000    5.714    0.000    1.714    0.000    0.000 
#    0.000    0.000    0.000    0.000    0.000    0.000 
#
# Total GULP energy -694518.641974 kJ/mol
# GULP energy per Si atom -12402.118607 kJ/mol
# Density = 1.914353 g / cm^3
# Si number density = 19.187203 Si / 1000 Ang^3
#
#
#
# Elastic Constant Matrix: (Units=GPa)
#
#
# Indices 1 2 3 4 5 6 
#
# 1 47.7193 30.9480 33.1066 0.0000 0.0000 0.0000
# 2 30.9480 105.5313 38.4554 0.0000 0.0000 0.0000
# 3 33.1066 38.4554 86.7291 0.0000 0.0000 0.0000
# 4 0.0000 0.0000 0.0000 27.9505 0.0000 0.0000
# 5 0.0000 0.0000 0.0000 0.0000 30.5399 0.0000
# 6 0.0000 0.0000 0.0000 0.0000 0.0000 27.5868
#
#
#
# Elastic Compliance Matrix: (Units=1/GPa)
#
#
# Indices 1 2 3 4 5 6 
#
# 1 0.031162 -0.005730 -0.009355 0.000000 0.000000 0.000000
# 2 -0.005730 0.012355 -0.003291 0.000000 0.000000 0.000000
# 3 -0.009355 -0.003291 0.016560 0.000000 0.000000 0.000000
# 4 0.000000 0.000000 0.000000 0.035778 0.000000 0.000000
# 5 0.000000 0.000000 0.000000 0.000000 0.032744 0.000000
# 6 0.000000 0.000000 0.000000 0.000000 0.000000 0.036249
#
#
# Mechanical properties :
#
#
# Convention : Reuss Voigt Hill
#
# Bulk Modulus (GPa) = 42.86967 49.44442 46.15704
# Shear Modulus (GPa) = 23.88057 26.38010 25.13033
#
# Velocity S-wave (km/s) = 3.53173 3.71196 3.62297
# Velocity P-wave (km/s) = 6.24677 6.64808 6.45055
#
# Compressibility (1/GPa) = 0.02332652
#
# Stress axis : x y z
#
# Youngs Moduli (GPa) = 32.09046 80.93590 60.38506
#
# Poissons Ratio (x) = 0.46374 0.56489
# Poissons Ratio (y) = 0.18387 0.19874
# Poissons Ratio (z) = 0.30020 0.26638
#
# Static dielectric constant tensor:
#      x y z
#    x 3.598290 0.000000 0.000000 
#    y 0.000000 3.518850 0.000000 
#    z 0.000000 0.000000 3.297360 
# 
# 
# High freq. dielectric constant tensor:
#      x y z
#    x 1.750770 0.000000 0.000000 
#    y 0.000000 1.743030 0.000000 
#    z 0.000000 0.000000 1.729520 
# 
# From -- ./inp_files/9055.got.cif
#   From: 2010.06.25/outbox.cif.g09.slc.cpg/sg58_5_cif.got.tgz:9055.got - 2010.06.26 21:38:00.
