data_PCOD8238556
_publ_section_title
;
Structure prediction by ZEFSAII (Michael W. Deem and Ramdas Pophale) SiO2 
 PCOD8238556
Probable space group: P N N M
;
_chemical_formula_sum "Si O2"
_cell_formula_units_Z 48
_cell_length_a 13.403813
_cell_length_b 10.779162
_cell_length_c 16.110509
_cell_angle_alpha 90.000000
_cell_angle_beta 90.000000
_cell_angle_gamma 90.000000
_cell_volume 2327.676495
_symmetry_space_group_name_H-M "P N N M"
_symmetry_group_IT_number 58
_symmetry_cell_setting 'orthorhombic'
loop_
_space_group_symop_operation_xyz
x,y,z
-x,-y,z
1/2+x,1/2-y,1/2-z
1/2-x,1/2+y,1/2-z
-x,-y,-z
x,y,-z
1/2-x,1/2+y,1/2+z
1/2+x,1/2-y,1/2+z
loop_
_atom_site_type_symbol
_atom_site_label
_atom_site_fract_x
_atom_site_fract_y
_atom_site_fract_z
Si Si1 0.441299 0.113040 0.592106
Si Si2 0.001341 0.646328 0.595951
Si Si3 0.346900 0.708120 0.798856
Si Si4 0.336024 0.290152 0.803056
Si Si5 0.008005 0.863611 0.181187
Si Si6 0.724374 0.495153 0.907478
O O1 0.486644 0.119333 0.500000
O O2 0.452637 0.251928 0.625079
O O3 0.326767 0.078457 0.592415
O O4 0.500000 0.000000 0.639920
O O5 0.998560 0.695965 0.500000
O O6 0.902733 0.685139 0.648236
O O7 0.000000 0.500000 0.594936
O O8 0.103024 0.688663 0.642995
O O9 0.233210 0.735940 0.770653
O O10 0.400097 0.678395 0.712256
O O11 0.353531 0.588679 0.857872
O O12 0.417586 0.378502 0.759234
O O13 0.266625 0.371233 0.863786
O O14 0.000000 0.000000 0.136818
O O15 0.683903 0.516098 0.000000
#
# Coordination Sequence:
#
# PCOD8238556 Si02
#       6
#     8   8   8   8   8   8
#     4  10  22  41  63  88 123 169 218 264 316 379
#     4  10  24  43  64  94 131 171 214 267 331 398
#     4  11  23  38  64  91 125 167 211 261 321 388
#     4  11  23  39  64  94 127 167 216 265 324 390
#     4  11  22  38  60  93 128 162 213 265 324 385
#     4  11  22  39  64  92 124 165 211 262 318 384
#
# _framework density 20.621423
#
# number of rings (size 3 to 8) (size 9 to 14) (size 15 to 20)
#    0.000    1.333    3.333    2.000    2.333    3.000 
#    0.000    3.333    0.000    0.000    0.000    0.000 
#    0.000    0.000    0.000    0.000    0.000    0.000 
#
# Total GULP energy -594797.099240 kJ/mol
# GULP energy per Si atom -12391.606234 kJ/mol
# Density = 2.057449 g / cm^3
# Si number density = 20.621423 Si / 1000 Ang^3
#
#
#
# Elastic Constant Matrix: (Units=GPa)
#
#
# Indices 1 2 3 4 5 6 
#
# 1 77.9398 28.1390 32.8131 0.0000 0.0000 0.0000
# 2 28.1390 141.7705 52.8221 0.0000 0.0000 0.0000
# 3 32.8131 52.8221 101.4002 0.0000 0.0000 0.0000
# 4 0.0000 0.0000 0.0000 34.6184 0.0000 0.0000
# 5 0.0000 0.0000 0.0000 0.0000 25.9232 0.0000
# 6 0.0000 0.0000 0.0000 0.0000 0.0000 30.8434
#
#
#
# Elastic Compliance Matrix: (Units=1/GPa)
#
#
# Indices 1 2 3 4 5 6 
#
# 1 0.015094 -0.001459 -0.004124 0.000000 0.000000 0.000000
# 2 -0.001459 0.008893 -0.004161 0.000000 0.000000 0.000000
# 3 -0.004124 -0.004161 0.013364 0.000000 0.000000 0.000000
# 4 0.000000 0.000000 0.000000 0.028886 0.000000 0.000000
# 5 0.000000 0.000000 0.000000 0.000000 0.038575 0.000000
# 6 0.000000 0.000000 0.000000 0.000000 0.000000 0.032422
#
#
# Mechanical properties :
#
#
# Convention : Reuss Voigt Hill
#
# Bulk Modulus (GPa) = 55.98187 60.96208 58.47197
# Shear Modulus (GPa) = 30.73578 32.09943 31.41761
#
# Velocity S-wave (km/s) = 3.86486 3.94966 3.90749
# Velocity P-wave (km/s) = 6.86459 7.10116 6.98388
#
# Compressibility (1/GPa) = 0.01786293
#
# Stress axis : x y z
#
# Youngs Moduli (GPa) = 66.25359 112.44175 74.82856
#
# Poissons Ratio (x) = 0.16407 0.30860
# Poissons Ratio (y) = 0.09668 0.31134
# Poissons Ratio (z) = 0.27324 0.46783
#
# Static dielectric constant tensor:
#      x y z
#    x 3.717280 0.000000 0.000000 
#    y 0.000000 3.705730 0.000000 
#    z 0.000000 0.000000 3.917140 
# 
# 
# High freq. dielectric constant tensor:
#      x y z
#    x 1.808160 0.000000 0.000000 
#    y 0.000000 1.811800 0.000000 
#    z 0.000000 0.000000 1.802670 
# 
# From -- ./inp_files/22134.got.cif
#   From: 2010.06.25/outbox.cif.g09.slc.cpg/sg58_12_cif.got.tgz:22134.got - 2010.06.26 21:38:00.
