data_PCOD8238369
_publ_section_title
;
Structure prediction by ZEFSAII (Michael W. Deem and Ramdas Pophale) SiO2 
 PCOD8238369
Probable space group: P N N M
;
_chemical_formula_sum "Si O2"
_cell_formula_units_Z 52
_cell_length_a 8.958978
_cell_length_b 11.270379
_cell_length_c 24.434317
_cell_angle_alpha 90.000000
_cell_angle_beta 90.000000
_cell_angle_gamma 90.000000
_cell_volume 2467.159316
_symmetry_space_group_name_H-M "P N N M"
_symmetry_group_IT_number 58
_symmetry_cell_setting 'orthorhombic'
loop_
_space_group_symop_operation_xyz
x,y,z
-x,-y,z
1/2+x,1/2-y,1/2-z
1/2-x,1/2+y,1/2-z
-x,-y,-z
x,y,-z
1/2-x,1/2+y,1/2+z
1/2+x,1/2-y,1/2+z
loop_
_atom_site_type_symbol
_atom_site_label
_atom_site_fract_x
_atom_site_fract_y
_atom_site_fract_z
Si Si1 0.985043 0.636221 0.500000
Si Si2 0.509128 0.639164 0.286758
Si Si3 0.495759 0.141048 0.882675
Si Si4 0.172714 0.478799 0.890123
Si Si5 0.313315 0.243040 0.619534
Si Si6 0.689317 0.747863 0.500000
Si Si7 0.725698 0.720216 0.193207
Si Si8 0.176037 0.997760 0.500000
O O1 0.053834 0.687775 0.556399
O O2 0.806485 0.642336 0.500000
O O3 0.000000 0.500000 0.500000
O O4 0.500000 0.500000 0.299553
O O5 0.563101 0.708356 0.340144
O O6 0.621323 0.655348 0.236753
O O7 0.347889 0.699244 0.274985
O O8 0.662525 0.184429 0.871001
O O9 0.375618 0.191080 0.841297
O O10 0.500000 0.000000 0.877503
O O11 0.232612 0.606228 0.869000
O O12 0.197165 0.381106 0.843449
O O13 0.000000 0.500000 0.903912
O O14 0.257159 0.436342 0.945403
O O15 0.394030 0.257090 0.558852
O O16 0.785927 0.865676 0.500000
O O17 0.000000 0.000000 0.500000
#
# Coordination Sequence:
#
# PCOD8238369 Si02
#       8
#     4   8   8   8   8   4   8   4
#     4   8  16  32  59  92 127 165 205 250 314 385
#     4  12  28  47  68  96 129 174 229 283 339 404
#     4  10  21  40  66  98 134 173 217 274 331 398
#     4  11  24  44  68 102 143 179 225 275 348 408
#     4  10  21  44  68  96 139 172 218 275 332 402
#     4   8  18  35  65  94 130 172 202 261 331 382
#     4  12  28  43  69  96 128 179 227 282 344 401
#     4  10  23  37  69 108 139 179 220 278 339 414
#
# _framework density 21.07687
#
# number of rings (size 3 to 8) (size 9 to 14) (size 15 to 20)
#    0.000    1.538    1.538    2.077   10.769    0.000 
#    0.000    1.154    0.000    0.000    0.000    0.000 
#    0.000    0.000    0.000    0.000    0.000    0.000 
#
# Total GULP energy -644367.493495 kJ/mol
# GULP energy per Si atom -12391.682567 kJ/mol
# Density = 2.102890 g / cm^3
# Si number density = 21.076870 Si / 1000 Ang^3
#
#
#
# Elastic Constant Matrix: (Units=GPa)
#
#
# Indices 1 2 3 4 5 6 
#
# 1 93.1686 15.7883 42.3445 0.0000 0.0000 0.0000
# 2 15.7883 99.5229 31.5821 0.0000 0.0000 0.0000
# 3 42.3445 31.5821 123.3558 0.0000 0.0000 0.0000
# 4 0.0000 0.0000 0.0000 27.2815 0.0000 0.0000
# 5 0.0000 0.0000 0.0000 0.0000 32.3816 0.0000
# 6 0.0000 0.0000 0.0000 0.0000 0.0000 32.9805
#
#
#
# Elastic Compliance Matrix: (Units=1/GPa)
#
#
# Indices 1 2 3 4 5 6 
#
# 1 0.012761 -0.000690 -0.004204 0.000000 0.000000 0.000000
# 2 -0.000690 0.010974 -0.002573 0.000000 0.000000 0.000000
# 3 -0.004204 -0.002573 0.010208 0.000000 0.000000 0.000000
# 4 0.000000 0.000000 0.000000 0.036655 0.000000 0.000000
# 5 0.000000 0.000000 0.000000 0.000000 0.030882 0.000000
# 6 0.000000 0.000000 0.000000 0.000000 0.000000 0.030321
#
#
# Mechanical properties :
#
#
# Convention : Reuss Voigt Hill
#
# Bulk Modulus (GPa) = 52.60496 55.05300 53.82898
# Shear Modulus (GPa) = 32.66476 33.61755 33.14115
#
# Velocity S-wave (km/s) = 3.94101 3.99807 3.96964
# Velocity P-wave (km/s) = 6.76177 6.89127 6.82683
#
# Compressibility (1/GPa) = 0.01900962
#
# Stress axis : x y z
#
# Youngs Moduli (GPa) = 78.36534 91.12591 97.95988
#
# Poissons Ratio (x) = 0.06291 0.41179
# Poissons Ratio (y) = 0.05410 0.25201
# Poissons Ratio (z) = 0.32942 0.23443
#
# Static dielectric constant tensor:
#      x y z
#    x 3.662090 0.000000 0.000000 
#    y 0.000000 3.692690 0.000000 
#    z 0.000000 0.000000 3.882190 
# 
# 
# High freq. dielectric constant tensor:
#      x y z
#    x 1.814950 0.000000 0.000000 
#    y 0.000000 1.835250 0.000000 
#    z 0.000000 0.000000 1.839300 
# 
# From -- ./inp_files/33310.got.cif
#   From: 2010.06.25/outbox.cif.g09.slc.cpg/sg58_17_cif.got.tgz:33310.got - 2010.06.26 21:38:00.
