data_PCOD8238274
_publ_section_title
;
Structure prediction by ZEFSAII (Michael W. Deem and Ramdas Pophale) SiO2 
 PCOD8238274
Probable space group: P N N M
;
_chemical_formula_sum "Si O2"
_cell_formula_units_Z 48
_cell_length_a 14.899673
_cell_length_b 18.500408
_cell_length_c 8.604119
_cell_angle_alpha 90.000000
_cell_angle_beta 90.000000
_cell_angle_gamma 90.000000
_cell_volume 2371.725657
_symmetry_space_group_name_H-M "P N N M"
_symmetry_group_IT_number 58
_symmetry_cell_setting 'orthorhombic'
loop_
_space_group_symop_operation_xyz
x,y,z
-x,-y,z
1/2+x,1/2-y,1/2-z
1/2-x,1/2+y,1/2-z
-x,-y,-z
x,y,-z
1/2-x,1/2+y,1/2+z
1/2+x,1/2-y,1/2+z
loop_
_atom_site_type_symbol
_atom_site_label
_atom_site_fract_x
_atom_site_fract_y
_atom_site_fract_z
Si Si1 0.736171 0.570346 0.681282
Si Si2 0.106345 0.184781 0.177927
Si Si3 0.746102 0.418809 0.179330
Si Si4 0.411637 0.155410 0.180069
Si Si5 0.401267 0.307142 0.319488
Si Si6 0.601432 0.148625 0.679822
O O1 0.725955 0.554039 0.500000
O O2 0.712936 0.498405 0.775731
O O3 0.665001 0.630225 0.737224
O O4 0.836288 0.597448 0.716974
O O5 0.165529 0.136745 0.291446
O O6 0.125225 0.268371 0.216331
O O7 0.002543 0.166525 0.210491
O O8 0.131820 0.167225 0.000000
O O9 0.832705 0.400345 0.282285
O O10 0.773134 0.415231 0.000000
O O11 0.378137 0.235843 0.221642
O O12 0.498426 0.132958 0.278743
O O13 0.436314 0.151132 0.000000
O O14 0.387169 0.287573 0.500000
O O15 0.616592 0.130145 0.500000
#
# Coordination Sequence:
#
# PCOD8238274 Si02
#       6
#     8   8   8   8   8   8
#     4  11  23  39  59  85 117 153 193 235 285 342
#     4   9  19  38  62  87 115 149 189 233 282 336
#     4  12  25  39  56  82 118 156 193 235 285 339
#     4  11  22  38  62  88 114 148 192 238 283 337
#     4   9  20  39  63  88 115 149 189 236 286 336
#     4  10  21  39  62  88 117 149 188 235 287 340
#
# _framework density 20.238429
#
# number of rings (size 3 to 8) (size 9 to 14) (size 15 to 20)
#    0.000    1.667    0.000    6.000    0.000    8.667 
#    0.000    6.667    0.000    0.000    0.000    0.000 
#    0.000    0.000    0.000    0.000    0.000    0.000 
#
# Total GULP energy -595551.365476 kJ/mol
# GULP energy per Si atom -12407.320114 kJ/mol
# Density = 2.019237 g / cm^3
# Si number density = 20.238429 Si / 1000 Ang^3
#
#
#
# Elastic Constant Matrix: (Units=GPa)
#
#
# Indices 1 2 3 4 5 6 
#
# 1 60.1020 18.0027 13.3889 0.0000 0.0000 0.0000
# 2 18.0027 53.5191 23.8133 0.0000 0.0000 0.0000
# 3 13.3889 23.8133 69.6086 0.0000 0.0000 0.0000
# 4 0.0000 0.0000 0.0000 34.8423 0.0000 0.0000
# 5 0.0000 0.0000 0.0000 0.0000 33.5142 0.0000
# 6 0.0000 0.0000 0.0000 0.0000 0.0000 13.5564
#
#
#
# Elastic Compliance Matrix: (Units=1/GPa)
#
#
# Indices 1 2 3 4 5 6 
#
# 1 0.018672 -0.005524 -0.001702 0.000000 0.000000 0.000000
# 2 -0.005524 0.023674 -0.007036 0.000000 0.000000 0.000000
# 3 -0.001702 -0.007036 0.017101 0.000000 0.000000 0.000000
# 4 0.000000 0.000000 0.000000 0.028701 0.000000 0.000000
# 5 0.000000 0.000000 0.000000 0.000000 0.029838 0.000000
# 6 0.000000 0.000000 0.000000 0.000000 0.000000 0.073766
#
#
# Mechanical properties :
#
#
# Convention : Reuss Voigt Hill
#
# Bulk Modulus (GPa) = 32.33883 32.62663 32.48273
# Shear Modulus (GPa) = 21.68422 24.91757 23.30089
#
# Velocity S-wave (km/s) = 3.27683 3.51265 3.39679
# Velocity P-wave (km/s) = 5.50731 5.71032 5.60973
#
# Compressibility (1/GPa) = 0.03092258
#
# Stress axis : x y z
#
# Youngs Moduli (GPa) = 53.55606 42.24071 58.47757
#
# Poissons Ratio (x) = 0.23332 0.09952
# Poissons Ratio (y) = 0.29583 0.41147
# Poissons Ratio (z) = 0.09114 0.29722
#
# Static dielectric constant tensor:
#      x y z
#    x 3.667960 0.000000 0.000000 
#    y 0.000000 3.635160 0.000000 
#    z 0.000000 0.000000 3.594190 
# 
# 
# High freq. dielectric constant tensor:
#      x y z
#    x 1.797260 0.000000 0.000000 
#    y 0.000000 1.786230 0.000000 
#    z 0.000000 0.000000 1.791690 
# 
# From -- ./inp_files/5894.got.cif
#   From: 2010.06.25/outbox.cif.g09.slc.cpg/sg58_3_cif.got.tgz:5894.got - 2010.06.26 21:38:00.
