data_PCOD8238831
_publ_section_title
;
Structure prediction by ZEFSAII (Michael W. Deem and Ramdas Pophale) SiO2 
 PCOD8238831
Probable space group: P N N M
;
_chemical_formula_sum "Si O2"
_cell_formula_units_Z 32
_cell_length_a 20.650039
_cell_length_b 9.920956
_cell_length_c 7.790800
_cell_angle_alpha 90.000000
_cell_angle_beta 90.000000
_cell_angle_gamma 90.000000
_cell_volume 1596.086614
_symmetry_space_group_name_H-M "P N N M"
_symmetry_group_IT_number 58
_symmetry_cell_setting 'orthorhombic'
loop_
_space_group_symop_operation_xyz
x,y,z
-x,-y,z
1/2+x,1/2-y,1/2-z
1/2-x,1/2+y,1/2-z
-x,-y,-z
x,y,-z
1/2-x,1/2+y,1/2+z
1/2+x,1/2-y,1/2+z
loop_
_atom_site_type_symbol
_atom_site_label
_atom_site_fract_x
_atom_site_fract_y
_atom_site_fract_z
Si Si1 0.942076 0.597652 0.806446
Si Si2 0.598111 0.588225 0.000000
Si Si3 0.214442 0.821395 0.310324
Si Si4 0.314002 0.029516 0.195250
Si Si5 0.540468 0.295103 0.000000
O O1 0.874935 0.516597 0.806077
O O2 0.937892 0.719164 0.672192
O O3 0.000000 0.500000 0.749361
O O4 0.953748 0.652688 0.000000
O O5 0.640998 0.620591 0.170140
O O6 0.578697 0.433790 0.000000
O O7 0.536357 0.685309 0.000000
O O8 0.247319 0.814501 0.500000
O O9 0.212133 0.671483 0.228060
O O10 0.257050 0.919030 0.193348
O O11 0.337012 0.054132 0.000000
#
# Coordination Sequence:
#
# PCOD8238831 Si02
#       5
#     8   4   8   8   4
#     4  11  24  39  64  97 128 169 223 270 318 391
#     4   9  22  42  64  94 127 173 210 276 321 390
#     4   9  22  39  58  88 127 163 217 256 325 382
#     4  11  22  38  62  91 126 172 211 269 324 382
#     4  11  21  42  72  90 131 172 218 265 335 381
#
# _framework density 20.049036999999998
#
# number of rings (size 3 to 8) (size 9 to 14) (size 15 to 20)
#    0.750    1.000    1.250    2.625    3.500    2.000 
#    0.000    3.750    0.000    0.000    0.000    0.000 
#    0.000    0.000    0.000    0.000    0.000    0.000 
#
# Total GULP energy -396764.794532 kJ/mol
# GULP energy per Si atom -12398.899829 kJ/mol
# Density = 2.000340 g / cm^3
# Si number density = 20.049037 Si / 1000 Ang^3
#
#
#
# Elastic Constant Matrix: (Units=GPa)
#
#
# Indices 1 2 3 4 5 6 
#
# 1 119.5893 62.2398 9.9562 0.0000 0.0000 0.0000
# 2 62.2398 145.2982 32.5157 0.0000 0.0000 0.0000
# 3 9.9562 32.5157 73.4358 0.0000 0.0000 0.0000
# 4 0.0000 0.0000 0.0000 22.9597 0.0000 0.0000
# 5 0.0000 0.0000 0.0000 0.0000 18.9222 0.0000
# 6 0.0000 0.0000 0.0000 0.0000 0.0000 33.4333
#
#
#
# Elastic Compliance Matrix: (Units=1/GPa)
#
#
# Indices 1 2 3 4 5 6 
#
# 1 0.010789 -0.004766 0.000648 0.000000 0.000000 0.000000
# 2 -0.004766 0.009745 -0.003669 0.000000 0.000000 0.000000
# 3 0.000648 -0.003669 0.015154 0.000000 0.000000 0.000000
# 4 0.000000 0.000000 0.000000 0.043555 0.000000 0.000000
# 5 0.000000 0.000000 0.000000 0.000000 0.052848 0.000000
# 6 0.000000 0.000000 0.000000 0.000000 0.000000 0.029910
#
#
# Mechanical properties :
#
#
# Convention : Reuss Voigt Hill
#
# Bulk Modulus (GPa) = 49.71894 60.86073 55.28984
# Shear Modulus (GPa) = 27.13268 30.63715 28.88491
#
# Velocity S-wave (km/s) = 3.68274 3.91335 3.79979
# Velocity P-wave (km/s) = 6.55255 7.13028 6.84751
#
# Compressibility (1/GPa) = 0.02011306
#
# Stress axis : x y z
#
# Youngs Moduli (GPa) = 92.68987 102.61550 65.98944
#
# Poissons Ratio (x) = 0.48910 -0.04274
# Poissons Ratio (y) = 0.44179 0.24210
# Poissons Ratio (z) = -0.06004 0.37647
#
# Static dielectric constant tensor:
#      x y z
#    x 3.607420 0.000000 0.000000 
#    y 0.000000 3.614240 0.000000 
#    z 0.000000 0.000000 3.326390 
# 
# 
# High freq. dielectric constant tensor:
#      x y z
#    x 1.786990 0.000000 0.000000 
#    y 0.000000 1.787190 0.000000 
#    z 0.000000 0.000000 1.763210 
# 
# From -- ./inp_files/2197.got.cif
#   From: 2010.06.25/outbox.cif.g09.slc.cpg/sg58_2_cif.got.tgz:2197.got - 2010.06.26 21:38:00.
