data_PCOD8238893
_publ_section_title
;
Structure prediction by ZEFSAII (Michael W. Deem and Ramdas Pophale) SiO2 
 PCOD8238893
Probable space group: P N N M
;
_chemical_formula_sum "Si O2"
_cell_formula_units_Z 48
_cell_length_a 26.925607
_cell_length_b 9.958939
_cell_length_c 8.540226
_cell_angle_alpha 90.000000
_cell_angle_beta 90.000000
_cell_angle_gamma 90.000000
_cell_volume 2290.065681
_symmetry_space_group_name_H-M "P N N M"
_symmetry_group_IT_number 58
_symmetry_cell_setting 'orthorhombic'
loop_
_space_group_symop_operation_xyz
x,y,z
-x,-y,z
1/2+x,1/2-y,1/2-z
1/2-x,1/2+y,1/2-z
-x,-y,-z
x,y,-z
1/2-x,1/2+y,1/2+z
1/2+x,1/2-y,1/2+z
loop_
_atom_site_type_symbol
_atom_site_label
_atom_site_fract_x
_atom_site_fract_y
_atom_site_fract_z
Si Si1 0.459736 0.752743 0.817946
Si Si2 0.286474 0.889731 0.318432
Si Si3 0.395957 0.530320 0.318268
Si Si4 0.792802 0.889809 0.681308
Si Si5 0.887060 0.510009 0.318323
Si Si6 0.065602 0.740708 0.181620
O O1 0.443331 0.623322 0.718325
O O2 0.516720 0.785783 0.783411
O O3 0.427317 0.880109 0.765700
O O4 0.452226 0.721028 0.000000
O O5 0.300503 0.904460 0.500000
O O6 0.272576 0.736223 0.280178
O O7 0.239405 0.980518 0.272859
O O8 0.332668 0.933462 0.213549
O O9 0.381886 0.539740 0.500000
O O10 0.350026 0.581414 0.216831
O O11 0.409076 0.379704 0.267886
O O12 0.787373 0.853398 0.500000
O O13 0.892640 0.474204 0.500000
O O14 0.895166 0.376389 0.216888
O O15 0.051019 0.742849 0.000000
#
# Coordination Sequence:
#
# PCOD8238893 Si02
#       6
#     8   8   8   8   8   8
#     4  11  23  41  65  94 127 168 215 266 319 377
#     4  11  25  44  68  97 128 167 211 259 317 377
#     4  11  24  42  65  93 128 169 213 262 318 377
#     4  11  25  44  67  97 128 164 211 260 315 378
#     4  11  24  42  65  94 129 168 213 264 317 377
#     4  11  25  41  62  95 130 170 216 264 315 378
#
# _framework density 20.960099
#
# number of rings (size 3 to 8) (size 9 to 14) (size 15 to 20)
#    0.000    1.000    1.667    4.000    2.333   11.333 
#    0.000    0.000    0.000    0.000    0.000    0.000 
#    0.000    0.000    0.000    0.000    0.000    0.000 
#
# Total GULP energy -595675.717640 kJ/mol
# GULP energy per Si atom -12409.910784 kJ/mol
# Density = 2.091239 g / cm^3
# Si number density = 20.960099 Si / 1000 Ang^3
#
#
#
# Elastic Constant Matrix: (Units=GPa)
#
#
# Indices 1 2 3 4 5 6 
#
# 1 69.6384 17.2184 17.2135 0.0000 0.0000 0.0000
# 2 17.2184 122.3138 38.7757 0.0000 0.0000 0.0000
# 3 17.2135 38.7757 49.9002 0.0000 0.0000 0.0000
# 4 0.0000 0.0000 0.0000 34.7845 0.0000 0.0000
# 5 0.0000 0.0000 0.0000 0.0000 25.8947 0.0000
# 6 0.0000 0.0000 0.0000 0.0000 0.0000 40.1291
#
#
#
# Elastic Compliance Matrix: (Units=1/GPa)
#
#
# Indices 1 2 3 4 5 6 
#
# 1 0.015738 -0.000656 -0.004919 0.000000 0.000000 0.000000
# 2 -0.000656 0.010875 -0.008225 0.000000 0.000000 0.000000
# 3 -0.004919 -0.008225 0.028128 0.000000 0.000000 0.000000
# 4 0.000000 0.000000 0.000000 0.028748 0.000000 0.000000
# 5 0.000000 0.000000 0.000000 0.000000 0.038618 0.000000
# 6 0.000000 0.000000 0.000000 0.000000 0.000000 0.024920
#
#
# Mechanical properties :
#
#
# Convention : Reuss Voigt Hill
#
# Bulk Modulus (GPa) = 36.84356 43.14083 39.99220
# Shear Modulus (GPa) = 27.22209 31.40463 29.31336
#
# Velocity S-wave (km/s) = 3.60774 3.87499 3.74375
# Velocity P-wave (km/s) = 5.91358 6.37556 6.14891
#
# Compressibility (1/GPa) = 0.02714178
#
# Stress axis : x y z
#
# Youngs Moduli (GPa) = 63.54023 91.95083 35.55177
#
# Poissons Ratio (x) = 0.06032 0.17489
# Poissons Ratio (y) = 0.04168 0.29240
# Poissons Ratio (z) = 0.31257 0.75626
#
# Static dielectric constant tensor:
#      x y z
#    x 3.699770 0.000000 0.000000 
#    y 0.000000 3.995860 0.000000 
#    z 0.000000 0.000000 3.729520 
# 
# 
# High freq. dielectric constant tensor:
#      x y z
#    x 1.821920 0.000000 0.000000 
#    y 0.000000 1.836840 0.000000 
#    z 0.000000 0.000000 1.827300 
# 
# From -- ./inp_files/10739.got.cif
#   From: 2010.06.25/outbox.cif.g09.slc.cpg/sg58_6_cif.got.tgz:10739.got - 2010.06.26 21:38:00.
