data_PCOD8238107
_publ_section_title
;
Structure prediction by ZEFSAII (Michael W. Deem and Ramdas Pophale) SiO2 
 PCOD8238107
Probable space group: P N N M
;
_chemical_formula_sum "Si O2"
_cell_formula_units_Z 40
_cell_length_a 5.018837
_cell_length_b 21.480438
_cell_length_c 17.647396
_cell_angle_alpha 90.000000
_cell_angle_beta 90.000000
_cell_angle_gamma 90.000000
_cell_volume 1902.509591
_symmetry_space_group_name_H-M "P N N M"
_symmetry_group_IT_number 58
_symmetry_cell_setting 'orthorhombic'
loop_
_space_group_symop_operation_xyz
x,y,z
-x,-y,z
1/2+x,1/2-y,1/2-z
1/2-x,1/2+y,1/2-z
-x,-y,-z
x,y,-z
1/2-x,1/2+y,1/2+z
1/2+x,1/2-y,1/2+z
loop_
_atom_site_type_symbol
_atom_site_label
_atom_site_fract_x
_atom_site_fract_y
_atom_site_fract_z
Si Si1 0.660520 0.437522 0.414882
Si Si2 0.576177 0.640959 0.781366
Si Si3 0.585466 0.932559 0.239076
Si Si4 0.571084 0.733148 0.915232
Si Si5 0.430160 0.309461 0.624680
O O1 0.500000 0.500000 0.394627
O O2 0.781680 0.441236 0.500000
O O3 0.896702 0.430573 0.353096
O O4 0.462023 0.378734 0.409132
O O5 0.371363 0.583412 0.775685
O O6 0.543621 0.673288 0.862040
O O7 0.512894 0.690549 0.714912
O O8 0.875349 0.617571 0.768522
O O9 0.500000 0.000000 0.268392
O O10 0.368218 0.787739 0.892684
O O11 0.866260 0.761220 0.912465
O O12 0.513748 0.709515 0.000000
#
# Coordination Sequence:
#
# PCOD8238107 Si02
#       5
#     8   8   8   8   8
#     4  10  21  37  59  90 127 163 200 241 287 345
#     4  11  23  40  63  87 118 156 198 242 289 355
#     4  11  22  40  63  87 117 157 199 241 292 350
#     4  12  24  40  62  88 119 153 196 249 300 346
#     4  11  22  39  60  86 121 160 197 235 287 350
#
# _framework density 21.024863
#
# number of rings (size 3 to 8) (size 9 to 14) (size 15 to 20)
#    0.000    1.000    0.000    9.600    0.000    0.400 
#    0.000    7.000    0.000    3.600    0.000    0.000 
#    0.000    0.000    0.000    0.000    0.000    0.000 
#
# Total GULP energy -496192.970345 kJ/mol
# GULP energy per Si atom -12404.824259 kJ/mol
# Density = 2.097701 g / cm^3
# Si number density = 21.024863 Si / 1000 Ang^3
#
#
#
# Elastic Constant Matrix: (Units=GPa)
#
#
# Indices 1 2 3 4 5 6 
#
# 1 74.9912 18.4628 17.6586 0.0000 0.0000 0.0000
# 2 18.4628 93.8540 63.1421 0.0000 0.0000 0.0000
# 3 17.6586 63.1421 145.4558 0.0000 0.0000 0.0000
# 4 0.0000 0.0000 0.0000 14.7934 0.0000 0.0000
# 5 0.0000 0.0000 0.0000 0.0000 16.0263 0.0000
# 6 0.0000 0.0000 0.0000 0.0000 0.0000 35.0890
#
#
#
# Elastic Compliance Matrix: (Units=1/GPa)
#
#
# Indices 1 2 3 4 5 6 
#
# 1 0.014066 -0.002286 -0.000715 0.000000 0.000000 0.000000
# 2 -0.002286 0.015422 -0.006417 0.000000 0.000000 0.000000
# 3 -0.000715 -0.006417 0.009747 0.000000 0.000000 0.000000
# 4 0.000000 0.000000 0.000000 0.067598 0.000000 0.000000
# 5 0.000000 0.000000 0.000000 0.000000 0.062397 0.000000
# 6 0.000000 0.000000 0.000000 0.000000 0.000000 0.028499
#
#
# Mechanical properties :
#
#
# Convention : Reuss Voigt Hill
#
# Bulk Modulus (GPa) = 49.02245 56.98088 53.00167
# Shear Modulus (GPa) = 22.38485 27.51757 24.95121
#
# Velocity S-wave (km/s) = 3.26649 3.62167 3.44866
# Velocity P-wave (km/s) = 6.13137 6.68201 6.41260
#
# Compressibility (1/GPa) = 0.02039882
#
# Stress axis : x y z
#
# Youngs Moduli (GPa) = 71.09287 64.84383 102.59135
#
# Poissons Ratio (x) = 0.14822 0.07340
# Poissons Ratio (y) = 0.16250 0.65833
# Poissons Ratio (z) = 0.05086 0.41610
#
# Static dielectric constant tensor:
#      x y z
#    x 3.785110 0.000000 0.000000 
#    y 0.000000 3.689410 0.000000 
#    z 0.000000 0.000000 3.780450 
# 
# 
# High freq. dielectric constant tensor:
#      x y z
#    x 1.833310 0.000000 0.000000 
#    y 0.000000 1.817620 0.000000 
#    z 0.000000 0.000000 1.807250 
# 
# From -- ./inp_files/24169.got.cif
#   From: 2010.06.25/outbox.cif.g09.slc.cpg/sg58_13_cif.got.tgz:24169.got - 2010.06.26 21:38:00.
