data_PCOD8238380
_publ_section_title
;
Structure prediction by ZEFSAII (Michael W. Deem and Ramdas Pophale) SiO2 
 PCOD8238380
Probable space group: P N N M
;
_chemical_formula_sum "Si O2"
_cell_formula_units_Z 48
_cell_length_a 23.832441
_cell_length_b 11.858173
_cell_length_c 8.415461
_cell_angle_alpha 90.000000
_cell_angle_beta 90.000000
_cell_angle_gamma 90.000000
_cell_volume 2378.286771
_symmetry_space_group_name_H-M "P N N M"
_symmetry_group_IT_number 58
_symmetry_cell_setting 'orthorhombic'
loop_
_space_group_symop_operation_xyz
x,y,z
-x,-y,z
1/2+x,1/2-y,1/2-z
1/2-x,1/2+y,1/2-z
-x,-y,-z
x,y,-z
1/2-x,1/2+y,1/2+z
1/2+x,1/2-y,1/2+z
loop_
_atom_site_type_symbol
_atom_site_label
_atom_site_fract_x
_atom_site_fract_y
_atom_site_fract_z
Si Si1 0.634279 0.629101 0.186126
Si Si2 0.898446 0.463521 0.685523
Si Si3 0.414961 0.780682 0.184437
Si Si4 0.790816 0.329114 0.685285
Si Si5 0.170051 0.106811 0.185392
Si Si6 0.466193 0.238766 0.316577
O O1 0.684094 0.710856 0.250926
O O2 0.648768 0.500791 0.218649
O O3 0.576868 0.661674 0.273989
O O4 0.625036 0.650633 0.000000
O O5 0.911865 0.447323 0.500000
O O6 0.907983 0.590635 0.741498
O O7 0.834277 0.429679 0.724090
O O8 0.940829 0.384020 0.780572
O O9 0.372752 0.708345 0.289960
O O10 0.478177 0.740431 0.213826
O O11 0.399548 0.766489 0.000000
O O12 0.780783 0.315597 0.500000
O O13 0.730372 0.357921 0.760423
O O14 0.174116 0.076004 0.000000
O O15 0.482442 0.246376 0.500000
#
# Coordination Sequence:
#
# PCOD8238380 Si02
#       6
#     8   8   8   8   8   8
#     4  10  21  41  63  84 115 157 199 236 289 356
#     4   9  19  38  62  87 118 158 198 237 288 349
#     4  11  23  38  59  87 120 159 200 238 288 354
#     4   8  18  37  60  84 116 153 190 238 290 344
#     4  11  23  38  58  88 122 154 195 247 295 338
#     4  11  22  38  61  89 119 152 194 247 299 344
#
# _framework density 20.182594999999999
#
# number of rings (size 3 to 8) (size 9 to 14) (size 15 to 20)
#    0.000    2.000    0.000    4.500    2.333    4.000 
#    0.000   10.833    0.000    0.000    0.000    0.000 
#    0.000    0.000    0.000    0.000    0.000    0.000 
#
# Total GULP energy -595350.828078 kJ/mol
# GULP energy per Si atom -12403.142252 kJ/mol
# Density = 2.013666 g / cm^3
# Si number density = 20.182595 Si / 1000 Ang^3
#
#
#
# Elastic Constant Matrix: (Units=GPa)
#
#
# Indices 1 2 3 4 5 6 
#
# 1 132.1673 28.8478 7.1110 0.0000 0.0000 0.0000
# 2 28.8478 48.8609 17.0178 0.0000 0.0000 0.0000
# 3 7.1110 17.0178 44.1014 0.0000 0.0000 0.0000
# 4 0.0000 0.0000 0.0000 28.2593 0.0000 0.0000
# 5 0.0000 0.0000 0.0000 0.0000 24.6604 0.0000
# 6 0.0000 0.0000 0.0000 0.0000 0.0000 21.7777
#
#
#
# Elastic Compliance Matrix: (Units=1/GPa)
#
#
# Indices 1 2 3 4 5 6 
#
# 1 0.008703 -0.005371 0.000669 0.000000 0.000000 0.000000
# 2 -0.005371 0.026959 -0.009537 0.000000 0.000000 0.000000
# 3 0.000669 -0.009537 0.026247 0.000000 0.000000 0.000000
# 4 0.000000 0.000000 0.000000 0.035387 0.000000 0.000000
# 5 0.000000 0.000000 0.000000 0.000000 0.040551 0.000000
# 6 0.000000 0.000000 0.000000 0.000000 0.000000 0.045918
#
#
# Mechanical properties :
#
#
# Convention : Reuss Voigt Hill
#
# Bulk Modulus (GPa) = 29.91195 36.78697 33.34946
# Shear Modulus (GPa) = 22.38282 26.41635 24.39959
#
# Velocity S-wave (km/s) = 3.33380 3.62175 3.48076
# Velocity P-wave (km/s) = 5.44718 5.97964 5.71961
#
# Compressibility (1/GPa) = 0.03343145
#
# Stress axis : x y z
#
# Youngs Moduli (GPa) = 114.90949 37.09334 38.09940
#
# Poissons Ratio (x) = 0.19923 -0.02550
# Poissons Ratio (y) = 0.61720 0.36335
# Poissons Ratio (z) = -0.07692 0.35375
#
# Static dielectric constant tensor:
#      x y z
#    x 3.855590 0.000000 0.000000 
#    y 0.000000 3.620150 0.000000 
#    z 0.000000 0.000000 3.402970 
# 
# 
# High freq. dielectric constant tensor:
#      x y z
#    x 1.797850 0.000000 0.000000 
#    y 0.000000 1.787940 0.000000 
#    z 0.000000 0.000000 1.773560 
# 
# From -- ./inp_files/4195.got.cif
#   From: 2010.06.25/outbox.cif.g09.slc.cpg/sg58_3_cif.got.tgz:4195.got - 2010.06.26 21:38:00.
