data_PCOD8238851
_publ_section_title
;
Structure prediction by ZEFSAII (Michael W. Deem and Ramdas Pophale) SiO2 
 PCOD8238851
Probable space group: P N N M
;
_chemical_formula_sum "Si O2"
_cell_formula_units_Z 32
_cell_length_a 4.956028
_cell_length_b 11.555955
_cell_length_c 23.265302
_cell_angle_alpha 90.000000
_cell_angle_beta 90.000000
_cell_angle_gamma 90.000000
_cell_volume 1332.441920
_symmetry_space_group_name_H-M "P N N M"
_symmetry_group_IT_number 58
_symmetry_cell_setting 'orthorhombic'
loop_
_space_group_symop_operation_xyz
x,y,z
-x,-y,z
1/2+x,1/2-y,1/2-z
1/2-x,1/2+y,1/2-z
-x,-y,-z
x,y,-z
1/2-x,1/2+y,1/2+z
1/2+x,1/2-y,1/2+z
loop_
_atom_site_type_symbol
_atom_site_label
_atom_site_fract_x
_atom_site_fract_y
_atom_site_fract_z
Si Si1 0.000000 0.500000 0.832070
Si Si2 0.806952 0.176915 0.500000
Si Si3 0.701553 0.673036 0.500000
Si Si4 0.000000 0.000000 0.592220
Si Si5 0.638434 0.766949 0.284604
Si Si6 0.234163 0.923180 0.876228
O O1 0.744814 0.458610 0.869092
O O2 0.039462 0.384083 0.795157
O O3 0.492811 0.213200 0.500000
O O4 0.879663 0.105214 0.556154
O O5 0.984743 0.291927 0.500000
O O6 0.655975 0.599784 0.557355
O O7 0.410996 0.696033 0.249100
O O8 0.739766 0.696981 0.341013
O O9 0.500000 0.000000 0.870362
O O10 0.000000 0.000000 0.848753
#
# Coordination Sequence:
#
# PCOD8238851 Si02
#       6
#     4   4   4   4   8   8
#     4  12  26  47  72 100 142 179 252 294 378 438
#     4  11  22  37  68 101 150 183 244 285 366 426
#     4  12  24  44  70 105 148 196 242 301 368 451
#     4  11  22  40  66 104 138 192 230 307 354 436
#     4  12  28  47  75 105 143 193 246 314 377 440
#     4  12  26  46  74 106 150 194 249 304 372 443
#
# _framework density 24.016058999999998
#
# number of rings (size 3 to 8) (size 9 to 14) (size 15 to 20)
#    0.000    0.250    0.000    9.750    5.250    2.000 
#    0.000    0.000    0.000    0.000    0.000    0.000 
#    0.000    0.000    0.000    0.000    0.000    0.000 
#
# Total GULP energy -396776.132593 kJ/mol
# GULP energy per Si atom -12399.254144 kJ/mol
# Density = 2.396140 g / cm^3
# Si number density = 24.016059 Si / 1000 Ang^3
#
#
#
# Elastic Constant Matrix: (Units=GPa)
#
#
# Indices 1 2 3 4 5 6 
#
# 1 150.5234 33.8461 39.8334 0.0000 0.0000 0.0000
# 2 33.8461 132.8072 44.8499 0.0000 0.0000 0.0000
# 3 39.8334 44.8499 111.4272 0.0000 0.0000 0.0000
# 4 0.0000 0.0000 0.0000 34.8989 0.0000 0.0000
# 5 0.0000 0.0000 0.0000 0.0000 55.0355 0.0000
# 6 0.0000 0.0000 0.0000 0.0000 0.0000 50.9633
#
#
#
# Elastic Compliance Matrix: (Units=1/GPa)
#
#
# Indices 1 2 3 4 5 6 
#
# 1 0.007490 -0.001163 -0.002209 0.000000 0.000000 0.000000
# 2 -0.001163 0.008895 -0.003165 0.000000 0.000000 0.000000
# 3 -0.002209 -0.003165 0.011038 0.000000 0.000000 0.000000
# 4 0.000000 0.000000 0.000000 0.028654 0.000000 0.000000
# 5 0.000000 0.000000 0.000000 0.000000 0.018170 0.000000
# 6 0.000000 0.000000 0.000000 0.000000 0.000000 0.019622
#
#
# Mechanical properties :
#
#
# Convention : Reuss Voigt Hill
#
# Bulk Modulus (GPa) = 69.69048 70.20184 69.94616
# Shear Modulus (GPa) = 44.75283 46.59479 45.67381
#
# Velocity S-wave (km/s) = 4.32146 4.40949 4.36570
# Velocity P-wave (km/s) = 7.34719 7.43098 7.38921
#
# Compressibility (1/GPa) = 0.01434916
#
# Stress axis : x y z
#
# Youngs Moduli (GPa) = 133.51858 112.42669 90.59562
#
# Poissons Ratio (x) = 0.13071 0.20017
# Poissons Ratio (y) = 0.15523 0.28669
# Poissons Ratio (z) = 0.29500 0.35578
#
# Static dielectric constant tensor:
#      x y z
#    x 4.242150 0.000000 0.000000 
#    y 0.000000 4.130250 0.000000 
#    z 0.000000 0.000000 4.446680 
# 
# 
# High freq. dielectric constant tensor:
#      x y z
#    x 1.969260 0.000000 0.000000 
#    y 0.000000 1.955350 0.000000 
#    z 0.000000 0.000000 1.959040 
# 
# From -- ./inp_files/30787.got.cif
#   From: 2010.06.25/outbox.cif.g09.slc.cpg/sg58_16_cif.got.tgz:30787.got - 2010.06.26 21:38:00.
