data_PCOD8238943
_publ_section_title
;
Structure prediction by ZEFSAII (Michael W. Deem and Ramdas Pophale) SiO2 
 PCOD8238943
Probable space group: P N N M
;
_chemical_formula_sum "Si O2"
_cell_formula_units_Z 32
_cell_length_a 13.946149
_cell_length_b 7.812696
_cell_length_c 11.409542
_cell_angle_alpha 90.000000
_cell_angle_beta 90.000000
_cell_angle_gamma 90.000000
_cell_volume 1243.149724
_symmetry_space_group_name_H-M "P N N M"
_symmetry_group_IT_number 58
_symmetry_cell_setting 'orthorhombic'
loop_
_space_group_symop_operation_xyz
x,y,z
-x,-y,z
1/2+x,1/2-y,1/2-z
1/2-x,1/2+y,1/2-z
-x,-y,-z
x,y,-z
1/2-x,1/2+y,1/2+z
1/2+x,1/2-y,1/2+z
loop_
_atom_site_type_symbol
_atom_site_label
_atom_site_fract_x
_atom_site_fract_y
_atom_site_fract_z
Si Si1 0.056275 0.285668 0.500000
Si Si2 0.278411 0.827371 0.678808
Si Si3 0.974104 0.812206 0.756475
Si Si4 0.339625 0.198645 0.632005
Si Si5 0.159776 0.609753 0.500000
O O1 0.055545 0.175427 0.619551
O O2 0.155416 0.400830 0.500000
O O3 0.954288 0.376610 0.500000
O O4 0.384113 0.751560 0.669656
O O5 0.233244 0.835985 0.809443
O O6 0.206674 0.698675 0.612177
O O7 0.283440 0.017654 0.627832
O O8 0.062802 0.687170 0.790078
O O9 0.000000 0.000000 0.801840
O O10 0.363830 0.257603 0.500000
#
# Coordination Sequence:
#
# PCOD8238943 Si02
#       5
#     4   8   8   8   4
#     4  11  25  50  82 114 161 209 276 339 394 467
#     4  12  26  49  80 114 159 211 271 333 404 483
#     4  12  28  49  76 117 162 211 273 333 403 478
#     4  12  28  52  79 117 162 212 269 337 406 477
#     4  11  24  48  82 116 154 211 276 333 401 475
#
# _framework density 25.741064000000001
#
# number of rings (size 3 to 8) (size 9 to 14) (size 15 to 20)
#    0.000    0.250    3.750    4.125    7.000    1.500 
#    9.000    0.000    0.000    0.000    0.000    0.000 
#    0.000    0.000    0.000    0.000    0.000    0.000 
#
# Total GULP energy -396618.271735 kJ/mol
# GULP energy per Si atom -12394.320992 kJ/mol
# Density = 2.568248 g / cm^3
# Si number density = 25.741064 Si / 1000 Ang^3
#
#
#
# Elastic Constant Matrix: (Units=GPa)
#
#
# Indices 1 2 3 4 5 6 
#
# 1 142.2260 22.2841 33.2651 0.0000 0.0000 0.0000
# 2 22.2841 71.8513 26.2404 0.0000 0.0000 0.0000
# 3 33.2651 26.2404 131.2124 0.0000 0.0000 0.0000
# 4 0.0000 0.0000 0.0000 31.7433 0.0000 0.0000
# 5 0.0000 0.0000 0.0000 0.0000 65.5009 0.0000
# 6 0.0000 0.0000 0.0000 0.0000 0.0000 48.4048
#
#
#
# Elastic Compliance Matrix: (Units=1/GPa)
#
#
# Indices 1 2 3 4 5 6 
#
# 1 0.007685 -0.001804 -0.001588 0.000000 0.000000 0.000000
# 2 -0.001804 0.015437 -0.002630 0.000000 0.000000 0.000000
# 3 -0.001588 -0.002630 0.008550 0.000000 0.000000 0.000000
# 4 0.000000 0.000000 0.000000 0.031503 0.000000 0.000000
# 5 0.000000 0.000000 0.000000 0.000000 0.015267 0.000000
# 6 0.000000 0.000000 0.000000 0.000000 0.000000 0.020659
#
#
# Mechanical properties :
#
#
# Convention : Reuss Voigt Hill
#
# Bulk Modulus (GPa) = 50.94327 56.54101 53.74214
# Shear Modulus (GPa) = 42.48571 46.69647 44.59109
#
# Velocity S-wave (km/s) = 4.06705 4.26383 4.16660
# Velocity P-wave (km/s) = 6.47210 6.80098 6.63858
#
# Compressibility (1/GPa) = 0.01962968
#
# Stress axis : x y z
#
# Youngs Moduli (GPa) = 130.12394 64.77735 116.96348
#
# Poissons Ratio (x) = 0.11683 0.18569
# Poissons Ratio (y) = 0.23470 0.30761
# Poissons Ratio (z) = 0.20659 0.17036
#
# Static dielectric constant tensor:
#      x y z
#    x 4.815860 0.000000 0.000000 
#    y 0.000000 4.345700 0.000000 
#    z 0.000000 0.000000 4.776120 
# 
# 
# High freq. dielectric constant tensor:
#      x y z
#    x 2.050600 0.000000 0.000000 
#    y 0.000000 2.016040 0.000000 
#    z 0.000000 0.000000 2.031190 
# 
# From -- ./inp_files/15111.got.cif
#   From: 2010.06.25/outbox.cif.g09.slc.cpg/sg58_8_cif.got.tgz:15111.got - 2010.06.26 21:38:00.
