data_PCOD8238322
_publ_section_title
;
Structure prediction by ZEFSAII (Michael W. Deem and Ramdas Pophale) SiO2 
 PCOD8238322
Probable space group: P N N M
;
_chemical_formula_sum "Si O2"
_cell_formula_units_Z 56
_cell_length_a 8.980975
_cell_length_b 17.407366
_cell_length_c 19.203469
_cell_angle_alpha 90.000000
_cell_angle_beta 90.000000
_cell_angle_gamma 90.000000
_cell_volume 3002.176609
_symmetry_space_group_name_H-M "P N N M"
_symmetry_group_IT_number 58
_symmetry_cell_setting 'orthorhombic'
loop_
_space_group_symop_operation_xyz
x,y,z
-x,-y,z
1/2+x,1/2-y,1/2-z
1/2-x,1/2+y,1/2-z
-x,-y,-z
x,y,-z
1/2-x,1/2+y,1/2+z
1/2+x,1/2-y,1/2+z
loop_
_atom_site_type_symbol
_atom_site_label
_atom_site_fract_x
_atom_site_fract_y
_atom_site_fract_z
Si Si1 0.433250 0.153666 0.720639
Si Si2 0.900060 0.066216 0.805242
Si Si3 0.141878 0.540117 0.343133
Si Si4 0.221221 0.797796 0.277385
Si Si5 0.887247 0.872746 0.921680
Si Si6 0.227055 0.290692 0.074572
Si Si7 0.021252 0.589439 0.923379
O O1 0.410668 0.083754 0.773542
O O2 0.602416 0.185108 0.726295
O O3 0.313400 0.219629 0.736880
O O4 0.391098 0.125440 0.642361
O O5 0.881958 0.135556 0.752431
O O6 0.979785 0.094317 0.875633
O O7 0.741180 0.032619 0.823358
O O8 0.000000 0.000000 0.769088
O O9 0.226155 0.597625 0.395084
O O10 0.000000 0.500000 0.380086
O O11 0.166774 0.789137 0.357978
O O12 0.889060 0.780334 0.918166
O O13 0.912629 0.902300 0.000000
O O14 0.139919 0.370875 0.074243
O O15 0.313841 0.282311 0.000000
O O16 0.000000 0.500000 0.908738
O O17 0.099190 0.602111 0.000000
#
# Coordination Sequence:
#
# PCOD8238322 Si02
#       7
#     8   8   8   8   8   8   8
#     4  11  22  35  58  85 116 152 193 241 285 352
#     4  10  22  35  57  84 116 149 192 239 289 342
#     4  11  21  37  54  85 119 148 189 242 296 342
#     4  11  21  37  59  85 113 151 195 236 290 343
#     4  10  21  40  61  83 113 156 198 237 287 352
#     4   9  18  34  56  81 110 146 192 234 279 344
#     4   9  18  32  54  83 113 144 182 232 286 332
#
# _framework density 18.653131999999999
#
# number of rings (size 3 to 8) (size 9 to 14) (size 15 to 20)
#    0.000    1.857    2.857    2.143    4.000    2.857 
#    0.000    0.000    0.000    3.000    0.000    0.000 
#    0.000    0.000    0.000    0.000    0.000    0.000 
#
# Total GULP energy -693960.678268 kJ/mol
# GULP energy per Si atom -12392.154969 kJ/mol
# Density = 1.861068 g / cm^3
# Si number density = 18.653132 Si / 1000 Ang^3
#
#
#
# Elastic Constant Matrix: (Units=GPa)
#
#
# Indices 1 2 3 4 5 6 
#
# 1 82.3762 38.0436 42.6599 0.0000 0.0000 0.0000
# 2 38.0436 119.5715 63.2840 0.0000 0.0000 0.0000
# 3 42.6599 63.2840 177.3799 0.0000 0.0000 0.0000
# 4 0.0000 0.0000 0.0000 22.2482 0.0000 0.0000
# 5 0.0000 0.0000 0.0000 0.0000 24.3824 0.0000
# 6 0.0000 0.0000 0.0000 0.0000 0.0000 22.9502
#
#
#
# Elastic Compliance Matrix: (Units=1/GPa)
#
#
# Indices 1 2 3 4 5 6 
#
# 1 0.014982 -0.003525 -0.002345 0.000000 0.000000 0.000000
# 2 -0.003525 0.011140 -0.003126 0.000000 0.000000 0.000000
# 3 -0.002345 -0.003126 0.007317 0.000000 0.000000 0.000000
# 4 0.000000 0.000000 0.000000 0.044947 0.000000 0.000000
# 5 0.000000 0.000000 0.000000 0.000000 0.041013 0.000000
# 6 0.000000 0.000000 0.000000 0.000000 0.000000 0.043573
#
#
# Mechanical properties :
#
#
# Convention : Reuss Voigt Hill
#
# Bulk Modulus (GPa) = 64.74904 74.14471 69.44688
# Shear Modulus (GPa) = 26.86514 29.60551 28.23532
#
# Velocity S-wave (km/s) = 3.79918 3.98824 3.89486
# Velocity P-wave (km/s) = 7.35068 7.81304 7.58538
#
# Compressibility (1/GPa) = 0.01544424
#
# Stress axis : x y z
#
# Youngs Moduli (GPa) = 66.74578 89.77024 136.66628
#
# Poissons Ratio (x) = 0.31648 0.32054
# Poissons Ratio (y) = 0.23531 0.42727
# Poissons Ratio (z) = 0.15655 0.28066
#
# Static dielectric constant tensor:
#      x y z
#    x 3.128630 0.000000 0.000000 
#    y 0.000000 3.678580 0.000000 
#    z 0.000000 0.000000 3.836760 
# 
# 
# High freq. dielectric constant tensor:
#      x y z
#    x 1.680050 0.000000 0.000000 
#    y 0.000000 1.749300 0.000000 
#    z 0.000000 0.000000 1.733770 
# 
# From -- ./inp_files/29060.got.cif
#   From: 2010.06.25/outbox.cif.g09.slc.cpg/sg58_15_cif.got.tgz:29060.got - 2010.06.26 21:38:00.
