data_PCOD8238563
_publ_section_title
;
Structure prediction by ZEFSAII (Michael W. Deem and Ramdas Pophale) SiO2 
 PCOD8238563
Probable space group: P N N M
;
_chemical_formula_sum "Si O2"
_cell_formula_units_Z 40
_cell_length_a 8.753018
_cell_length_b 22.064588
_cell_length_c 9.725950
_cell_angle_alpha 90.000000
_cell_angle_beta 90.000000
_cell_angle_gamma 90.000000
_cell_volume 1878.389607
_symmetry_space_group_name_H-M "P N N M"
_symmetry_group_IT_number 58
_symmetry_cell_setting 'orthorhombic'
loop_
_space_group_symop_operation_xyz
x,y,z
-x,-y,z
1/2+x,1/2-y,1/2-z
1/2-x,1/2+y,1/2-z
-x,-y,-z
x,y,-z
1/2-x,1/2+y,1/2+z
1/2+x,1/2-y,1/2+z
loop_
_atom_site_type_symbol
_atom_site_label
_atom_site_fract_x
_atom_site_fract_y
_atom_site_fract_z
Si Si1 0.617746 0.717157 0.204748
Si Si2 0.692149 0.819897 0.000000
Si Si3 0.400328 0.666964 0.000000
Si Si4 0.173165 0.396753 0.210625
Si Si5 0.042785 0.643567 0.000000
Si Si6 0.042885 0.428705 0.500000
Si Si7 0.614446 0.553670 0.000000
Si Si8 0.507545 0.724620 0.500000
O O1 0.451383 0.702445 0.138508
O O2 0.746501 0.667256 0.176587
O O3 0.614293 0.718885 0.368062
O O4 0.657983 0.782315 0.139179
O O5 0.606839 0.884953 0.000000
O O6 0.876231 0.827129 0.000000
O O7 0.222328 0.654080 0.000000
O O8 0.497976 0.607662 0.000000
O O9 0.007679 0.393775 0.135986
O O10 0.149039 0.413830 0.369116
O O11 0.278715 0.447344 0.136540
O O12 0.946907 0.706517 0.000000
O O13 0.000000 0.500000 0.500000
O O14 0.500000 0.500000 0.000000
#
# Coordination Sequence:
#
# PCOD8238563 Si02
#       8
#     8   4   4   8   4   4   4   4
#     4  10  22  41  63  98 128 171 218 284 362 405
#     4  11  24  43  65  97 139 173 227 288 338 426
#     4   9  22  37  60  93 131 163 213 274 349 424
#     4  10  22  45  66  92 135 174 225 286 347 405
#     4  11  21  37  67  97 126 165 215 285 356 396
#     4  12  28  45  65  99 149 197 227 278 349 424
#     4   9  20  44  70  90 121 173 238 286 321 400
#     4  12  23  34  65  95 131 165 219 269 361 417
#
# _framework density 21.294837999999999
#
# number of rings (size 3 to 8) (size 9 to 14) (size 15 to 20)
#    0.000    1.600    2.000    3.000    5.600    3.200 
#    3.600    2.500    0.000    0.000    0.000    0.000 
#    0.000    0.000    0.000    0.000    0.000    0.000 
#
# Total GULP energy -495564.671323 kJ/mol
# GULP energy per Si atom -12389.116783 kJ/mol
# Density = 2.124637 g / cm^3
# Si number density = 21.294838 Si / 1000 Ang^3
#
#
#
# Elastic Constant Matrix: (Units=GPa)
#
#
# Indices 1 2 3 4 5 6 
#
# 1 103.6443 25.7615 40.6470 0.0000 0.0000 0.0000
# 2 25.7615 75.1855 25.0526 0.0000 0.0000 0.0000
# 3 40.6470 25.0526 169.3230 0.0000 0.0000 0.0000
# 4 0.0000 0.0000 0.0000 28.9435 0.0000 0.0000
# 5 0.0000 0.0000 0.0000 0.0000 28.2800 0.0000
# 6 0.0000 0.0000 0.0000 0.0000 0.0000 23.2239
#
#
#
# Elastic Compliance Matrix: (Units=1/GPa)
#
#
# Indices 1 2 3 4 5 6 
#
# 1 0.011308 -0.003124 -0.002252 0.000000 0.000000 0.000000
# 2 -0.003124 0.014853 -0.001448 0.000000 0.000000 0.000000
# 3 -0.002252 -0.001448 0.006661 0.000000 0.000000 0.000000
# 4 0.000000 0.000000 0.000000 0.034550 0.000000 0.000000
# 5 0.000000 0.000000 0.000000 0.000000 0.035361 0.000000
# 6 0.000000 0.000000 0.000000 0.000000 0.000000 0.043059
#
#
# Mechanical properties :
#
#
# Convention : Reuss Voigt Hill
#
# Bulk Modulus (GPa) = 52.15426 59.00834 55.58130
# Shear Modulus (GPa) = 30.15103 33.20226 31.67665
#
# Velocity S-wave (km/s) = 3.76691 3.95292 3.86103
# Velocity P-wave (km/s) = 6.59273 6.97168 6.78485
#
# Compressibility (1/GPa) = 0.01917389
#
# Stress axis : x y z
#
# Youngs Moduli (GPa) = 88.43107 67.32528 150.13294
#
# Poissons Ratio (x) = 0.21033 0.33816
# Poissons Ratio (y) = 0.27627 0.21735
# Poissons Ratio (z) = 0.19918 0.09747
#
# Static dielectric constant tensor:
#      x y z
#    x 3.672140 0.000000 0.000000 
#    y 0.000000 3.569230 0.000000 
#    z 0.000000 0.000000 3.979490 
# 
# 
# High freq. dielectric constant tensor:
#      x y z
#    x 1.839820 0.000000 0.000000 
#    y 0.000000 1.805070 0.000000 
#    z 0.000000 0.000000 1.851410 
# 
# From -- ./inp_files/2530.got.cif
#   From: 2010.06.25/outbox.cif.g09.slc.cpg/sg58_2_cif.got.tgz:2530.got - 2010.06.26 21:38:00.
