data_PCOD8238525
_publ_section_title
;
Structure prediction by ZEFSAII (Michael W. Deem and Ramdas Pophale) SiO2 
 PCOD8238525
Probable space group: P N N M
;
_chemical_formula_sum "Si O2"
_cell_formula_units_Z 48
_cell_length_a 25.834613
_cell_length_b 6.326796
_cell_length_c 14.614910
_cell_angle_alpha 90.000000
_cell_angle_beta 90.000000
_cell_angle_gamma 90.000000
_cell_volume 2388.811807
_symmetry_space_group_name_H-M "P N N M"
_symmetry_group_IT_number 58
_symmetry_cell_setting 'orthorhombic'
loop_
_space_group_symop_operation_xyz
x,y,z
-x,-y,z
1/2+x,1/2-y,1/2-z
1/2-x,1/2+y,1/2-z
-x,-y,-z
x,y,-z
1/2-x,1/2+y,1/2+z
1/2+x,1/2-y,1/2+z
loop_
_atom_site_type_symbol
_atom_site_label
_atom_site_fract_x
_atom_site_fract_y
_atom_site_fract_z
Si Si1 0.654772 0.566944 0.603095
Si Si2 0.861698 0.188173 0.401320
Si Si3 0.440600 0.952607 0.893500
Si Si4 0.873785 0.814956 0.729934
Si Si5 0.194516 0.539030 0.191725
Si Si6 0.245465 0.676567 0.363369
O O1 0.632255 0.557854 0.500000
O O2 0.619299 0.414013 0.667522
O O3 0.653885 0.806847 0.640922
O O4 0.715789 0.505003 0.602199
O O5 0.876561 0.091105 0.500000
O O6 0.908238 0.337953 0.367731
O O7 0.809502 0.327888 0.414389
O O8 0.849099 0.003976 0.329613
O O9 0.500000 0.000000 0.874890
O O10 0.425280 0.761644 0.824022
O O11 0.430843 0.888505 0.000000
O O12 0.836240 0.614943 0.738117
O O13 0.235623 0.665795 0.253850
O O14 0.225168 0.399362 0.117326
#
# Coordination Sequence:
#
# PCOD8238525 Si02
#       6
#     8   8   8   8   8   8
#     4  11  24  37  55  84 119 160 204 251 297 351
#     4  11  22  36  57  88 120 157 198 241 296 359
#     4  10  22  40  63  94 127 157 196 248 308 372
#     4  11  21  39  60  81 116 159 199 248 299 359
#     4  11  20  35  56  76 116 157 201 246 291 345
#     4  11  19  35  53  81 114 157 200 242 288 348
#
# _framework density 20.093671000000001
#
# number of rings (size 3 to 8) (size 9 to 14) (size 15 to 20)
#    0.000    1.167    5.000    2.000    0.000    4.000 
#    0.000    2.500    0.000    0.500    0.000    4.667 
#    0.000    0.000    0.000    0.000    0.000    0.000 
#
# Total GULP energy -594778.842122 kJ/mol
# GULP energy per Si atom -12391.225878 kJ/mol
# Density = 2.004794 g / cm^3
# Si number density = 20.093671 Si / 1000 Ang^3
#
#
#
# Elastic Constant Matrix: (Units=GPa)
#
#
# Indices 1 2 3 4 5 6 
#
# 1 95.5033 37.9524 25.8786 0.0000 0.0000 0.0000
# 2 37.9524 96.8908 49.7976 0.0000 0.0000 0.0000
# 3 25.8786 49.7976 128.5716 0.0000 0.0000 0.0000
# 4 0.0000 0.0000 0.0000 24.5817 0.0000 0.0000
# 5 0.0000 0.0000 0.0000 0.0000 16.1671 0.0000
# 6 0.0000 0.0000 0.0000 0.0000 0.0000 26.3390
#
#
#
# Elastic Compliance Matrix: (Units=1/GPa)
#
#
# Indices 1 2 3 4 5 6 
#
# 1 0.012462 -0.004485 -0.000771 0.000000 0.000000 0.000000
# 2 -0.004485 0.014500 -0.004713 0.000000 0.000000 0.000000
# 3 -0.000771 -0.004713 0.009759 0.000000 0.000000 0.000000
# 4 0.000000 0.000000 0.000000 0.040681 0.000000 0.000000
# 5 0.000000 0.000000 0.000000 0.000000 0.061854 0.000000
# 6 0.000000 0.000000 0.000000 0.000000 0.000000 0.037966
#
#
# Mechanical properties :
#
#
# Convention : Reuss Voigt Hill
#
# Bulk Modulus (GPa) = 59.58931 60.91364 60.25148
# Shear Modulus (GPa) = 24.66025 27.24003 25.95014
#
# Velocity S-wave (km/s) = 3.50703 3.68591 3.59759
# Velocity P-wave (km/s) = 6.79111 6.96385 6.87802
#
# Compressibility (1/GPa) = 0.01678153
#
# Stress axis : x y z
#
# Youngs Moduli (GPa) = 80.24285 68.96458 102.47424
#
# Poissons Ratio (x) = 0.30931 0.07903
# Poissons Ratio (y) = 0.35990 0.48300
# Poissons Ratio (z) = 0.06188 0.32506
#
# Static dielectric constant tensor:
#      x y z
#    x 3.264350 0.000000 0.000000 
#    y 0.000000 3.728700 0.000000 
#    z 0.000000 0.000000 3.645510 
# 
# 
# High freq. dielectric constant tensor:
#      x y z
#    x 1.734780 0.000000 0.000000 
#    y 0.000000 1.793580 0.000000 
#    z 0.000000 0.000000 1.780830 
# 
# From -- ./inp_files/18612.got.cif
#   From: 2010.06.25/outbox.cif.g09.slc.cpg/sg58_10_cif.got.tgz:18612.got - 2010.06.26 21:38:00.
