data_PCOD8238745
_publ_section_title
;
Structure prediction by ZEFSAII (Michael W. Deem and Ramdas Pophale) SiO2 
 PCOD8238745
Probable space group: P N N M
;
_chemical_formula_sum "Si O2"
_cell_formula_units_Z 64
_cell_length_a 10.030590
_cell_length_b 19.675431
_cell_length_c 21.300688
_cell_angle_alpha 90.000000
_cell_angle_beta 90.000000
_cell_angle_gamma 90.000000
_cell_volume 4203.822446
_symmetry_space_group_name_H-M "P N N M"
_symmetry_group_IT_number 58
_symmetry_cell_setting 'orthorhombic'
loop_
_space_group_symop_operation_xyz
x,y,z
-x,-y,z
1/2+x,1/2-y,1/2-z
1/2-x,1/2+y,1/2-z
-x,-y,-z
x,y,-z
1/2-x,1/2+y,1/2+z
1/2+x,1/2-y,1/2+z
loop_
_atom_site_type_symbol
_atom_site_label
_atom_site_fract_x
_atom_site_fract_y
_atom_site_fract_z
Si Si1 0.860337 0.536603 0.328863
Si Si2 0.294478 0.737194 0.839045
Si Si3 0.782762 0.644934 0.428102
Si Si4 0.794015 0.649701 0.766444
Si Si5 0.890911 0.944567 0.168971
Si Si6 0.500623 0.227835 0.661944
Si Si7 0.470948 0.659789 0.571536
Si Si8 0.995345 0.843205 0.267060
O O1 0.847815 0.582289 0.391215
O O2 0.847019 0.582375 0.267026
O O3 0.752546 0.477480 0.325008
O O4 0.000000 0.500000 0.329787
O O5 0.329485 0.782022 0.900568
O O6 0.290040 0.787660 0.780607
O O7 0.406818 0.680001 0.826916
O O8 0.150650 0.700015 0.845994
O O9 0.829076 0.641118 0.500000
O O10 0.624332 0.637776 0.420373
O O11 0.896658 0.667054 0.822794
O O12 0.643573 0.638190 0.791864
O O13 0.881165 0.891516 0.111649
O O14 0.929732 0.908924 0.234586
O O15 0.000000 0.000000 0.150965
O O16 0.547899 0.263680 0.597459
O O17 0.498150 0.283888 0.716254
O O18 0.422674 0.657466 0.500000
#
# Coordination Sequence:
#
# PCOD8238745 Si02
#       8
#     8   8   8   8   8   8   8   8
#     4  11  22  31  42  64  93 125 154 181 223 261
#     4   8  15  27  45  65  79 108 149 183 222 262
#     4   9  17  32  48  63  90 122 153 187 218 255
#     4   9  16  29  43  61  86 112 140 185 229 262
#     4  11  18  31  45  64  89 119 156 184 206 261
#     4   8  15  27  43  64  85 106 142 186 228 262
#     4   9  17  30  49  67  85 118 159 191 214 249
#     4   9  16  27  45  62  83 111 144 184 226 260
#
# _framework density 15.224239000000001
#
# number of rings (size 3 to 8) (size 9 to 14) (size 15 to 20)
#    0.000    2.750    2.500    1.500    1.750    1.000 
#    6.750    0.000    0.000    0.000    0.000    0.000 
#    0.000    2.000    0.000    0.125    0.000    0.000 
#
# Total GULP energy -793348.779840 kJ/mol
# GULP energy per Si atom -12396.074685 kJ/mol
# Density = 1.518959 g / cm^3
# Si number density = 15.224239 Si / 1000 Ang^3
#
#
#
# Elastic Constant Matrix: (Units=GPa)
#
#
# Indices 1 2 3 4 5 6 
#
# 1 115.8213 55.6156 50.2863 0.0000 0.0000 0.0000
# 2 55.6156 63.7800 57.6584 0.0000 0.0000 0.0000
# 3 50.2863 57.6584 54.3043 0.0000 0.0000 0.0000
# 4 0.0000 0.0000 0.0000 19.2488 0.0000 0.0000
# 5 0.0000 0.0000 0.0000 0.0000 16.3023 0.0000
# 6 0.0000 0.0000 0.0000 0.0000 0.0000 25.0180
#
#
#
# Elastic Compliance Matrix: (Units=1/GPa)
#
#
# Indices 1 2 3 4 5 6 
#
# 1 0.014853 -0.012898 -0.000059 0.000000 0.000000 0.000000
# 2 -0.012898 0.401765 -0.414635 0.000000 0.000000 0.000000
# 3 -0.000059 -0.414635 0.458714 0.000000 0.000000 0.000000
# 4 0.000000 0.000000 0.000000 0.051951 0.000000 0.000000
# 5 0.000000 0.000000 0.000000 0.000000 0.061341 0.000000
# 6 0.000000 0.000000 0.000000 0.000000 0.000000 0.039971
#
#
# Mechanical properties :
#
#
# Convention : Reuss Voigt Hill
#
# Bulk Modulus (GPa) = 49.63620 62.33626 55.98623
# Shear Modulus (GPa) = 2.64481 16.80352 9.72416
#
# Velocity S-wave (km/s) = 1.31947 3.32585 2.53005
# Velocity P-wave (km/s) = 5.91570 7.46878 6.73714
#
# Compressibility (1/GPa) = 0.02014659
#
# Stress axis : x y z
#
# Youngs Moduli (GPa) = 67.32494 2.48902 2.18001
#
# Poissons Ratio (x) = 0.03210 0.00013
# Poissons Ratio (y) = 0.86839 0.90391
# Poissons Ratio (z) = 0.00399 1.03203
#
# Static dielectric constant tensor:
#      x y z
#    x 3.023630 0.000000 0.000000 
#    y 0.000000 2.798530 0.000000 
#    z 0.000000 0.000000 2.838230 
# 
# 
# High freq. dielectric constant tensor:
#      x y z
#    x 1.583520 0.000000 0.000000 
#    y 0.000000 1.563010 0.000000 
#    z 0.000000 0.000000 1.550750 
# 
# From -- ./inp_files/29210.got.cif
#   From: 2010.06.25/outbox.cif.g09.slc.cpg/sg58_15_cif.got.tgz:29210.got - 2010.06.26 21:38:00.
