data_PCOD8238250
_publ_section_title
;
Structure prediction by ZEFSAII (Michael W. Deem and Ramdas Pophale) SiO2 
 PCOD8238250
Probable space group: P N N M
;
_chemical_formula_sum "Si O2"
_cell_formula_units_Z 56
_cell_length_a 21.742910
_cell_length_b 14.634089
_cell_length_c 8.932832
_cell_angle_alpha 90.000000
_cell_angle_beta 90.000000
_cell_angle_gamma 90.000000
_cell_volume 2842.317090
_symmetry_space_group_name_H-M "P N N M"
_symmetry_group_IT_number 58
_symmetry_cell_setting 'orthorhombic'
loop_
_space_group_symop_operation_xyz
x,y,z
-x,-y,z
1/2+x,1/2-y,1/2-z
1/2-x,1/2+y,1/2-z
-x,-y,-z
x,y,-z
1/2-x,1/2+y,1/2+z
1/2+x,1/2-y,1/2+z
loop_
_atom_site_type_symbol
_atom_site_label
_atom_site_fract_x
_atom_site_fract_y
_atom_site_fract_z
Si Si1 0.457284 0.581300 0.178143
Si Si2 0.221611 0.703715 0.173764
Si Si3 0.493170 0.781926 0.827065
Si Si4 0.095787 0.602161 0.173960
Si Si5 0.179383 0.059343 0.322610
Si Si6 0.617794 0.083457 0.172934
Si Si7 0.747305 0.114884 0.677237
O O1 0.500000 0.500000 0.240907
O O2 0.484653 0.678236 0.229673
O O3 0.388928 0.567832 0.245578
O O4 0.453913 0.578247 0.000000
O O5 0.163242 0.640691 0.207221
O O6 0.282031 0.648373 0.224172
O O7 0.217466 0.793976 0.273344
O O8 0.224844 0.731661 0.000000
O O9 0.546021 0.824936 0.726558
O O10 0.429217 0.833880 0.803901
O O11 0.513807 0.785667 0.000000
O O12 0.086960 0.507906 0.262189
O O13 0.086309 0.581653 0.000000
O O14 0.176503 0.052007 0.500000
O O15 0.212594 0.969106 0.259234
O O16 0.679389 0.111141 0.256931
O O17 0.633016 0.067474 0.000000
O O18 0.741614 0.110615 0.500000
#
# Coordination Sequence:
#
# PCOD8238250 Si02
#       7
#     8   8   8   8   8   8   8
#     4   9  18  33  57  86 114 148 194 244 293 347
#     4  10  21  39  58  81 119 160 195 240 303 360
#     4  10  22  38  59  87 117 156 201 246 299 361
#     4  11  23  39  60  87 120 157 199 252 305 356
#     4   9  18  36  57  81 117 153 190 241 294 345
#     4  11  22  39  61  87 122 160 198 244 302 365
#     4  11  22  36  60  91 119 152 199 248 296 355
#
# _framework density 19.702235999999999
#
# number of rings (size 3 to 8) (size 9 to 14) (size 15 to 20)
#    0.000    1.857    1.429    2.571    2.000    6.286 
#    0.000    0.000    0.000    2.143    0.000    0.000 
#    0.000    0.000    0.000    0.000    0.000    0.000 
#
# Total GULP energy -694625.626507 kJ/mol
# GULP energy per Si atom -12404.029045 kJ/mol
# Density = 1.965739 g / cm^3
# Si number density = 19.702236 Si / 1000 Ang^3
#
#
#
# Elastic Constant Matrix: (Units=GPa)
#
#
# Indices 1 2 3 4 5 6 
#
# 1 69.8542 25.0101 26.6234 0.0000 0.0000 0.0000
# 2 25.0101 131.8979 33.6170 0.0000 0.0000 0.0000
# 3 26.6234 33.6170 59.6642 0.0000 0.0000 0.0000
# 4 0.0000 0.0000 0.0000 28.5028 0.0000 0.0000
# 5 0.0000 0.0000 0.0000 0.0000 28.8780 0.0000
# 6 0.0000 0.0000 0.0000 0.0000 0.0000 27.1359
#
#
#
# Elastic Compliance Matrix: (Units=1/GPa)
#
#
# Indices 1 2 3 4 5 6 
#
# 1 0.017517 -0.001552 -0.006942 0.000000 0.000000 0.000000
# 2 -0.001552 0.008990 -0.004373 0.000000 0.000000 0.000000
# 3 -0.006942 -0.004373 0.022322 0.000000 0.000000 0.000000
# 4 0.000000 0.000000 0.000000 0.035084 0.000000 0.000000
# 5 0.000000 0.000000 0.000000 0.000000 0.034628 0.000000
# 6 0.000000 0.000000 0.000000 0.000000 0.000000 0.036852
#
#
# Mechanical properties :
#
#
# Convention : Reuss Voigt Hill
#
# Bulk Modulus (GPa) = 43.29870 47.99080 45.64475
# Shear Modulus (GPa) = 26.47939 28.64774 27.56357
#
# Velocity S-wave (km/s) = 3.67001 3.81732 3.74439
# Velocity P-wave (km/s) = 6.32320 6.62119 6.47391
#
# Compressibility (1/GPa) = 0.02309538
#
# Stress axis : x y z
#
# Youngs Moduli (GPa) = 57.08738 111.22870 44.79904
#
# Poissons Ratio (x) = 0.17265 0.31099
# Poissons Ratio (y) = 0.08861 0.19590
# Poissons Ratio (z) = 0.39629 0.48639
#
# Static dielectric constant tensor:
#      x y z
#    x 3.747470 0.000000 0.000000 
#    y 0.000000 3.796140 0.000000 
#    z 0.000000 0.000000 3.364500 
# 
# 
# High freq. dielectric constant tensor:
#      x y z
#    x 1.779770 0.000000 0.000000 
#    y 0.000000 1.784010 0.000000 
#    z 0.000000 0.000000 1.737260 
# 
# From -- ./inp_files/6292.got.cif
#   From: 2010.06.25/outbox.cif.g09.slc.cpg/sg58_4_cif.got.tgz:6292.got - 2010.06.26 21:38:00.
