data_PCOD8238404
_publ_section_title
;
Structure prediction by ZEFSAII (Michael W. Deem and Ramdas Pophale) SiO2 
 PCOD8238404
Probable space group: P N N M
;
_chemical_formula_sum "Si O2"
_cell_formula_units_Z 48
_cell_length_a 18.631510
_cell_length_b 15.498577
_cell_length_c 7.834556
_cell_angle_alpha 90.000000
_cell_angle_beta 90.000000
_cell_angle_gamma 90.000000
_cell_volume 2262.321216
_symmetry_space_group_name_H-M "P N N M"
_symmetry_group_IT_number 58
_symmetry_cell_setting 'orthorhombic'
loop_
_space_group_symop_operation_xyz
x,y,z
-x,-y,z
1/2+x,1/2-y,1/2-z
1/2-x,1/2+y,1/2-z
-x,-y,-z
x,y,-z
1/2-x,1/2+y,1/2+z
1/2+x,1/2-y,1/2+z
loop_
_atom_site_type_symbol
_atom_site_label
_atom_site_fract_x
_atom_site_fract_y
_atom_site_fract_z
Si Si1 0.816773 0.883518 0.197008
Si Si2 0.518917 0.864523 0.500000
Si Si3 0.273894 0.948429 0.198547
Si Si4 0.618902 0.017948 0.500000
Si Si5 0.213676 0.763448 0.192840
Si Si6 0.020635 0.094972 0.798130
Si Si7 0.059165 0.744751 0.313096
O O1 0.773534 0.810894 0.299381
O O2 0.898619 0.882491 0.260675
O O3 0.786672 0.979480 0.228722
O O4 0.811426 0.858024 0.000000
O O5 0.447393 0.918608 0.500000
O O6 0.516921 0.808208 0.329470
O O7 0.591495 0.919999 0.500000
O O8 0.338985 0.968953 0.324314
O O9 0.244295 0.855234 0.254505
O O10 0.299692 0.948390 0.000000
O O11 0.145139 0.737089 0.303465
O O12 0.186196 0.773219 0.000000
O O13 0.964209 0.156260 0.704492
O O14 0.012072 0.104721 0.000000
O O15 0.000000 0.000000 0.737253
O O16 0.037074 0.709490 0.500000
#
# Coordination Sequence:
#
# PCOD8238404 Si02
#       7
#     8   4   8   4   8   8   8
#     4  10  22  39  65  98 132 173 220 271 329 397
#     4  11  26  48  65  98 132 178 231 277 341 402
#     4  10  24  43  66 100 136 168 224 278 335 399
#     4  11  26  44  74  92 131 182 222 283 342 399
#     4  11  23  41  65  94 132 175 218 275 333 394
#     4  10  21  41  67  96 139 181 216 271 339 402
#     4  12  25  42  68  97 137 178 228 277 333 407
#
# _framework density 21.217144999999999
#
# number of rings (size 3 to 8) (size 9 to 14) (size 15 to 20)
#    0.000    1.333    1.667    2.500    5.833    6.333 
#    0.000    1.667    0.000    0.000    0.000    0.000 
#    0.000    0.000    0.000    0.000    0.000    0.000 
#
# Total GULP energy -595396.386002 kJ/mol
# GULP energy per Si atom -12404.091375 kJ/mol
# Density = 2.116885 g / cm^3
# Si number density = 21.217145 Si / 1000 Ang^3
#
#
#
# Elastic Constant Matrix: (Units=GPa)
#
#
# Indices 1 2 3 4 5 6 
#
# 1 98.1000 25.3640 22.3324 0.0000 0.0000 0.0000
# 2 25.3640 108.9500 24.3648 0.0000 0.0000 0.0000
# 3 22.3324 24.3648 104.8159 0.0000 0.0000 0.0000
# 4 0.0000 0.0000 0.0000 -77.8470 0.0000 0.0000
# 5 0.0000 0.0000 0.0000 0.0000 19.9193 0.0000
# 6 0.0000 0.0000 0.0000 0.0000 0.0000 28.4134
#
#
#
# Elastic Compliance Matrix: (Units=1/GPa)
#
#
# Indices 1 2 3 4 5 6 
#
# 1 0.011185 -0.002185 -0.001875 0.000000 0.000000 0.000000
# 2 -0.002185 0.010109 -0.001884 0.000000 0.000000 0.000000
# 3 -0.001875 -0.001884 0.010378 0.000000 0.000000 0.000000
# 4 0.000000 0.000000 0.000000 -0.012846 0.000000 0.000000
# 5 0.000000 0.000000 0.000000 0.000000 0.050203 0.000000
# 6 0.000000 0.000000 0.000000 0.000000 0.000000 0.035195
#
#
# Mechanical properties :
#
#
# Convention : Reuss Voigt Hill
#
# Bulk Modulus (GPa) = 50.54723 50.66537 50.60630
# Shear Modulus (GPa) = 40.74760 10.08413 25.41587
#
# Velocity S-wave (km/s) = 4.38711 2.18246 3.46481
# Velocity P-wave (km/s) = 7.03831 5.50292 6.31743
#
# Compressibility (1/GPa) = 0.01978348
#
# Stress axis : x y z
#
# Youngs Moduli (GPa) = 89.40187 98.92664 96.35655
#
# Poissons Ratio (x) = 0.21612 0.18071
# Poissons Ratio (y) = 0.19531 0.18156
# Poissons Ratio (z) = 0.16766 0.18641
#
# Static dielectric constant tensor:
#      x y z
#    x 3.765950 0.000000 0.000000 
#    y 0.000000 4.013660 0.000000 
#    z 0.000000 0.000000 3.892790 
# 
# 
# High freq. dielectric constant tensor:
#      x y z
#    x 1.832310 0.000000 0.000000 
#    y 0.000000 1.843750 0.000000 
#    z 0.000000 0.000000 1.833330 
# 
# From -- ./inp_files/7763.got.cif
#   From: 2010.06.25/outbox.cif.g09.slc.cpg/sg58_4_cif.got.tgz:7763.got - 2010.06.26 21:38:00.
