data_PCOD8238478
_publ_section_title
;
Structure prediction by ZEFSAII (Michael W. Deem and Ramdas Pophale) SiO2 
 PCOD8238478
Probable space group: P N N M
;
_chemical_formula_sum "Si O2"
_cell_formula_units_Z 40
_cell_length_a 8.957180
_cell_length_b 25.386632
_cell_length_c 8.949922
_cell_angle_alpha 90.000000
_cell_angle_beta 90.000000
_cell_angle_gamma 90.000000
_cell_volume 2035.146324
_symmetry_space_group_name_H-M "P N N M"
_symmetry_group_IT_number 58
_symmetry_cell_setting 'orthorhombic'
loop_
_space_group_symop_operation_xyz
x,y,z
-x,-y,z
1/2+x,1/2-y,1/2-z
1/2-x,1/2+y,1/2-z
-x,-y,-z
x,y,-z
1/2-x,1/2+y,1/2+z
1/2+x,1/2-y,1/2+z
loop_
_atom_site_type_symbol
_atom_site_label
_atom_site_fract_x
_atom_site_fract_y
_atom_site_fract_z
Si Si1 0.102176 0.117829 0.675933
Si Si2 0.710466 0.597132 0.676043
Si Si3 0.176548 0.006147 0.335403
Si Si4 0.205484 0.718276 0.174714
Si Si5 0.370371 0.811639 0.324797
O O1 0.064911 0.116791 0.500000
O O2 0.194026 0.168932 0.723701
O O3 0.947774 0.117952 0.764633
O O4 0.203929 0.066521 0.717535
O O5 0.711570 0.601528 0.500000
O O6 0.744605 0.536573 0.722032
O O7 0.840759 0.633030 0.743868
O O8 0.246210 0.996350 0.500000
O O9 0.000000 0.000000 0.343307
O O10 0.252290 0.768736 0.268951
O O11 0.035733 0.706487 0.217474
O O12 0.223997 0.730590 0.000000
O O13 0.349730 0.819856 0.500000
#
# Coordination Sequence:
#
# PCOD8238478 Si02
#       5
#     8   8   8   8   8
#     4   9  18  35  58  82 110 142 177 219 264 314
#     4  11  21  33  53  81 111 143 180 221 263 310
#     4   8  15  30  53  79 107 142 180 216 259 310
#     4  10  22  39  58  81 106 136 177 220 265 318
#     4  11  23  38  56  78 106 140 176 217 267 320
#
# _framework density 19.654606000000001
#
# number of rings (size 3 to 8) (size 9 to 14) (size 15 to 20)
#    0.000    2.200    0.000    4.800    0.000    9.200 
#    0.000    1.000    0.000    6.000    0.000    0.000 
#    0.000    0.000    0.000    0.000    0.000    0.000 
#
# Total GULP energy -496013.913494 kJ/mol
# GULP energy per Si atom -12400.347837 kJ/mol
# Density = 1.960987 g / cm^3
# Si number density = 19.654606 Si / 1000 Ang^3
#
#
#
# Elastic Constant Matrix: (Units=GPa)
#
#
# Indices 1 2 3 4 5 6 
#
# 1 37.7168 -11.7576 15.3792 0.0000 0.0000 0.0000
# 2 -11.7576 57.2201 7.7705 0.0000 0.0000 0.0000
# 3 15.3792 7.7705 74.2494 0.0000 0.0000 0.0000
# 4 0.0000 0.0000 0.0000 34.2169 0.0000 0.0000
# 5 0.0000 0.0000 0.0000 0.0000 23.6360 0.0000
# 6 0.0000 0.0000 0.0000 0.0000 0.0000 27.5471
#
#
#
# Elastic Compliance Matrix: (Units=1/GPa)
#
#
# Indices 1 2 3 4 5 6 
#
# 1 0.031884 0.007556 -0.007395 0.000000 0.000000 0.000000
# 2 0.007556 0.019519 -0.003608 0.000000 0.000000 0.000000
# 3 -0.007395 -0.003608 0.015377 0.000000 0.000000 0.000000
# 4 0.000000 0.000000 0.000000 0.029225 0.000000 0.000000
# 5 0.000000 0.000000 0.000000 0.000000 0.042308 0.000000
# 6 0.000000 0.000000 0.000000 0.000000 0.000000 0.036301
#
#
# Mechanical properties :
#
#
# Convention : Reuss Voigt Hill
#
# Bulk Modulus (GPa) = 16.69823 21.33006 19.01414
# Shear Modulus (GPa) = 24.81742 27.59959 26.20850
#
# Velocity S-wave (km/s) = 3.55727 3.75137 3.65561
# Velocity P-wave (km/s) = 5.03850 5.44424 5.24529
#
# Compressibility (1/GPa) = 0.05988660
#
# Stress axis : x y z
#
# Youngs Moduli (GPa) = 31.36366 51.23246 65.03062
#
# Poissons Ratio (x) = -0.38710 0.48089
# Poissons Ratio (y) = -0.23698 0.23461
# Poissons Ratio (z) = 0.23193 0.18483
#
# Static dielectric constant tensor:
#      x y z
#    x 3.315120 0.000000 0.000000 
#    y 0.000000 4.103050 0.000000 
#    z 0.000000 0.000000 3.453120 
# 
# 
# High freq. dielectric constant tensor:
#      x y z
#    x 1.737440 0.000000 0.000000 
#    y 0.000000 1.787690 0.000000 
#    z 0.000000 0.000000 1.757610 
# 
# From -- ./inp_files/2406.got.cif
#   From: 2010.06.25/outbox.cif.g09.slc.cpg/sg58_2_cif.got.tgz:2406.got - 2010.06.26 21:38:00.
