data_PCOD8238177
_publ_section_title
;
Structure prediction by ZEFSAII (Michael W. Deem and Ramdas Pophale) SiO2 
 PCOD8238177
Probable space group: P N N M
;
_chemical_formula_sum "Si O2"
_cell_formula_units_Z 64
_cell_length_a 22.187401
_cell_length_b 16.583668
_cell_length_c 8.795405
_cell_angle_alpha 90.000000
_cell_angle_beta 90.000000
_cell_angle_gamma 90.000000
_cell_volume 3236.256006
_symmetry_space_group_name_H-M "P N N M"
_symmetry_group_IT_number 58
_symmetry_cell_setting 'orthorhombic'
loop_
_space_group_symop_operation_xyz
x,y,z
-x,-y,z
1/2+x,1/2-y,1/2-z
1/2-x,1/2+y,1/2-z
-x,-y,-z
x,y,-z
1/2-x,1/2+y,1/2+z
1/2+x,1/2-y,1/2+z
loop_
_atom_site_type_symbol
_atom_site_label
_atom_site_fract_x
_atom_site_fract_y
_atom_site_fract_z
Si Si1 0.354585 0.351642 0.180612
Si Si2 0.113306 0.674986 0.324670
Si Si3 0.998387 0.408856 0.821037
Si Si4 0.351227 0.648310 0.822205
Si Si5 0.567458 0.500513 0.180442
Si Si6 0.263173 0.081504 0.825439
Si Si7 0.773189 0.588358 0.178582
Si Si8 0.113007 0.328023 0.322781
O O1 0.379788 0.266129 0.237215
O O2 0.396539 0.422718 0.247944
O O3 0.285758 0.363235 0.235606
O O4 0.354946 0.355752 0.000000
O O5 0.092348 0.674476 0.500000
O O6 0.176078 0.630612 0.303257
O O7 0.064647 0.630512 0.222954
O O8 0.052204 0.357193 0.753619
O O9 0.000000 0.500000 0.756703
O O10 0.005617 0.409255 0.000000
O O11 0.399124 0.581081 0.769851
O O12 0.290857 0.639904 0.724278
O O13 0.379759 0.734334 0.783179
O O14 0.335478 0.639954 0.000000
O O15 0.500000 0.500000 0.248816
O O16 0.564649 0.507156 0.000000
O O17 0.263461 0.005007 0.715774
O O18 0.254813 0.054620 0.000000
O O19 0.830697 0.621059 0.265588
O O20 0.783887 0.598262 0.000000
O O21 0.107008 0.343369 0.500000
#
# Coordination Sequence:
#
# PCOD8238177 Si02
#       8
#     8   8   8   8   8   8   8   8
#     4   9  18  34  58  86 116 154 198 242 292 353
#     4  10  22  38  60  88 116 152 198 247 298 353
#     4  11  25  44  63  86 117 158 201 242 299 364
#     4  10  21  38  60  90 121 158 203 247 297 358
#     4   9  17  31  57  88 117 151 195 240 285 349
#     4  11  22  37  59  89 125 160 200 251 304 355
#     4  11  21  38  62  87 120 160 205 249 303 365
#     4  11  24  39  61  91 122 156 202 254 304 359
#
# _framework density 19.775936999999999
#
# number of rings (size 3 to 8) (size 9 to 14) (size 15 to 20)
#    0.000    1.750    1.250    3.000    1.750    6.000 
#    0.000    1.250    0.000    0.375    0.000    0.000 
#    0.000    0.000    0.000    0.000    0.000    0.000 
#
# Total GULP energy -793855.975115 kJ/mol
# GULP energy per Si atom -12403.999611 kJ/mol
# Density = 1.973093 g / cm^3
# Si number density = 19.775937 Si / 1000 Ang^3
#
#
#
# Elastic Constant Matrix: (Units=GPa)
#
#
# Indices 1 2 3 4 5 6 
#
# 1 141.7400 55.2521 40.2965 0.0000 0.0000 0.0000
# 2 55.2521 137.6244 36.3322 0.0000 0.0000 0.0000
# 3 40.2965 36.3322 36.5612 0.0000 0.0000 0.0000
# 4 0.0000 0.0000 0.0000 24.0085 0.0000 0.0000
# 5 0.0000 0.0000 0.0000 0.0000 2.6567 0.0000
# 6 0.0000 0.0000 0.0000 0.0000 0.0000 33.1664
#
#
#
# Elastic Compliance Matrix: (Units=1/GPa)
#
#
# Indices 1 2 3 4 5 6 
#
# 1 0.010521 -0.001576 -0.010030 0.000000 0.000000 0.000000
# 2 -0.001576 0.010086 -0.008286 0.000000 0.000000 0.000000
# 3 -0.010030 -0.008286 0.046640 0.000000 0.000000 0.000000
# 4 0.000000 0.000000 0.000000 0.041652 0.000000 0.000000
# 5 0.000000 0.000000 0.000000 0.000000 0.376408 0.000000
# 6 0.000000 0.000000 0.000000 0.000000 0.000000 0.030151
#
#
# Mechanical properties :
#
#
# Convention : Reuss Voigt Hill
#
# Bulk Modulus (GPa) = 36.41176 64.40968 50.41072
# Shear Modulus (GPa) = 8.85902 24.23598 16.54750
#
# Velocity S-wave (km/s) = 2.11883 3.50455 2.89580
# Velocity P-wave (km/s) = 4.94348 7.00116 6.06029
#
# Compressibility (1/GPa) = 0.02746365
#
# Stress axis : x y z
#
# Youngs Moduli (GPa) = 95.04847 99.14330 21.44083
#
# Poissons Ratio (x) = 0.15626 0.21504
# Poissons Ratio (y) = 0.14980 0.17766
# Poissons Ratio (z) = 0.95330 0.82152
#
# Static dielectric constant tensor:
#      x y z
#    x 3.771090 0.000000 0.000000 
#    y 0.000000 3.856660 0.000000 
#    z 0.000000 0.000000 3.401310 
# 
# 
# High freq. dielectric constant tensor:
#      x y z
#    x 1.785820 0.000000 0.000000 
#    y 0.000000 1.787540 0.000000 
#    z 0.000000 0.000000 1.745730 
# 
# From -- ./inp_files/10102.got.cif
#   From: 2010.06.25/outbox.cif.g09.slc.cpg/sg58_6_cif.got.tgz:10102.got - 2010.06.26 21:38:00.
