data_PCOD8238491
_publ_section_title
;
Structure prediction by ZEFSAII (Michael W. Deem and Ramdas Pophale) SiO2 
 PCOD8238491
Probable space group: P N N M
;
_chemical_formula_sum "Si O2"
_cell_formula_units_Z 48
_cell_length_a 10.765929
_cell_length_b 16.178198
_cell_length_c 12.817642
_cell_angle_alpha 90.000000
_cell_angle_beta 90.000000
_cell_angle_gamma 90.000000
_cell_volume 2232.491403
_symmetry_space_group_name_H-M "P N N M"
_symmetry_group_IT_number 58
_symmetry_cell_setting 'orthorhombic'
loop_
_space_group_symop_operation_xyz
x,y,z
-x,-y,z
1/2+x,1/2-y,1/2-z
1/2-x,1/2+y,1/2-z
-x,-y,-z
x,y,-z
1/2-x,1/2+y,1/2+z
1/2+x,1/2-y,1/2+z
loop_
_atom_site_type_symbol
_atom_site_label
_atom_site_fract_x
_atom_site_fract_y
_atom_site_fract_z
Si Si1 0.207415 0.478788 0.619874
Si Si2 0.061503 0.417158 0.191092
Si Si3 0.297779 0.648997 0.689773
Si Si4 0.416630 0.362044 0.319106
Si Si5 0.156896 0.688988 0.881775
Si Si6 0.209885 0.823901 0.385116
O O1 0.169598 0.466902 0.500000
O O2 0.103188 0.431627 0.688623
O O3 0.209106 0.575440 0.649787
O O4 0.344684 0.443547 0.643713
O O5 0.181286 0.391925 0.124473
O O6 0.000000 0.500000 0.143545
O O7 0.962450 0.343863 0.181946
O O8 0.438325 0.625336 0.662049
O O9 0.277650 0.662054 0.814627
O O10 0.264452 0.732557 0.629995
O O11 0.357940 0.287531 0.386267
O O12 0.398122 0.343840 0.196466
O O13 0.167502 0.654558 0.000000
O O14 0.151773 0.830969 0.500000
#
# Coordination Sequence:
#
# PCOD8238491 Si02
#       6
#     8   8   8   8   8   8
#     4  11  24  41  64  92 124 162 200 252 316 366
#     4  11  22  42  62  93 123 156 208 260 294 362
#     4  11  22  41  61  92 125 160 208 253 297 376
#     4  10  23  41  62  91 128 155 209 254 300 371
#     4  11  23  41  65  90 121 165 207 252 310 360
#     4  10  22  39  63  90 123 166 205 254 309 355
#
# _framework density 21.500644000000001
#
# number of rings (size 3 to 8) (size 9 to 14) (size 15 to 20)
#    0.000    1.333    3.333    2.000    0.000    5.000 
#    0.000    0.833    0.000    3.000    0.000    0.000 
#    0.000    0.000    0.000    0.000    0.000    0.000 
#
# Total GULP energy -595259.234926 kJ/mol
# GULP energy per Si atom -12401.234061 kJ/mol
# Density = 2.145171 g / cm^3
# Si number density = 21.500644 Si / 1000 Ang^3
#
#
#
# Elastic Constant Matrix: (Units=GPa)
#
#
# Indices 1 2 3 4 5 6 
#
# 1 30.5759 1.5454 8.1023 0.0000 0.0000 0.0000
# 2 1.5454 83.8412 34.5540 0.0000 0.0000 0.0000
# 3 8.1023 34.5540 156.1422 0.0000 0.0000 0.0000
# 4 0.0000 0.0000 0.0000 14.9115 0.0000 0.0000
# 5 0.0000 0.0000 0.0000 0.0000 15.3468 0.0000
# 6 0.0000 0.0000 0.0000 0.0000 0.0000 29.7297
#
#
#
# Elastic Compliance Matrix: (Units=1/GPa)
#
#
# Indices 1 2 3 4 5 6 
#
# 1 0.033162 0.000108 -0.001745 0.000000 0.000000 0.000000
# 2 0.000108 0.013125 -0.002910 0.000000 0.000000 0.000000
# 3 -0.001745 -0.002910 0.007139 0.000000 0.000000 0.000000
# 4 0.000000 0.000000 0.000000 0.067062 0.000000 0.000000
# 5 0.000000 0.000000 0.000000 0.000000 0.065160 0.000000
# 6 0.000000 0.000000 0.000000 0.000000 0.000000 0.033636
#
#
# Mechanical properties :
#
#
# Convention : Reuss Voigt Hill
#
# Bulk Modulus (GPa) = 22.55703 39.88477 31.22090
# Shear Modulus (GPa) = 20.56291 27.08809 23.82550
#
# Velocity S-wave (km/s) = 3.09590 3.55332 3.33247
# Velocity P-wave (km/s) = 4.82634 5.95194 5.41845
#
# Compressibility (1/GPa) = 0.04433208
#
# Stress axis : x y z
#
# Youngs Moduli (GPa) = 30.15463 76.19243 140.07681
#
# Poissons Ratio (x) = -0.00821 0.24439
# Poissons Ratio (y) = -0.00325 0.40763
# Poissons Ratio (z) = 0.05261 0.22172
#
# Static dielectric constant tensor:
#      x y z
#    x 3.684520 0.000000 0.000000 
#    y 0.000000 3.995970 0.000000 
#    z 0.000000 0.000000 3.779660 
# 
# 
# High freq. dielectric constant tensor:
#      x y z
#    x 1.829870 0.000000 0.000000 
#    y 0.000000 1.853240 0.000000 
#    z 0.000000 0.000000 1.839300 
# 
# From -- ./inp_files/14372.got.cif
#   From: 2010.06.25/outbox.cif.g09.slc.cpg/sg58_8_cif.got.tgz:14372.got - 2010.06.26 21:38:00.
