data_PCOD8238370
_publ_section_title
;
Structure prediction by ZEFSAII (Michael W. Deem and Ramdas Pophale) SiO2 
 PCOD8238370
Probable space group: P N N M
;
_chemical_formula_sum "Si O2"
_cell_formula_units_Z 36
_cell_length_a 5.312026
_cell_length_b 11.700902
_cell_length_c 26.659055
_cell_angle_alpha 90.000000
_cell_angle_beta 90.000000
_cell_angle_gamma 90.000000
_cell_volume 1657.006777
_symmetry_space_group_name_H-M "P N N M"
_symmetry_group_IT_number 58
_symmetry_cell_setting 'orthorhombic'
loop_
_space_group_symop_operation_xyz
x,y,z
-x,-y,z
1/2+x,1/2-y,1/2-z
1/2-x,1/2+y,1/2-z
-x,-y,-z
x,y,-z
1/2-x,1/2+y,1/2+z
1/2+x,1/2-y,1/2+z
loop_
_atom_site_type_symbol
_atom_site_label
_atom_site_fract_x
_atom_site_fract_y
_atom_site_fract_z
Si Si1 0.344145 0.319099 0.638204
Si Si2 0.000000 0.500000 0.600626
Si Si3 0.950864 0.130857 0.362053
Si Si4 0.219365 0.209813 0.942179
Si Si5 0.829768 0.742870 0.780836
O O1 0.194364 0.204529 0.654723
O O2 0.442363 0.304151 0.581332
O O3 0.572445 0.336984 0.678334
O O4 0.182144 0.433857 0.639034
O O5 0.863856 0.409712 0.564523
O O6 0.853456 0.186276 0.413562
O O7 0.752026 0.134969 0.315647
O O8 0.000000 0.000000 0.374062
O O9 0.193958 0.242254 0.000000
O O10 0.572636 0.787917 0.753874
#
# Coordination Sequence:
#
# PCOD8238370 Si02
#       5
#     8   4   8   8   8
#     4  10  22  41  67  95 139 176 229 281 345 405
#     4  10  21  40  66  98 134 186 222 286 343 408
#     4  10  23  44  70  95 136 182 225 281 344 406
#     4  10  22  39  65 100 139 181 230 281 340 410
#     4  11  22  44  72  95 136 175 229 286 341 412
#
# _framework density 21.725922000000001
#
# number of rings (size 3 to 8) (size 9 to 14) (size 15 to 20)
#    0.000    1.778    2.222    1.000    0.000    9.333 
#    0.000   10.000    0.000    0.000    0.000    0.000 
#    0.000    0.000    0.000    0.000    0.000    0.000 
#
# Total GULP energy -446007.434943 kJ/mol
# GULP energy per Si atom -12389.095415 kJ/mol
# Density = 2.167647 g / cm^3
# Si number density = 21.725922 Si / 1000 Ang^3
#
#
#
# Elastic Constant Matrix: (Units=GPa)
#
#
# Indices 1 2 3 4 5 6 
#
# 1 142.1616 58.2827 68.9429 0.0000 0.0000 0.0000
# 2 58.2827 152.4204 58.6776 0.0000 0.0000 0.0000
# 3 68.9429 58.6776 161.0376 0.0000 0.0000 0.0000
# 4 0.0000 0.0000 0.0000 8.6524 0.0000 0.0000
# 5 0.0000 0.0000 0.0000 0.0000 28.2926 0.0000
# 6 0.0000 0.0000 0.0000 0.0000 0.0000 16.9958
#
#
#
# Elastic Compliance Matrix: (Units=1/GPa)
#
#
# Indices 1 2 3 4 5 6 
#
# 1 0.009592 -0.002427 -0.003222 0.000000 0.000000 0.000000
# 2 -0.002427 0.008246 -0.001965 0.000000 0.000000 0.000000
# 3 -0.003222 -0.001965 0.008305 0.000000 0.000000 0.000000
# 4 0.000000 0.000000 0.000000 0.115574 0.000000 0.000000
# 5 0.000000 0.000000 0.000000 0.000000 0.035345 0.000000
# 6 0.000000 0.000000 0.000000 0.000000 0.000000 0.058838
#
#
# Mechanical properties :
#
#
# Convention : Reuss Voigt Hill
#
# Bulk Modulus (GPa) = 91.63021 91.93623 91.78322
# Shear Modulus (GPa) = 19.62574 28.76925 24.19750
#
# Velocity S-wave (km/s) = 3.00881 3.64289 3.34093
# Velocity P-wave (km/s) = 7.37141 7.75258 7.56439
#
# Compressibility (1/GPa) = 0.01091343
#
# Stress axis : x y z
#
# Youngs Moduli (GPa) = 104.25374 121.27746 120.40647
#
# Poissons Ratio (x) = 0.29439 0.38795
# Poissons Ratio (y) = 0.25307 0.23663
# Poissons Ratio (z) = 0.33591 0.23834
#
# Static dielectric constant tensor:
#      x y z
#    x 4.428810 0.000000 0.000000 
#    y 0.000000 3.535630 0.000000 
#    z 0.000000 0.000000 3.861210 
# 
# 
# High freq. dielectric constant tensor:
#      x y z
#    x 1.875680 0.000000 0.000000 
#    y 0.000000 1.818280 0.000000 
#    z 0.000000 0.000000 1.855000 
# 
# From -- ./inp_files/32652.got.cif
#   From: 2010.06.25/outbox.cif.g09.slc.cpg/sg58_17_cif.got.tgz:32652.got - 2010.06.26 21:38:00.
