data_PCOD8238636
_publ_section_title
;
Structure prediction by ZEFSAII (Michael W. Deem and Ramdas Pophale) SiO2 
 PCOD8238636
Probable space group: P N N M
;
_chemical_formula_sum "Si O2"
_cell_formula_units_Z 64
_cell_length_a 11.580195
_cell_length_b 15.209453
_cell_length_c 18.633257
_cell_angle_alpha 90.000000
_cell_angle_beta 90.000000
_cell_angle_gamma 90.000000
_cell_volume 3281.846331
_symmetry_space_group_name_H-M "P N N M"
_symmetry_group_IT_number 58
_symmetry_cell_setting 'orthorhombic'
loop_
_space_group_symop_operation_xyz
x,y,z
-x,-y,z
1/2+x,1/2-y,1/2-z
1/2-x,1/2+y,1/2-z
-x,-y,-z
x,y,-z
1/2-x,1/2+y,1/2+z
1/2+x,1/2-y,1/2+z
loop_
_atom_site_type_symbol
_atom_site_label
_atom_site_fract_x
_atom_site_fract_y
_atom_site_fract_z
Si Si1 0.649131 0.248585 0.337756
Si Si2 0.006642 0.598134 0.787534
Si Si3 0.620434 0.741424 0.083107
Si Si4 0.763554 0.179604 0.917982
Si Si5 0.027415 0.401931 0.623664
Si Si6 0.246036 0.177615 0.697331
Si Si7 0.971553 0.098570 0.836681
Si Si8 0.509028 0.402943 0.824712
O O1 0.563786 0.164955 0.337775
O O2 0.744700 0.232618 0.398406
O O3 0.712974 0.255559 0.261109
O O4 0.576193 0.335831 0.356728
O O5 0.139032 0.626493 0.781551
O O6 0.000000 0.500000 0.820531
O O7 0.950631 0.599140 0.708734
O O8 0.579260 0.839049 0.103588
O O9 0.542517 0.670081 0.123576
O O10 0.603229 0.722511 0.000000
O O11 0.641090 0.131217 0.916160
O O12 0.760475 0.272109 0.877321
O O13 0.858010 0.119045 0.881033
O O14 0.797641 0.198607 0.000000
O O15 0.000000 0.500000 0.596361
O O16 0.144938 0.107711 0.687842
O O17 0.943652 0.105015 0.751750
O O18 0.000000 0.000000 0.859382
O O19 0.500000 0.500000 0.858622
#
# Coordination Sequence:
#
# PCOD8238636 Si02
#       8
#     8   8   8   8   8   8   8   8
#     4  11  22  41  64  88 127 160 205 261 304 363
#     4  11  23  39  70  97 121 158 211 265 311 358
#     4  12  25  41  60  89 130 168 201 244 311 374
#     4  12  24  39  62  87 126 171 205 246 301 373
#     4  11  24  40  62  94 125 161 205 254 313 374
#     4  11  21  42  64  91 121 162 206 258 310 360
#     4  10  23  41  65  93 120 158 210 257 307 361
#     4  10  23  40  69  93 119 154 206 266 308 353
#
# _framework density 19.501218000000001
#
# number of rings (size 3 to 8) (size 9 to 14) (size 15 to 20)
#    0.000    1.000    5.000    1.875    3.500    4.000 
#    0.000    0.000    0.000    0.750    0.000    0.000 
#    0.000    0.000    0.000    0.000    0.000    0.000 
#
# Total GULP energy -793893.094987 kJ/mol
# GULP energy per Si atom -12404.579609 kJ/mol
# Density = 1.945683 g / cm^3
# Si number density = 19.501218 Si / 1000 Ang^3
#
#
#
# Elastic Constant Matrix: (Units=GPa)
#
#
# Indices 1 2 3 4 5 6 
#
# 1 100.7574 45.7377 19.5757 0.0000 0.0000 0.0000
# 2 45.7377 129.0887 33.8820 0.0000 0.0000 0.0000
# 3 19.5757 33.8820 74.2606 0.0000 0.0000 0.0000
# 4 0.0000 0.0000 0.0000 9.0582 0.0000 0.0000
# 5 0.0000 0.0000 0.0000 0.0000 135.3952 0.0000
# 6 0.0000 0.0000 0.0000 0.0000 0.0000 26.5677
#
#
#
# Elastic Compliance Matrix: (Units=1/GPa)
#
#
# Indices 1 2 3 4 5 6 
#
# 1 0.011951 -0.003871 -0.001384 0.000000 0.000000 0.000000
# 2 -0.003871 0.010054 -0.003567 0.000000 0.000000 0.000000
# 3 -0.001384 -0.003567 0.015458 0.000000 0.000000 0.000000
# 4 0.000000 0.000000 0.000000 0.110397 0.000000 0.000000
# 5 0.000000 0.000000 0.000000 0.000000 0.007386 0.000000
# 6 0.000000 0.000000 0.000000 0.000000 0.000000 0.037640
#
#
# Mechanical properties :
#
#
# Convention : Reuss Voigt Hill
#
# Bulk Modulus (GPa) = 50.45561 55.83306 53.14434
# Shear Modulus (GPa) = 23.02695 47.86499 35.44597
#
# Velocity S-wave (km/s) = 3.44000 4.95963 4.26799
# Velocity P-wave (km/s) = 6.45812 7.84155 7.18322
#
# Compressibility (1/GPa) = 0.01981940
#
# Stress axis : x y z
#
# Youngs Moduli (GPa) = 83.67514 99.45896 64.68969
#
# Poissons Ratio (x) = 0.38501 0.08954
# Poissons Ratio (y) = 0.32391 0.23075
# Poissons Ratio (z) = 0.11582 0.35477
#
# Static dielectric constant tensor:
#      x y z
#    x 3.700100 0.000000 0.000000 
#    y 0.000000 3.790260 0.000000 
#    z 0.000000 0.000000 3.384670 
# 
# 
# High freq. dielectric constant tensor:
#      x y z
#    x 1.771410 0.000000 0.000000 
#    y 0.000000 1.766280 0.000000 
#    z 0.000000 0.000000 1.737500 
# 
# From -- ./inp_files/26394.got.cif
#   From: 2010.06.25/outbox.cif.g09.slc.cpg/sg58_14_cif.got.tgz:26394.got - 2010.06.26 21:38:00.
