data_PCOD8238685
_publ_section_title
;
Structure prediction by ZEFSAII (Michael W. Deem and Ramdas Pophale) SiO2 
 PCOD8238685
Probable space group: P N N M
;
_chemical_formula_sum "Si O2"
_cell_formula_units_Z 64
_cell_length_a 11.912798
_cell_length_b 8.652175
_cell_length_c 30.474420
_cell_angle_alpha 90.000000
_cell_angle_beta 90.000000
_cell_angle_gamma 90.000000
_cell_volume 3141.047626
_symmetry_space_group_name_H-M "P N N M"
_symmetry_group_IT_number 58
_symmetry_cell_setting 'orthorhombic'
loop_
_space_group_symop_operation_xyz
x,y,z
-x,-y,z
1/2+x,1/2-y,1/2-z
1/2-x,1/2+y,1/2-z
-x,-y,-z
x,y,-z
1/2-x,1/2+y,1/2+z
1/2+x,1/2-y,1/2+z
loop_
_atom_site_type_symbol
_atom_site_label
_atom_site_fract_x
_atom_site_fract_y
_atom_site_fract_z
Si Si1 0.871975 0.320513 0.623883
Si Si2 0.784517 0.326486 0.050116
Si Si3 0.518002 0.180472 0.329005
Si Si4 0.272536 0.818800 0.548474
Si Si5 0.230691 0.178796 0.208660
Si Si6 0.631063 0.182322 0.877485
Si Si7 0.514064 0.320856 0.580161
Si Si8 0.709820 0.682664 0.299316
O O1 0.820438 0.229640 0.583281
O O2 0.812968 0.271293 0.669257
O O3 0.854000 0.500707 0.614691
O O4 0.001478 0.272297 0.627235
O O5 0.809444 0.505992 0.058537
O O6 0.684110 0.270406 0.081267
O O7 0.898350 0.236351 0.060102
O O8 0.748279 0.293724 0.000000
O O9 0.612941 0.232226 0.294889
O O10 0.556019 0.223526 0.377829
O O11 0.405592 0.276502 0.322485
O O12 0.500000 0.000000 0.322733
O O13 0.218016 0.807001 0.500000
O O14 0.382369 0.708282 0.547418
O O15 0.285778 0.223547 0.254450
O O16 0.210984 0.997678 0.209803
O O17 0.690484 0.232558 0.832131
O O18 0.500000 0.500000 0.592110
#
# Coordination Sequence:
#
# PCOD8238685 Si02
#       8
#     8   8   8   8   8   8   8   8
#     4  10  23  43  65  90 125 168 213 261 313 373
#     4  11  24  41  63  93 127 165 210 260 317 379
#     4  12  24  41  67  96 130 169 211 263 320 375
#     4  11  24  41  63  93 127 165 210 260 317 379
#     4  11  24  42  66  97 130 167 213 262 316 377
#     4  10  23  43  65  90 125 168 213 261 313 373
#     4  12  23  39  64  95 128 164 208 261 321 381
#     4  11  24  42  66  97 130 167 213 262 316 377
#
# _framework density 20.375366
#
# number of rings (size 3 to 8) (size 9 to 14) (size 15 to 20)
#    0.000    1.000    2.500    4.125    1.750    5.500 
#    0.000    2.500    0.000    0.000    0.000    0.000 
#    0.000    0.000    0.000    0.000    0.000    0.000 
#
# Total GULP energy -793950.750116 kJ/mol
# GULP energy per Si atom -12405.480471 kJ/mol
# Density = 2.032899 g / cm^3
# Si number density = 20.375366 Si / 1000 Ang^3
#
#
#
# Elastic Constant Matrix: (Units=GPa)
#
#
# Indices 1 2 3 4 5 6 
#
# 1 123.1304 38.4962 41.4869 0.0000 0.0000 0.0000
# 2 38.4962 80.4137 45.4082 0.0000 0.0000 0.0000
# 3 41.4869 45.4082 124.5063 0.0000 0.0000 0.0000
# 4 0.0000 0.0000 0.0000 37.6517 0.0000 0.0000
# 5 0.0000 0.0000 0.0000 0.0000 19.5010 0.0000
# 6 0.0000 0.0000 0.0000 0.0000 0.0000 32.7248
#
#
#
# Elastic Compliance Matrix: (Units=1/GPa)
#
#
# Indices 1 2 3 4 5 6 
#
# 1 0.009925 -0.003632 -0.001983 0.000000 0.000000 0.000000
# 2 -0.003632 0.016990 -0.004986 0.000000 0.000000 0.000000
# 3 -0.001983 -0.004986 0.010511 0.000000 0.000000 0.000000
# 4 0.000000 0.000000 0.000000 0.026559 0.000000 0.000000
# 5 0.000000 0.000000 0.000000 0.000000 0.051279 0.000000
# 6 0.000000 0.000000 0.000000 0.000000 0.000000 0.030558
#
#
# Mechanical properties :
#
#
# Convention : Reuss Voigt Hill
#
# Bulk Modulus (GPa) = 61.63475 64.31477 62.97476
# Shear Modulus (GPa) = 28.99701 31.48611 30.24156
#
# Velocity S-wave (km/s) = 3.77655 3.93530 3.85674
# Velocity P-wave (km/s) = 7.02365 7.23065 7.12790
#
# Compressibility (1/GPa) = 0.01622461
#
# Stress axis : x y z
#
# Youngs Moduli (GPa) = 100.75633 58.85833 95.14009
#
# Poissons Ratio (x) = 0.21376 0.18862
# Poissons Ratio (y) = 0.36593 0.47438
# Poissons Ratio (z) = 0.19976 0.29348
#
# Static dielectric constant tensor:
#      x y z
#    x 3.692190 0.000000 0.000000 
#    y 0.000000 3.719540 0.000000 
#    z 0.000000 0.000000 3.827800 
# 
# 
# High freq. dielectric constant tensor:
#      x y z
#    x 1.799820 0.000000 0.000000 
#    y 0.000000 1.802960 0.000000 
#    z 0.000000 0.000000 1.807530 
# 
# From -- ./inp_files/34968.got.cif
#   From: 2010.06.25/outbox.cif.g09.slc.cpg/sg58_18_cif.got.tgz:34968.got - 2010.06.26 21:38:00.
