data_PCOD8238495
_publ_section_title
;
Structure prediction by ZEFSAII (Michael W. Deem and Ramdas Pophale) SiO2 
 PCOD8238495
Probable space group: P N N M
;
_chemical_formula_sum "Si O2"
_cell_formula_units_Z 32
_cell_length_a 10.333510
_cell_length_b 8.159858
_cell_length_c 18.791250
_cell_angle_alpha 90.000000
_cell_angle_beta 90.000000
_cell_angle_gamma 90.000000
_cell_volume 1584.477716
_symmetry_space_group_name_H-M "P N N M"
_symmetry_group_IT_number 58
_symmetry_cell_setting 'orthorhombic'
loop_
_space_group_symop_operation_xyz
x,y,z
-x,-y,z
1/2+x,1/2-y,1/2-z
1/2-x,1/2+y,1/2-z
-x,-y,-z
x,y,-z
1/2-x,1/2+y,1/2+z
1/2+x,1/2-y,1/2+z
loop_
_atom_site_type_symbol
_atom_site_label
_atom_site_fract_x
_atom_site_fract_y
_atom_site_fract_z
Si Si1 0.249857 0.812346 0.645428
Si Si2 0.889714 0.359039 0.000000
Si Si3 0.526071 0.688966 0.632550
Si Si4 0.857304 0.071035 0.500000
Si Si5 0.863069 0.415942 0.757578
O O1 0.394940 0.788411 0.618997
O O2 0.161171 0.831336 0.574873
O O3 0.203568 0.647444 0.685394
O O4 0.260989 0.970604 0.698449
O O5 0.889559 0.234383 0.065104
O O6 0.000000 0.500000 0.000000
O O7 0.747217 0.429700 0.000000
O O8 0.500000 0.500000 0.641304
O O9 0.604879 0.749632 0.700585
O O10 0.000000 0.000000 0.500000
O O11 0.000000 0.500000 0.738989
#
# Coordination Sequence:
#
# PCOD8238495 Si02
#       5
#     8   4   8   4   8
#     4  11  22  43  65  96 132 172 223 273 338 399
#     4  12  19  44  69  89 127 168 223 267 329 403
#     4  11  21  37  68  98 120 170 224 280 326 395
#     4  12  26  42  67  95 134 181 213 272 345 397
#     4  10  22  39  65  95 132 172 219 282 335 399
#
# _framework density 20.195927999999999
#
# number of rings (size 3 to 8) (size 9 to 14) (size 15 to 20)
#    0.000    1.000    5.000    2.625    0.000    5.000 
#    4.500    0.625    0.000    0.000    0.000    0.000 
#    0.000    0.000    0.000    0.000    0.000    0.000 
#
# Total GULP energy -396580.995308 kJ/mol
# GULP energy per Si atom -12393.156103 kJ/mol
# Density = 2.014996 g / cm^3
# Si number density = 20.195928 Si / 1000 Ang^3
#
#
#
# Elastic Constant Matrix: (Units=GPa)
#
#
# Indices 1 2 3 4 5 6 
#
# 1 81.3717 11.4905 39.8558 0.0000 0.0000 0.0000
# 2 11.4905 107.0472 47.8017 0.0000 0.0000 0.0000
# 3 39.8558 47.8017 130.6940 0.0000 0.0000 0.0000
# 4 0.0000 0.0000 0.0000 42.1102 0.0000 0.0000
# 5 0.0000 0.0000 0.0000 0.0000 28.6153 0.0000
# 6 0.0000 0.0000 0.0000 0.0000 0.0000 25.3927
#
#
#
# Elastic Compliance Matrix: (Units=1/GPa)
#
#
# Indices 1 2 3 4 5 6 
#
# 1 0.014469 0.000499 -0.004595 0.000000 0.000000 0.000000
# 2 0.000499 0.011182 -0.004242 0.000000 0.000000 0.000000
# 3 -0.004595 -0.004242 0.010604 0.000000 0.000000 0.000000
# 4 0.000000 0.000000 0.000000 0.023747 0.000000 0.000000
# 5 0.000000 0.000000 0.000000 0.000000 0.034946 0.000000
# 6 0.000000 0.000000 0.000000 0.000000 0.000000 0.039381
#
#
# Mechanical properties :
#
#
# Convention : Reuss Voigt Hill
#
# Bulk Modulus (GPa) = 51.07380 57.48989 54.28184
# Shear Modulus (GPa) = 31.73911 33.88795 32.81353
#
# Velocity S-wave (km/s) = 3.96859 4.10073 4.03520
# Velocity P-wave (km/s) = 6.80762 7.13787 6.97470
#
# Compressibility (1/GPa) = 0.01957951
#
# Stress axis : x y z
#
# Youngs Moduli (GPa) = 69.11103 89.42586 94.30158
#
# Poissons Ratio (x) = -0.04460 0.43331
# Poissons Ratio (y) = -0.03447 0.40004
# Poissons Ratio (z) = 0.31756 0.37935
#
# Static dielectric constant tensor:
#      x y z
#    x 3.599470 0.000000 0.000000 
#    y 0.000000 3.692020 0.000000 
#    z 0.000000 0.000000 3.672950 
# 
# 
# High freq. dielectric constant tensor:
#      x y z
#    x 1.780280 0.000000 0.000000 
#    y 0.000000 1.786640 0.000000 
#    z 0.000000 0.000000 1.800250 
# 
# From -- ./inp_files/28475.got.cif
#   From: 2010.06.25/outbox.cif.g09.slc.cpg/sg58_15_cif.got.tgz:28475.got - 2010.06.26 21:38:00.
