data_PCOD8238938
_publ_section_title
;
Structure prediction by ZEFSAII (Michael W. Deem and Ramdas Pophale) SiO2 
 PCOD8238938
Probable space group: P N N M
;
_chemical_formula_sum "Si O2"
_cell_formula_units_Z 28
_cell_length_a 6.727943
_cell_length_b 9.617711
_cell_length_c 21.762480
_cell_angle_alpha 90.000000
_cell_angle_beta 90.000000
_cell_angle_gamma 90.000000
_cell_volume 1408.193746
_symmetry_space_group_name_H-M "P N N M"
_symmetry_group_IT_number 58
_symmetry_cell_setting 'orthorhombic'
loop_
_space_group_symop_operation_xyz
x,y,z
-x,-y,z
1/2+x,1/2-y,1/2-z
1/2-x,1/2+y,1/2-z
-x,-y,-z
x,y,-z
1/2-x,1/2+y,1/2+z
1/2+x,1/2-y,1/2+z
loop_
_atom_site_type_symbol
_atom_site_label
_atom_site_fract_x
_atom_site_fract_y
_atom_site_fract_z
Si Si1 0.660283 0.380033 0.071837
Si Si2 0.926467 0.651840 0.662426
Si Si3 0.159698 0.877789 0.269481
Si Si4 0.000000 0.500000 0.850131
O O1 0.500000 0.500000 0.086903
O O2 0.582357 0.234470 0.098428
O O3 0.868369 0.406121 0.104976
O O4 0.697054 0.364487 0.000000
O O5 0.714892 0.639773 0.697646
O O6 0.000000 0.500000 0.645142
O O7 0.077458 0.730198 0.708186
O O8 0.360287 0.907977 0.306934
O O9 0.000000 0.000000 0.279513
#
# Coordination Sequence:
#
# PCOD8238938 Si02
#       4
#     8   8   8   4
#     4  11  24  44  68  92 128 180 229 262 308 393
#     4  12  23  39  65  96 135 167 206 275 335 380
#     4  12  23  43  65 100 132 173 218 265 333 403
#     4  12  19  44  72  92 125 170 228 268 310 390
#
# _framework density 19.883627000000001
#
# number of rings (size 3 to 8) (size 9 to 14) (size 15 to 20)
#    0.000    0.286    7.143    3.857    0.000    0.571 
#    0.000    0.000    0.000    2.571    0.000    0.000 
#    0.000    0.000    0.000    0.000    0.000    0.000 
#
# Total GULP energy -347259.558034 kJ/mol
# GULP energy per Si atom -12402.127073 kJ/mol
# Density = 1.983837 g / cm^3
# Si number density = 19.883627 Si / 1000 Ang^3
#
#
#
# Elastic Constant Matrix: (Units=GPa)
#
#
# Indices 1 2 3 4 5 6 
#
# 1 100.9364 44.2887 38.2126 0.0000 0.0000 0.0000
# 2 44.2887 154.0620 47.8566 0.0000 0.0000 0.0000
# 3 38.2126 47.8566 110.7790 0.0000 0.0000 0.0000
# 4 0.0000 0.0000 0.0000 27.7238 0.0000 0.0000
# 5 0.0000 0.0000 0.0000 0.0000 17.6126 0.0000
# 6 0.0000 0.0000 0.0000 0.0000 0.0000 21.8172
#
#
#
# Elastic Compliance Matrix: (Units=1/GPa)
#
#
# Indices 1 2 3 4 5 6 
#
# 1 0.012200 -0.002541 -0.003111 0.000000 0.000000 0.000000
# 2 -0.002541 0.008026 -0.002591 0.000000 0.000000 0.000000
# 3 -0.003111 -0.002591 0.011219 0.000000 0.000000 0.000000
# 4 0.000000 0.000000 0.000000 0.036070 0.000000 0.000000
# 5 0.000000 0.000000 0.000000 0.000000 0.056778 0.000000
# 6 0.000000 0.000000 0.000000 0.000000 0.000000 0.045835
#
#
# Mechanical properties :
#
#
# Convention : Reuss Voigt Hill
#
# Bulk Modulus (GPa) = 66.84266 69.61036 68.22651
# Shear Modulus (GPa) = 26.09612 29.12536 27.61074
#
# Velocity S-wave (km/s) = 3.62670 3.83141 3.73046
# Velocity P-wave (km/s) = 7.15731 7.39309 7.27616
#
# Compressibility (1/GPa) = 0.01496051
#
# Stress axis : x y z
#
# Youngs Moduli (GPa) = 81.96930 124.59332 89.13292
#
# Poissons Ratio (x) = 0.31657 0.27725
# Poissons Ratio (y) = 0.20827 0.23093
# Poissons Ratio (z) = 0.25497 0.32280
#
# Static dielectric constant tensor:
#      x y z
#    x 3.880490 0.000000 0.000000 
#    y 0.000000 3.573010 0.000000 
#    z 0.000000 0.000000 3.635200 
# 
# 
# High freq. dielectric constant tensor:
#      x y z
#    x 1.783940 0.000000 0.000000 
#    y 0.000000 1.777770 0.000000 
#    z 0.000000 0.000000 1.772760 
# 
# From -- ./inp_files/32578.got.cif
#   From: 2010.06.25/outbox.cif.g09.slc.cpg/sg58_17_cif.got.tgz:32578.got - 2010.06.26 21:38:00.
