data_PCOD8238756
_publ_section_title
;
Structure prediction by ZEFSAII (Michael W. Deem and Ramdas Pophale) SiO2 
 PCOD8238756
Probable space group: P N N M
;
_chemical_formula_sum "Si O2"
_cell_formula_units_Z 64
_cell_length_a 14.625573
_cell_length_b 12.057728
_cell_length_c 17.567231
_cell_angle_alpha 90.000000
_cell_angle_beta 90.000000
_cell_angle_gamma 90.000000
_cell_volume 3098.001935
_symmetry_space_group_name_H-M "P N N M"
_symmetry_group_IT_number 58
_symmetry_cell_setting 'orthorhombic'
loop_
_space_group_symop_operation_xyz
x,y,z
-x,-y,z
1/2+x,1/2-y,1/2-z
1/2-x,1/2+y,1/2-z
-x,-y,-z
x,y,-z
1/2-x,1/2+y,1/2+z
1/2+x,1/2-y,1/2+z
loop_
_atom_site_type_symbol
_atom_site_label
_atom_site_fract_x
_atom_site_fract_y
_atom_site_fract_z
Si Si1 0.645301 0.708908 0.669941
Si Si2 0.291544 0.683235 0.356082
Si Si3 0.238423 0.460063 0.410558
Si Si4 0.698935 0.375483 0.815723
Si Si5 0.014261 0.126603 0.912731
Si Si6 0.548097 0.103209 0.087812
Si Si7 0.484270 0.655717 0.088147
Si Si8 0.332594 0.378099 0.166747
O O1 0.676202 0.594375 0.630740
O O2 0.711766 0.812807 0.649233
O O3 0.543694 0.718785 0.635169
O O4 0.636979 0.691895 0.759858
O O5 0.222777 0.584873 0.380460
O O6 0.319479 0.675282 0.267308
O O7 0.381733 0.667430 0.406295
O O8 0.240962 0.799603 0.376480
O O9 0.256679 0.458628 0.500000
O O10 0.151925 0.386338 0.382536
O O11 0.608935 0.363837 0.866873
O O12 0.718610 0.507486 0.812056
O O13 0.983267 0.132053 0.000000
O O14 0.000000 0.000000 0.881892
O O15 0.490857 0.214681 0.098528
O O16 0.500000 0.000000 0.130514
O O17 0.559444 0.070746 0.000000
O O18 0.574462 0.592330 0.118989
O O19 0.468534 0.623493 0.000000
#
# Coordination Sequence:
#
# PCOD8238756 Si02
#       8
#     8   8   8   8   8   8   8   8
#     4  11  22  39  62  91 119 157 205 248 303 358
#     4  11  23  39  62  91 124 159 203 250 307 361
#     4  11  19  35  63  90 120 154 195 252 307 351
#     4  11  23  41  63  86 125 166 204 246 294 365
#     4  11  21  36  62  92 120 152 200 259 309 354
#     4   9  18  32  54  88 125 152 186 243 303 352
#     4  11  23  39  60  89 120 161 209 246 295 360
#     4  11  24  41  61  87 125 165 202 248 298 364
#
# _framework density 20.658476
#
# number of rings (size 3 to 8) (size 9 to 14) (size 15 to 20)
#    0.000    1.250    3.750    2.625    0.000    3.500 
#    0.000    0.625    0.000    0.750    0.000    0.000 
#    0.000    0.000    0.000    0.000    0.000    0.000 
#
# Total GULP energy -793317.189052 kJ/mol
# GULP energy per Si atom -12395.581079 kJ/mol
# Density = 2.061146 g / cm^3
# Si number density = 20.658476 Si / 1000 Ang^3
#
#
#
# Elastic Constant Matrix: (Units=GPa)
#
#
# Indices 1 2 3 4 5 6 
#
# 1 91.9656 23.6448 20.5284 0.0000 0.0000 0.0000
# 2 23.6448 60.7336 -0.4541 0.0000 0.0000 0.0000
# 3 20.5284 -0.4541 70.2592 0.0000 0.0000 0.0000
# 4 0.0000 0.0000 0.0000 26.0278 0.0000 0.0000
# 5 0.0000 0.0000 0.0000 0.0000 28.0151 0.0000
# 6 0.0000 0.0000 0.0000 0.0000 0.0000 31.1771
#
#
#
# Elastic Compliance Matrix: (Units=1/GPa)
#
#
# Indices 1 2 3 4 5 6 
#
# 1 0.013045 -0.005107 -0.003844 0.000000 0.000000 0.000000
# 2 -0.005107 0.018466 0.001612 0.000000 0.000000 0.000000
# 3 -0.003844 0.001612 0.015367 0.000000 0.000000 0.000000
# 4 0.000000 0.000000 0.000000 0.038420 0.000000 0.000000
# 5 0.000000 0.000000 0.000000 0.000000 0.035695 0.000000
# 6 0.000000 0.000000 0.000000 0.000000 0.000000 0.032075
#
#
# Mechanical properties :
#
#
# Convention : Reuss Voigt Hill
#
# Bulk Modulus (GPa) = 31.05885 34.48852 32.77368
# Shear Modulus (GPa) = 28.01426 28.99330 28.50378
#
# Velocity S-wave (km/s) = 3.68648 3.75034 3.71854
# Velocity P-wave (km/s) = 5.76083 5.95687 5.85967
#
# Compressibility (1/GPa) = 0.03219695
#
# Stress axis : x y z
#
# Youngs Moduli (GPa) = 76.65818 54.15415 65.07571
#
# Poissons Ratio (x) = 0.27659 0.25018
# Poissons Ratio (y) = 0.39152 -0.10488
# Poissons Ratio (z) = 0.29471 -0.08728
#
# Static dielectric constant tensor:
#      x y z
#    x 3.802980 0.000000 0.000000 
#    y 0.000000 3.871010 0.000000 
#    z 0.000000 0.000000 3.569040 
# 
# 
# High freq. dielectric constant tensor:
#      x y z
#    x 1.811480 0.000000 0.000000 
#    y 0.000000 1.803570 0.000000 
#    z 0.000000 0.000000 1.793620 
# 
# From -- ./inp_files/27018.got.cif
#   From: 2010.06.25/outbox.cif.g09.slc.cpg/sg58_14_cif.got.tgz:27018.got - 2010.06.26 21:38:00.
