data_PCOD8238873
_publ_section_title
;
Structure prediction by ZEFSAII (Michael W. Deem and Ramdas Pophale) SiO2 
 PCOD8238873
Probable space group: P N N M
;
_chemical_formula_sum "Si O2"
_cell_formula_units_Z 36
_cell_length_a 13.105334
_cell_length_b 5.359555
_cell_length_c 23.896041
_cell_angle_alpha 90.000000
_cell_angle_beta 90.000000
_cell_angle_gamma 90.000000
_cell_volume 1678.428250
_symmetry_space_group_name_H-M "P N N M"
_symmetry_group_IT_number 58
_symmetry_cell_setting 'orthorhombic'
loop_
_space_group_symop_operation_xyz
x,y,z
-x,-y,z
1/2+x,1/2-y,1/2-z
1/2-x,1/2+y,1/2-z
-x,-y,-z
x,y,-z
1/2-x,1/2+y,1/2+z
1/2+x,1/2-y,1/2+z
loop_
_atom_site_type_symbol
_atom_site_label
_atom_site_fract_x
_atom_site_fract_y
_atom_site_fract_z
Si Si1 0.500000 0.500000 0.849223
Si Si2 0.231624 0.967976 0.131190
Si Si3 0.098384 0.660491 0.560676
Si Si4 0.115159 0.456295 0.151291
Si Si5 0.106365 0.383267 0.282758
O O1 0.575894 0.650196 0.889547
O O2 0.412234 0.607878 0.807599
O O3 0.176594 0.700266 0.131785
O O4 0.294484 0.006272 0.189022
O O5 0.309367 0.977020 0.079110
O O6 0.154596 0.200635 0.123505
O O7 0.125485 0.786075 0.500000
O O8 0.000000 0.500000 0.550762
O O9 0.120490 0.410791 0.217380
O O10 0.000000 0.500000 0.131515
O O11 0.000000 0.500000 0.304386
#
# Coordination Sequence:
#
# PCOD8238873 Si02
#       5
#     4   8   8   8   8
#     4  12  19  40  64  98 150 180 211 274 344 434
#     4  12  22  44  64  95 131 178 230 279 337 404
#     4  11  24  41  67 102 138 180 225 287 358 420
#     4  11  27  41  64  92 133 182 231 279 331 397
#     4  11  23  36  62  97 138 175 214 264 346 423
#
# _framework density 21.448636
#
# number of rings (size 3 to 8) (size 9 to 14) (size 15 to 20)
#    0.000    0.667    4.444    3.667    6.222    0.000 
#    0.000    0.000    0.000    4.000    0.000    0.000 
#    0.000    0.000    0.000    0.000    0.000    0.000 
#
# Total GULP energy -446007.365909 kJ/mol
# GULP energy per Si atom -12389.093497 kJ/mol
# Density = 2.139982 g / cm^3
# Si number density = 21.448636 Si / 1000 Ang^3
#
#
#
# Elastic Constant Matrix: (Units=GPa)
#
#
# Indices 1 2 3 4 5 6 
#
# 1 125.4776 50.6153 37.5152 0.0000 0.0000 0.0000
# 2 50.6153 132.2708 41.0108 0.0000 0.0000 0.0000
# 3 37.5152 41.0108 84.2191 0.0000 0.0000 0.0000
# 4 0.0000 0.0000 0.0000 20.2299 0.0000 0.0000
# 5 0.0000 0.0000 0.0000 0.0000 77.7734 0.0000
# 6 0.0000 0.0000 0.0000 0.0000 0.0000 39.6233
#
#
#
# Elastic Compliance Matrix: (Units=1/GPa)
#
#
# Indices 1 2 3 4 5 6 
#
# 1 0.010055 -0.002896 -0.003069 0.000000 0.000000 0.000000
# 2 -0.002896 0.009739 -0.003452 0.000000 0.000000 0.000000
# 3 -0.003069 -0.003452 0.014922 0.000000 0.000000 0.000000
# 4 0.000000 0.000000 0.000000 0.049432 0.000000 0.000000
# 5 0.000000 0.000000 0.000000 0.000000 0.012858 0.000000
# 6 0.000000 0.000000 0.000000 0.000000 0.000000 0.025238
#
#
# Mechanical properties :
#
#
# Convention : Reuss Voigt Hill
#
# Bulk Modulus (GPa) = 62.96648 66.69444 64.83046
# Shear Modulus (GPa) = 34.15951 41.71372 37.93662
#
# Velocity S-wave (km/s) = 3.99509 4.41479 4.21018
# Velocity P-wave (km/s) = 7.12051 7.55974 7.34341
#
# Compressibility (1/GPa) = 0.01588147
#
# Stress axis : x y z
#
# Youngs Moduli (GPa) = 99.44920 102.68040 67.01591
#
# Poissons Ratio (x) = 0.29740 0.20566
# Poissons Ratio (y) = 0.28804 0.23135
# Poissons Ratio (z) = 0.30518 0.35448
#
# Static dielectric constant tensor:
#      x y z
#    x 4.200380 0.000000 0.000000 
#    y 0.000000 3.746670 0.000000 
#    z 0.000000 0.000000 3.842990 
# 
# 
# High freq. dielectric constant tensor:
#      x y z
#    x 1.850850 0.000000 0.000000 
#    y 0.000000 1.842740 0.000000 
#    z 0.000000 0.000000 1.821510 
# 
# From -- ./inp_files/31802.got.cif
#   From: 2010.06.25/outbox.cif.g09.slc.cpg/sg58_16_cif.got.tgz:31802.got - 2010.06.26 21:38:00.
