data_PCOD8238910
_publ_section_title
;
Structure prediction by ZEFSAII (Michael W. Deem and Ramdas Pophale) SiO2 
 PCOD8238910
Probable space group: P N N M
;
_chemical_formula_sum "Si O2"
_cell_formula_units_Z 48
_cell_length_a 13.140336
_cell_length_b 9.416979
_cell_length_c 17.726418
_cell_angle_alpha 90.000000
_cell_angle_beta 90.000000
_cell_angle_gamma 90.000000
_cell_volume 2193.507170
_symmetry_space_group_name_H-M "P N N M"
_symmetry_group_IT_number 58
_symmetry_cell_setting 'orthorhombic'
loop_
_space_group_symop_operation_xyz
x,y,z
-x,-y,z
1/2+x,1/2-y,1/2-z
1/2-x,1/2+y,1/2-z
-x,-y,-z
x,y,-z
1/2-x,1/2+y,1/2+z
1/2+x,1/2-y,1/2+z
loop_
_atom_site_type_symbol
_atom_site_label
_atom_site_fract_x
_atom_site_fract_y
_atom_site_fract_z
Si Si1 0.756892 0.942545 0.409297
Si Si2 0.089447 0.906567 0.306146
Si Si3 0.105594 0.076216 0.081306
Si Si4 0.073949 0.384092 0.137767
Si Si5 0.959769 0.644969 0.312110
Si Si6 0.223766 0.844800 0.166069
O O1 0.769205 0.941580 0.500000
O O2 0.699650 0.797006 0.382335
O O3 0.863815 0.985517 0.369078
O O4 0.688554 0.068163 0.376506
O O5 0.173644 0.842041 0.248984
O O6 0.032704 0.770719 0.342928
O O7 0.000000 0.000000 0.264444
O O8 0.069383 0.229977 0.104314
O O9 0.186755 0.994655 0.132885
O O10 0.158893 0.082081 0.000000
O O11 0.000000 0.000000 0.078301
O O12 0.035668 0.365702 0.222460
O O13 0.000000 0.500000 0.097319
O O14 0.844307 0.665073 0.335198
O O15 0.000000 0.500000 0.349472
#
# Coordination Sequence:
#
# PCOD8238910 Si02
#       6
#     8   8   8   8   8   8
#     4  12  27  46  70 105 149 190 233 290 364 439
#     4  12  25  45  71 104 136 188 241 297 349 426
#     4  11  24  41  64  98 140 179 221 282 357 421
#     4  11  23  43  69 102 137 180 233 299 352 412
#     4  11  24  41  68 102 135 171 239 298 346 406
#     4  12  24  44  72 100 137 183 241 293 352 416
#
# _framework density 21.882763000000001
#
# number of rings (size 3 to 8) (size 9 to 14) (size 15 to 20)
#    0.000    0.500    3.333    6.500    2.333    3.000 
#    0.000    0.000    0.000    2.500    0.000    0.000 
#    0.000    0.000    0.000    0.000    0.000    0.000 
#
# Total GULP energy -594707.543984 kJ/mol
# GULP energy per Si atom -12389.740500 kJ/mol
# Density = 2.183296 g / cm^3
# Si number density = 21.882763 Si / 1000 Ang^3
#
#
#
# Elastic Constant Matrix: (Units=GPa)
#
#
# Indices 1 2 3 4 5 6 
#
# 1 97.7488 46.8336 11.6121 0.0000 0.0000 0.0000
# 2 46.8336 175.6011 32.8139 0.0000 0.0000 0.0000
# 3 11.6121 32.8139 82.3689 0.0000 0.0000 0.0000
# 4 0.0000 0.0000 0.0000 63.1032 0.0000 0.0000
# 5 0.0000 0.0000 0.0000 0.0000 14.4984 0.0000
# 6 0.0000 0.0000 0.0000 0.0000 0.0000 68.6582
#
#
#
# Elastic Compliance Matrix: (Units=1/GPa)
#
#
# Indices 1 2 3 4 5 6 
#
# 1 0.011744 -0.003050 -0.000441 0.000000 0.000000 0.000000
# 2 -0.003050 0.006945 -0.002337 0.000000 0.000000 0.000000
# 3 -0.000441 -0.002337 0.013134 0.000000 0.000000 0.000000
# 4 0.000000 0.000000 0.000000 0.015847 0.000000 0.000000
# 5 0.000000 0.000000 0.000000 0.000000 0.068973 0.000000
# 6 0.000000 0.000000 0.000000 0.000000 0.000000 0.014565
#
#
# Mechanical properties :
#
#
# Convention : Reuss Voigt Hill
#
# Bulk Modulus (GPa) = 49.58374 59.80422 54.69398
# Shear Modulus (GPa) = 33.42604 46.88258 40.15431
#
# Velocity S-wave (km/s) = 3.91257 4.63367 4.28831
# Velocity P-wave (km/s) = 6.56650 7.48443 7.04044
#
# Compressibility (1/GPa) = 0.02016790
#
# Stress axis : x y z
#
# Youngs Moduli (GPa) = 85.15071 143.99326 76.14107
#
# Poissons Ratio (x) = 0.43915 0.03355
# Poissons Ratio (y) = 0.25969 0.17792
# Poissons Ratio (z) = 0.03752 0.33647
#
# Static dielectric constant tensor:
#      x y z
#    x 4.232580 0.000000 0.000000 
#    y 0.000000 3.996400 0.000000 
#    z 0.000000 0.000000 6.613110 
# 
# 
# High freq. dielectric constant tensor:
#      x y z
#    x 1.872010 0.000000 0.000000 
#    y 0.000000 1.888580 0.000000 
#    z 0.000000 0.000000 1.825260 
# 
# From -- ./inp_files/26812.got.cif
#   From: 2010.06.25/outbox.cif.g09.slc.cpg/sg58_14_cif.got.tgz:26812.got - 2010.06.26 21:38:00.
