data_PCOD8238616
_publ_section_title
;
Structure prediction by ZEFSAII (Michael W. Deem and Ramdas Pophale) SiO2 
 PCOD8238616
Probable space group: P N N M
;
_chemical_formula_sum "Si O2"
_cell_formula_units_Z 64
_cell_length_a 8.688827
_cell_length_b 11.547779
_cell_length_c 30.464299
_cell_angle_alpha 90.000000
_cell_angle_beta 90.000000
_cell_angle_gamma 90.000000
_cell_volume 3056.685827
_symmetry_space_group_name_H-M "P N N M"
_symmetry_group_IT_number 58
_symmetry_cell_setting 'orthorhombic'
loop_
_space_group_symop_operation_xyz
x,y,z
-x,-y,z
1/2+x,1/2-y,1/2-z
1/2-x,1/2+y,1/2-z
-x,-y,-z
x,y,-z
1/2-x,1/2+y,1/2+z
1/2+x,1/2-y,1/2+z
loop_
_atom_site_type_symbol
_atom_site_label
_atom_site_fract_x
_atom_site_fract_y
_atom_site_fract_z
Si Si1 0.190327 0.412323 0.236321
Si Si2 0.271629 0.578509 0.688392
Si Si3 0.232056 0.223787 0.362280
Si Si4 0.634853 0.909446 0.049390
Si Si5 0.335157 0.450887 0.395036
Si Si6 0.947674 0.219673 0.780528
Si Si7 0.177013 0.481166 0.861950
Si Si8 0.377121 0.259574 0.870373
O O1 0.182147 0.517473 0.271459
O O2 0.344594 0.336149 0.242151
O O3 0.192928 0.477018 0.190340
O O4 0.043144 0.327045 0.239102
O O5 0.244105 0.487484 0.648965
O O6 0.446272 0.614802 0.701106
O O7 0.201478 0.698299 0.671095
O O8 0.304130 0.313218 0.398322
O O9 0.331564 0.236681 0.318075
O O10 0.050956 0.231052 0.353725
O O11 0.245772 0.095540 0.381637
O O12 0.619672 0.804952 0.083044
O O13 0.500000 0.000000 0.055935
O O14 0.785482 0.984797 0.060516
O O15 0.644845 0.860328 0.000000
O O16 0.500000 0.500000 0.384636
O O17 0.272620 0.372504 0.881098
O O18 0.000000 0.500000 0.876266
#
# Coordination Sequence:
#
# PCOD8238616 Si02
#       8
#     8   8   8   8   8   8   8   8
#     4  12  27  42  60  87 129 182 235 296 351 382
#     4  11  23  43  64  91 125 175 230 288 342 401
#     4  12  24  44  64  96 126 175 234 277 334 415
#     4  10  22  43  74 114 144 162 205 275 349 422
#     4  11  21  40  71 100 136 175 217 272 340 409
#     4  12  26  45  59  87 130 176 234 301 346 401
#     4  12  27  45  65  89 132 183 234 285 332 393
#     4  11  25  45  72  99 131 184 224 278 350 424
#
# _framework density 20.937709000000002
#
# number of rings (size 3 to 8) (size 9 to 14) (size 15 to 20)
#    0.000    0.625    6.250    0.750    5.250    2.250 
#    2.250    0.000    0.000    2.625    0.000    0.000 
#    0.000    0.000    0.000    0.000    0.000    0.000 
#
# Total GULP energy -792969.752321 kJ/mol
# GULP energy per Si atom -12390.152380 kJ/mol
# Density = 2.089005 g / cm^3
# Si number density = 20.937709 Si / 1000 Ang^3
#
#
#
# Elastic Constant Matrix: (Units=GPa)
#
#
# Indices 1 2 3 4 5 6 
#
# 1 133.1723 62.3097 34.3134 0.0000 0.0000 0.0000
# 2 62.3097 147.3831 39.8410 0.0000 0.0000 0.0000
# 3 34.3134 39.8410 74.5113 0.0000 0.0000 0.0000
# 4 0.0000 0.0000 0.0000 18.4557 0.0000 0.0000
# 5 0.0000 0.0000 0.0000 0.0000 18.2566 0.0000
# 6 0.0000 0.0000 0.0000 0.0000 0.0000 43.8359
#
#
#
# Elastic Compliance Matrix: (Units=1/GPa)
#
#
# Indices 1 2 3 4 5 6 
#
# 1 0.009800 -0.003417 -0.002686 0.000000 0.000000 0.000000
# 2 -0.003417 0.009123 -0.003304 0.000000 0.000000 0.000000
# 3 -0.002686 -0.003304 0.016425 0.000000 0.000000 0.000000
# 4 0.000000 0.000000 0.000000 0.054184 0.000000 0.000000
# 5 0.000000 0.000000 0.000000 0.000000 0.054775 0.000000
# 6 0.000000 0.000000 0.000000 0.000000 0.000000 0.022812
#
#
# Mechanical properties :
#
#
# Convention : Reuss Voigt Hill
#
# Bulk Modulus (GPa) = 60.48639 69.77720 65.13180
# Shear Modulus (GPa) = 26.11730 30.68314 28.40022
#
# Velocity S-wave (km/s) = 3.53566 3.83227 3.68695
# Velocity P-wave (km/s) = 6.75421 7.27875 7.02138
#
# Compressibility (1/GPa) = 0.01653264
#
# Stress axis : x y z
#
# Youngs Moduli (GPa) = 102.04147 109.61359 60.88465
#
# Poissons Ratio (x) = 0.37456 0.16353
# Poissons Ratio (y) = 0.34869 0.20119
# Poissons Ratio (z) = 0.27407 0.36221
#
# Static dielectric constant tensor:
#      x y z
#    x 4.033590 0.000000 0.000000 
#    y 0.000000 4.217030 0.000000 
#    z 0.000000 0.000000 3.395750 
# 
# 
# High freq. dielectric constant tensor:
#      x y z
#    x 1.837960 0.000000 0.000000 
#    y 0.000000 1.839480 0.000000 
#    z 0.000000 0.000000 1.769710 
# 
# From -- ./inp_files/34766.got.cif
#   From: 2010.06.25/outbox.cif.g09.slc.cpg/sg58_18_cif.got.tgz:34766.got - 2010.06.26 21:38:00.
