data_PCOD8238372
_publ_section_title
;
Structure prediction by ZEFSAII (Michael W. Deem and Ramdas Pophale) SiO2 
 PCOD8238372
Probable space group: P N N M
;
_chemical_formula_sum "Si O2"
_cell_formula_units_Z 64
_cell_length_a 29.530610
_cell_length_b 5.174788
_cell_length_c 18.253624
_cell_angle_alpha 90.000000
_cell_angle_beta 90.000000
_cell_angle_gamma 90.000000
_cell_volume 2789.421095
_symmetry_space_group_name_H-M "P N N M"
_symmetry_group_IT_number 58
_symmetry_cell_setting 'orthorhombic'
loop_
_space_group_symop_operation_xyz
x,y,z
-x,-y,z
1/2+x,1/2-y,1/2-z
1/2-x,1/2+y,1/2-z
-x,-y,-z
x,y,-z
1/2-x,1/2+y,1/2+z
1/2+x,1/2-y,1/2+z
loop_
_atom_site_type_symbol
_atom_site_label
_atom_site_fract_x
_atom_site_fract_y
_atom_site_fract_z
Si Si1 0.894814 0.281515 0.916571
Si Si2 0.470511 0.745056 0.188116
Si Si3 0.735338 0.040055 0.837965
Si Si4 0.684387 0.280817 0.714487
Si Si5 0.384899 0.778871 0.084753
Si Si6 0.295247 0.086947 0.582786
Si Si7 0.086682 0.200780 0.171158
Si Si8 0.671631 0.703740 0.083292
O O1 0.840546 0.233374 0.911439
O O2 0.910216 0.527056 0.869550
O O3 0.920930 0.029694 0.886568
O O4 0.910083 0.327350 0.000000
O O5 0.500000 0.500000 0.164344
O O6 0.430278 0.773471 0.130837
O O7 0.453819 0.707229 0.271228
O O8 0.500000 0.000000 0.183432
O O9 0.779559 0.016709 0.785067
O O10 0.718974 0.772968 0.876387
O O11 0.692967 0.114417 0.786949
O O12 0.749405 0.252343 0.898850
O O13 0.632435 0.365128 0.716605
O O14 0.696398 0.147309 0.637443
O O15 0.350720 0.557056 0.115601
O O16 0.362532 0.057744 0.093116
O O17 0.396727 0.718388 0.000000
O O18 0.290667 0.979378 0.500000
O O19 0.684732 0.655594 0.000000
#
# Coordination Sequence:
#
# PCOD8238372 Si02
#       8
#     8   8   8   8   8   8   8   8
#     4  10  21  40  67  95 125 170 217 259 322 388
#     4  12  26  44  72 104 130 167 214 277 344 407
#     4  12  22  38  57  89 129 174 228 270 314 378
#     4  11  24  37  60  87 125 176 223 268 326 383
#     4  10  23  45  67  97 135 176 221 265 329 399
#     4  10  22  37  55  85 123 165 219 278 315 359
#     4  11  23  43  66  94 134 168 213 272 337 397
#     4  10  23  40  64  93 133 184 222 267 322 381
#
# _framework density 22.943829999999998
#
# number of rings (size 3 to 8) (size 9 to 14) (size 15 to 20)
#    0.000    1.250    2.500    3.000    1.750    5.000 
#    0.000    0.000    0.000    7.500    0.000    0.000 
#    0.000    0.000    0.000    0.000    0.000    0.000 
#
# Total GULP energy -793725.847602 kJ/mol
# GULP energy per Si atom -12401.966369 kJ/mol
# Density = 2.289161 g / cm^3
# Si number density = 22.943830 Si / 1000 Ang^3
#
#
#
# Elastic Constant Matrix: (Units=GPa)
#
#
# Indices 1 2 3 4 5 6 
#
# 1 59.4251 9.0919 4.7527 0.0000 0.0000 0.0000
# 2 9.0919 83.1734 8.9254 0.0000 0.0000 0.0000
# 3 4.7527 8.9254 79.2171 0.0000 0.0000 0.0000
# 4 0.0000 0.0000 0.0000 32.8238 0.0000 0.0000
# 5 0.0000 0.0000 0.0000 0.0000 40.8753 0.0000
# 6 0.0000 0.0000 0.0000 0.0000 0.0000 31.2570
#
#
#
# Elastic Compliance Matrix: (Units=1/GPa)
#
#
# Indices 1 2 3 4 5 6 
#
# 1 0.017168 -0.001788 -0.000829 0.000000 0.000000 0.000000
# 2 -0.001788 0.012356 -0.001285 0.000000 0.000000 0.000000
# 3 -0.000829 -0.001285 0.012818 0.000000 0.000000 0.000000
# 4 0.000000 0.000000 0.000000 0.030466 0.000000 0.000000
# 5 0.000000 0.000000 0.000000 0.000000 0.024465 0.000000
# 6 0.000000 0.000000 0.000000 0.000000 0.000000 0.031993
#
#
# Mechanical properties :
#
#
# Convention : Reuss Voigt Hill
#
# Bulk Modulus (GPa) = 28.95225 29.70617 29.32921
# Shear Modulus (GPa) = 33.65168 34.26093 33.95631
#
# Velocity S-wave (km/s) = 3.83390 3.86845 3.85122
# Velocity P-wave (km/s) = 5.67843 5.73835 5.70847
#
# Compressibility (1/GPa) = 0.03453963
#
# Stress axis : x y z
#
# Youngs Moduli (GPa) = 58.24895 80.92987 78.01513
#
# Poissons Ratio (x) = 0.14468 0.06464
# Poissons Ratio (y) = 0.10413 0.10024
# Poissons Ratio (z) = 0.04826 0.10399
#
# Static dielectric constant tensor:
#      x y z
#    x 4.066280 0.000000 0.000000 
#    y 0.000000 4.067110 0.000000 
#    z 0.000000 0.000000 4.229550 
# 
# 
# High freq. dielectric constant tensor:
#      x y z
#    x 1.891500 0.000000 0.000000 
#    y 0.000000 1.908890 0.000000 
#    z 0.000000 0.000000 1.919540 
# 
# From -- ./inp_files/27795.got.cif
#   From: 2010.06.25/outbox.cif.g09.slc.cpg/sg58_14_cif.got.tgz:27795.got - 2010.06.26 21:38:00.
