data_PCOD8238968
_publ_section_title
;
Structure prediction by ZEFSAII (Michael W. Deem and Ramdas Pophale) SiO2 
 PCOD8238968
Probable space group: P N N M
;
_chemical_formula_sum "Si O2"
_cell_formula_units_Z 64
_cell_length_a 19.900930
_cell_length_b 20.317316
_cell_length_c 9.748679
_cell_angle_alpha 90.000000
_cell_angle_beta 90.000000
_cell_angle_gamma 90.000000
_cell_volume 3941.717340
_symmetry_space_group_name_H-M "P N N M"
_symmetry_group_IT_number 58
_symmetry_cell_setting 'orthorhombic'
loop_
_space_group_symop_operation_xyz
x,y,z
-x,-y,z
1/2+x,1/2-y,1/2-z
1/2-x,1/2+y,1/2-z
-x,-y,-z
x,y,-z
1/2-x,1/2+y,1/2+z
1/2+x,1/2-y,1/2+z
loop_
_atom_site_type_symbol
_atom_site_label
_atom_site_fract_x
_atom_site_fract_y
_atom_site_fract_z
Si Si1 0.158634 0.343725 0.663148
Si Si2 0.979356 0.816303 0.346902
Si Si3 0.309860 0.582604 0.659771
Si Si4 0.440143 0.045848 0.836743
Si Si5 0.303253 0.984296 0.162958
Si Si6 0.465078 0.567074 0.341364
Si Si7 0.320258 0.701222 0.153580
Si Si8 0.990319 0.673599 0.337047
O O1 0.154479 0.344562 0.500000
O O2 0.198319 0.408572 0.717051
O O3 0.196145 0.275684 0.706875
O O4 0.082841 0.345935 0.723506
O O5 0.005034 0.833972 0.500000
O O6 0.999723 0.874611 0.244525
O O7 0.900000 0.805874 0.349354
O O8 0.011905 0.747635 0.292455
O O9 0.298241 0.598143 0.500000
O O10 0.263367 0.522522 0.711842
O O11 0.386051 0.561374 0.690022
O O12 0.288721 0.648100 0.742772
O O13 0.454427 0.120725 0.786361
O O14 0.500000 0.000000 0.780376
O O15 0.368912 0.021545 0.777070
O O16 0.438681 0.042173 0.000000
O O17 0.306847 0.984017 0.000000
O O18 0.500000 0.500000 0.294365
O O19 0.478895 0.582186 0.500000
O O20 0.291423 0.689480 0.000000
O O21 0.984382 0.672466 0.500000
#
# Coordination Sequence:
#
# PCOD8238968 Si02
#       8
#     8   8   8   8   8   8   8   8
#     4   8  12  20  36  58  79 101 133 167 193 226
#     4   8  14  24  40  63  84 102 128 164 201 238
#     4   9  17  28  42  61  82 104 134 172 206 237
#     4   9  13  18  32  57  88 114 130 153 196 242
#     4   9  15  22  36  59  84 108 134 165 201 238
#     4   9  17  29  44  59  77 104 138 174 209 241
#     4   8  14  25  42  60  79 104 134 166 198 236
#     4   8  12  19  33  56  85 108 128 156 191 234
#
# _framework density 16.236578000000002
#
# number of rings (size 3 to 8) (size 9 to 14) (size 15 to 20)
#    0.000    3.500    1.250    1.500    0.000    0.250 
#    0.000    0.000    2.750    0.750    0.000    0.000 
#    0.000    1.000    0.000    0.000    0.000    0.000 
#
# Total GULP energy -792954.642991 kJ/mol
# GULP energy per Si atom -12389.916297 kJ/mol
# Density = 1.619962 g / cm^3
# Si number density = 16.236578 Si / 1000 Ang^3
#
#
#
# Elastic Constant Matrix: (Units=GPa)
#
#
# Indices 1 2 3 4 5 6 
#
# 1 45.4125 50.6146 16.6302 0.0000 0.0000 0.0000
# 2 50.6146 185.1700 46.8778 0.0000 0.0000 0.0000
# 3 16.6302 46.8778 30.7243 0.0000 0.0000 0.0000
# 4 0.0000 0.0000 0.0000 18.2955 0.0000 0.0000
# 5 0.0000 0.0000 0.0000 0.0000 7.7412 0.0000
# 6 0.0000 0.0000 0.0000 0.0000 0.0000 25.1232
#
#
#
# Elastic Compliance Matrix: (Units=1/GPa)
#
#
# Indices 1 2 3 4 5 6 
#
# 1 0.032462 -0.007210 -0.006570 0.000000 0.000000 0.000000
# 2 -0.007210 0.010401 -0.011966 0.000000 0.000000 0.000000
# 3 -0.006570 -0.011966 0.054361 0.000000 0.000000 0.000000
# 4 0.000000 0.000000 0.000000 0.054658 0.000000 0.000000
# 5 0.000000 0.000000 0.000000 0.000000 0.129179 0.000000
# 6 0.000000 0.000000 0.000000 0.000000 0.000000 0.039804
#
#
# Mechanical properties :
#
#
# Convention : Reuss Voigt Hill
#
# Bulk Modulus (GPa) = 21.86688 54.39468 38.13078
# Shear Modulus (GPa) = 12.89982 20.04425 16.47203
#
# Velocity S-wave (km/s) = 2.82173 3.51737 3.18858
# Velocity P-wave (km/s) = 4.91051 7.07601 6.09028
#
# Compressibility (1/GPa) = 0.04573126
#
# Stress axis : x y z
#
# Youngs Moduli (GPa) = 30.80497 96.14832 18.39539
#
# Poissons Ratio (x) = 0.69322 0.12086
# Poissons Ratio (y) = 0.22210 0.22012
# Poissons Ratio (z) = 0.20240 1.15053
#
# Static dielectric constant tensor:
#      x y z
#    x 2.852380 0.000000 0.000000 
#    y 0.000000 3.625970 0.000000 
#    z 0.000000 0.000000 2.672080 
# 
# 
# High freq. dielectric constant tensor:
#      x y z
#    x 1.585050 0.000000 0.000000 
#    y 0.000000 1.644270 0.000000 
#    z 0.000000 0.000000 1.566790 
# 
# From -- ./inp_files/17207.got.cif
#   From: 2010.06.25/outbox.cif.g09.slc.cpg/sg58_9_cif.got.tgz:17207.got - 2010.06.26 21:38:00.
