data_PCOD8238521
_publ_section_title
;
Structure prediction by ZEFSAII (Michael W. Deem and Ramdas Pophale) SiO2 
 PCOD8238521
Probable space group: P N N M
;
_chemical_formula_sum "Si O2"
_cell_formula_units_Z 64
_cell_length_a 30.476714
_cell_length_b 11.715917
_cell_length_c 8.899483
_cell_angle_alpha 90.000000
_cell_angle_beta 90.000000
_cell_angle_gamma 90.000000
_cell_volume 3177.672998
_symmetry_space_group_name_H-M "P N N M"
_symmetry_group_IT_number 58
_symmetry_cell_setting 'orthorhombic'
loop_
_space_group_symop_operation_xyz
x,y,z
-x,-y,z
1/2+x,1/2-y,1/2-z
1/2-x,1/2+y,1/2-z
-x,-y,-z
x,y,-z
1/2-x,1/2+y,1/2+z
1/2+x,1/2-y,1/2+z
loop_
_atom_site_type_symbol
_atom_site_label
_atom_site_fract_x
_atom_site_fract_y
_atom_site_fract_z
Si Si1 0.793431 0.736130 0.827320
Si Si2 0.371670 0.373210 0.825980
Si Si3 0.071711 0.505555 0.328310
Si Si4 0.450097 0.236680 0.323421
Si Si5 0.839557 0.504604 0.171417
Si Si6 0.461934 0.759118 0.172245
Si Si7 0.873223 0.859451 0.674515
Si Si8 0.701933 0.763446 0.324192
O O1 0.803439 0.602373 0.807688
O O2 0.833886 0.812221 0.773688
O O3 0.751950 0.765070 0.726448
O O4 0.783393 0.766114 0.000000
O O5 0.410592 0.308626 0.743463
O O6 0.377213 0.506615 0.798519
O O7 0.324764 0.334747 0.761456
O O8 0.373548 0.341052 0.000000
O O9 0.071616 0.548639 0.500000
O O10 0.054238 0.604941 0.222209
O O11 0.120588 0.468533 0.282470
O O12 0.040817 0.395714 0.309896
O O13 0.447685 0.247644 0.500000
O O14 0.496551 0.285879 0.266325
O O15 0.818338 0.385304 0.217806
O O16 0.856903 0.501289 0.000000
O O17 0.418111 0.698348 0.232891
O O18 0.469667 0.724360 0.000000
O O19 0.864886 0.829307 0.500000
O O20 0.699504 0.738547 0.500000
#
# Coordination Sequence:
#
# PCOD8238521 Si02
#       8
#     8   8   8   8   8   8   8   8
#     4  11  24  41  64  95 128 164 207 252 306 368
#     4  11  24  43  66  90 122 162 208 258 309 365
#     4  11  21  37  65  94 124 160 205 256 305 367
#     4  12  25  40  61  91 128 164 203 252 311 369
#     4  10  22  40  63  91 127 164 201 255 311 361
#     4  10  22  41  64  92 123 160 207 253 308 369
#     4  10  23  44  66  90 123 163 206 258 312 363
#     4  11  24  42  64  92 127 165 206 253 308 364
#
# _framework density 20.140526000000001
#
# number of rings (size 3 to 8) (size 9 to 14) (size 15 to 20)
#    0.000    1.250    2.500    3.000    1.750    5.500 
#    0.000    2.500    0.000    0.000    0.000    0.000 
#    0.000    0.000    0.000    0.000    0.000    0.000 
#
# Total GULP energy -794016.571351 kJ/mol
# GULP energy per Si atom -12406.508927 kJ/mol
# Density = 2.009469 g / cm^3
# Si number density = 20.140526 Si / 1000 Ang^3
#
#
#
# Elastic Constant Matrix: (Units=GPa)
#
#
# Indices 1 2 3 4 5 6 
#
# 1 122.9305 23.9725 51.9247 0.0000 0.0000 0.0000
# 2 23.9725 71.3458 38.4625 0.0000 0.0000 0.0000
# 3 51.9247 38.4625 107.2626 0.0000 0.0000 0.0000
# 4 0.0000 0.0000 0.0000 21.5922 0.0000 0.0000
# 5 0.0000 0.0000 0.0000 0.0000 39.5442 0.0000
# 6 0.0000 0.0000 0.0000 0.0000 0.0000 22.8007
#
#
#
# Elastic Compliance Matrix: (Units=1/GPa)
#
#
# Indices 1 2 3 4 5 6 
#
# 1 0.010278 -0.000956 -0.004633 0.000000 0.000000 0.000000
# 2 -0.000956 0.017464 -0.005800 0.000000 0.000000 0.000000
# 3 -0.004633 -0.005800 0.013645 0.000000 0.000000 0.000000
# 4 0.000000 0.000000 0.000000 0.046313 0.000000 0.000000
# 5 0.000000 0.000000 0.000000 0.000000 0.025288 0.000000
# 6 0.000000 0.000000 0.000000 0.000000 0.000000 0.043858
#
#
# Mechanical properties :
#
#
# Convention : Reuss Voigt Hill
#
# Bulk Modulus (GPa) = 53.73229 58.91758 56.32494
# Shear Modulus (GPa) = 26.90687 29.26604 28.08646
#
# Velocity S-wave (km/s) = 3.65904 3.81608 3.73838
# Velocity P-wave (km/s) = 6.67743 6.98093 6.83086
#
# Compressibility (1/GPa) = 0.01861078
#
# Stress axis : x y z
#
# Youngs Moduli (GPa) = 97.29639 57.26082 73.28625
#
# Poissons Ratio (x) = 0.05474 0.33951
# Poissons Ratio (y) = 0.09301 0.42502
# Poissons Ratio (z) = 0.45074 0.33208
#
# Static dielectric constant tensor:
#      x y z
#    x 3.748940 0.000000 0.000000 
#    y 0.000000 3.699180 0.000000 
#    z 0.000000 0.000000 3.733930 
# 
# 
# High freq. dielectric constant tensor:
#      x y z
#    x 1.798450 0.000000 0.000000 
#    y 0.000000 1.788350 0.000000 
#    z 0.000000 0.000000 1.790180 
# 
# From -- ./inp_files/10993.got.cif
#   From: 2010.06.25/outbox.cif.g09.slc.cpg/sg58_6_cif.got.tgz:10993.got - 2010.06.26 21:38:00.
