data_PCOD8238665
_publ_section_title
;
Structure prediction by ZEFSAII (Michael W. Deem and Ramdas Pophale) SiO2 
 PCOD8238665
Probable space group: P N N M
;
_chemical_formula_sum "Si O2"
_cell_formula_units_Z 64
_cell_length_a 26.999506
_cell_length_b 12.981849
_cell_length_c 8.600662
_cell_angle_alpha 90.000000
_cell_angle_beta 90.000000
_cell_angle_gamma 90.000000
_cell_volume 3014.562219
_symmetry_space_group_name_H-M "P N N M"
_symmetry_group_IT_number 58
_symmetry_cell_setting 'orthorhombic'
loop_
_space_group_symop_operation_xyz
x,y,z
-x,-y,z
1/2+x,1/2-y,1/2-z
1/2-x,1/2+y,1/2-z
-x,-y,-z
x,y,-z
1/2-x,1/2+y,1/2+z
1/2+x,1/2-y,1/2+z
loop_
_atom_site_type_symbol
_atom_site_label
_atom_site_fract_x
_atom_site_fract_y
_atom_site_fract_z
Si Si1 0.447693 0.282834 0.681514
Si Si2 0.448217 0.701748 0.181764
Si Si3 0.729395 0.828841 0.178638
Si Si4 0.203587 0.027962 0.677649
Si Si5 0.372271 0.102441 0.317933
Si Si6 0.764626 0.639596 0.678368
Si Si7 0.597899 0.496508 0.680972
Si Si8 0.877234 0.612598 0.316812
O O1 0.460916 0.276359 0.500000
O O2 0.496372 0.261798 0.782458
O O3 0.409114 0.194326 0.729848
O O4 0.426723 0.395043 0.724978
O O5 0.438579 0.597058 0.277367
O O6 0.411621 0.792728 0.236945
O O7 0.441021 0.678974 0.000000
O O8 0.678700 0.883312 0.226640
O O9 0.728103 0.707107 0.212421
O O10 0.777332 0.856678 0.287496
O O11 0.739579 0.852737 0.000000
O O12 0.212241 0.996423 0.500000
O O13 0.241272 0.972169 0.795937
O O14 0.146629 0.014893 0.716764
O O15 0.361191 0.105291 0.500000
O O16 0.395047 0.991846 0.269415
O O17 0.759553 0.672525 0.500000
O O18 0.821435 0.640043 0.733931
O O19 0.611637 0.493050 0.500000
O O20 0.881246 0.593206 0.500000
#
# Coordination Sequence:
#
# PCOD8238665 Si02
#       8
#     8   8   8   8   8   8   8   8
#     4  10  24  44  65  93 127 168 213 268 333 391
#     4  11  24  42  66  96 128 167 216 273 331 388
#     4  12  24  39  61  91 128 169 212 259 316 380
#     4  12  24  39  61  93 128 164 210 255 312 383
#     4  11  23  41  66  93 127 169 219 271 322 387
#     4  11  22  39  62  89 126 168 211 261 313 376
#     4  11  23  42  67  94 130 170 214 268 331 395
#     4  10  23  42  63  90 129 170 212 266 325 384
#
# _framework density 21.23028
#
# number of rings (size 3 to 8) (size 9 to 14) (size 15 to 20)
#    0.000    1.000    1.250    5.625    0.000    7.500 
#    0.000    2.500    0.000    0.000    0.000    0.000 
#    0.000    0.000    0.000    0.000    0.000    0.000 
#
# Total GULP energy -793831.495374 kJ/mol
# GULP energy per Si atom -12403.617115 kJ/mol
# Density = 2.118196 g / cm^3
# Si number density = 21.230280 Si / 1000 Ang^3
#
#
#
# Elastic Constant Matrix: (Units=GPa)
#
#
# Indices 1 2 3 4 5 6 
#
# 1 98.0373 30.9942 29.4960 0.0000 0.0000 0.0000
# 2 30.9942 113.5420 31.9833 0.0000 0.0000 0.0000
# 3 29.4960 31.9833 76.3100 0.0000 0.0000 0.0000
# 4 0.0000 0.0000 0.0000 35.0020 0.0000 0.0000
# 5 0.0000 0.0000 0.0000 0.0000 35.7147 0.0000
# 6 0.0000 0.0000 0.0000 0.0000 0.0000 35.6178
#
#
#
# Elastic Compliance Matrix: (Units=1/GPa)
#
#
# Indices 1 2 3 4 5 6 
#
# 1 0.012024 -0.002237 -0.003710 0.000000 0.000000 0.000000
# 2 -0.002237 0.010403 -0.003495 0.000000 0.000000 0.000000
# 3 -0.003710 -0.003495 0.016003 0.000000 0.000000 0.000000
# 4 0.000000 0.000000 0.000000 0.028570 0.000000 0.000000
# 5 0.000000 0.000000 0.000000 0.000000 0.028000 0.000000
# 6 0.000000 0.000000 0.000000 0.000000 0.000000 0.028076
#
#
# Mechanical properties :
#
#
# Convention : Reuss Voigt Hill
#
# Bulk Modulus (GPa) = 51.16375 52.53737 51.85056
# Shear Modulus (GPa) = 33.67586 34.29461 33.98524
#
# Velocity S-wave (km/s) = 3.98706 4.02352 4.00533
# Velocity P-wave (km/s) = 6.73404 6.81066 6.77246
#
# Compressibility (1/GPa) = 0.01954509
#
# Stress axis : x y z
#
# Youngs Moduli (GPa) = 83.16962 96.13013 62.48700
#
# Poissons Ratio (x) = 0.21506 0.23182
# Poissons Ratio (y) = 0.18606 0.21841
# Poissons Ratio (z) = 0.30855 0.33600
#
# Static dielectric constant tensor:
#      x y z
#    x 3.726290 0.000000 0.000000 
#    y 0.000000 4.018620 0.000000 
#    z 0.000000 0.000000 3.667950 
# 
# 
# High freq. dielectric constant tensor:
#      x y z
#    x 1.830290 0.000000 0.000000 
#    y 0.000000 1.853330 0.000000 
#    z 0.000000 0.000000 1.832640 
# 
# From -- ./inp_files/10018.got.cif
#   From: 2010.06.25/outbox.cif.g09.slc.cpg/sg58_6_cif.got.tgz:10018.got - 2010.06.26 21:38:00.
