data_PCOD8238724
_publ_section_title
;
Structure prediction by ZEFSAII (Michael W. Deem and Ramdas Pophale) SiO2 
 PCOD8238724
Probable space group: P N N M
;
_chemical_formula_sum "Si O2"
_cell_formula_units_Z 64
_cell_length_a 15.271974
_cell_length_b 23.779729
_cell_length_c 8.457769
_cell_angle_alpha 90.000000
_cell_angle_beta 90.000000
_cell_angle_gamma 90.000000
_cell_volume 3071.552172
_symmetry_space_group_name_H-M "P N N M"
_symmetry_group_IT_number 58
_symmetry_cell_setting 'orthorhombic'
loop_
_space_group_symop_operation_xyz
x,y,z
-x,-y,z
1/2+x,1/2-y,1/2-z
1/2-x,1/2+y,1/2-z
-x,-y,-z
x,y,-z
1/2-x,1/2+y,1/2+z
1/2+x,1/2-y,1/2+z
loop_
_atom_site_type_symbol
_atom_site_label
_atom_site_fract_x
_atom_site_fract_y
_atom_site_fract_z
Si Si1 0.254269 0.053505 0.186286
Si Si2 0.161508 0.750014 0.316856
Si Si3 0.150897 0.250302 0.316628
Si Si4 0.400272 0.625737 0.186989
Si Si5 0.248982 0.927376 0.816038
Si Si6 0.084450 0.857217 0.811645
Si Si7 0.895581 0.365049 0.181739
Si Si8 0.093107 0.361575 0.179976
O O1 0.162340 0.082417 0.224633
O O2 0.333838 0.083223 0.275726
O O3 0.251119 0.990143 0.254649
O O4 0.272209 0.055512 0.000000
O O5 0.184365 0.758425 0.500000
O O6 0.247050 0.761758 0.212552
O O7 0.088377 0.794483 0.260977
O O8 0.126078 0.687527 0.292308
O O9 0.129429 0.257955 0.500000
O O10 0.126351 0.188257 0.257236
O O11 0.093781 0.295431 0.221092
O O12 0.498302 0.612539 0.243792
O O13 0.390255 0.618507 0.000000
O O14 0.167630 0.892204 0.745411
O O15 0.340384 0.896151 0.787705
O O16 0.232421 0.932483 0.000000
O O17 0.080736 0.854186 0.000000
O O18 0.995345 0.384496 0.209736
O O19 0.879865 0.347263 0.000000
O O20 0.122189 0.370201 0.000000
#
# Coordination Sequence:
#
# PCOD8238724 Si02
#       8
#     8   8   8   8   8   8   8   8
#     4  11  24  43  66  91 120 163 215 262 310 371
#     4  12  23  37  63  96 127 163 207 252 308 375
#     4  11  22  38  62  91 128 165 200 248 311 372
#     4  11  24  41  64  94 128 165 206 257 312 372
#     4  10  24  44  65  89 122 165 211 260 315 368
#     4  11  23  41  65  92 127 167 206 256 313 371
#     4  11  24  42  63  93 129 165 205 254 316 375
#     4  11  24  40  64  94 125 163 208 255 307 371
#
# _framework density 20.836372000000001
#
# number of rings (size 3 to 8) (size 9 to 14) (size 15 to 20)
#    0.000    1.000    2.500    4.125    0.000    8.000 
#    0.000    5.000    0.000    0.000    0.000    0.000 
#    0.000    0.000    0.000    0.000    0.000    0.000 
#
# Total GULP energy -794056.261619 kJ/mol
# GULP energy per Si atom -12407.129088 kJ/mol
# Density = 2.078895 g / cm^3
# Si number density = 20.836372 Si / 1000 Ang^3
#
#
#
# Elastic Constant Matrix: (Units=GPa)
#
#
# Indices 1 2 3 4 5 6 
#
# 1 115.1377 35.2608 21.2660 0.0000 0.0000 0.0000
# 2 35.2608 117.5167 13.4392 0.0000 0.0000 0.0000
# 3 21.2660 13.4392 36.3257 0.0000 0.0000 0.0000
# 4 0.0000 0.0000 0.0000 28.5564 0.0000 0.0000
# 5 0.0000 0.0000 0.0000 0.0000 30.7580 0.0000
# 6 0.0000 0.0000 0.0000 0.0000 0.0000 14.1701
#
#
#
# Elastic Compliance Matrix: (Units=1/GPa)
#
#
# Indices 1 2 3 4 5 6 
#
# 1 0.010414 -0.002535 -0.005159 0.000000 0.000000 0.000000
# 2 -0.002535 0.009502 -0.002032 0.000000 0.000000 0.000000
# 3 -0.005159 -0.002032 0.031301 0.000000 0.000000 0.000000
# 4 0.000000 0.000000 0.000000 0.035018 0.000000 0.000000
# 5 0.000000 0.000000 0.000000 0.000000 0.032512 0.000000
# 6 0.000000 0.000000 0.000000 0.000000 0.000000 0.070571
#
#
# Mechanical properties :
#
#
# Convention : Reuss Voigt Hill
#
# Bulk Modulus (GPa) = 31.47984 45.43470 38.45727
# Shear Modulus (GPa) = 22.79374 27.96451 25.37912
#
# Velocity S-wave (km/s) = 3.31106 3.66744 3.49380
# Velocity P-wave (km/s) = 5.45513 6.30764 5.89681
#
# Compressibility (1/GPa) = 0.03176636
#
# Stress axis : x y z
#
# Youngs Moduli (GPa) = 96.02063 105.23725 31.94830
#
# Poissons Ratio (x) = 0.26676 0.16482
# Poissons Ratio (y) = 0.24340 0.06491
# Poissons Ratio (z) = 0.49538 0.21380
#
# Static dielectric constant tensor:
#      x y z
#    x 3.838200 0.000000 0.000000 
#    y 0.000000 3.866770 0.000000 
#    z 0.000000 0.000000 3.688260 
# 
# 
# High freq. dielectric constant tensor:
#      x y z
#    x 1.827340 0.000000 0.000000 
#    y 0.000000 1.811870 0.000000 
#    z 0.000000 0.000000 1.817890 
# 
# From -- ./inp_files/6820.got.cif
#   From: 2010.06.25/outbox.cif.g09.slc.cpg/sg58_4_cif.got.tgz:6820.got - 2010.06.26 21:38:00.
