data_PCOD8238855
_publ_section_title
;
Structure prediction by ZEFSAII (Michael W. Deem and Ramdas Pophale) SiO2 
 PCOD8238855
Probable space group: P N N M
;
_chemical_formula_sum "Si O2"
_cell_formula_units_Z 48
_cell_length_a 8.971370
_cell_length_b 30.092431
_cell_length_c 8.719775
_cell_angle_alpha 90.000000
_cell_angle_beta 90.000000
_cell_angle_gamma 90.000000
_cell_volume 2354.080558
_symmetry_space_group_name_H-M "P N N M"
_symmetry_group_IT_number 58
_symmetry_cell_setting 'orthorhombic'
loop_
_space_group_symop_operation_xyz
x,y,z
-x,-y,z
1/2+x,1/2-y,1/2-z
1/2-x,1/2+y,1/2-z
-x,-y,-z
x,y,-z
1/2-x,1/2+y,1/2+z
1/2+x,1/2-y,1/2+z
loop_
_atom_site_type_symbol
_atom_site_label
_atom_site_fract_x
_atom_site_fract_y
_atom_site_fract_z
Si Si1 0.859319 0.284545 0.323520
Si Si2 0.646391 0.622165 0.680112
Si Si3 0.671127 0.362086 0.181944
Si Si4 0.809076 0.543622 0.818393
Si Si5 0.356581 0.054923 0.318584
Si Si6 0.328466 0.802114 0.676440
O O1 0.870951 0.298990 0.500000
O O2 0.750055 0.317671 0.236771
O O3 0.797757 0.234957 0.306281
O O4 0.019917 0.283877 0.246843
O O5 0.625297 0.624792 0.500000
O O6 0.496214 0.638158 0.759471
O O7 0.684846 0.572093 0.730837
O O8 0.780100 0.653952 0.733399
O O9 0.758958 0.404896 0.249873
O O10 0.669695 0.363039 0.000000
O O11 0.785676 0.492270 0.769132
O O12 0.972969 0.559116 0.762102
O O13 0.789294 0.549933 0.000000
O O14 0.358768 0.057100 0.500000
O O15 0.355854 0.815063 0.500000
#
# Coordination Sequence:
#
# PCOD8238855 Si02
#       6
#     8   8   8   8   8   8
#     4  11  24  41  63  92 122 151 190 242 292 338
#     4  12  25  39  56  84 120 155 196 247 298 343
#     4  11  22  38  60  86 118 158 200 239 288 349
#     4   9  17  36  62  86 113 148 194 242 292 351
#     4   8  17  34  60  88 112 146 194 243 286 346
#     4  11  24  42  64  88 117 156 196 233 284 351
#
# _framework density 20.390128000000001
#
# number of rings (size 3 to 8) (size 9 to 14) (size 15 to 20)
#    0.000    1.667    0.000    6.000    0.000    7.333 
#    0.000    7.500    0.000    0.000    0.000    0.000 
#    0.000    0.000    0.000    0.000    0.000    0.000 
#
# Total GULP energy -595395.721957 kJ/mol
# GULP energy per Si atom -12404.077541 kJ/mol
# Density = 2.034372 g / cm^3
# Si number density = 20.390128 Si / 1000 Ang^3
#
#
#
# Elastic Constant Matrix: (Units=GPa)
#
#
# Indices 1 2 3 4 5 6 
#
# 1 75.8996 4.7758 29.3357 0.0000 0.0000 0.0000
# 2 4.7758 76.3354 26.1622 0.0000 0.0000 0.0000
# 3 29.3357 26.1622 103.1735 0.0000 0.0000 0.0000
# 4 0.0000 0.0000 0.0000 13.7421 0.0000 0.0000
# 5 0.0000 0.0000 0.0000 0.0000 30.4260 0.0000
# 6 0.0000 0.0000 0.0000 0.0000 0.0000 43.3950
#
#
#
# Elastic Compliance Matrix: (Units=1/GPa)
#
#
# Indices 1 2 3 4 5 6 
#
# 1 0.014824 0.000566 -0.004359 0.000000 0.000000 0.000000
# 2 0.000566 0.014369 -0.003805 0.000000 0.000000 0.000000
# 3 -0.004359 -0.003805 0.011896 0.000000 0.000000 0.000000
# 4 0.000000 0.000000 0.000000 0.072769 0.000000 0.000000
# 5 0.000000 0.000000 0.000000 0.000000 0.032867 0.000000
# 6 0.000000 0.000000 0.000000 0.000000 0.000000 0.023044
#
#
# Mechanical properties :
#
#
# Convention : Reuss Voigt Hill
#
# Bulk Modulus (GPa) = 38.61651 41.77288 40.19470
# Shear Modulus (GPa) = 25.82713 30.52160 28.17437
#
# Velocity S-wave (km/s) = 3.56286 3.87315 3.72124
# Velocity P-wave (km/s) = 5.99210 6.36656 6.18216
#
# Compressibility (1/GPa) = 0.02589566
#
# Stress axis : x y z
#
# Youngs Moduli (GPa) = 67.45672 69.59638 84.05857
#
# Poissons Ratio (x) = -0.03942 0.36638
# Poissons Ratio (y) = -0.03821 0.31980
# Poissons Ratio (z) = 0.29402 0.26478
#
# Static dielectric constant tensor:
#      x y z
#    x 3.766970 0.000000 0.000000 
#    y 0.000000 3.941150 0.000000 
#    z 0.000000 0.000000 3.564300 
# 
# 
# High freq. dielectric constant tensor:
#      x y z
#    x 1.802430 0.000000 0.000000 
#    y 0.000000 1.812320 0.000000 
#    z 0.000000 0.000000 1.782370 
# 
# From -- ./inp_files/2857.got.cif
#   From: 2010.06.25/outbox.cif.g09.slc.cpg/sg58_2_cif.got.tgz:2857.got - 2010.06.26 21:38:00.
