data_PCOD8238284
_publ_section_title
;
Structure prediction by ZEFSAII (Michael W. Deem and Ramdas Pophale) SiO2 
 PCOD8238284
Probable space group: P N N M
;
_chemical_formula_sum "Si O2"
_cell_formula_units_Z 48
_cell_length_a 10.308036
_cell_length_b 15.948673
_cell_length_c 14.968158
_cell_angle_alpha 90.000000
_cell_angle_beta 90.000000
_cell_angle_gamma 90.000000
_cell_volume 2460.757623
_symmetry_space_group_name_H-M "P N N M"
_symmetry_group_IT_number 58
_symmetry_cell_setting 'orthorhombic'
loop_
_space_group_symop_operation_xyz
x,y,z
-x,-y,z
1/2+x,1/2-y,1/2-z
1/2-x,1/2+y,1/2-z
-x,-y,-z
x,y,-z
1/2-x,1/2+y,1/2+z
1/2+x,1/2-y,1/2+z
loop_
_atom_site_type_symbol
_atom_site_label
_atom_site_fract_x
_atom_site_fract_y
_atom_site_fract_z
Si Si1 0.909298 0.079526 0.599531
Si Si2 0.620383 0.554000 0.600499
Si Si3 0.555327 0.865479 0.742400
Si Si4 0.300131 0.971614 0.742030
Si Si5 0.841025 0.242513 0.100484
Si Si6 0.041101 0.254761 0.395954
O O1 0.849688 0.089539 0.500000
O O2 0.992848 0.161072 0.624802
O O3 0.796591 0.065550 0.669572
O O4 0.000000 0.000000 0.603386
O O5 0.500000 0.500000 0.639483
O O6 0.651622 0.523767 0.500000
O O7 0.748017 0.539811 0.658234
O O8 0.588651 0.652503 0.602612
O O9 0.676876 0.928643 0.734919
O O10 0.571193 0.799206 0.663453
O O11 0.546304 0.818648 0.837919
O O12 0.428182 0.919115 0.726382
O O13 0.691618 0.237654 0.133635
O O14 0.842777 0.279677 0.000000
O O15 0.024577 0.278952 0.500000
#
# Coordination Sequence:
#
# PCOD8238284 Si02
#       6
#     8   8   8   8   8   8
#     4  10  21  39  63  88 116 156 203 249 301 362
#     4  10  21  40  63  87 118 158 202 247 296 353
#     4  11  24  37  59  88 120 162 198 244 309 363
#     4  11  23  39  57  87 124 157 198 249 301 362
#     4  10  21  40  63  88 121 158 201 252 304 359
#     4  10  21  39  63  89 119 157 203 254 303 358
#
# _framework density 19.506188000000002
#
# number of rings (size 3 to 8) (size 9 to 14) (size 15 to 20)
#    0.000    1.667    1.667    2.500    0.000    4.667 
#    0.000    3.333    0.000    0.000    0.000    0.000 
#    0.000    0.000    0.000    0.000    0.000    0.000 
#
# Total GULP energy -595210.664429 kJ/mol
# GULP energy per Si atom -12400.222176 kJ/mol
# Density = 1.946179 g / cm^3
# Si number density = 19.506188 Si / 1000 Ang^3
#
#
#
# Elastic Constant Matrix: (Units=GPa)
#
#
# Indices 1 2 3 4 5 6 
#
# 1 74.3768 42.2899 42.6261 0.0000 0.0000 0.0000
# 2 42.2899 121.7701 45.3945 0.0000 0.0000 0.0000
# 3 42.6261 45.3945 97.9167 0.0000 0.0000 0.0000
# 4 0.0000 0.0000 0.0000 26.6617 0.0000 0.0000
# 5 0.0000 0.0000 0.0000 0.0000 28.4321 0.0000
# 6 0.0000 0.0000 0.0000 0.0000 0.0000 36.6915
#
#
#
# Elastic Compliance Matrix: (Units=1/GPa)
#
#
# Indices 1 2 3 4 5 6 
#
# 1 0.019692 -0.004404 -0.006531 0.000000 0.000000 0.000000
# 2 -0.004404 0.010913 -0.003142 0.000000 0.000000 0.000000
# 3 -0.006531 -0.003142 0.014512 0.000000 0.000000 0.000000
# 4 0.000000 0.000000 0.000000 0.037507 0.000000 0.000000
# 5 0.000000 0.000000 0.000000 0.000000 0.035172 0.000000
# 6 0.000000 0.000000 0.000000 0.000000 0.000000 0.027254
#
#
# Mechanical properties :
#
#
# Convention : Reuss Voigt Hill
#
# Bulk Modulus (GPa) = 58.95003 61.63162 60.29083
# Shear Modulus (GPa) = 27.95497 29.27393 28.61445
#
# Velocity S-wave (km/s) = 3.78978 3.87816 3.83422
# Velocity P-wave (km/s) = 7.03113 7.19152 7.11178
#
# Compressibility (1/GPa) = 0.01696352
#
# Stress axis : x y z
#
# Youngs Moduli (GPa) = 50.78170 91.63292 68.90661
#
# Poissons Ratio (x) = 0.40359 0.45001
# Poissons Ratio (y) = 0.22366 0.21650
# Poissons Ratio (z) = 0.33164 0.28791
#
# Static dielectric constant tensor:
#      x y z
#    x 3.376230 0.000000 0.000000 
#    y 0.000000 3.893540 0.000000 
#    z 0.000000 0.000000 3.714620 
# 
# 
# High freq. dielectric constant tensor:
#      x y z
#    x 1.746370 0.000000 0.000000 
#    y 0.000000 1.774620 0.000000 
#    z 0.000000 0.000000 1.768380 
# 
# From -- ./inp_files/19801.got.cif
#   From: 2010.06.25/outbox.cif.g09.slc.cpg/sg58_10_cif.got.tgz:19801.got - 2010.06.26 21:38:00.
