data_PCOD8238591
_publ_section_title
;
Structure prediction by ZEFSAII (Michael W. Deem and Ramdas Pophale) SiO2 
 PCOD8238591
Probable space group: P N N M
;
_chemical_formula_sum "Si O2"
_cell_formula_units_Z 48
_cell_length_a 27.246458
_cell_length_b 9.700723
_cell_length_c 8.974238
_cell_angle_alpha 90.000000
_cell_angle_beta 90.000000
_cell_angle_gamma 90.000000
_cell_volume 2371.983913
_symmetry_space_group_name_H-M "P N N M"
_symmetry_group_IT_number 58
_symmetry_cell_setting 'orthorhombic'
loop_
_space_group_symop_operation_xyz
x,y,z
-x,-y,z
1/2+x,1/2-y,1/2-z
1/2-x,1/2+y,1/2-z
-x,-y,-z
x,y,-z
1/2-x,1/2+y,1/2+z
1/2+x,1/2-y,1/2+z
loop_
_atom_site_type_symbol
_atom_site_label
_atom_site_fract_x
_atom_site_fract_y
_atom_site_fract_z
Si Si1 0.904775 0.005446 0.670602
Si Si2 0.616242 0.042366 0.670985
Si Si3 0.557337 0.804739 0.171769
Si Si4 0.714972 0.118483 0.175571
Si Si5 0.959778 0.779155 0.170756
Si Si6 0.795000 0.933734 0.674749
O O1 0.914046 0.961233 0.500000
O O2 0.945639 0.930683 0.771106
O O3 0.850760 0.962211 0.722367
O O4 0.910574 0.167819 0.692763
O O5 0.627909 0.009534 0.500000
O O6 0.582515 0.922629 0.733874
O O7 0.667039 0.046962 0.758051
O O8 0.588423 0.186379 0.689636
O O9 0.502530 0.785034 0.230548
O O10 0.554517 0.849427 0.000000
O O11 0.762534 0.041277 0.235119
O O12 0.718833 0.278500 0.222059
O O13 0.711757 0.102536 0.000000
O O14 0.977233 0.787931 0.000000
O O15 0.786989 0.958881 0.500000
#
# Coordination Sequence:
#
# PCOD8238591 Si02
#       6
#     8   8   8   8   8   8
#     4  10  22  42  64  89 124 163 206 254 306 365
#     4  11  24  42  63  90 126 163 205 257 310 362
#     4  11  24  39  62  94 125 166 210 254 305 367
#     4  11  24  42  67  94 121 161 206 248 308 369
#     4  11  23  40  63  91 124 165 207 256 312 365
#     4  10  23  43  65  92 126 161 201 255 309 363
#
# _framework density 20.236225000000001
#
# number of rings (size 3 to 8) (size 9 to 14) (size 15 to 20)
#    0.000    1.333    1.667    3.000    2.333    9.333 
#    0.000    0.000    0.000    0.000    0.000    0.000 
#    0.000    0.000    0.000    0.000    0.000    0.000 
#
# Total GULP energy -595557.784196 kJ/mol
# GULP energy per Si atom -12407.453837 kJ/mol
# Density = 2.019017 g / cm^3
# Si number density = 20.236225 Si / 1000 Ang^3
#
#
#
# Elastic Constant Matrix: (Units=GPa)
#
#
# Indices 1 2 3 4 5 6 
#
# 1 99.0887 -16.0984 16.6750 0.0000 0.0000 0.0000
# 2 -16.0984 127.7857 74.6244 0.0000 0.0000 0.0000
# 3 16.6750 74.6244 89.0037 0.0000 0.0000 0.0000
# 4 0.0000 0.0000 0.0000 36.9985 0.0000 0.0000
# 5 0.0000 0.0000 0.0000 0.0000 41.7920 0.0000
# 6 0.0000 0.0000 0.0000 0.0000 0.0000 31.6537
#
#
#
# Elastic Compliance Matrix: (Units=1/GPa)
#
#
# Indices 1 2 3 4 5 6 
#
# 1 0.012182 0.005618 -0.006993 0.000000 0.000000 0.000000
# 2 0.005618 0.017925 -0.016081 0.000000 0.000000 0.000000
# 3 -0.006993 -0.016081 0.026029 0.000000 0.000000 0.000000
# 4 0.000000 0.000000 0.000000 0.027028 0.000000 0.000000
# 5 0.000000 0.000000 0.000000 0.000000 0.023928 0.000000
# 6 0.000000 0.000000 0.000000 0.000000 0.000000 0.031592
#
#
# Mechanical properties :
#
#
# Convention : Reuss Voigt Hill
#
# Bulk Modulus (GPa) = 47.11812 51.80889 49.46350
# Shear Modulus (GPa) = 27.67488 38.13398 32.90443
#
# Velocity S-wave (km/s) = 3.70211 4.34572 4.03676
# Velocity P-wave (km/s) = 6.45048 7.13008 6.79878
#
# Compressibility (1/GPa) = 0.02122326
#
# Stress axis : x y z
#
# Youngs Moduli (GPa) = 82.09143 55.78926 38.41886
#
# Poissons Ratio (x) = -0.31344 0.26866
# Poissons Ratio (y) = -0.46122 0.61783
# Poissons Ratio (z) = 0.57406 0.89717
#
# Static dielectric constant tensor:
#      x y z
#    x 3.722320 0.000000 0.000000 
#    y 0.000000 3.749630 0.000000 
#    z 0.000000 0.000000 3.793410 
# 
# 
# High freq. dielectric constant tensor:
#      x y z
#    x 1.799200 0.000000 0.000000 
#    y 0.000000 1.800730 0.000000 
#    z 0.000000 0.000000 1.797140 
# 
# From -- ./inp_files/2972.got.cif
#   From: 2010.06.25/outbox.cif.g09.slc.cpg/sg58_2_cif.got.tgz:2972.got - 2010.06.26 21:38:00.
