data_PCOD8238402
_publ_section_title
;
Structure prediction by ZEFSAII (Michael W. Deem and Ramdas Pophale) SiO2 
 PCOD8238402
Probable space group: P N N M
;
_chemical_formula_sum "Si O2"
_cell_formula_units_Z 40
_cell_length_a 16.428862
_cell_length_b 9.012918
_cell_length_c 12.369988
_cell_angle_alpha 90.000000
_cell_angle_beta 90.000000
_cell_angle_gamma 90.000000
_cell_volume 1831.648690
_symmetry_space_group_name_H-M "P N N M"
_symmetry_group_IT_number 58
_symmetry_cell_setting 'orthorhombic'
loop_
_space_group_symop_operation_xyz
x,y,z
-x,-y,z
1/2+x,1/2-y,1/2-z
1/2-x,1/2+y,1/2-z
-x,-y,-z
x,y,-z
1/2-x,1/2+y,1/2+z
1/2+x,1/2-y,1/2+z
loop_
_atom_site_type_symbol
_atom_site_label
_atom_site_fract_x
_atom_site_fract_y
_atom_site_fract_z
Si Si1 0.493920 0.832338 0.723158
Si Si2 0.367452 0.424245 0.500000
Si Si3 0.934590 0.887007 0.380061
Si Si4 0.739100 0.534756 0.877406
Si Si5 0.175227 0.754032 0.795754
Si Si6 0.955626 0.781589 0.000000
O O1 0.431010 0.757481 0.805696
O O2 0.580639 0.751792 0.736301
O O3 0.451797 0.822067 0.605389
O O4 0.500000 0.000000 0.758940
O O5 0.316483 0.368428 0.603823
O O6 0.379929 0.602543 0.500000
O O7 0.457490 0.359426 0.500000
O O8 0.963010 0.840451 0.500000
O O9 0.847553 0.959263 0.382352
O O10 0.000000 0.000000 0.328962
O O11 0.800562 0.413670 0.827772
O O12 0.731101 0.681561 0.801975
O O13 0.767072 0.579541 0.000000
#
# Coordination Sequence:
#
# PCOD8238402 Si02
#       6
#     8   4   8   8   8   4
#     4  11  23  38  62  97 130 162 212 264 318 376
#     4   9  18  38  64  90 121 159 213 256 312 386
#     4  10  21  41  67  90 119 167 218 262 310 374
#     4  11  24  44  66  92 130 171 217 263 324 387
#     4  11  23  42  63  91 131 169 208 268 322 387
#     4   9  19  34  62  94 124 160 198 257 320 377
#
# _framework density 21.838248
#
# number of rings (size 3 to 8) (size 9 to 14) (size 15 to 20)
#    0.000    1.600    3.000    1.500    5.600    0.400 
#    1.800    0.000    0.000    0.000    0.000    0.000 
#    0.000    0.000    0.000    0.000    0.000    0.000 
#
# Total GULP energy -495994.140637 kJ/mol
# GULP energy per Si atom -12399.853516 kJ/mol
# Density = 2.178854 g / cm^3
# Si number density = 21.838248 Si / 1000 Ang^3
#
#
#
# Elastic Constant Matrix: (Units=GPa)
#
#
# Indices 1 2 3 4 5 6 
#
# 1 19.4551 -12.6032 4.7031 0.0000 0.0000 0.0000
# 2 -12.6032 72.5217 40.4782 0.0000 0.0000 0.0000
# 3 4.7031 40.4782 125.3841 0.0000 0.0000 0.0000
# 4 0.0000 0.0000 0.0000 43.1609 0.0000 0.0000
# 5 0.0000 0.0000 0.0000 0.0000 29.6534 0.0000
# 6 0.0000 0.0000 0.0000 0.0000 0.0000 32.1896
#
#
#
# Elastic Compliance Matrix: (Units=1/GPa)
#
#
# Indices 1 2 3 4 5 6 
#
# 1 0.062796 0.014915 -0.007171 0.000000 0.000000 0.000000
# 2 0.014915 0.020362 -0.007133 0.000000 0.000000 0.000000
# 3 -0.007171 -0.007133 0.010547 0.000000 0.000000 0.000000
# 4 0.000000 0.000000 0.000000 0.023169 0.000000 0.000000
# 5 0.000000 0.000000 0.000000 0.000000 0.033723 0.000000
# 6 0.000000 0.000000 0.000000 0.000000 0.000000 0.031066
#
#
# Mechanical properties :
#
#
# Convention : Reuss Voigt Hill
#
# Bulk Modulus (GPa) = 10.53417 31.39079 20.96248
# Shear Modulus (GPa) = 23.57558 33.31962 28.44760
#
# Velocity S-wave (km/s) = 3.28922 3.91032 3.61314
# Velocity P-wave (km/s) = 4.38857 5.89855 5.19867
#
# Compressibility (1/GPa) = 0.09492913
#
# Stress axis : x y z
#
# Youngs Moduli (GPa) = 15.92453 49.10997 94.81110
#
# Poissons Ratio (x) = -0.73250 0.67986
# Poissons Ratio (y) = -0.23752 0.67630
# Poissons Ratio (z) = 0.11419 0.35031
#
# Static dielectric constant tensor:
#      x y z
#    x 3.944290 0.000000 0.000000 
#    y 0.000000 3.791260 0.000000 
#    z 0.000000 0.000000 4.344070 
# 
# 
# High freq. dielectric constant tensor:
#      x y z
#    x 1.848860 0.000000 0.000000 
#    y 0.000000 1.847780 0.000000 
#    z 0.000000 0.000000 1.864660 
# 
# From -- ./inp_files/16908.got.cif
#   From: 2010.06.25/outbox.cif.g09.slc.cpg/sg58_9_cif.got.tgz:16908.got - 2010.06.26 21:38:00.
