data_PCOD8238234
_publ_section_title
;
Structure prediction by ZEFSAII (Michael W. Deem and Ramdas Pophale) SiO2 
 PCOD8238234
Probable space group: P N N M
;
_chemical_formula_sum "Si O2"
_cell_formula_units_Z 44
_cell_length_a 14.935459
_cell_length_b 10.019191
_cell_length_c 14.181530
_cell_angle_alpha 90.000000
_cell_angle_beta 90.000000
_cell_angle_gamma 90.000000
_cell_volume 2122.141400
_symmetry_space_group_name_H-M "P N N M"
_symmetry_group_IT_number 58
_symmetry_cell_setting 'orthorhombic'
loop_
_space_group_symop_operation_xyz
x,y,z
-x,-y,z
1/2+x,1/2-y,1/2-z
1/2-x,1/2+y,1/2-z
-x,-y,-z
x,y,-z
1/2-x,1/2+y,1/2+z
1/2+x,1/2-y,1/2+z
loop_
_atom_site_type_symbol
_atom_site_label
_atom_site_fract_x
_atom_site_fract_y
_atom_site_fract_z
Si Si1 0.000000 0.000000 0.768519
Si Si2 0.282226 0.060056 0.000000
Si Si3 0.083208 0.346538 0.500000
Si Si4 0.833368 0.146556 0.500000
Si Si5 0.458011 0.255695 0.842051
Si Si6 0.308658 0.187214 0.294644
Si Si7 0.304565 0.481005 0.688669
Si Si8 0.247189 0.643253 0.000000
O O1 0.089099 0.983927 0.829756
O O2 0.017904 0.134125 0.709237
O O3 0.272955 0.219106 0.000000
O O4 0.236438 0.996351 0.088097
O O5 0.383909 0.001550 0.000000
O O6 0.165615 0.240269 0.500000
O O7 0.023406 0.332815 0.594062
O O8 0.892078 0.154376 0.594136
O O9 0.776583 0.011744 0.500000
O O10 0.401136 0.164875 0.766089
O O11 0.276785 0.337012 0.270686
O O12 0.230293 0.089856 0.261588
O O13 0.316309 0.168343 0.408223
#
# Coordination Sequence:
#
# PCOD8238234 Si02
#       8
#     4   4   4   4   8   8   8   4
#     4  10  22  38  64  96 130 172 222 264 324 392
#     4  12  24  42  63 101 128 173 217 273 338 382
#     4  11  22  40  67  98 131 166 217 274 337 393
#     4  11  22  40  63  94 134 167 212 273 316 393
#     4  10  21  38  63  99 133 165 213 276 333 386
#     4  11  22  40  64  96 133 173 218 265 329 400
#     4  11  23  42  65  96 131 172 220 269 328 396
#     4  12  22  39  69  94 128 181 225 260 324 401
#
# _framework density 20.733772999999999
#
# number of rings (size 3 to 8) (size 9 to 14) (size 15 to 20)
#    0.000    1.091    3.636    4.364    0.000    3.273 
#    0.000    0.909    0.000    0.000    0.000    6.364 
#    0.000    0.000    0.000    0.000    0.000    0.000 
#
# Total GULP energy -545277.589297 kJ/mol
# GULP energy per Si atom -12392.672484 kJ/mol
# Density = 2.068658 g / cm^3
# Si number density = 20.733773 Si / 1000 Ang^3
#
#
#
# Elastic Constant Matrix: (Units=GPa)
#
#
# Indices 1 2 3 4 5 6 
#
# 1 81.0665 48.7413 67.9806 0.0000 0.0000 0.0000
# 2 48.7413 110.8919 26.9669 0.0000 0.0000 0.0000
# 3 67.9806 26.9669 117.5970 0.0000 0.0000 0.0000
# 4 0.0000 0.0000 0.0000 30.7898 0.0000 0.0000
# 5 0.0000 0.0000 0.0000 0.0000 36.9976 0.0000
# 6 0.0000 0.0000 0.0000 0.0000 0.0000 30.4864
#
#
#
# Elastic Compliance Matrix: (Units=1/GPa)
#
#
# Indices 1 2 3 4 5 6 
#
# 1 0.031978 -0.010125 -0.016164 0.000000 0.000000 0.000000
# 2 -0.010125 0.012756 0.002928 0.000000 0.000000 0.000000
# 3 -0.016164 0.002928 0.017176 0.000000 0.000000 0.000000
# 4 0.000000 0.000000 0.000000 0.032478 0.000000 0.000000
# 5 0.000000 0.000000 0.000000 0.000000 0.027029 0.000000
# 6 0.000000 0.000000 0.000000 0.000000 0.000000 0.032801
#
#
# Mechanical properties :
#
#
# Convention : Reuss Voigt Hill
#
# Bulk Modulus (GPa) = 65.84044 66.32589 66.08317
# Shear Modulus (GPa) = 24.27144 30.71253 27.49199
#
# Velocity S-wave (km/s) = 3.42515 3.85292 3.64531
# Velocity P-wave (km/s) = 6.88958 7.20084 7.04693
#
# Compressibility (1/GPa) = 0.01518823
#
# Stress axis : x y z
#
# Youngs Moduli (GPa) = 31.27170 78.39433 58.21968
#
# Poissons Ratio (x) = 0.79372 0.94106
# Poissons Ratio (y) = 0.31662 -0.17045
# Poissons Ratio (z) = 0.50548 -0.22952
#
# Static dielectric constant tensor:
#      x y z
#    x 3.657610 0.000000 0.000000 
#    y 0.000000 3.914970 0.000000 
#    z 0.000000 0.000000 11.354120 
# 
# 
# High freq. dielectric constant tensor:
#      x y z
#    x 1.791050 0.000000 0.000000 
#    y 0.000000 1.823930 0.000000 
#    z 0.000000 0.000000 1.819510 
# 
# From -- ./inp_files/22737.got.cif
#   From: 2010.06.25/outbox.cif.g09.slc.cpg/sg58_12_cif.got.tgz:22737.got - 2010.06.26 21:38:00.
