data_PCOD8238459
_publ_section_title
;
Structure prediction by ZEFSAII (Michael W. Deem and Ramdas Pophale) SiO2 
 PCOD8238459
Probable space group: P N N M
;
_chemical_formula_sum "Si O2"
_cell_formula_units_Z 56
_cell_length_a 14.688719
_cell_length_b 20.973197
_cell_length_c 9.067747
_cell_angle_alpha 90.000000
_cell_angle_beta 90.000000
_cell_angle_gamma 90.000000
_cell_volume 2793.495353
_symmetry_space_group_name_H-M "P N N M"
_symmetry_group_IT_number 58
_symmetry_cell_setting 'orthorhombic'
loop_
_space_group_symop_operation_xyz
x,y,z
-x,-y,z
1/2+x,1/2-y,1/2-z
1/2-x,1/2+y,1/2-z
-x,-y,-z
x,y,-z
1/2-x,1/2+y,1/2+z
1/2+x,1/2-y,1/2+z
loop_
_atom_site_type_symbol
_atom_site_label
_atom_site_fract_x
_atom_site_fract_y
_atom_site_fract_z
Si Si1 0.718967 0.602684 0.326849
Si Si2 0.774436 0.730893 0.175100
Si Si3 0.074030 0.185231 0.331617
Si Si4 0.471107 0.095465 0.327730
Si Si5 0.353870 0.980498 0.326393
Si Si6 0.918327 0.282160 0.335009
Si Si7 0.988302 0.072928 0.172574
O O1 0.735591 0.609893 0.500000
O O2 0.768950 0.660728 0.244463
O O3 0.764791 0.537637 0.267030
O O4 0.612496 0.598077 0.289640
O O5 0.683153 0.768126 0.219356
O O6 0.856689 0.771063 0.241484
O O7 0.786598 0.723703 0.000000
O O8 0.108206 0.177728 0.500000
O O9 0.975182 0.217414 0.325014
O O10 0.062656 0.115600 0.258706
O O11 0.481144 0.100764 0.500000
O O12 0.563111 0.063321 0.268856
O O13 0.464327 0.165805 0.266604
O O14 0.381835 0.053384 0.288687
O O15 0.334797 0.971953 0.500000
O O16 0.917357 0.309441 0.500000
O O17 0.009403 0.079091 0.000000
O O18 0.000000 0.000000 0.224956
#
# Coordination Sequence:
#
# PCOD8238459 Si02
#       7
#     8   8   8   8   8   8   8
#     4  11  22  37  60  89 117 154 206 253 298 364
#     4  11  23  40  61  86 119 160 198 244 310 367
#     4  11  23  41  63  92 123 155 205 259 305 363
#     4   9  19  35  56  83 115 153 197 240 290 356
#     4   9  19  36  56  81 116 156 194 238 296 357
#     4  10  22  38  57  83 118 152 188 240 298 353
#     4  10  23  43  64  87 121 164 206 252 310 372
#
# _framework density 20.046569999999999
#
# number of rings (size 3 to 8) (size 9 to 14) (size 15 to 20)
#    0.000    1.857    1.429    3.000    0.000    7.714 
#    0.000    5.714    0.000    0.000    0.000    0.000 
#    0.000    0.000    0.000    0.000    0.000    0.000 
#
# Total GULP energy -694476.595999 kJ/mol
# GULP energy per Si atom -12401.367786 kJ/mol
# Density = 2.000094 g / cm^3
# Si number density = 20.046570 Si / 1000 Ang^3
#
#
#
# Elastic Constant Matrix: (Units=GPa)
#
#
# Indices 1 2 3 4 5 6 
#
# 1 63.0841 13.4645 33.7825 0.0000 0.0000 0.0000
# 2 13.4645 97.5152 34.0873 0.0000 0.0000 0.0000
# 3 33.7825 34.0873 69.9828 0.0000 0.0000 0.0000
# 4 0.0000 0.0000 0.0000 32.4175 0.0000 0.0000
# 5 0.0000 0.0000 0.0000 0.0000 27.9774 0.0000
# 6 0.0000 0.0000 0.0000 0.0000 0.0000 32.6063
#
#
#
# Elastic Compliance Matrix: (Units=1/GPa)
#
#
# Indices 1 2 3 4 5 6 
#
# 1 0.021429 0.000792 -0.010730 0.000000 0.000000 0.000000
# 2 0.000792 0.012388 -0.006416 0.000000 0.000000 0.000000
# 3 -0.010730 -0.006416 0.022594 0.000000 0.000000 0.000000
# 4 0.000000 0.000000 0.000000 0.030848 0.000000 0.000000
# 5 0.000000 0.000000 0.000000 0.000000 0.035743 0.000000
# 6 0.000000 0.000000 0.000000 0.000000 0.000000 0.030669
#
#
# Mechanical properties :
#
#
# Convention : Reuss Voigt Hill
#
# Bulk Modulus (GPa) = 42.18970 43.69452 42.94211
# Shear Modulus (GPa) = 25.73595 28.55011 27.14303
#
# Velocity S-wave (km/s) = 3.58691 3.77794 3.68366
# Velocity P-wave (km/s) = 6.18435 6.39330 6.28969
#
# Compressibility (1/GPa) = 0.02370247
#
# Stress axis : x y z
#
# Youngs Moduli (GPa) = 46.66597 80.72080 44.25917
#
# Poissons Ratio (x) = -0.06393 0.47490
# Poissons Ratio (y) = -0.03696 0.28399
# Poissons Ratio (z) = 0.50073 0.51794
#
# Static dielectric constant tensor:
#      x y z
#    x 3.665850 0.000000 0.000000 
#    y 0.000000 4.095170 0.000000 
#    z 0.000000 0.000000 3.563600 
# 
# 
# High freq. dielectric constant tensor:
#      x y z
#    x 1.783320 0.000000 0.000000 
#    y 0.000000 1.785350 0.000000 
#    z 0.000000 0.000000 1.779570 
# 
# From -- ./inp_files/6470.got.cif
#   From: 2010.06.25/outbox.cif.g09.slc.cpg/sg58_4_cif.got.tgz:6470.got - 2010.06.26 21:38:00.
