data_PCOD8238546
_publ_section_title
;
Structure prediction by ZEFSAII (Michael W. Deem and Ramdas Pophale) SiO2 
 PCOD8238546
Probable space group: P N N M
;
_chemical_formula_sum "Si O2"
_cell_formula_units_Z 40
_cell_length_a 19.832941
_cell_length_b 9.194566
_cell_length_c 10.283487
_cell_angle_alpha 90.000000
_cell_angle_beta 90.000000
_cell_angle_gamma 90.000000
_cell_volume 1875.248203
_symmetry_space_group_name_H-M "P N N M"
_symmetry_group_IT_number 58
_symmetry_cell_setting 'orthorhombic'
loop_
_space_group_symop_operation_xyz
x,y,z
-x,-y,z
1/2+x,1/2-y,1/2-z
1/2-x,1/2+y,1/2-z
-x,-y,-z
x,y,-z
1/2-x,1/2+y,1/2+z
1/2+x,1/2-y,1/2+z
loop_
_atom_site_type_symbol
_atom_site_label
_atom_site_fract_x
_atom_site_fract_y
_atom_site_fract_z
Si Si1 0.042770 0.644227 0.500000
Si Si2 0.313150 0.703834 0.500000
Si Si3 0.179295 0.705752 0.852266
Si Si4 0.538640 0.350780 0.500000
Si Si5 0.778362 0.596877 0.766748
Si Si6 0.474056 0.164275 0.281554
Si Si7 0.316429 0.998668 0.000000
O O1 0.024197 0.728342 0.366350
O O2 0.122207 0.610919 0.500000
O O3 0.000000 0.500000 0.500000
O O4 0.382247 0.612561 0.500000
O O5 0.315234 0.805474 0.626824
O O6 0.251803 0.592826 0.500000
O O7 0.226764 0.567958 0.817507
O O8 0.203254 0.839951 0.761439
O O9 0.102116 0.665353 0.832242
O O10 0.192224 0.752202 0.000000
O O11 0.500000 0.500000 0.500000
O O12 0.520799 0.262347 0.370671
O O13 0.820155 0.600061 0.630117
O O14 0.500000 0.000000 0.287918
#
# Coordination Sequence:
#
# PCOD8238546 Si02
#       7
#     4   4   8   4   8   8   4
#     4  10  22  40  72 102 130 165 226 288 330 402
#     4  12  26  44  66  98 141 177 234 278 338 423
#     4  12  24  40  68 100 137 174 225 284 337 410
#     4  12  29  43  67 101 139 185 225 289 350 399
#     4  12  24  40  68  98 134 175 224 278 345 400
#     4  11  23  44  71 100 129 180 234 278 336 411
#     4  12  24  43  66 103 135 178 221 283 346 406
#
# _framework density 21.330507999999998
#
# number of rings (size 3 to 8) (size 9 to 14) (size 15 to 20)
#    0.000    0.400    7.000    1.500    5.600    0.000 
#    0.000    0.500    0.000    0.000    0.000    0.000 
#    0.000    0.000    0.000    0.000    0.000    0.000 
#
# Total GULP energy -495947.849698 kJ/mol
# GULP energy per Si atom -12398.696242 kJ/mol
# Density = 2.128196 g / cm^3
# Si number density = 21.330508 Si / 1000 Ang^3
#
#
#
# Elastic Constant Matrix: (Units=GPa)
#
#
# Indices 1 2 3 4 5 6 
#
# 1 123.8050 30.7130 34.9026 0.0000 0.0000 0.0000
# 2 30.7130 57.1712 29.6524 0.0000 0.0000 0.0000
# 3 34.9026 29.6524 184.7238 0.0000 0.0000 0.0000
# 4 0.0000 0.0000 0.0000 15.6820 0.0000 0.0000
# 5 0.0000 0.0000 0.0000 0.0000 18.8175 0.0000
# 6 0.0000 0.0000 0.0000 0.0000 0.0000 30.5022
#
#
#
# Elastic Compliance Matrix: (Units=1/GPa)
#
#
# Indices 1 2 3 4 5 6 
#
# 1 0.009508 -0.004555 -0.001065 0.000000 0.000000 0.000000
# 2 -0.004555 0.021262 -0.002552 0.000000 0.000000 0.000000
# 3 -0.001065 -0.002552 0.006024 0.000000 0.000000 0.000000
# 4 0.000000 0.000000 0.000000 0.063767 0.000000 0.000000
# 5 0.000000 0.000000 0.000000 0.000000 0.053142 0.000000
# 6 0.000000 0.000000 0.000000 0.000000 0.000000 0.032785
#
#
# Mechanical properties :
#
#
# Convention : Reuss Voigt Hill
#
# Bulk Modulus (GPa) = 48.90261 61.80402 55.35331
# Shear Modulus (GPa) = 23.84930 31.02913 27.43922
#
# Velocity S-wave (km/s) = 3.34740 3.81817 3.59051
# Velocity P-wave (km/s) = 6.15760 6.96242 6.57234
#
# Compressibility (1/GPa) = 0.02044881
#
# Stress axis : x y z
#
# Youngs Moduli (GPa) = 105.17991 47.03184 165.98965
#
# Poissons Ratio (x) = 0.21423 0.17681
# Poissons Ratio (y) = 0.47910 0.42367
# Poissons Ratio (z) = 0.11204 0.12004
#
# Static dielectric constant tensor:
#      x y z
#    x 2.033540 0.000000 0.000000 
#    y 0.000000 3.456870 0.000000 
#    z 0.000000 0.000000 4.750040 
# 
# 
# High freq. dielectric constant tensor:
#      x y z
#    x 1.834250 0.000000 0.000000 
#    y 0.000000 1.810470 0.000000 
#    z 0.000000 0.000000 1.869500 
# 
# From -- ./inp_files/16922.got.cif
#   From: 2010.06.25/outbox.cif.g09.slc.cpg/sg58_9_cif.got.tgz:16922.got - 2010.06.26 21:38:00.
