data_PCOD8238306
_publ_section_title
;
Structure prediction by ZEFSAII (Michael W. Deem and Ramdas Pophale) SiO2 
 PCOD8238306
Probable space group: P N N M
;
_chemical_formula_sum "Si O2"
_cell_formula_units_Z 48
_cell_length_a 27.605725
_cell_length_b 10.049623
_cell_length_c 8.360359
_cell_angle_alpha 90.000000
_cell_angle_beta 90.000000
_cell_angle_gamma 90.000000
_cell_volume 2319.390394
_symmetry_space_group_name_H-M "P N N M"
_symmetry_group_IT_number 58
_symmetry_cell_setting 'orthorhombic'
loop_
_space_group_symop_operation_xyz
x,y,z
-x,-y,z
1/2+x,1/2-y,1/2-z
1/2-x,1/2+y,1/2-z
-x,-y,-z
x,y,-z
1/2-x,1/2+y,1/2+z
1/2+x,1/2-y,1/2+z
loop_
_atom_site_type_symbol
_atom_site_label
_atom_site_fract_x
_atom_site_fract_y
_atom_site_fract_z
Si Si1 0.320095 0.240929 0.686250
Si Si2 0.461566 0.607425 0.310095
Si Si3 0.460930 0.895995 0.810873
Si Si4 0.214399 0.251151 0.813415
Si Si5 0.645830 0.030969 0.813678
Si Si6 0.857199 0.976652 0.810127
O O1 0.331228 0.218946 0.500000
O O2 0.262833 0.249697 0.710733
O O3 0.343883 0.376873 0.751731
O O4 0.344562 0.124412 0.787655
O O5 0.500000 0.500000 0.246716
O O6 0.460844 0.612337 0.500000
O O7 0.476994 0.750605 0.245103
O O8 0.409215 0.566194 0.240462
O O9 0.407357 0.932060 0.746453
O O10 0.500000 0.000000 0.739830
O O11 0.460944 0.903884 0.000000
O O12 0.185682 0.387815 0.785428
O O13 0.182468 0.128321 0.748810
O O14 0.227099 0.236778 0.000000
O O15 0.650770 0.065959 0.000000
O O16 0.858361 0.974234 0.000000
#
# Coordination Sequence:
#
# PCOD8238306 Si02
#       6
#     8   8   8   8   8   8
#     4  11  23  38  60  90 123 159 199 247 301 360
#     4  10  21  39  64  91 117 150 195 245 300 362
#     4  10  23  42  62  87 122 160 199 247 301 357
#     4  11  21  39  64  88 119 159 201 250 304 359
#     4  11  23  40  60  87 123 162 204 249 296 356
#     4   9  20  38  58  85 120 152 190 244 298 348
#
# _framework density 20.695094999999998
#
# number of rings (size 3 to 8) (size 9 to 14) (size 15 to 20)
#    0.000    1.667    1.667    2.500    2.333    2.667 
#    0.000    4.167    0.000    0.000    0.000    0.000 
#    0.000    0.000    0.000    0.000    0.000    0.000 
#
# Total GULP energy -595461.546213 kJ/mol
# GULP energy per Si atom -12405.448879 kJ/mol
# Density = 2.064799 g / cm^3
# Si number density = 20.695095 Si / 1000 Ang^3
#
#
#
# Elastic Constant Matrix: (Units=GPa)
#
#
# Indices 1 2 3 4 5 6 
#
# 1 117.1587 58.0613 4.5475 0.0000 0.0000 0.0000
# 2 58.0613 164.8613 -0.9380 0.0000 0.0000 0.0000
# 3 4.5475 -0.9380 20.7464 0.0000 0.0000 0.0000
# 4 0.0000 0.0000 0.0000 30.9677 0.0000 0.0000
# 5 0.0000 0.0000 0.0000 0.0000 15.4141 0.0000
# 6 0.0000 0.0000 0.0000 0.0000 0.0000 41.9480
#
#
#
# Elastic Compliance Matrix: (Units=1/GPa)
#
#
# Indices 1 2 3 4 5 6 
#
# 1 0.010464 -0.003699 -0.002461 0.000000 0.000000 0.000000
# 2 -0.003699 0.007375 0.001144 0.000000 0.000000 0.000000
# 3 -0.002461 0.001144 0.048792 0.000000 0.000000 0.000000
# 4 0.000000 0.000000 0.000000 0.032292 0.000000 0.000000
# 5 0.000000 0.000000 0.000000 0.000000 0.064876 0.000000
# 6 0.000000 0.000000 0.000000 0.000000 0.000000 0.023839
#
#
# Mechanical properties :
#
#
# Convention : Reuss Voigt Hill
#
# Bulk Modulus (GPa) = 17.66797 47.34533 32.50665
# Shear Modulus (GPa) = 23.09080 33.73900 28.41490
#
# Velocity S-wave (km/s) = 3.34393 4.04207 3.70946
# Velocity P-wave (km/s) = 4.84406 6.68667 5.83852
#
# Compressibility (1/GPa) = 0.05659959
#
# Stress axis : x y z
#
# Youngs Moduli (GPa) = 95.56341 135.59221 20.49507
#
# Poissons Ratio (x) = 0.50160 0.05044
# Poissons Ratio (y) = 0.35352 -0.02345
# Poissons Ratio (z) = 0.23518 -0.15516
#
# Static dielectric constant tensor:
#      x y z
#    x 4.012490 0.000000 0.000000 
#    y 0.000000 3.909270 0.000000 
#    z 0.000000 0.000000 3.389840 
# 
# 
# High freq. dielectric constant tensor:
#      x y z
#    x 1.819410 0.000000 0.000000 
#    y 0.000000 1.825280 0.000000 
#    z 0.000000 0.000000 1.786990 
# 
# From -- ./inp_files/10745.got.cif
#   From: 2010.06.25/outbox.cif.g09.slc.cpg/sg58_6_cif.got.tgz:10745.got - 2010.06.26 21:38:00.
