data_PCOD8238327
_publ_section_title
;
Structure prediction by ZEFSAII (Michael W. Deem and Ramdas Pophale) SiO2 
 PCOD8238327
Probable space group: P N N M
;
_chemical_formula_sum "Si O2"
_cell_formula_units_Z 64
_cell_length_a 30.655745
_cell_length_b 11.962120
_cell_length_c 8.644325
_cell_angle_alpha 90.000000
_cell_angle_beta 90.000000
_cell_angle_gamma 90.000000
_cell_volume 3169.940542
_symmetry_space_group_name_H-M "P N N M"
_symmetry_group_IT_number 58
_symmetry_cell_setting 'orthorhombic'
loop_
_space_group_symop_operation_xyz
x,y,z
-x,-y,z
1/2+x,1/2-y,1/2-z
1/2-x,1/2+y,1/2-z
-x,-y,-z
x,y,-z
1/2-x,1/2+y,1/2+z
1/2+x,1/2-y,1/2+z
loop_
_atom_site_type_symbol
_atom_site_label
_atom_site_fract_x
_atom_site_fract_y
_atom_site_fract_z
Si Si1 0.380531 0.163873 0.319173
Si Si2 0.663736 0.235607 0.821028
Si Si3 0.075346 0.272376 0.178536
Si Si4 0.694826 0.007967 0.317158
Si Si5 0.049804 0.501994 0.681206
Si Si6 0.954425 0.942797 0.319676
Si Si7 0.209262 0.043102 0.680200
Si Si8 0.373502 0.408821 0.183590
O O1 0.383568 0.185265 0.500000
O O2 0.337471 0.093397 0.275587
O O3 0.377254 0.281937 0.235993
O O4 0.424176 0.100003 0.267005
O O5 0.623572 0.272652 0.714053
O O6 0.701014 0.326383 0.786489
O O7 0.680083 0.114293 0.778108
O O8 0.649400 0.239821 0.000000
O O9 0.070195 0.382657 0.280810
O O10 0.042638 0.174409 0.228477
O O11 0.068964 0.303473 0.000000
O O12 0.693507 0.033077 0.500000
O O13 0.743023 0.982101 0.251655
O O14 0.052805 0.525907 0.500000
O O15 0.000000 0.500000 0.739747
O O16 0.948076 0.916524 0.500000
O O17 0.915295 0.020945 0.256603
O O18 0.000000 0.000000 0.284232
O O19 0.210776 0.018099 0.500000
O O20 0.170973 0.964704 0.751572
O O21 0.373152 0.412526 0.000000
#
# Coordination Sequence:
#
# PCOD8238327 Si02
#       8
#     8   8   8   8   8   8   8   8
#     4  11  24  40  60  89 129 163 195 248 309 366
#     4  11  21  39  66  90 117 161 210 253 299 362
#     4  12  24  40  64  93 126 159 198 257 314 363
#     4  10  22  40  60  88 124 161 199 251 311 359
#     4  11  25  44  67  91 118 159 208 251 296 362
#     4  10  22  41  65  91 121 162 211 256 299 359
#     4   9  20  39  62  87 120 160 205 254 301 355
#     4  10  21  40  62  86 120 164 209 252 300 358
#
# _framework density 20.189653
#
# number of rings (size 3 to 8) (size 9 to 14) (size 15 to 20)
#    0.000    1.500    2.500    2.250    3.500    2.250 
#    0.000    1.250    0.000    0.000    0.000    0.000 
#    0.000    0.000    0.000    0.000    0.000    0.000 
#
# Total GULP energy -793725.550248 kJ/mol
# GULP energy per Si atom -12401.961723 kJ/mol
# Density = 2.014370 g / cm^3
# Si number density = 20.189653 Si / 1000 Ang^3
#
#
#
# Elastic Constant Matrix: (Units=GPa)
#
#
# Indices 1 2 3 4 5 6 
#
# 1 115.1855 19.5241 17.8072 0.0000 0.0000 0.0000
# 2 19.5241 102.4848 9.0948 0.0000 0.0000 0.0000
# 3 17.8072 9.0948 22.0153 0.0000 0.0000 0.0000
# 4 0.0000 0.0000 0.0000 12.8023 0.0000 0.0000
# 5 0.0000 0.0000 0.0000 0.0000 20.0923 0.0000
# 6 0.0000 0.0000 0.0000 0.0000 0.0000 29.1700
#
#
#
# Elastic Compliance Matrix: (Units=1/GPa)
#
#
# Indices 1 2 3 4 5 6 
#
# 1 0.010072 -0.001241 -0.007634 0.000000 0.000000 0.000000
# 2 -0.001241 0.010282 -0.003243 0.000000 0.000000 0.000000
# 3 -0.007634 -0.003243 0.052938 0.000000 0.000000 0.000000
# 4 0.000000 0.000000 0.000000 0.078111 0.000000 0.000000
# 5 0.000000 0.000000 0.000000 0.000000 0.049770 0.000000
# 6 0.000000 0.000000 0.000000 0.000000 0.000000 0.034282
#
#
# Mechanical properties :
#
#
# Convention : Reuss Voigt Hill
#
# Bulk Modulus (GPa) = 20.38577 36.94865 28.66721
# Shear Modulus (GPa) = 18.11306 25.29690 21.70498
#
# Velocity S-wave (km/s) = 2.99849 3.54356 3.28236
# Velocity P-wave (km/s) = 4.70180 5.92309 5.34743
#
# Compressibility (1/GPa) = 0.04905382
#
# Stress axis : x y z
#
# Youngs Moduli (GPa) = 99.28241 97.25856 18.89012
#
# Poissons Ratio (x) = 0.12073 0.14421
# Poissons Ratio (y) = 0.12325 0.06127
# Poissons Ratio (z) = 0.75794 0.31546
#
# Static dielectric constant tensor:
#      x y z
#    x 4.324520 0.000000 0.000000 
#    y 0.000000 3.665070 0.000000 
#    z 0.000000 0.000000 3.440760 
# 
# 
# High freq. dielectric constant tensor:
#      x y z
#    x 1.800270 0.000000 0.000000 
#    y 0.000000 1.800380 0.000000 
#    z 0.000000 0.000000 1.769940 
# 
# From -- ./inp_files/11064.got.cif
#   From: 2010.06.25/outbox.cif.g09.slc.cpg/sg58_6_cif.got.tgz:11064.got - 2010.06.26 21:38:00.
