data_PCOD8238147
_publ_section_title
;
Structure prediction by ZEFSAII (Michael W. Deem and Ramdas Pophale) SiO2 
 PCOD8238147
Probable space group: P N N M
;
_chemical_formula_sum "Si O2"
_cell_formula_units_Z 48
_cell_length_a 22.786321
_cell_length_b 11.787740
_cell_length_c 8.880842
_cell_angle_alpha 90.000000
_cell_angle_beta 90.000000
_cell_angle_gamma 90.000000
_cell_volume 2385.387301
_symmetry_space_group_name_H-M "P N N M"
_symmetry_group_IT_number 58
_symmetry_cell_setting 'orthorhombic'
loop_
_space_group_symop_operation_xyz
x,y,z
-x,-y,z
1/2+x,1/2-y,1/2-z
1/2-x,1/2+y,1/2-z
-x,-y,-z
x,y,-z
1/2-x,1/2+y,1/2+z
1/2+x,1/2-y,1/2+z
loop_
_atom_site_type_symbol
_atom_site_label
_atom_site_fract_x
_atom_site_fract_y
_atom_site_fract_z
Si Si1 0.548974 0.920748 0.832815
Si Si2 0.566370 0.498761 0.321534
Si Si3 0.661455 0.074026 0.831869
Si Si4 0.885704 0.234767 0.177264
Si Si5 0.224608 0.618881 0.821400
Si Si6 0.654906 0.305581 0.321748
O O1 0.559311 0.808612 0.735471
O O2 0.500000 0.000000 0.754213
O O3 0.608242 0.989424 0.844687
O O4 0.527360 0.884933 0.000000
O O5 0.500000 0.500000 0.254259
O O6 0.562291 0.504483 0.500000
O O7 0.604005 0.607014 0.262095
O O8 0.600863 0.385677 0.271044
O O9 0.640341 0.178968 0.730899
O O10 0.713539 0.004997 0.750654
O O11 0.681913 0.112635 0.000000
O O12 0.823502 0.286885 0.232056
O O13 0.888512 0.237896 0.000000
O O14 0.286928 0.658529 0.764254
O O15 0.223901 0.605766 0.000000
O O16 0.665217 0.311112 0.500000
#
# Coordination Sequence:
#
# PCOD8238147 Si02
#       6
#     8   8   8   8   8   8
#     4   9  19  35  56  82 113 149 185 232 292 342
#     4   9  20  38  58  84 118 156 196 239 291 350
#     4  10  21  38  58  82 117 152 191 241 292 346
#     4   9  19  36  59  84 111 148 192 239 287 342
#     4  10  21  38  60  88 117 149 195 243 297 356
#     4  11  23  37  60  89 118 153 194 240 296 355
#
# _framework density 20.122517999999999
#
# number of rings (size 3 to 8) (size 9 to 14) (size 15 to 20)
#    0.000    2.333    0.000    1.500    4.667    1.667 
#    0.000    1.667    0.000    2.500    0.000    0.000 
#    0.000    0.000    0.000    0.000    0.000    0.000 
#
# Total GULP energy -595073.775353 kJ/mol
# GULP energy per Si atom -12397.370320 kJ/mol
# Density = 2.007672 g / cm^3
# Si number density = 20.122518 Si / 1000 Ang^3
#
#
#
# Elastic Constant Matrix: (Units=GPa)
#
#
# Indices 1 2 3 4 5 6 
#
# 1 78.1819 29.0471 25.6821 0.0000 0.0000 0.0000
# 2 29.0471 117.8737 18.4776 0.0000 0.0000 0.0000
# 3 25.6821 18.4776 32.3224 0.0000 0.0000 0.0000
# 4 0.0000 0.0000 0.0000 27.3128 0.0000 0.0000
# 5 0.0000 0.0000 0.0000 0.0000 26.0386 0.0000
# 6 0.0000 0.0000 0.0000 0.0000 0.0000 14.4515
#
#
#
# Elastic Compliance Matrix: (Units=1/GPa)
#
#
# Indices 1 2 3 4 5 6 
#
# 1 0.017904 -0.002397 -0.012856 0.000000 0.000000 0.000000
# 2 -0.002397 0.009640 -0.003606 0.000000 0.000000 0.000000
# 3 -0.012856 -0.003606 0.043215 0.000000 0.000000 0.000000
# 4 0.000000 0.000000 0.000000 0.036613 0.000000 0.000000
# 5 0.000000 0.000000 0.000000 0.000000 0.038405 0.000000
# 6 0.000000 0.000000 0.000000 0.000000 0.000000 0.069197
#
#
# Mechanical properties :
#
#
# Convention : Reuss Voigt Hill
#
# Bulk Modulus (GPa) = 30.26570 41.64353 35.95462
# Shear Modulus (GPa) = 18.96064 23.90532 21.43298
#
# Velocity S-wave (km/s) = 3.07296 3.45046 3.26716
# Velocity P-wave (km/s) = 5.25967 6.05096 5.66914
#
# Compressibility (1/GPa) = 0.03304070
#
# Stress axis : x y z
#
# Youngs Moduli (GPa) = 55.85279 103.73886 23.14033
#
# Poissons Ratio (x) = 0.24864 0.29749
# Poissons Ratio (y) = 0.13387 0.08345
# Poissons Ratio (z) = 0.71803 0.37410
#
# Static dielectric constant tensor:
#      x y z
#    x 3.718260 0.000000 0.000000 
#    y 0.000000 4.051240 0.000000 
#    z 0.000000 0.000000 3.813870 
# 
# 
# High freq. dielectric constant tensor:
#      x y z
#    x 1.785160 0.000000 0.000000 
#    y 0.000000 1.793000 0.000000 
#    z 0.000000 0.000000 1.767700 
# 
# From -- ./inp_files/4222.got.cif
#   From: 2010.06.25/outbox.cif.g09.slc.cpg/sg58_3_cif.got.tgz:4222.got - 2010.06.26 21:38:00.
