data_PCOD8238845
_publ_section_title
;
Structure prediction by ZEFSAII (Michael W. Deem and Ramdas Pophale) SiO2 
 PCOD8238845
Probable space group: P N N M
;
_chemical_formula_sum "Si O2"
_cell_formula_units_Z 40
_cell_length_a 11.710884
_cell_length_b 9.817971
_cell_length_c 18.377652
_cell_angle_alpha 90.000000
_cell_angle_beta 90.000000
_cell_angle_gamma 90.000000
_cell_volume 2113.009490
_symmetry_space_group_name_H-M "P N N M"
_symmetry_group_IT_number 58
_symmetry_cell_setting 'orthorhombic'
loop_
_space_group_symop_operation_xyz
x,y,z
-x,-y,z
1/2+x,1/2-y,1/2-z
1/2-x,1/2+y,1/2-z
-x,-y,-z
x,y,-z
1/2-x,1/2+y,1/2+z
1/2+x,1/2-y,1/2+z
loop_
_atom_site_type_symbol
_atom_site_label
_atom_site_fract_x
_atom_site_fract_y
_atom_site_fract_z
Si Si1 0.939609 0.362285 0.225154
Si Si2 0.910837 0.887670 0.208523
Si Si3 0.942284 0.354463 0.500000
Si Si4 0.779354 0.962153 0.647514
Si Si5 0.302359 0.220768 0.140419
Si Si6 0.897995 0.892107 0.500000
O O1 0.842066 0.392804 0.165557
O O2 0.891881 0.285524 0.294803
O O3 0.000000 0.500000 0.250597
O O4 0.034668 0.260195 0.195426
O O5 0.872295 0.922432 0.291032
O O6 0.800319 0.885019 0.156498
O O7 0.000000 0.000000 0.180613
O O8 0.861186 0.329801 0.432027
O O9 0.000000 0.500000 0.500000
O O10 0.049646 0.256243 0.500000
O O11 0.820429 0.904175 0.570975
O O12 0.761580 0.123289 0.637907
O O13 0.000000 0.000000 0.500000
#
# Coordination Sequence:
#
# PCOD8238845 Si02
#       6
#     8   8   4   8   8   4
#     4  11  22  37  59  89 122 155 202 252 297 353
#     4  11  22  38  62  89 124 159 201 250 302 351
#     4  12  26  42  62  94 124 155 200 255 316 356
#     4  11  22  38  63  94 117 160 209 242 303 365
#     4  11  22  39  63  90 122 159 204 250 298 369
#     4  12  22  40  68  85 120 157 199 253 301 363
#
# _framework density 18.930347000000001
#
# number of rings (size 3 to 8) (size 9 to 14) (size 15 to 20)
#    0.000    0.800    6.000    2.400    0.000    1.600 
#    0.000    2.000    0.000    0.000    0.000    0.000 
#    0.000    0.000    0.000    0.000    0.000    0.000 
#
# Total GULP energy -496044.399314 kJ/mol
# GULP energy per Si atom -12401.109983 kJ/mol
# Density = 1.888726 g / cm^3
# Si number density = 18.930347 Si / 1000 Ang^3
#
#
#
# Elastic Constant Matrix: (Units=GPa)
#
#
# Indices 1 2 3 4 5 6 
#
# 1 89.0160 30.3764 53.0393 0.0000 0.0000 0.0000
# 2 30.3764 119.7092 35.9376 0.0000 0.0000 0.0000
# 3 53.0393 35.9376 134.4090 0.0000 0.0000 0.0000
# 4 0.0000 0.0000 0.0000 34.3481 0.0000 0.0000
# 5 0.0000 0.0000 0.0000 0.0000 90.8531 0.0000
# 6 0.0000 0.0000 0.0000 0.0000 0.0000 44.7361
#
#
#
# Elastic Compliance Matrix: (Units=1/GPa)
#
#
# Indices 1 2 3 4 5 6 
#
# 1 0.015220 -0.002239 -0.005407 0.000000 0.000000 0.000000
# 2 -0.002239 0.009412 -0.001633 0.000000 0.000000 0.000000
# 3 -0.005407 -0.001633 0.010010 0.000000 0.000000 0.000000
# 4 0.000000 0.000000 0.000000 0.029114 0.000000 0.000000
# 5 0.000000 0.000000 0.000000 0.000000 0.011007 0.000000
# 6 0.000000 0.000000 0.000000 0.000000 0.000000 0.022353
#
#
# Mechanical properties :
#
#
# Convention : Reuss Voigt Hill
#
# Bulk Modulus (GPa) = 62.17411 64.64896 63.41154
# Shear Modulus (GPa) = 41.31023 48.90620 45.10822
#
# Velocity S-wave (km/s) = 4.67649 5.08831 4.88674
# Velocity P-wave (km/s) = 7.87873 8.29134 8.08767
#
# Compressibility (1/GPa) = 0.01608386
#
# Stress axis : x y z
#
# Youngs Moduli (GPa) = 65.70395 106.24825 99.89605
#
# Poissons Ratio (x) = 0.23786 0.54017
# Poissons Ratio (y) = 0.14709 0.16314
# Poissons Ratio (z) = 0.35528 0.17351
#
# Static dielectric constant tensor:
#      x y z
#    x 3.571290 0.000000 0.000000 
#    y 0.000000 3.577060 0.000000 
#    z 0.000000 0.000000 3.272160 
# 
# 
# High freq. dielectric constant tensor:
#      x y z
#    x 1.751400 0.000000 0.000000 
#    y 0.000000 1.749480 0.000000 
#    z 0.000000 0.000000 1.718970 
# 
# From -- ./inp_files/24989.got.cif
#   From: 2010.06.25/outbox.cif.g09.slc.cpg/sg58_13_cif.got.tgz:24989.got - 2010.06.26 21:38:00.
