data_PCOD8238232
_publ_section_title
;
Structure prediction by ZEFSAII (Michael W. Deem and Ramdas Pophale) SiO2 
 PCOD8238232
Probable space group: P N N M
;
_chemical_formula_sum "Si O2"
_cell_formula_units_Z 48
_cell_length_a 8.679712
_cell_length_b 18.085905
_cell_length_c 13.573651
_cell_angle_alpha 90.000000
_cell_angle_beta 90.000000
_cell_angle_gamma 90.000000
_cell_volume 2130.797797
_symmetry_space_group_name_H-M "P N N M"
_symmetry_group_IT_number 58
_symmetry_cell_setting 'orthorhombic'
loop_
_space_group_symop_operation_xyz
x,y,z
-x,-y,z
1/2+x,1/2-y,1/2-z
1/2-x,1/2+y,1/2-z
-x,-y,-z
x,y,-z
1/2-x,1/2+y,1/2+z
1/2+x,1/2-y,1/2+z
loop_
_atom_site_type_symbol
_atom_site_label
_atom_site_fract_x
_atom_site_fract_y
_atom_site_fract_z
Si Si1 0.331528 0.031619 0.887124
Si Si2 0.237310 0.260539 0.390585
Si Si3 0.919370 0.723978 0.895085
Si Si4 0.181812 0.903244 0.208483
Si Si5 0.836442 0.848513 0.233342
Si Si6 0.875330 0.560671 0.113465
O O1 0.294262 0.097340 0.809592
O O2 0.500000 0.000000 0.861206
O O3 0.207028 0.965815 0.874501
O O4 0.322424 0.060465 0.000000
O O5 0.160801 0.268045 0.500000
O O6 0.419238 0.264581 0.403050
O O7 0.208197 0.333162 0.321826
O O8 0.185510 0.180591 0.345586
O O9 0.812351 0.769934 0.821894
O O10 0.953210 0.639709 0.866638
O O11 0.832538 0.726041 0.000000
O O12 0.230114 0.940982 0.312852
O O13 0.002351 0.884897 0.218378
O O14 0.000000 0.500000 0.144537
O O15 0.821627 0.548739 0.000000
#
# Coordination Sequence:
#
# PCOD8238232 Si02
#       6
#     8   8   8   8   8   8
#     4  11  26  45  68  97 129 169 220 278 340 409
#     4  10  22  39  62  93 131 176 219 271 330 394
#     4   9  19  38  62  90 124 169 222 268 326 393
#     4  11  23  41  65  96 135 174 223 274 338 404
#     4  11  23  40  67  98 133 174 216 281 337 399
#     4  10  21  38  63  94 132 178 228 280 334 402
#
# _framework density 22.526774
#
# number of rings (size 3 to 8) (size 9 to 14) (size 15 to 20)
#    0.000    1.667    1.667    2.000    4.667    3.333 
#    0.000    0.000    0.000    2.500    0.000    0.000 
#    0.000    0.000    0.000    0.000    0.000    0.000 
#
# Total GULP energy -594659.176415 kJ/mol
# GULP energy per Si atom -12388.732842 kJ/mol
# Density = 2.247550 g / cm^3
# Si number density = 22.526774 Si / 1000 Ang^3
#
#
#
# Elastic Constant Matrix: (Units=GPa)
#
#
# Indices 1 2 3 4 5 6 
#
# 1 66.9672 33.9551 45.1198 0.0000 0.0000 0.0000
# 2 33.9551 135.1032 55.6422 0.0000 0.0000 0.0000
# 3 45.1198 55.6422 134.1322 0.0000 0.0000 0.0000
# 4 0.0000 0.0000 0.0000 41.6052 0.0000 0.0000
# 5 0.0000 0.0000 0.0000 0.0000 23.1987 0.0000
# 6 0.0000 0.0000 0.0000 0.0000 0.0000 33.2394
#
#
#
# Elastic Compliance Matrix: (Units=1/GPa)
#
#
# Indices 1 2 3 4 5 6 
#
# 1 0.020114 -0.002736 -0.005631 0.000000 0.000000 0.000000
# 2 -0.002736 0.009299 -0.002937 0.000000 0.000000 0.000000
# 3 -0.005631 -0.002937 0.010568 0.000000 0.000000 0.000000
# 4 0.000000 0.000000 0.000000 0.024035 0.000000 0.000000
# 5 0.000000 0.000000 0.000000 0.000000 0.043106 0.000000
# 6 0.000000 0.000000 0.000000 0.000000 0.000000 0.030085
#
#
# Mechanical properties :
#
#
# Convention : Reuss Voigt Hill
#
# Bulk Modulus (GPa) = 57.56230 67.29297 62.42764
# Shear Modulus (GPa) = 30.19208 33.04101 31.61655
#
# Velocity S-wave (km/s) = 3.66495 3.83396 3.75041
# Velocity P-wave (km/s) = 6.59678 7.03821 6.82106
#
# Compressibility (1/GPa) = 0.01737248
#
# Stress axis : x y z
#
# Youngs Moduli (GPa) = 49.71681 107.53762 94.62591
#
# Poissons Ratio (x) = 0.29423 0.53284
# Poissons Ratio (y) = 0.13603 0.27793
# Poissons Ratio (z) = 0.27995 0.31586
#
# Static dielectric constant tensor:
#      x y z
#    x 3.533980 0.000000 0.000000 
#    y 0.000000 4.226120 0.000000 
#    z 0.000000 0.000000 4.381950 
# 
# 
# High freq. dielectric constant tensor:
#      x y z
#    x 1.847310 0.000000 0.000000 
#    y 0.000000 1.901690 0.000000 
#    z 0.000000 0.000000 1.901500 
# 
# From -- ./inp_files/19841.got.cif
#   From: 2010.06.25/outbox.cif.g09.slc.cpg/sg58_10_cif.got.tgz:19841.got - 2010.06.26 21:38:00.
