data_PCOD8238930
_publ_section_title
;
Structure prediction by ZEFSAII (Michael W. Deem and Ramdas Pophale) SiO2 
 PCOD8238930
Probable space group: P N N M
;
_chemical_formula_sum "Si O2"
_cell_formula_units_Z 48
_cell_length_a 6.836627
_cell_length_b 19.009931
_cell_length_c 18.967692
_cell_angle_alpha 90.000000
_cell_angle_beta 90.000000
_cell_angle_gamma 90.000000
_cell_volume 2465.113473
_symmetry_space_group_name_H-M "P N N M"
_symmetry_group_IT_number 58
_symmetry_cell_setting 'orthorhombic'
loop_
_space_group_symop_operation_xyz
x,y,z
-x,-y,z
1/2+x,1/2-y,1/2-z
1/2-x,1/2+y,1/2-z
-x,-y,-z
x,y,-z
1/2-x,1/2+y,1/2+z
1/2+x,1/2-y,1/2+z
loop_
_atom_site_type_symbol
_atom_site_label
_atom_site_fract_x
_atom_site_fract_y
_atom_site_fract_z
Si Si1 0.452254 0.077144 0.309611
Si Si2 0.194052 0.171657 0.918296
Si Si3 0.092315 0.699898 0.080656
Si Si4 0.771446 0.165567 0.251417
Si Si5 0.897736 0.925206 0.800939
Si Si6 0.474212 0.745745 0.145012
O O1 0.458128 0.132139 0.373049
O O2 0.630755 0.098585 0.259683
O O3 0.254021 0.078034 0.263926
O O4 0.500000 0.000000 0.339918
O O5 0.185918 0.096994 0.876937
O O6 0.413179 0.196664 0.900767
O O7 0.032403 0.231175 0.896756
O O8 0.172149 0.153426 0.000000
O O9 0.324106 0.710726 0.090746
O O10 0.047333 0.680742 0.000000
O O11 0.650964 0.226114 0.211480
O O12 0.950935 0.138186 0.206699
O O13 0.857961 0.193761 0.325491
O O14 0.000000 0.000000 0.804413
#
# Coordination Sequence:
#
# PCOD8238930 Si02
#       6
#     8   8   8   8   8   8
#     4  12  24  41  65  92 127 166 210 260 316 373
#     4  11  24  41  63  94 130 168 209 257 316 381
#     4  11  24  41  63  94 130 168 209 257 316 381
#     4  12  22  36  64  98 124 158 210 268 312 362
#     4  12  24  41  65  92 127 166 210 260 316 373
#     4  12  21  38  66  96 125 164 210 268 315 368
#
# _framework density 19.471720999999999
#
# number of rings (size 3 to 8) (size 9 to 14) (size 15 to 20)
#    0.000    0.333    8.333    2.500    0.000    0.667 
#    0.000    0.000    0.000    3.000    0.000    0.000 
#    0.000    0.000    0.000    0.000    0.000    0.000 
#
# Total GULP energy -594929.687400 kJ/mol
# GULP energy per Si atom -12394.368488 kJ/mol
# Density = 1.942740 g / cm^3
# Si number density = 19.471721 Si / 1000 Ang^3
#
#
#
# Elastic Constant Matrix: (Units=GPa)
#
#
# Indices 1 2 3 4 5 6 
#
# 1 91.4937 24.8505 23.5218 0.0000 0.0000 0.0000
# 2 24.8505 86.4356 48.0185 0.0000 0.0000 0.0000
# 3 23.5218 48.0185 95.3411 0.0000 0.0000 0.0000
# 4 0.0000 0.0000 0.0000 12.2746 0.0000 0.0000
# 5 0.0000 0.0000 0.0000 0.0000 26.0719 0.0000
# 6 0.0000 0.0000 0.0000 0.0000 0.0000 36.2305
#
#
#
# Elastic Compliance Matrix: (Units=1/GPa)
#
#
# Indices 1 2 3 4 5 6 
#
# 1 0.012052 -0.002518 -0.001705 0.000000 0.000000 0.000000
# 2 -0.002518 0.016590 -0.007734 0.000000 0.000000 0.000000
# 3 -0.001705 -0.007734 0.014805 0.000000 0.000000 0.000000
# 4 0.000000 0.000000 0.000000 0.081469 0.000000 0.000000
# 5 0.000000 0.000000 0.000000 0.000000 0.038355 0.000000
# 6 0.000000 0.000000 0.000000 0.000000 0.000000 0.027601
#
#
# Mechanical properties :
#
#
# Convention : Reuss Voigt Hill
#
# Bulk Modulus (GPa) = 51.19808 51.78357 51.49082
# Shear Modulus (GPa) = 22.59404 26.70738 24.65071
#
# Velocity S-wave (km/s) = 3.41009 3.70753 3.56191
# Velocity P-wave (km/s) = 6.46959 6.70669 6.58920
#
# Compressibility (1/GPa) = 0.01953198
#
# Stress axis : x y z
#
# Youngs Moduli (GPa) = 82.97419 60.27776 67.54559
#
# Poissons Ratio (x) = 0.15175 0.11519
# Poissons Ratio (y) = 0.20889 0.52242
# Poissons Ratio (z) = 0.14150 0.46621
#
# Static dielectric constant tensor:
#      x y z
#    x 3.864780 0.000000 0.000000 
#    y 0.000000 3.431480 0.000000 
#    z 0.000000 0.000000 3.385580 
# 
# 
# High freq. dielectric constant tensor:
#      x y z
#    x 1.780250 0.000000 0.000000 
#    y 0.000000 1.748050 0.000000 
#    z 0.000000 0.000000 1.748060 
# 
# From -- ./inp_files/28160.got.cif
#   From: 2010.06.25/outbox.cif.g09.slc.cpg/sg58_15_cif.got.tgz:28160.got - 2010.06.26 21:38:00.
