data_PCOD8238362
_publ_section_title
;
Structure prediction by ZEFSAII (Michael W. Deem and Ramdas Pophale) SiO2 
 PCOD8238362
Probable space group: P N N M
;
_chemical_formula_sum "Si O2"
_cell_formula_units_Z 48
_cell_length_a 8.993114
_cell_length_b 18.131525
_cell_length_c 14.782349
_cell_angle_alpha 90.000000
_cell_angle_beta 90.000000
_cell_angle_gamma 90.000000
_cell_volume 2410.393143
_symmetry_space_group_name_H-M "P N N M"
_symmetry_group_IT_number 58
_symmetry_cell_setting 'orthorhombic'
loop_
_space_group_symop_operation_xyz
x,y,z
-x,-y,z
1/2+x,1/2-y,1/2-z
1/2-x,1/2+y,1/2-z
-x,-y,-z
x,y,-z
1/2-x,1/2+y,1/2+z
1/2+x,1/2-y,1/2+z
loop_
_atom_site_type_symbol
_atom_site_label
_atom_site_fract_x
_atom_site_fract_y
_atom_site_fract_z
Si Si1 0.642464 0.545316 0.000000
Si Si2 0.363309 0.330314 0.355091
Si Si3 0.454773 0.581612 0.500000
Si Si4 0.006451 0.321115 0.850881
Si Si5 0.398919 0.074554 0.000000
Si Si6 0.653917 0.671090 0.146159
Si Si7 0.520237 0.181032 0.142441
Si Si8 0.100816 0.568278 0.000000
O O1 0.500000 0.500000 0.000000
O O2 0.645043 0.596680 0.088322
O O3 0.742784 0.471745 0.000000
O O4 0.473605 0.382480 0.410514
O O5 0.410807 0.248311 0.378240
O O6 0.378984 0.350866 0.249606
O O7 0.191561 0.331154 0.385144
O O8 0.500000 0.500000 0.500000
O O9 0.278216 0.571150 0.500000
O O10 0.938072 0.386782 0.909468
O O11 0.178270 0.300613 0.869645
O O12 0.987076 0.339100 0.745776
O O13 0.431382 0.119942 0.089482
O O14 0.500000 0.000000 0.000000
O O15 0.538862 0.736165 0.117391
O O16 0.000000 0.500000 0.000000
#
# Coordination Sequence:
#
# PCOD8238362 Si02
#       8
#     4   8   4   8   4   8   8   4
#     4  12  27  41  58  93 132 172 207 258 322 377
#     4  10  22  40  68  95 122 164 212 261 310 373
#     4  12  25  43  62  89 124 163 208 256 320 370
#     4  10  21  40  66  94 123 166 211 255 309 372
#     4  12  25  43  62  91 124 163 206 260 320 373
#     4  10  21  42  64  93 128 164 211 257 310 372
#     4  10  22  40  66  95 124 162 210 261 310 372
#     4  12  23  41  62  91 128 170 209 252 316 383
#
# _framework density 19.913762999999999
#
# number of rings (size 3 to 8) (size 9 to 14) (size 15 to 20)
#    0.000    1.333    1.667    3.500    2.333    2.667 
#    3.000    0.000    0.000    0.000    0.000    0.000 
#    0.000    0.000    0.000    0.000    0.000    0.000 
#
# Total GULP energy -594639.495854 kJ/mol
# GULP energy per Si atom -12388.322830 kJ/mol
# Density = 1.986844 g / cm^3
# Si number density = 19.913763 Si / 1000 Ang^3
#
#
#
# Elastic Constant Matrix: (Units=GPa)
#
#
# Indices 1 2 3 4 5 6 
#
# 1 171.3449 69.7579 57.6883 0.0000 0.0000 0.0000
# 2 69.7579 127.8837 74.0617 0.0000 0.0000 0.0000
# 3 57.6883 74.0617 112.3298 0.0000 0.0000 0.0000
# 4 0.0000 0.0000 0.0000 -36.4060 0.0000 0.0000
# 5 0.0000 0.0000 0.0000 0.0000 1.2713 0.0000
# 6 0.0000 0.0000 0.0000 0.0000 0.0000 49.0629
#
#
#
# Elastic Compliance Matrix: (Units=1/GPa)
#
#
# Indices 1 2 3 4 5 6 
#
# 1 0.007753 -0.003111 -0.001930 0.000000 0.000000 0.000000
# 2 -0.003111 0.013898 -0.007566 0.000000 0.000000 0.000000
# 3 -0.001930 -0.007566 0.014882 0.000000 0.000000 0.000000
# 4 0.000000 0.000000 0.000000 -0.027468 0.000000 0.000000
# 5 0.000000 0.000000 0.000000 0.000000 0.786611 0.000000
# 6 0.000000 0.000000 0.000000 0.000000 0.000000 0.020382
#
#
# Mechanical properties :
#
#
# Convention : Reuss Voigt Hill
#
# Bulk Modulus (GPa) = 88.34916 90.50822 89.42869
# Shear Modulus (GPa) = 5.91685 16.78903 11.35294
#
# Velocity S-wave (km/s) = 1.72560 2.90675 2.39028
# Velocity P-wave (km/s) = 6.95934 7.53753 7.25420
#
# Compressibility (1/GPa) = 0.01131873
#
# Stress axis : x y z
#
# Youngs Moduli (GPa) = 128.98869 71.95228 67.19571
#
# Poissons Ratio (x) = 0.22384 0.12971
# Poissons Ratio (y) = 0.40128 0.50838
# Poissons Ratio (z) = 0.24899 0.54437
#
# Static dielectric constant tensor:
#      x y z
#    x 3.864210 0.000000 0.000000 
#    y 0.000000 3.462850 0.000000 
#    z 0.000000 0.000000 3.723550 
# 
# 
# High freq. dielectric constant tensor:
#      x y z
#    x 1.797900 0.000000 0.000000 
#    y 0.000000 1.778040 0.000000 
#    z 0.000000 0.000000 1.789870 
# 
# From -- ./inp_files/19921.got.cif
#   From: 2010.06.25/outbox.cif.g09.slc.cpg/sg58_10_cif.got.tgz:19921.got - 2010.06.26 21:38:00.
