data_PCOD8238388
_publ_section_title
;
Structure prediction by ZEFSAII (Michael W. Deem and Ramdas Pophale) SiO2 
 PCOD8238388
Probable space group: P N N M
;
_chemical_formula_sum "Si O2"
_cell_formula_units_Z 48
_cell_length_a 13.916668
_cell_length_b 9.378757
_cell_length_c 18.663553
_cell_angle_alpha 90.000000
_cell_angle_beta 90.000000
_cell_angle_gamma 90.000000
_cell_volume 2435.986486
_symmetry_space_group_name_H-M "P N N M"
_symmetry_group_IT_number 58
_symmetry_cell_setting 'orthorhombic'
loop_
_space_group_symop_operation_xyz
x,y,z
-x,-y,z
1/2+x,1/2-y,1/2-z
1/2-x,1/2+y,1/2-z
-x,-y,-z
x,y,-z
1/2-x,1/2+y,1/2+z
1/2+x,1/2-y,1/2+z
loop_
_atom_site_type_symbol
_atom_site_label
_atom_site_fract_x
_atom_site_fract_y
_atom_site_fract_z
Si Si1 0.061259 0.634609 0.415859
Si Si2 0.243395 0.698510 0.324790
Si Si3 0.051320 0.146702 0.330282
Si Si4 0.460158 0.658465 0.671719
Si Si5 0.753085 0.465206 0.820347
Si Si6 0.576392 0.877234 0.420112
O O1 0.075697 0.631384 0.500000
O O2 0.167103 0.643577 0.382754
O O3 0.000000 0.500000 0.388178
O O4 0.997975 0.769772 0.394305
O O5 0.349642 0.663778 0.355524
O O6 0.218369 0.606883 0.254504
O O7 0.231339 0.867037 0.308867
O O8 0.041578 0.224712 0.252539
O O9 0.161158 0.118086 0.351121
O O10 0.000000 0.000000 0.319286
O O11 0.500000 0.500000 0.670603
O O12 0.531277 0.745356 0.621641
O O13 0.834240 0.443723 0.878896
O O14 0.607550 0.827449 0.500000
O O15 0.500000 0.000000 0.426641
#
# Coordination Sequence:
#
# PCOD8238388 Si02
#       6
#     8   8   8   8   8   8
#     4  11  26  43  63  93 133 174 210 256 318 384
#     4  11  24  42  66  96 128 163 212 268 317 373
#     4  10  21  41  64  94 123 160 215 264 310 370
#     4  10  23  41  67  95 126 162 211 265 317 370
#     4  11  24  40  67  98 123 167 211 268 318 367
#     4  11  24  41  62  92 128 168 211 251 310 380
#
# _framework density 19.704542
#
# number of rings (size 3 to 8) (size 9 to 14) (size 15 to 20)
#    0.000    1.333    3.333    1.000    9.333    4.000 
#    0.000    1.667    0.000    0.000    0.000    0.000 
#    0.000    0.000    0.000    0.000    0.000    0.000 
#
# Total GULP energy -595161.203419 kJ/mol
# GULP energy per Si atom -12399.191738 kJ/mol
# Density = 1.965969 g / cm^3
# Si number density = 19.704542 Si / 1000 Ang^3
#
#
#
# Elastic Constant Matrix: (Units=GPa)
#
#
# Indices 1 2 3 4 5 6 
#
# 1 114.4504 28.7130 49.7035 0.0000 0.0000 0.0000
# 2 28.7130 77.9136 38.9266 0.0000 0.0000 0.0000
# 3 49.7035 38.9266 88.1695 0.0000 0.0000 0.0000
# 4 0.0000 0.0000 0.0000 31.7917 0.0000 0.0000
# 5 0.0000 0.0000 0.0000 0.0000 23.8482 0.0000
# 6 0.0000 0.0000 0.0000 0.0000 0.0000 31.3139
#
#
#
# Elastic Compliance Matrix: (Units=1/GPa)
#
#
# Indices 1 2 3 4 5 6 
#
# 1 0.011672 -0.001301 -0.006005 0.000000 0.000000 0.000000
# 2 -0.001301 0.016612 -0.006601 0.000000 0.000000 0.000000
# 3 -0.006005 -0.006601 0.017641 0.000000 0.000000 0.000000
# 4 0.000000 0.000000 0.000000 0.031455 0.000000 0.000000
# 5 0.000000 0.000000 0.000000 0.000000 0.041932 0.000000
# 6 0.000000 0.000000 0.000000 0.000000 0.000000 0.031935
#
#
# Mechanical properties :
#
#
# Convention : Reuss Voigt Hill
#
# Bulk Modulus (GPa) = 55.21497 57.24663 56.23080
# Shear Modulus (GPa) = 27.01279 28.27013 27.64146
#
# Velocity S-wave (km/s) = 3.70657 3.79185 3.74946
# Velocity P-wave (km/s) = 6.81179 6.94885 6.88066
#
# Compressibility (1/GPa) = 0.01811103
#
# Stress axis : x y z
#
# Youngs Moduli (GPa) = 85.67666 60.19753 56.68503
#
# Poissons Ratio (x) = 0.07832 0.34041
# Poissons Ratio (y) = 0.11147 0.37416
# Poissons Ratio (z) = 0.51452 0.39735
#
# Static dielectric constant tensor:
#      x y z
#    x 3.596050 0.000000 0.000000 
#    y 0.000000 3.601240 0.000000 
#    z 0.000000 0.000000 3.691650 
# 
# 
# High freq. dielectric constant tensor:
#      x y z
#    x 1.788330 0.000000 0.000000 
#    y 0.000000 1.772010 0.000000 
#    z 0.000000 0.000000 1.759580 
# 
# From -- ./inp_files/26819.got.cif
#   From: 2010.06.25/outbox.cif.g09.slc.cpg/sg58_14_cif.got.tgz:26819.got - 2010.06.26 21:38:00.
