data_PCOD8238223
_publ_section_title
;
Structure prediction by ZEFSAII (Michael W. Deem and Ramdas Pophale) SiO2 
 PCOD8238223
Probable space group: P N N M
;
_chemical_formula_sum "Si O2"
_cell_formula_units_Z 56
_cell_length_a 9.797595
_cell_length_b 18.626114
_cell_length_c 15.251687
_cell_angle_alpha 90.000000
_cell_angle_beta 90.000000
_cell_angle_gamma 90.000000
_cell_volume 2783.297464
_symmetry_space_group_name_H-M "P N N M"
_symmetry_group_IT_number 58
_symmetry_cell_setting 'orthorhombic'
loop_
_space_group_symop_operation_xyz
x,y,z
-x,-y,z
1/2+x,1/2-y,1/2-z
1/2-x,1/2+y,1/2-z
-x,-y,-z
x,y,-z
1/2-x,1/2+y,1/2+z
1/2+x,1/2-y,1/2+z
loop_
_atom_site_type_symbol
_atom_site_label
_atom_site_fract_x
_atom_site_fract_y
_atom_site_fract_z
Si Si1 0.248001 0.905275 0.193375
Si Si2 0.271296 0.566231 0.268427
Si Si3 0.519957 0.834078 0.223330
Si Si4 0.926097 0.926558 0.596943
Si Si5 0.422819 0.782863 0.597758
Si Si6 0.510345 0.381106 0.598579
Si Si7 0.626361 0.687588 0.153309
O O1 0.391561 0.867655 0.171625
O O2 0.148536 0.904039 0.109091
O O3 0.165479 0.861233 0.265272
O O4 0.280749 0.984885 0.227791
O O5 0.151465 0.618798 0.298381
O O6 0.310611 0.588169 0.169247
O O7 0.399051 0.574208 0.333290
O O8 0.489388 0.833873 0.328216
O O9 0.538736 0.754621 0.186879
O O10 0.859788 0.934622 0.500000
O O11 0.031628 0.860525 0.591136
O O12 0.000000 0.000000 0.624845
O O13 0.468710 0.807851 0.500000
O O14 0.472555 0.702878 0.616837
O O15 0.258790 0.785450 0.601448
O O16 0.556018 0.400695 0.500000
#
# Coordination Sequence:
#
# PCOD8238223 Si02
#       7
#     8   8   8   8   8   8   8
#     4  11  23  40  61  90 125 165 202 259 308 365
#     4  12  22  43  62  92 129 162 207 255 311 373
#     4  11  24  39  66  89 124 170 204 250 318 372
#     4  11  22  37  62  94 126 163 206 254 308 368
#     4  10  21  38  62  93 125 158 206 257 308 368
#     4  11  22  40  68  93 117 160 211 255 308 368
#     4  11  20  40  62  90 122 165 202 257 305 368
#
# _framework density 20.120018999999999
#
# number of rings (size 3 to 8) (size 9 to 14) (size 15 to 20)
#    0.000    1.000    5.714    1.286    2.000    1.714 
#    0.000    3.571    0.000    4.286    0.000    0.000 
#    0.000    0.000    0.000    0.000    0.000    0.000 
#
# Total GULP energy -694552.125886 kJ/mol
# GULP energy per Si atom -12402.716534 kJ/mol
# Density = 2.007423 g / cm^3
# Si number density = 20.120019 Si / 1000 Ang^3
#
#
#
# Elastic Constant Matrix: (Units=GPa)
#
#
# Indices 1 2 3 4 5 6 
#
# 1 85.0007 50.6570 30.6616 0.0000 0.0000 0.0000
# 2 50.6570 108.8209 27.0806 0.0000 0.0000 0.0000
# 3 30.6616 27.0806 82.0472 0.0000 0.0000 0.0000
# 4 0.0000 0.0000 0.0000 18.3316 0.0000 0.0000
# 5 0.0000 0.0000 0.0000 0.0000 15.1890 0.0000
# 6 0.0000 0.0000 0.0000 0.0000 0.0000 28.1170
#
#
#
# Elastic Compliance Matrix: (Units=1/GPa)
#
#
# Indices 1 2 3 4 5 6 
#
# 1 0.017516 -0.007109 -0.004200 0.000000 0.000000 0.000000
# 2 -0.007109 0.012897 -0.001600 0.000000 0.000000 0.000000
# 3 -0.004200 -0.001600 0.014286 0.000000 0.000000 0.000000
# 4 0.000000 0.000000 0.000000 0.054551 0.000000 0.000000
# 5 0.000000 0.000000 0.000000 0.000000 0.065837 0.000000
# 6 0.000000 0.000000 0.000000 0.000000 0.000000 0.035566
#
#
# Mechanical properties :
#
#
# Convention : Reuss Voigt Hill
#
# Bulk Modulus (GPa) = 52.96167 54.74082 53.85124
# Shear Modulus (GPa) = 21.48108 23.49213 22.48661
#
# Velocity S-wave (km/s) = 3.27103 3.42072 3.34671
# Velocity P-wave (km/s) = 6.37544 6.54737 6.46197
#
# Compressibility (1/GPa) = 0.01888158
#
# Stress axis : x y z
#
# Youngs Moduli (GPa) = 57.09057 77.53852 70.00036
#
# Poissons Ratio (x) = 0.55120 0.29397
# Poissons Ratio (y) = 0.40584 0.11201
# Poissons Ratio (z) = 0.23975 0.12407
#
# Static dielectric constant tensor:
#      x y z
#    x 3.671110 0.000000 0.000000 
#    y 0.000000 3.724490 0.000000 
#    z 0.000000 0.000000 3.563870 
# 
# 
# High freq. dielectric constant tensor:
#      x y z
#    x 1.776570 0.000000 0.000000 
#    y 0.000000 1.793960 0.000000 
#    z 0.000000 0.000000 1.778170 
# 
# From -- ./inp_files/20131.got.cif
#   From: 2010.06.25/outbox.cif.g09.slc.cpg/sg58_11_cif.got.tgz:20131.got - 2010.06.26 21:38:00.
