data_PCOD8238209
_publ_section_title
;
Structure prediction by ZEFSAII (Michael W. Deem and Ramdas Pophale) SiO2 
 PCOD8238209
Probable space group: P N N M
;
_chemical_formula_sum "Si O2"
_cell_formula_units_Z 64
_cell_length_a 10.870238
_cell_length_b 29.249357
_cell_length_c 9.181289
_cell_angle_alpha 90.000000
_cell_angle_beta 90.000000
_cell_angle_gamma 90.000000
_cell_volume 2919.167627
_symmetry_space_group_name_H-M "P N N M"
_symmetry_group_IT_number 58
_symmetry_cell_setting 'orthorhombic'
loop_
_space_group_symop_operation_xyz
x,y,z
-x,-y,z
1/2+x,1/2-y,1/2-z
1/2-x,1/2+y,1/2-z
-x,-y,-z
x,y,-z
1/2-x,1/2+y,1/2+z
1/2+x,1/2-y,1/2+z
loop_
_atom_site_type_symbol
_atom_site_label
_atom_site_fract_x
_atom_site_fract_y
_atom_site_fract_z
Si Si1 0.628897 0.524916 0.662786
Si Si2 0.613322 0.127587 0.335144
Si Si3 0.752898 0.276356 0.672370
Si Si4 0.994425 0.722866 0.171670
Si Si5 0.009933 0.552910 0.670230
Si Si6 0.138376 0.145323 0.335961
Si Si7 0.243459 0.551762 0.165612
Si Si8 0.883409 0.116467 0.664369
O O1 0.500000 0.500000 0.659896
O O2 0.685295 0.527679 0.500000
O O3 0.721643 0.495930 0.760359
O O4 0.612626 0.575236 0.723252
O O5 0.582925 0.112392 0.500000
O O6 0.525435 0.169409 0.289848
O O7 0.602407 0.083479 0.229878
O O8 0.755312 0.144039 0.322924
O O9 0.771455 0.273876 0.500000
O O10 0.631411 0.248165 0.723391
O O11 0.724698 0.328144 0.723064
O O12 0.881768 0.259826 0.745954
O O13 0.013196 0.730654 0.000000
O O14 0.023014 0.560119 0.500000
O O15 0.127390 0.573469 0.752281
O O16 0.000000 0.500000 0.713514
O O17 0.172823 0.161457 0.500000
O O18 0.152785 0.090481 0.321400
O O19 0.993136 0.152550 0.301177
O O20 0.210109 0.540475 0.000000
O O21 0.900969 0.097122 0.500000
#
# Coordination Sequence:
#
# PCOD8238209 Si02
#       8
#     8   8   8   8   8   8   8   8
#     4  11  22  35  53  83 124 164 203 260 321 373
#     4  10  22  41  65  90 122 165 215 262 310 374
#     4  11  25  43  69 101 131 167 212 261 321 387
#     4  10  24  46  69  98 134 169 211 264 320 385
#     4  11  24  40  58  85 123 161 203 257 317 375
#     4  10  22  39  62  91 125 164 207 259 316 373
#     4  11  22  37  60  85 115 158 209 256 303 371
#     4  10  21  38  62  89 120 167 216 260 310 376
#
# _framework density 21.924056
#
# number of rings (size 3 to 8) (size 9 to 14) (size 15 to 20)
#    0.000    1.500    1.250    3.000    1.750   10.000 
#    0.000    0.000    0.000    0.000    0.000    0.000 
#    0.000    0.000    0.000    0.000    0.000    0.000 
#
# Total GULP energy -793533.947689 kJ/mol
# GULP energy per Si atom -12398.967933 kJ/mol
# Density = 2.187416 g / cm^3
# Si number density = 21.924056 Si / 1000 Ang^3
#
#
#
# Elastic Constant Matrix: (Units=GPa)
#
#
# Indices 1 2 3 4 5 6 
#
# 1 137.6736 26.3452 55.5229 0.0000 0.0000 0.0000
# 2 26.3452 61.1293 39.3337 0.0000 0.0000 0.0000
# 3 55.5229 39.3337 104.1730 0.0000 0.0000 0.0000
# 4 0.0000 0.0000 0.0000 26.6096 0.0000 0.0000
# 5 0.0000 0.0000 0.0000 0.0000 32.1087 0.0000
# 6 0.0000 0.0000 0.0000 0.0000 0.0000 33.4988
#
#
#
# Elastic Compliance Matrix: (Units=1/GPa)
#
#
# Indices 1 2 3 4 5 6 
#
# 1 0.009306 -0.001082 -0.004552 0.000000 0.000000 0.000000
# 2 -0.001082 0.021735 -0.007630 0.000000 0.000000 0.000000
# 3 -0.004552 -0.007630 0.014906 0.000000 0.000000 0.000000
# 4 0.000000 0.000000 0.000000 0.037580 0.000000 0.000000
# 5 0.000000 0.000000 0.000000 0.000000 0.031144 0.000000
# 6 0.000000 0.000000 0.000000 0.000000 0.000000 0.029852
#
#
# Mechanical properties :
#
#
# Convention : Reuss Voigt Hill
#
# Bulk Modulus (GPa) = 51.49298 60.59771 56.04535
# Shear Modulus (GPa) = 28.16529 30.56171 29.36350
#
# Velocity S-wave (km/s) = 3.58812 3.73766 3.66365
# Velocity P-wave (km/s) = 6.37998 6.80636 6.59662
#
# Compressibility (1/GPa) = 0.01942012
#
# Stress axis : x y z
#
# Youngs Moduli (GPa) = 107.45492 46.00979 67.08616
#
# Poissons Ratio (x) = 0.04979 0.30535
# Poissons Ratio (y) = 0.11627 0.51185
# Poissons Ratio (z) = 0.48909 0.35105
#
# Static dielectric constant tensor:
#      x y z
#    x 4.265110 0.000000 0.000000 
#    y 0.000000 3.711400 0.000000 
#    z 0.000000 0.000000 3.902190 
# 
# 
# High freq. dielectric constant tensor:
#      x y z
#    x 1.883290 0.000000 0.000000 
#    y 0.000000 1.845940 0.000000 
#    z 0.000000 0.000000 1.855700 
# 
# From -- ./inp_files/4704.got.cif
#   From: 2010.06.25/outbox.cif.g09.slc.cpg/sg58_3_cif.got.tgz:4704.got - 2010.06.26 21:38:00.
