data_PCOD8238864
_publ_section_title
;
Structure prediction by ZEFSAII (Michael W. Deem and Ramdas Pophale) SiO2 
 PCOD8238864
Probable space group: P N N M
;
_chemical_formula_sum "Si O2"
_cell_formula_units_Z 48
_cell_length_a 8.753811
_cell_length_b 14.662165
_cell_length_c 17.438270
_cell_angle_alpha 90.000000
_cell_angle_beta 90.000000
_cell_angle_gamma 90.000000
_cell_volume 2238.198838
_symmetry_space_group_name_H-M "P N N M"
_symmetry_group_IT_number 58
_symmetry_cell_setting 'orthorhombic'
loop_
_space_group_symop_operation_xyz
x,y,z
-x,-y,z
1/2+x,1/2-y,1/2-z
1/2-x,1/2+y,1/2-z
-x,-y,-z
x,y,-z
1/2-x,1/2+y,1/2+z
1/2+x,1/2-y,1/2+z
loop_
_atom_site_type_symbol
_atom_site_label
_atom_site_fract_x
_atom_site_fract_y
_atom_site_fract_z
Si Si1 0.167229 0.012651 0.347506
Si Si2 0.117062 0.650667 0.086908
Si Si3 0.707272 0.661114 0.355965
Si Si4 0.638595 0.368328 0.694302
Si Si5 0.832563 0.489303 0.585139
Si Si6 0.336468 0.837189 0.699113
O O1 0.275885 0.061679 0.409168
O O2 0.168274 0.075814 0.271778
O O3 0.216480 0.908834 0.333752
O O4 0.000000 0.000000 0.382888
O O5 0.215441 0.741250 0.102936
O O6 0.993107 0.642878 0.154558
O O7 0.048054 0.654892 0.000000
O O8 0.542207 0.640601 0.318609
O O9 0.746436 0.586190 0.419259
O O10 0.840237 0.649756 0.291234
O O11 0.722195 0.419856 0.626900
O O12 0.715588 0.268137 0.691233
O O13 0.854626 0.450376 0.500000
O O14 0.000000 0.500000 0.624210
#
# Coordination Sequence:
#
# PCOD8238864 Si02
#       6
#     8   8   8   8   8   8
#     4  12  23  41  68 101 134 173 228 277 331 404
#     4  11  27  46  68 100 140 182 226 278 341 403
#     4  11  22  43  72  98 131 176 227 281 337 400
#     4  11  23  41  66  98 132 171 226 276 338 399
#     4  11  25  40  63 100 139 174 215 274 345 406
#     4  11  24  41  71 100 128 175 226 280 330 404
#
# _framework density 21.445815
#
# number of rings (size 3 to 8) (size 9 to 14) (size 15 to 20)
#    0.000    0.833    5.000    1.500    2.333    7.000 
#    0.000    0.000    0.000    0.000    0.000    0.000 
#    0.000    0.000    0.000    0.000    0.000    0.000 
#
# Total GULP energy -594917.776997 kJ/mol
# GULP energy per Si atom -12394.120354 kJ/mol
# Density = 2.139700 g / cm^3
# Si number density = 21.445815 Si / 1000 Ang^3
#
#
#
# Elastic Constant Matrix: (Units=GPa)
#
#
# Indices 1 2 3 4 5 6 
#
# 1 82.8226 49.8986 39.8212 0.0000 0.0000 0.0000
# 2 49.8986 134.5831 15.1587 0.0000 0.0000 0.0000
# 3 39.8212 15.1587 95.0255 0.0000 0.0000 0.0000
# 4 0.0000 0.0000 0.0000 22.7468 0.0000 0.0000
# 5 0.0000 0.0000 0.0000 0.0000 22.5097 0.0000
# 6 0.0000 0.0000 0.0000 0.0000 0.0000 35.9057
#
#
#
# Elastic Compliance Matrix: (Units=1/GPa)
#
#
# Indices 1 2 3 4 5 6 
#
# 1 0.019310 -0.006362 -0.007077 0.000000 0.000000 0.000000
# 2 -0.006362 0.009663 0.001125 0.000000 0.000000 0.000000
# 3 -0.007077 0.001125 0.013310 0.000000 0.000000 0.000000
# 4 0.000000 0.000000 0.000000 0.043962 0.000000 0.000000
# 5 0.000000 0.000000 0.000000 0.000000 0.044425 0.000000
# 6 0.000000 0.000000 0.000000 0.000000 0.000000 0.027851
#
#
# Mechanical properties :
#
#
# Convention : Reuss Voigt Hill
#
# Bulk Modulus (GPa) = 56.64732 58.02091 57.33412
# Shear Modulus (GPa) = 26.45033 30.06929 28.25981
#
# Velocity S-wave (km/s) = 3.51573 3.74853 3.63399
# Velocity P-wave (km/s) = 6.55377 6.77117 6.66336
#
# Compressibility (1/GPa) = 0.01765309
#
# Stress axis : x y z
#
# Youngs Moduli (GPa) = 51.78732 103.49225 75.13290
#
# Poissons Ratio (x) = 0.65844 0.53172
# Poissons Ratio (y) = 0.32948 -0.08451
# Poissons Ratio (z) = 0.36650 -0.11640
#
# Static dielectric constant tensor:
#      x y z
#    x 3.882360 0.000000 0.000000 
#    y 0.000000 4.255150 0.000000 
#    z 0.000000 0.000000 3.728610 
# 
# 
# High freq. dielectric constant tensor:
#      x y z
#    x 1.834750 0.000000 0.000000 
#    y 0.000000 1.864390 0.000000 
#    z 0.000000 0.000000 1.828470 
# 
# From -- ./inp_files/25286.got.cif
#   From: 2010.06.25/outbox.cif.g09.slc.cpg/sg58_13_cif.got.tgz:25286.got - 2010.06.26 21:38:00.
