data_PCOD8238764
_publ_section_title
;
Structure prediction by ZEFSAII (Michael W. Deem and Ramdas Pophale) SiO2 
 PCOD8238764
Probable space group: P N N M
;
_chemical_formula_sum "Si O2"
_cell_formula_units_Z 64
_cell_length_a 12.075740
_cell_length_b 11.734382
_cell_length_c 24.851393
_cell_angle_alpha 90.000000
_cell_angle_beta 90.000000
_cell_angle_gamma 90.000000
_cell_volume 3521.475840
_symmetry_space_group_name_H-M "P N N M"
_symmetry_group_IT_number 58
_symmetry_cell_setting 'orthorhombic'
loop_
_space_group_symop_operation_xyz
x,y,z
-x,-y,z
1/2+x,1/2-y,1/2-z
1/2-x,1/2+y,1/2-z
-x,-y,-z
x,y,-z
1/2-x,1/2+y,1/2+z
1/2+x,1/2-y,1/2+z
loop_
_atom_site_type_symbol
_atom_site_label
_atom_site_fract_x
_atom_site_fract_y
_atom_site_fract_z
Si Si1 0.303224 0.858764 0.627797
Si Si2 0.122138 0.545230 0.058470
Si Si3 0.049835 0.622572 0.270565
Si Si4 0.621445 0.510356 0.806191
Si Si5 0.734173 0.362668 0.666968
Si Si6 0.551442 0.813181 0.345081
Si Si7 0.661764 0.265313 0.777194
Si Si8 0.852049 0.098004 0.810597
O O1 0.276804 0.724263 0.615856
O O2 0.428107 0.866111 0.652513
O O3 0.300376 0.937428 0.574746
O O4 0.207275 0.903633 0.666986
O O5 0.125554 0.641720 0.104917
O O6 0.000000 0.500000 0.051035
O O7 0.163447 0.592224 0.000000
O O8 0.139192 0.616505 0.317659
O O9 0.106197 0.650384 0.212425
O O10 0.000000 0.500000 0.264785
O O11 0.962631 0.719954 0.285447
O O12 0.500000 0.500000 0.834264
O O13 0.676458 0.385701 0.807177
O O14 0.599088 0.558977 0.746379
O O15 0.678003 0.285656 0.713733
O O16 0.675322 0.483261 0.655538
O O17 0.558116 0.673871 0.344169
O O18 0.741374 0.171599 0.803021
#
# Coordination Sequence:
#
# PCOD8238764 Si02
#       8
#     8   8   8   8   8   8   8   8
#     4  11  20  35  52  73 101 139 175 214 270 318
#     4   9  20  36  58  82  99 123 171 229 274 317
#     4  12  20  31  47  71 107 153 181 213 250 317
#     4  11  22  32  47  73 111 143 178 218 253 302
#     4  11  22  30  46  70 109 143 184 213 252 313
#     4  11  20  31  53  73 103 136 179 213 265 314
#     4  11  20  31  44  67 104 146 186 214 244 297
#     4  11  21  32  45  74 107 148 181 212 247 309
#
# _framework density 18.174198000000001
#
# number of rings (size 3 to 8) (size 9 to 14) (size 15 to 20)
#    0.000    1.125    5.000    3.375    5.250    0.000 
#    0.000    0.000    0.000    1.125    0.000    3.500 
#    0.000    0.500    0.000    0.375    0.000    0.000 
#
# Total GULP energy -793021.355887 kJ/mol
# GULP energy per Si atom -12390.958686 kJ/mol
# Density = 1.813283 g / cm^3
# Si number density = 18.174198 Si / 1000 Ang^3
#
#
#
# Elastic Constant Matrix: (Units=GPa)
#
#
# Indices 1 2 3 4 5 6 
#
# 1 67.8328 30.0857 14.3089 0.0000 0.0000 0.0000
# 2 30.0857 129.3610 32.2291 0.0000 0.0000 0.0000
# 3 14.3089 32.2291 54.0109 0.0000 0.0000 0.0000
# 4 0.0000 0.0000 0.0000 15.4184 0.0000 0.0000
# 5 0.0000 0.0000 0.0000 0.0000 1.9549 0.0000
# 6 0.0000 0.0000 0.0000 0.0000 0.0000 31.8897
#
#
#
# Elastic Compliance Matrix: (Units=1/GPa)
#
#
# Indices 1 2 3 4 5 6 
#
# 1 0.016715 -0.003270 -0.002477 0.000000 0.000000 0.000000
# 2 -0.003270 0.009720 -0.004934 0.000000 0.000000 0.000000
# 3 -0.002477 -0.004934 0.022115 0.000000 0.000000 0.000000
# 4 0.000000 0.000000 0.000000 0.064858 0.000000 0.000000
# 5 0.000000 0.000000 0.000000 0.000000 0.511544 0.000000
# 6 0.000000 0.000000 0.000000 0.000000 0.000000 0.031358
#
#
# Mechanical properties :
#
#
# Convention : Reuss Voigt Hill
#
# Bulk Modulus (GPa) = 36.78040 44.93913 40.85976
# Shear Modulus (GPa) = 7.28084 21.49132 14.38608
#
# Velocity S-wave (km/s) = 2.00371 3.44251 2.81653
# Velocity P-wave (km/s) = 5.06308 6.37038 5.75397
#
# Compressibility (1/GPa) = 0.02718840
#
# Stress axis : x y z
#
# Youngs Moduli (GPa) = 59.82616 102.87960 45.21821
#
# Poissons Ratio (x) = 0.33646 0.11200
# Poissons Ratio (y) = 0.19566 0.22309
# Poissons Ratio (z) = 0.14818 0.50758
#
# Static dielectric constant tensor:
#      x y z
#    x 3.493300 0.000000 0.000000 
#    y 0.000000 3.857970 0.000000 
#    z 0.000000 0.000000 3.050970 
# 
# 
# High freq. dielectric constant tensor:
#      x y z
#    x 1.711330 0.000000 0.000000 
#    y 0.000000 1.731470 0.000000 
#    z 0.000000 0.000000 1.614730 
# 
# From -- ./inp_files/32060.got.cif
#   From: 2010.06.25/outbox.cif.g09.slc.cpg/sg58_17_cif.got.tgz:32060.got - 2010.06.26 21:38:00.
