data_PCOD8238730
_publ_section_title
;
Structure prediction by ZEFSAII (Michael W. Deem and Ramdas Pophale) SiO2 
 PCOD8238730
Probable space group: P N N M
;
_chemical_formula_sum "Si O2"
_cell_formula_units_Z 40
_cell_length_a 17.719527
_cell_length_b 5.278762
_cell_length_c 18.964530
_cell_angle_alpha 90.000000
_cell_angle_beta 90.000000
_cell_angle_gamma 90.000000
_cell_volume 1773.888387
_symmetry_space_group_name_H-M "P N N M"
_symmetry_group_IT_number 58
_symmetry_cell_setting 'orthorhombic'
loop_
_space_group_symop_operation_xyz
x,y,z
-x,-y,z
1/2+x,1/2-y,1/2-z
1/2-x,1/2+y,1/2-z
-x,-y,-z
x,y,-z
1/2-x,1/2+y,1/2+z
1/2+x,1/2-y,1/2+z
loop_
_atom_site_type_symbol
_atom_site_label
_atom_site_fract_x
_atom_site_fract_y
_atom_site_fract_z
Si Si1 0.547066 0.250283 0.630756
Si Si2 0.299485 0.218113 0.150376
Si Si3 0.666712 0.957424 0.694059
Si Si4 0.458914 0.251528 0.083471
Si Si5 0.669645 0.565407 0.578316
O O1 0.500000 0.500000 0.652435
O O2 0.601398 0.172937 0.696725
O O3 0.608237 0.336375 0.571135
O O4 0.500000 0.000000 0.605654
O O5 0.247758 0.462687 0.162945
O O6 0.372548 0.280286 0.105563
O O7 0.324406 0.125016 0.226583
O O8 0.251945 0.015795 0.105681
O O9 0.635772 0.752210 0.637840
O O10 0.500000 0.500000 0.113742
O O11 0.500000 0.000000 0.114378
O O12 0.462962 0.244328 0.000000
O O13 0.678392 0.686151 0.500000
#
# Coordination Sequence:
#
# PCOD8238730 Si02
#       5
#     8   8   8   8   8
#     4  11  24  48  70 103 144 188 234 293 349 420
#     4  11  24  45  70 103 143 189 232 301 349 427
#     4  11  24  44  73 105 145 185 245 286 359 422
#     4  10  24  46  70 103 139 180 232 287 354 422
#     4  11  25  45  74 106 139 191 241 290 356 421
#
# _framework density 22.549334000000002
#
# number of rings (size 3 to 8) (size 9 to 14) (size 15 to 20)
#    0.000    1.200    4.000    0.600    2.800    5.600 
#    3.600    0.000    0.000    0.000    0.000    0.000 
#    0.000    0.000    0.000    0.000    0.000    0.000 
#
# Total GULP energy -495528.097312 kJ/mol
# GULP energy per Si atom -12388.202433 kJ/mol
# Density = 2.249801 g / cm^3
# Si number density = 22.549334 Si / 1000 Ang^3
#
#
#
# Elastic Constant Matrix: (Units=GPa)
#
#
# Indices 1 2 3 4 5 6 
#
# 1 131.5748 64.4567 33.7017 0.0000 0.0000 0.0000
# 2 64.4567 136.2951 35.4138 0.0000 0.0000 0.0000
# 3 33.7017 35.4138 84.8612 0.0000 0.0000 0.0000
# 4 0.0000 0.0000 0.0000 -39.3020 0.0000 0.0000
# 5 0.0000 0.0000 0.0000 0.0000 21.9434 0.0000
# 6 0.0000 0.0000 0.0000 0.0000 0.0000 21.7442
#
#
#
# Elastic Compliance Matrix: (Units=1/GPa)
#
#
# Indices 1 2 3 4 5 6 
#
# 1 0.010278 -0.004262 -0.002303 0.000000 0.000000 0.000000
# 2 -0.004262 0.009997 -0.002479 0.000000 0.000000 0.000000
# 3 -0.002303 -0.002479 0.013733 0.000000 0.000000 0.000000
# 4 0.000000 0.000000 0.000000 -0.025444 0.000000 0.000000
# 5 0.000000 0.000000 0.000000 0.000000 0.045572 0.000000
# 6 0.000000 0.000000 0.000000 0.000000 0.000000 0.045989
#
#
# Mechanical properties :
#
#
# Convention : Reuss Voigt Hill
#
# Bulk Modulus (GPa) = 62.81757 68.87508 65.84632
# Shear Modulus (GPa) = 40.47898 15.48773 27.98336
#
# Velocity S-wave (km/s) = 4.24149 2.62360 3.52658
# Velocity P-wave (km/s) = 7.20454 6.30779 6.77102
#
# Compressibility (1/GPa) = 0.01591911
#
# Stress axis : x y z
#
# Youngs Moduli (GPa) = 97.29288 100.03073 72.81634
#
# Poissons Ratio (x) = 0.42637 0.16771
# Poissons Ratio (y) = 0.41470 0.18052
# Poissons Ratio (z) = 0.22408 0.24799
#
# Static dielectric constant tensor:
#      x y z
#    x 4.327210 0.000000 0.000000 
#    y 0.000000 4.531140 0.000000 
#    z 0.000000 0.000000 3.098210 
# 
# 
# High freq. dielectric constant tensor:
#      x y z
#    x 1.914030 0.000000 0.000000 
#    y 0.000000 1.892800 0.000000 
#    z 0.000000 0.000000 1.864970 
# 
# From -- ./inp_files/27148.got.cif
#   From: 2010.06.25/outbox.cif.g09.slc.cpg/sg58_14_cif.got.tgz:27148.got - 2010.06.26 21:38:00.
