data_PCOD8238440
_publ_section_title
;
Structure prediction by ZEFSAII (Michael W. Deem and Ramdas Pophale) SiO2 
 PCOD8238440
Probable space group: P N N M
;
_chemical_formula_sum "Si O2"
_cell_formula_units_Z 48
_cell_length_a 8.432155
_cell_length_b 9.011751
_cell_length_c 32.193216
_cell_angle_alpha 90.000000
_cell_angle_beta 90.000000
_cell_angle_gamma 90.000000
_cell_volume 2446.313591
_symmetry_space_group_name_H-M "P N N M"
_symmetry_group_IT_number 58
_symmetry_cell_setting 'orthorhombic'
loop_
_space_group_symop_operation_xyz
x,y,z
-x,-y,z
1/2+x,1/2-y,1/2-z
1/2-x,1/2+y,1/2-z
-x,-y,-z
x,y,-z
1/2-x,1/2+y,1/2+z
1/2+x,1/2-y,1/2+z
loop_
_atom_site_type_symbol
_atom_site_label
_atom_site_fract_x
_atom_site_fract_y
_atom_site_fract_z
Si Si1 0.160491 0.086734 0.094762
Si Si2 0.659647 0.194706 0.119419
Si Si3 0.591982 0.851458 0.731836
Si Si4 0.978108 0.328631 0.860986
Si Si5 0.560188 0.835565 0.955049
Si Si6 0.561070 0.342586 0.202065
O O1 0.121839 0.225621 0.124134
O O2 0.251686 0.156943 0.055423
O O3 0.287374 0.978835 0.118118
O O4 0.000000 0.000000 0.081328
O O5 0.541976 0.241010 0.081774
O O6 0.579548 0.229850 0.163601
O O7 0.817762 0.291092 0.114436
O O8 0.528341 0.794501 0.687726
O O9 0.565599 0.726067 0.766300
O O10 0.779107 0.875917 0.727642
O O11 0.500000 0.000000 0.745608
O O12 0.000000 0.500000 0.870689
O O13 0.500000 0.000000 0.960718
O O14 0.540678 0.753170 0.000000
O O15 0.500000 0.500000 0.184746
#
# Coordination Sequence:
#
# PCOD8238440 Si02
#       6
#     8   8   8   8   8   8
#     4   9  18  34  57  81 107 142 180 221 271 328
#     4   9  20  36  55  81 107 141 182 224 276 329
#     4  10  22  37  54  80 109 143 187 229 272 323
#     4   9  19  36  56  79 111 148 184 223 270 327
#     4   9  18  33  55  83 109 135 177 230 276 322
#     4  11  23  38  56  79 110 147 185 229 279 329
#
# _framework density 19.621362000000001
#
# number of rings (size 3 to 8) (size 9 to 14) (size 15 to 20)
#    0.000    2.500    0.000    1.000    0.000   12.333 
#    0.000    2.500    0.000    5.500    0.000    0.000 
#    0.000    0.000    0.000    0.000    0.000    0.000 
#
# Total GULP energy -594940.253676 kJ/mol
# GULP energy per Si atom -12394.588618 kJ/mol
# Density = 1.957670 g / cm^3
# Si number density = 19.621362 Si / 1000 Ang^3
#
#
#
# Elastic Constant Matrix: (Units=GPa)
#
#
# Indices 1 2 3 4 5 6 
#
# 1 94.1003 32.2331 60.8848 0.0000 0.0000 0.0000
# 2 32.2331 81.6116 53.0462 0.0000 0.0000 0.0000
# 3 60.8848 53.0462 115.6978 0.0000 0.0000 0.0000
# 4 0.0000 0.0000 0.0000 64.3282 0.0000 0.0000
# 5 0.0000 0.0000 0.0000 0.0000-5903.8808 0.0000
# 6 0.0000 0.0000 0.0000 0.0000 0.0000 26.2327
#
#
#
# Elastic Compliance Matrix: (Units=1/GPa)
#
#
# Indices 1 2 3 4 5 6 
#
# 1 0.016198 -0.001221 -0.007964 0.000000 0.000000 0.000000
# 2 -0.001221 0.017547 -0.007403 0.000000 0.000000 0.000000
# 3 -0.007964 -0.007403 0.016228 0.000000 0.000000 0.000000
# 4 0.000000 0.000000 0.000000 0.015545 0.000000 0.000000
# 5 0.000000 0.000000 0.000000 0.000000 -0.000169 0.000000
# 6 0.000000 0.000000 0.000000 0.000000 0.000000 0.038120
#
#
# Mechanical properties :
#
#
# Convention : Reuss Voigt Hill
#
# Bulk Modulus (GPa) = 59.53151 64.85976 62.19563
# Shear Modulus (GPa) = 35.15060 -1152.98093 -558.91517
#
# Velocity S-wave (km/s) = 4.23714 -24.26707 -16.89582
# Velocity P-wave (km/s) = 7.37183 27.42372 18.67775
#
# Compressibility (1/GPa) = 0.01679783
#
# Stress axis : x y z
#
# Youngs Moduli (GPa) = 61.73485 56.98996 61.62020
#
# Poissons Ratio (x) = 0.06958 0.49077
# Poissons Ratio (y) = 0.07537 0.45615
# Poissons Ratio (z) = 0.49168 0.42188
#
# Static dielectric constant tensor:
#      x y z
#    x 3.800590 0.000000 0.000000 
#    y 0.000000 3.498190 0.000000 
#    z 0.000000 0.000000 3.704090 
# 
# 
# High freq. dielectric constant tensor:
#      x y z
#    x 1.777940 0.000000 0.000000 
#    y 0.000000 1.745770 0.000000 
#    z 0.000000 0.000000 1.750040 
# 
# From -- ./inp_files/34543.got.cif
#   From: 2010.06.25/outbox.cif.g09.slc.cpg/sg58_18_cif.got.tgz:34543.got - 2010.06.26 21:38:00.
