data_PCOD8238608
_publ_section_title
;
Structure prediction by ZEFSAII (Michael W. Deem and Ramdas Pophale) SiO2 
 PCOD8238608
Probable space group: P N N M
;
_chemical_formula_sum "Si O2"
_cell_formula_units_Z 56
_cell_length_a 14.845577
_cell_length_b 8.206458
_cell_length_c 22.334056
_cell_angle_alpha 90.000000
_cell_angle_beta 90.000000
_cell_angle_gamma 90.000000
_cell_volume 2720.949201
_symmetry_space_group_name_H-M "P N N M"
_symmetry_group_IT_number 58
_symmetry_cell_setting 'orthorhombic'
loop_
_space_group_symop_operation_xyz
x,y,z
-x,-y,z
1/2+x,1/2-y,1/2-z
1/2-x,1/2+y,1/2-z
-x,-y,-z
x,y,-z
1/2-x,1/2+y,1/2+z
1/2+x,1/2-y,1/2+z
loop_
_atom_site_type_symbol
_atom_site_label
_atom_site_fract_x
_atom_site_fract_y
_atom_site_fract_z
Si Si1 0.446882 0.336892 0.569055
Si Si2 0.447135 0.852323 0.663385
Si Si3 0.021554 0.183329 0.273825
Si Si4 0.756248 0.746737 0.431535
Si Si5 0.263049 0.001853 0.668642
Si Si6 0.096156 0.424859 0.366963
Si Si7 0.332543 0.187886 0.781037
O O1 0.500000 0.500000 0.587766
O O2 0.463190 0.297273 0.500000
O O3 0.493471 0.194761 0.606340
O O4 0.339506 0.342765 0.583519
O O5 0.425742 0.705335 0.710621
O O6 0.351970 0.919761 0.642072
O O7 0.500000 0.000000 0.696396
O O8 0.077499 0.264280 0.327191
O O9 0.931763 0.279887 0.257124
O O10 0.000000 0.000000 0.291736
O O11 0.756100 0.807904 0.500000
O O12 0.840970 0.624058 0.423079
O O13 0.775730 0.898078 0.387461
O O14 0.198824 0.856864 0.689710
O O15 0.273980 0.125329 0.724920
O O16 0.159710 0.548723 0.330938
O O17 0.000000 0.500000 0.388249
#
# Coordination Sequence:
#
# PCOD8238608 Si02
#       7
#     8   8   8   8   8   8   8
#     4  10  23  41  61  87 125 173 220 266 315 378
#     4  12  21  38  58  90 129 164 210 260 316 385
#     4  11  21  38  62  90 126 162 201 260 326 383
#     4  11  24  43  64  91 128 171 221 268 319 387
#     4  12  24  38  62  93 130 169 210 266 323 384
#     4  10  22  43  65  92 124 160 213 272 331 380
#     4  11  23  38  62  92 127 161 209 263 322 392
#
# _framework density 20.581054000000002
#
# number of rings (size 3 to 8) (size 9 to 14) (size 15 to 20)
#    0.000    1.000    4.286    2.571    4.000    1.143 
#    0.000    0.714    0.000    8.143    0.000    0.000 
#    0.000    0.000    0.000    0.000    0.000    0.000 
#
# Total GULP energy -694077.246057 kJ/mol
# GULP energy per Si atom -12394.236537 kJ/mol
# Density = 2.053421 g / cm^3
# Si number density = 20.581054 Si / 1000 Ang^3
#
#
#
# Elastic Constant Matrix: (Units=GPa)
#
#
# Indices 1 2 3 4 5 6 
#
# 1 97.2625 36.2919 56.0392 0.0000 0.0000 0.0000
# 2 36.2919 106.6623 59.3128 0.0000 0.0000 0.0000
# 3 56.0392 59.3128 94.1760 0.0000 0.0000 0.0000
# 4 0.0000 0.0000 0.0000 22.4519 0.0000 0.0000
# 5 0.0000 0.0000 0.0000 0.0000 30.5270 0.0000
# 6 0.0000 0.0000 0.0000 0.0000 0.0000 41.6024
#
#
#
# Elastic Compliance Matrix: (Units=1/GPa)
#
#
# Indices 1 2 3 4 5 6 
#
# 1 0.015649 -0.000225 -0.009170 0.000000 0.000000 0.000000
# 2 -0.000225 0.014432 -0.008955 0.000000 0.000000 0.000000
# 3 -0.009170 -0.008955 0.021715 0.000000 0.000000 0.000000
# 4 0.000000 0.000000 0.000000 0.044540 0.000000 0.000000
# 5 0.000000 0.000000 0.000000 0.000000 0.032758 0.000000
# 6 0.000000 0.000000 0.000000 0.000000 0.000000 0.024037
#
#
# Mechanical properties :
#
#
# Convention : Reuss Voigt Hill
#
# Bulk Modulus (GPa) = 66.24777 66.82095 66.53436
# Shear Modulus (GPa) = 25.65903 28.68005 27.16954
#
# Velocity S-wave (km/s) = 3.53474 3.73703 3.63729
# Velocity P-wave (km/s) = 6.99412 7.15250 7.07375
#
# Compressibility (1/GPa) = 0.01509485
#
# Stress axis : x y z
#
# Youngs Moduli (GPa) = 63.90209 69.29107 46.05101
#
# Poissons Ratio (x) = 0.01561 0.42229
# Poissons Ratio (y) = 0.01440 0.41240
# Poissons Ratio (z) = 0.58598 0.62052
#
# Static dielectric constant tensor:
#      x y z
#    x 4.715900 0.000000 0.000000 
#    y 0.000000 3.947620 0.000000 
#    z 0.000000 0.000000 3.443480 
# 
# 
# High freq. dielectric constant tensor:
#      x y z
#    x 1.818240 0.000000 0.000000 
#    y 0.000000 1.809030 0.000000 
#    z 0.000000 0.000000 1.783630 
# 
# From -- ./inp_files/30019.got.cif
#   From: 2010.06.25/outbox.cif.g09.slc.cpg/sg58_16_cif.got.tgz:30019.got - 2010.06.26 21:38:00.
