data_PCOD8238015
_publ_section_title
;
Structure prediction by ZEFSAII (Michael W. Deem and Ramdas Pophale) SiO2 
 PCOD8238015
Probable space group: P N N M
;
_chemical_formula_sum "Si O2"
_cell_formula_units_Z 36
_cell_length_a 6.143790
_cell_length_b 22.244683
_cell_length_c 12.966116
_cell_angle_alpha 90.000000
_cell_angle_beta 90.000000
_cell_angle_gamma 90.000000
_cell_volume 1772.035779
_symmetry_space_group_name_H-M "P N N M"
_symmetry_group_IT_number 58
_symmetry_cell_setting 'orthorhombic'
loop_
_space_group_symop_operation_xyz
x,y,z
-x,-y,z
1/2+x,1/2-y,1/2-z
1/2-x,1/2+y,1/2-z
-x,-y,-z
x,y,-z
1/2-x,1/2+y,1/2+z
1/2+x,1/2-y,1/2+z
loop_
_atom_site_type_symbol
_atom_site_label
_atom_site_fract_x
_atom_site_fract_y
_atom_site_fract_z
Si Si1 0.662763 0.918352 0.118116
Si Si2 0.427687 0.191410 0.619751
Si Si3 0.285922 0.896067 0.733493
Si Si4 0.409255 0.687179 0.705978
Si Si5 0.000000 0.000000 0.234698
O O1 0.434878 0.924300 0.177116
O O2 0.754337 0.850860 0.130622
O O3 0.616091 0.932973 0.000000
O O4 0.835393 0.965069 0.161616
O O5 0.369817 0.194818 0.500000
O O6 0.566038 0.130488 0.641551
O O7 0.572469 0.247658 0.655227
O O8 0.200542 0.190792 0.681054
O O9 0.145593 0.842406 0.783022
O O10 0.129571 0.950961 0.694700
#
# Coordination Sequence:
#
# PCOD8238015 Si02
#       5
#     8   8   8   8   4
#     4  10  21  36  61  92 123 162 203 251 312 368
#     4  11  22  39  63  88 122 164 202 252 312 366
#     4  10  22  39  58  86 125 160 204 252 303 366
#     4  10  21  40  57  90 126 155 202 253 302 371
#     4  10  21  38  61  86 126 164 205 260 303 354
#
# _framework density 20.315615000000001
#
# number of rings (size 3 to 8) (size 9 to 14) (size 15 to 20)
#    0.000    1.778    2.222    1.667    0.000    7.111 
#    0.000    0.556    0.000   17.333    0.000    0.000 
#    0.000    0.000    0.000    0.000    0.000    0.000 
#
# Total GULP energy -446392.339538 kJ/mol
# GULP energy per Si atom -12399.787209 kJ/mol
# Density = 2.026938 g / cm^3
# Si number density = 20.315615 Si / 1000 Ang^3
#
#
#
# Elastic Constant Matrix: (Units=GPa)
#
#
# Indices 1 2 3 4 5 6 
#
# 1 104.8717 46.9765 35.9620 0.0000 0.0000 0.0000
# 2 46.9765 114.7197 38.2677 0.0000 0.0000 0.0000
# 3 35.9620 38.2677 104.5996 0.0000 0.0000 0.0000
# 4 0.0000 0.0000 0.0000 12.7707 0.0000 0.0000
# 5 0.0000 0.0000 0.0000 0.0000 13.8995 0.0000
# 6 0.0000 0.0000 0.0000 0.0000 0.0000 45.8799
#
#
#
# Elastic Compliance Matrix: (Units=1/GPa)
#
#
# Indices 1 2 3 4 5 6 
#
# 1 0.012323 -0.004138 -0.002723 0.000000 0.000000 0.000000
# 2 -0.004138 0.011318 -0.002718 0.000000 0.000000 0.000000
# 3 -0.002723 -0.002718 0.011491 0.000000 0.000000 0.000000
# 4 0.000000 0.000000 0.000000 0.078304 0.000000 0.000000
# 5 0.000000 0.000000 0.000000 0.000000 0.071945 0.000000
# 6 0.000000 0.000000 0.000000 0.000000 0.000000 0.021796
#
#
# Mechanical properties :
#
#
# Convention : Reuss Voigt Hill
#
# Bulk Modulus (GPa) = 62.60128 62.95595 62.77862
# Shear Modulus (GPa) = 21.58346 28.04232 24.81289
#
# Velocity S-wave (km/s) = 3.26300 3.71931 3.49860
# Velocity P-wave (km/s) = 6.71397 7.03567 6.87670
#
# Compressibility (1/GPa) = 0.01597411
#
# Stress axis : x y z
#
# Youngs Moduli (GPa) = 81.15171 88.35538 87.02610
#
# Poissons Ratio (x) = 0.36559 0.23696
# Poissons Ratio (y) = 0.33578 0.23655
# Poissons Ratio (z) = 0.22096 0.24016
#
# Static dielectric constant tensor:
#      x y z
#    x 3.846710 0.000000 0.000000 
#    y 0.000000 4.015760 0.000000 
#    z 0.000000 0.000000 3.245340 
# 
# 
# High freq. dielectric constant tensor:
#      x y z
#    x 1.811260 0.000000 0.000000 
#    y 0.000000 1.814780 0.000000 
#    z 0.000000 0.000000 1.748190 
# 
# From -- ./inp_files/11664.got.cif
#   From: 2010.06.25/outbox.cif.g09.slc.cpg/sg58_6_cif.got.tgz:11664.got - 2010.06.26 21:38:00.
