data_PCOD8238714
_publ_section_title
;
Structure prediction by ZEFSAII (Michael W. Deem and Ramdas Pophale) SiO2 
 PCOD8238714
Probable space group: P N N M
;
_chemical_formula_sum "Si O2"
_cell_formula_units_Z 40
_cell_length_a 25.021316
_cell_length_b 9.969988
_cell_length_c 7.914402
_cell_angle_alpha 90.000000
_cell_angle_beta 90.000000
_cell_angle_gamma 90.000000
_cell_volume 1974.344295
_symmetry_space_group_name_H-M "P N N M"
_symmetry_group_IT_number 58
_symmetry_cell_setting 'orthorhombic'
loop_
_space_group_symop_operation_xyz
x,y,z
-x,-y,z
1/2+x,1/2-y,1/2-z
1/2-x,1/2+y,1/2-z
-x,-y,-z
x,y,-z
1/2-x,1/2+y,1/2+z
1/2+x,1/2-y,1/2+z
loop_
_atom_site_type_symbol
_atom_site_label
_atom_site_fract_x
_atom_site_fract_y
_atom_site_fract_z
Si Si1 0.000000 0.000000 0.744151
Si Si2 0.593548 0.200416 0.500000
Si Si3 0.390780 0.616564 0.818696
Si Si4 0.703909 0.835252 0.807190
Si Si5 0.524050 0.722078 0.500000
Si Si6 0.372025 0.100735 0.500000
Si Si7 0.795221 0.047198 0.197591
O O1 0.049656 0.061182 0.643660
O O2 0.973379 0.122415 0.843575
O O3 0.613176 0.276960 0.667828
O O4 0.529779 0.189462 0.500000
O O5 0.620536 0.057453 0.500000
O O6 0.352390 0.493079 0.773261
O O7 0.373113 0.680852 0.000000
O O8 0.657142 0.859274 0.672859
O O9 0.753107 0.931008 0.762254
O O10 0.724414 0.682629 0.789184
O O11 0.684040 0.861328 0.000000
O O12 0.571689 0.825995 0.500000
O O13 0.801653 0.075549 0.000000
#
# Coordination Sequence:
#
# PCOD8238714 Si02
#       7
#     4   4   8   8   4   4   8
#     4   9  19  36  64  97 127 160 217 269 324 381
#     4  10  24  41  62  95 129 172 213 268 321 384
#     4  11  22  38  65  92 129 169 215 268 322 376
#     4  11  27  42  65  94 127 168 215 262 321 382
#     4   9  19  38  66  94 127 167 213 263 323 390
#     4  12  24  43  68  91 131 173 214 262 332 372
#     4  11  24  43  64  93 129 166 212 266 318 380
#
# _framework density 20.259891
#
# number of rings (size 3 to 8) (size 9 to 14) (size 15 to 20)
#    0.000    1.400    2.000    3.000    5.600    0.800 
#    0.000    4.000    0.000    6.000    0.000    0.000 
#    0.000    0.000    0.000    0.000    0.000    0.000 
#
# Total GULP energy -495818.600483 kJ/mol
# GULP energy per Si atom -12395.465012 kJ/mol
# Density = 2.021378 g / cm^3
# Si number density = 20.259891 Si / 1000 Ang^3
#
#
#
# Elastic Constant Matrix: (Units=GPa)
#
#
# Indices 1 2 3 4 5 6 
#
# 1 68.5922 47.5848 30.9371 0.0000 0.0000 0.0000
# 2 47.5848 145.5130 46.0582 0.0000 0.0000 0.0000
# 3 30.9371 46.0582 140.1325 0.0000 0.0000 0.0000
# 4 0.0000 0.0000 0.0000 16.6776 0.0000 0.0000
# 5 0.0000 0.0000 0.0000 0.0000 -109.2696 0.0000
# 6 0.0000 0.0000 0.0000 0.0000 0.0000 30.7699
#
#
#
# Elastic Compliance Matrix: (Units=1/GPa)
#
#
# Indices 1 2 3 4 5 6 
#
# 1 0.019599 -0.005625 -0.002478 0.000000 0.000000 0.000000
# 2 -0.005625 0.009284 -0.001810 0.000000 0.000000 0.000000
# 3 -0.002478 -0.001810 0.008278 0.000000 0.000000 0.000000
# 4 0.000000 0.000000 0.000000 0.059961 0.000000 0.000000
# 5 0.000000 0.000000 0.000000 0.000000 -0.009152 0.000000
# 6 0.000000 0.000000 0.000000 0.000000 0.000000 0.032499
#
#
# Mechanical properties :
#
#
# Convention : Reuss Voigt Hill
#
# Bulk Modulus (GPa) = 57.68359 67.04420 62.36390
# Shear Modulus (GPa) = 34.22939 2.94607 18.58773
#
# Velocity S-wave (km/s) = 4.11483 1.20719 3.03225
# Velocity P-wave (km/s) = 7.14908 5.92511 6.56568
#
# Compressibility (1/GPa) = 0.01733595
#
# Stress axis : x y z
#
# Youngs Moduli (GPa) = 51.02398 107.70722 120.80160
#
# Poissons Ratio (x) = 0.60582 0.29936
# Poissons Ratio (y) = 0.28699 0.21863
# Poissons Ratio (z) = 0.12644 0.19493
#
# Static dielectric constant tensor:
#      x y z
#    x 3.670230 0.000000 0.000000 
#    y 0.000000 3.666150 0.000000 
#    z 0.000000 0.000000 6.399620 
# 
# 
# High freq. dielectric constant tensor:
#      x y z
#    x 1.794190 0.000000 0.000000 
#    y 0.000000 1.788900 0.000000 
#    z 0.000000 0.000000 1.805000 
# 
# From -- ./inp_files/10310.got.cif
#   From: 2010.06.25/outbox.cif.g09.slc.cpg/sg58_6_cif.got.tgz:10310.got - 2010.06.26 21:38:00.
