data_PCOD8238104
_publ_section_title
;
Structure prediction by ZEFSAII (Michael W. Deem and Ramdas Pophale) SiO2 
 PCOD8238104
Probable space group: P N N M
;
_chemical_formula_sum "Si O2"
_cell_formula_units_Z 64
_cell_length_a 15.228143
_cell_length_b 23.509956
_cell_length_c 9.047336
_cell_angle_alpha 90.000000
_cell_angle_beta 90.000000
_cell_angle_gamma 90.000000
_cell_volume 3239.063649
_symmetry_space_group_name_H-M "P N N M"
_symmetry_group_IT_number 58
_symmetry_cell_setting 'orthorhombic'
loop_
_space_group_symop_operation_xyz
x,y,z
-x,-y,z
1/2+x,1/2-y,1/2-z
1/2-x,1/2+y,1/2-z
-x,-y,-z
x,y,-z
1/2-x,1/2+y,1/2+z
1/2+x,1/2-y,1/2+z
loop_
_atom_site_type_symbol
_atom_site_label
_atom_site_fract_x
_atom_site_fract_y
_atom_site_fract_z
Si Si1 0.080042 0.394072 0.327471
Si Si2 0.147580 0.500841 0.828153
Si Si3 0.905647 0.372164 0.174945
Si Si4 0.251398 0.817689 0.827599
Si Si5 0.393394 0.613300 0.668232
Si Si6 0.589765 0.608104 0.331080
Si Si7 0.849177 0.000746 0.671813
Si Si8 0.757401 0.300389 0.326252
O O1 0.058680 0.397337 0.500000
O O2 0.087459 0.458107 0.265111
O O3 0.168581 0.359857 0.294345
O O4 0.001403 0.361863 0.244047
O O5 0.127823 0.565246 0.780061
O O6 0.248038 0.487284 0.790409
O O7 0.125676 0.491567 0.000000
O O8 0.841085 0.325391 0.242048
O O9 0.909410 0.363699 0.000000
O O10 0.161793 0.847553 0.772145
O O11 0.263504 0.762411 0.729040
O O12 0.246810 0.801030 0.000000
O O13 0.376203 0.593924 0.500000
O O14 0.493279 0.635402 0.688086
O O15 0.376874 0.560547 0.772833
O O16 0.329004 0.663804 0.714484
O O17 0.611613 0.593397 0.500000
O O18 0.591351 0.548904 0.244581
O O19 0.867495 0.002170 0.500000
O O20 0.776879 0.300220 0.500000
#
# Coordination Sequence:
#
# PCOD8238104 Si02
#       8
#     8   8   8   8   8   8   8   8
#     4  11  23  39  62  93 123 157 201 250 299 355
#     4  10  21  37  59  88 122 160 198 240 301 364
#     4  11  23  41  63  88 122 163 199 243 304 363
#     4  10  23  42  62  85 119 159 200 246 301 355
#     4  10  22  39  61  87 119 156 196 242 294 356
#     4  10  21  40  62  87 119 159 200 238 295 362
#     4  11  21  35  59  91 124 155 194 242 296 353
#     4  11  24  41  62  89 118 154 206 255 297 350
#
# _framework density 19.758794999999999
#
# number of rings (size 3 to 8) (size 9 to 14) (size 15 to 20)
#    0.000    1.500    2.500    2.250    0.000    8.000 
#    0.000    1.250    0.000    0.000    0.000    0.000 
#    0.000    0.000    0.000    0.000    0.000    0.000 
#
# Total GULP energy -793976.579244 kJ/mol
# GULP energy per Si atom -12405.884051 kJ/mol
# Density = 1.971382 g / cm^3
# Si number density = 19.758795 Si / 1000 Ang^3
#
#
#
# Elastic Constant Matrix: (Units=GPa)
#
#
# Indices 1 2 3 4 5 6 
#
# 1 42.0329 67.8523 107.8628 0.0000 0.0000 0.0000
# 2 67.8523 70.1923 -2.1706 0.0000 0.0000 0.0000
# 3 107.8628 -2.1706 4.2122 0.0000 0.0000 0.0000
# 4 0.0000 0.0000 0.0000 36.3687 0.0000 0.0000
# 5 0.0000 0.0000 0.0000 0.0000 26.3352 0.0000
# 6 0.0000 0.0000 0.0000 0.0000 0.0000 8.8761
#
#
#
# Elastic Compliance Matrix: (Units=1/GPa)
#
#
# Indices 1 2 3 4 5 6 
#
# 1 -0.000340 0.000608 0.009021 0.000000 0.000000 0.000000
# 2 0.000608 0.013391 -0.008661 0.000000 0.000000 0.000000
# 3 0.009021 -0.008661 0.001933 0.000000 0.000000 0.000000
# 4 0.000000 0.000000 0.000000 0.027496 0.000000 0.000000
# 5 0.000000 0.000000 0.000000 0.000000 0.037972 0.000000
# 6 0.000000 0.000000 0.000000 0.000000 0.000000 0.112662
#
#
# Mechanical properties :
#
#
# Convention : Reuss Voigt Hill
#
# Bulk Modulus (GPa) = 59.10054 51.50295 55.30174
# Shear Modulus (GPa) = 25.40420 10.50884 17.95652
#
# Velocity S-wave (km/s) = 3.58958 2.30870 3.01788
# Velocity P-wave (km/s) = 6.86702 5.76448 6.33977
#
# Compressibility (1/GPa) = 0.01692032
#
# Stress axis : x y z
#
# Youngs Moduli (GPa) = -2940.62629 74.67523 517.41923
#
# Poissons Ratio (x) = -0.04538 -4.66778
# Poissons Ratio (y) = 1.78701 4.48125
# Poissons Ratio (z) = 26.52819 0.64675
#
# Static dielectric constant tensor:
#      x y z
#    x 3.835850 0.000000 0.000000 
#    y 0.000000 3.429440 0.000000 
#    z 0.000000 0.000000 3.577470 
# 
# 
# High freq. dielectric constant tensor:
#      x y z
#    x 1.787330 0.000000 0.000000 
#    y 0.000000 1.761840 0.000000 
#    z 0.000000 0.000000 1.772250 
# 
# From -- ./inp_files/6906.got.cif
#   From: 2010.06.25/outbox.cif.g09.slc.cpg/sg58_4_cif.got.tgz:6906.got - 2010.06.26 21:38:00.
