data_PCOD8238671
_publ_section_title
;
Structure prediction by ZEFSAII (Michael W. Deem and Ramdas Pophale) SiO2 
 PCOD8238671
Probable space group: P N N M
;
_chemical_formula_sum "Si O2"
_cell_formula_units_Z 48
_cell_length_a 13.890731
_cell_length_b 20.195372
_cell_length_c 8.469797
_cell_angle_alpha 90.000000
_cell_angle_beta 90.000000
_cell_angle_gamma 90.000000
_cell_volume 2376.019277
_symmetry_space_group_name_H-M "P N N M"
_symmetry_group_IT_number 58
_symmetry_cell_setting 'orthorhombic'
loop_
_space_group_symop_operation_xyz
x,y,z
-x,-y,z
1/2+x,1/2-y,1/2-z
1/2-x,1/2+y,1/2-z
-x,-y,-z
x,y,-z
1/2-x,1/2+y,1/2+z
1/2+x,1/2-y,1/2+z
loop_
_atom_site_type_symbol
_atom_site_label
_atom_site_fract_x
_atom_site_fract_y
_atom_site_fract_z
Si Si1 0.041636 0.929545 0.317210
Si Si2 0.044832 0.197425 0.820419
Si Si3 0.574157 0.810088 0.818337
Si Si4 0.236995 0.239059 0.318876
Si Si5 0.747987 0.116374 0.682599
Si Si6 0.053525 0.433619 0.686350
O O1 0.019426 0.915074 0.500000
O O2 0.156031 0.926173 0.283620
O O3 0.984663 0.877599 0.210911
O O4 0.000000 0.000000 0.265206
O O5 0.157718 0.206740 0.793293
O O6 0.989072 0.244412 0.699251
O O7 0.019017 0.216492 0.000000
O O8 0.667530 0.803701 0.709725
O O9 0.512411 0.872433 0.759454
O O10 0.605124 0.817754 0.000000
O O11 0.205363 0.232584 0.500000
O O12 0.253249 0.316207 0.281680
O O13 0.739842 0.136116 0.500000
O O14 0.657206 0.071505 0.731175
O O15 0.070463 0.433266 0.500000
O O16 0.000000 0.500000 0.742866
#
# Coordination Sequence:
#
# PCOD8238671 Si02
#       6
#     8   8   8   8   8   8
#     4  10  23  43  65  92 130 171 210 261 321 377
#     4  12  24  39  63  94 126 164 212 261 312 374
#     4  11  22  39  63  92 126 163 208 261 313 372
#     4  12  24  39  63  93 127 166 211 266 317 372
#     4  11  22  38  64  92 123 164 211 261 317 381
#     4  10  23  42  64  91 128 169 208 257 317 378
#
# _framework density 20.201857
#
# number of rings (size 3 to 8) (size 9 to 14) (size 15 to 20)
#    0.000    1.000    3.333    4.000    0.000    3.333 
#    0.000    3.333    0.000    0.000    0.000    0.000 
#    0.000    0.000    0.000    0.000    0.000    0.000 
#
# Total GULP energy -595513.017227 kJ/mol
# GULP energy per Si atom -12406.521192 kJ/mol
# Density = 2.015588 g / cm^3
# Si number density = 20.201857 Si / 1000 Ang^3
#
#
#
# Elastic Constant Matrix: (Units=GPa)
#
#
# Indices 1 2 3 4 5 6 
#
# 1 118.6218 43.7503 12.4599 0.0000 0.0000 0.0000
# 2 43.7503 109.1670 16.7318 0.0000 0.0000 0.0000
# 3 12.4599 16.7318 62.3680 0.0000 0.0000 0.0000
# 4 0.0000 0.0000 0.0000 23.4951 0.0000 0.0000
# 5 0.0000 0.0000 0.0000 0.0000 32.2278 0.0000
# 6 0.0000 0.0000 0.0000 0.0000 0.0000 38.5656
#
#
#
# Elastic Compliance Matrix: (Units=1/GPa)
#
#
# Indices 1 2 3 4 5 6 
#
# 1 0.009947 -0.003840 -0.000957 0.000000 0.000000 0.000000
# 2 -0.003840 0.011035 -0.002193 0.000000 0.000000 0.000000
# 3 -0.000957 -0.002193 0.016814 0.000000 0.000000 0.000000
# 4 0.000000 0.000000 0.000000 0.042562 0.000000 0.000000
# 5 0.000000 0.000000 0.000000 0.000000 0.031029 0.000000
# 6 0.000000 0.000000 0.000000 0.000000 0.000000 0.025930
#
#
# Mechanical properties :
#
#
# Convention : Reuss Voigt Hill
#
# Bulk Modulus (GPa) = 41.98981 48.44897 45.21939
# Shear Modulus (GPa) = 31.40008 33.33870 32.36939
#
# Velocity S-wave (km/s) = 3.94676 4.06677 4.00721
# Velocity P-wave (km/s) = 6.44976 6.78867 6.62138
#
# Compressibility (1/GPa) = 0.02381530
#
# Stress axis : x y z
#
# Youngs Moduli (GPa) = 100.53452 90.61876 59.47600
#
# Poissons Ratio (x) = 0.34794 0.05692
# Poissons Ratio (y) = 0.38602 0.13045
# Poissons Ratio (z) = 0.09622 0.19876
#
# Static dielectric constant tensor:
#      x y z
#    x 4.060180 0.000000 0.000000 
#    y 0.000000 3.630930 0.000000 
#    z 0.000000 0.000000 3.594110 
# 
# 
# High freq. dielectric constant tensor:
#      x y z
#    x 1.803300 0.000000 0.000000 
#    y 0.000000 1.780620 0.000000 
#    z 0.000000 0.000000 1.790230 
# 
# From -- ./inp_files/5830.got.cif
#   From: 2010.06.25/outbox.cif.g09.slc.cpg/sg58_3_cif.got.tgz:5830.got - 2010.06.26 21:38:00.
