data_PCOD8238282
_publ_section_title
;
Structure prediction by ZEFSAII (Michael W. Deem and Ramdas Pophale) SiO2 
 PCOD8238282
Probable space group: P N N M
;
_chemical_formula_sum "Si O2"
_cell_formula_units_Z 48
_cell_length_a 12.604023
_cell_length_b 7.401563
_cell_length_c 23.982430
_cell_angle_alpha 90.000000
_cell_angle_beta 90.000000
_cell_angle_gamma 90.000000
_cell_volume 2237.308191
_symmetry_space_group_name_H-M "P N N M"
_symmetry_group_IT_number 58
_symmetry_cell_setting 'orthorhombic'
loop_
_space_group_symop_operation_xyz
x,y,z
-x,-y,z
1/2+x,1/2-y,1/2-z
1/2-x,1/2+y,1/2-z
-x,-y,-z
x,y,-z
1/2-x,1/2+y,1/2+z
1/2+x,1/2-y,1/2+z
loop_
_atom_site_type_symbol
_atom_site_label
_atom_site_fract_x
_atom_site_fract_y
_atom_site_fract_z
Si Si1 0.037633 0.692372 0.332613
Si Si2 0.072721 0.170599 0.439452
Si Si3 0.976654 0.712159 0.216367
Si Si4 0.284741 0.711377 0.355305
Si Si5 0.195714 0.539035 0.935720
Si Si6 0.593122 0.620970 0.385313
O O1 0.998639 0.801813 0.277824
O O2 0.161440 0.727524 0.341352
O O3 0.000000 0.500000 0.311614
O O4 0.975109 0.713392 0.390096
O O5 0.076206 0.273440 0.500000
O O6 0.188225 0.110085 0.420719
O O7 0.000000 0.000000 0.447437
O O8 0.056170 0.817206 0.175605
O O9 0.000000 0.500000 0.210793
O O10 0.854292 0.754021 0.200119
O O11 0.303986 0.509365 0.379508
O O12 0.324940 0.859483 0.400074
O O13 0.115114 0.702202 0.922380
O O14 0.184029 0.484445 0.000000
O O15 0.500000 0.500000 0.413588
#
# Coordination Sequence:
#
# PCOD8238282 Si02
#       6
#     8   8   8   8   8   8
#     4  11  24  40  65  99 130 173 226 269 342 398
#     4  10  21  39  62  92 130 170 217 270 327 395
#     4  10  22  43  64  94 133 174 216 276 334 394
#     4  11  23  42  67  95 134 174 221 279 333 398
#     4  11  23  42  70  98 133 181 223 274 336 397
#     4  10  23  43  66  95 138 172 223 280 332 391
#
# _framework density 21.454352
#
# number of rings (size 3 to 8) (size 9 to 14) (size 15 to 20)
#    0.000    1.500    3.333    1.000    0.000    7.333 
#    0.000    5.833    0.000    0.000    0.000    0.000 
#    0.000    0.000    0.000    0.000    0.000    0.000 
#
# Total GULP energy -594762.974879 kJ/mol
# GULP energy per Si atom -12390.895310 kJ/mol
# Density = 2.140552 g / cm^3
# Si number density = 21.454352 Si / 1000 Ang^3
#
#
#
# Elastic Constant Matrix: (Units=GPa)
#
#
# Indices 1 2 3 4 5 6 
#
# 1 73.1021 23.2847 55.0769 0.0000 0.0000 0.0000
# 2 23.2847 98.1118 36.1464 0.0000 0.0000 0.0000
# 3 55.0769 36.1464 120.8776 0.0000 0.0000 0.0000
# 4 0.0000 0.0000 0.0000 7.4367 0.0000 0.0000
# 5 0.0000 0.0000 0.0000 0.0000 33.0042 0.0000
# 6 0.0000 0.0000 0.0000 0.0000 0.0000 32.8989
#
#
#
# Elastic Compliance Matrix: (Units=1/GPa)
#
#
# Indices 1 2 3 4 5 6 
#
# 1 0.021064 -0.001644 -0.009106 0.000000 0.000000 0.000000
# 2 -0.001644 0.011583 -0.002714 0.000000 0.000000 0.000000
# 3 -0.009106 -0.002714 0.013234 0.000000 0.000000 0.000000
# 4 0.000000 0.000000 0.000000 0.134467 0.000000 0.000000
# 5 0.000000 0.000000 0.000000 0.000000 0.030299 0.000000
# 6 0.000000 0.000000 0.000000 0.000000 0.000000 0.030396
#
#
# Mechanical properties :
#
#
# Convention : Reuss Voigt Hill
#
# Bulk Modulus (GPa) = 52.76767 57.90084 55.33426
# Shear Modulus (GPa) = 18.22894 26.50686 22.36790
#
# Velocity S-wave (km/s) = 2.91806 3.51878 3.23241
# Velocity P-wave (km/s) = 6.00018 6.59967 6.30705
#
# Compressibility (1/GPa) = 0.01895100
#
# Stress axis : x y z
#
# Youngs Moduli (GPa) = 47.47472 86.33535 75.56539
#
# Poissons Ratio (x) = 0.14196 0.68809
# Poissons Ratio (y) = 0.07806 0.20512
# Poissons Ratio (z) = 0.43230 0.23435
#
# Static dielectric constant tensor:
#      x y z
#    x 4.041330 0.000000 0.000000 
#    y 0.000000 3.887670 0.000000 
#    z 0.000000 0.000000 4.864690 
# 
# 
# High freq. dielectric constant tensor:
#      x y z
#    x 1.844780 0.000000 0.000000 
#    y 0.000000 1.843370 0.000000 
#    z 0.000000 0.000000 1.847780 
# 
# From -- ./inp_files/31913.got.cif
#   From: 2010.06.25/outbox.cif.g09.slc.cpg/sg58_16_cif.got.tgz:31913.got - 2010.06.26 21:38:00.
