data_PCOD8238953
_publ_section_title
;
Structure prediction by ZEFSAII (Michael W. Deem and Ramdas Pophale) SiO2 
 PCOD8238953
Probable space group: P N N M
;
_chemical_formula_sum "Si O2"
_cell_formula_units_Z 40
_cell_length_a 6.729233
_cell_length_b 15.563215
_cell_length_c 17.664921
_cell_angle_alpha 90.000000
_cell_angle_beta 90.000000
_cell_angle_gamma 90.000000
_cell_volume 1850.020678
_symmetry_space_group_name_H-M "P N N M"
_symmetry_group_IT_number 58
_symmetry_cell_setting 'orthorhombic'
loop_
_space_group_symop_operation_xyz
x,y,z
-x,-y,z
1/2+x,1/2-y,1/2-z
1/2-x,1/2+y,1/2-z
-x,-y,-z
x,y,-z
1/2-x,1/2+y,1/2+z
1/2+x,1/2-y,1/2+z
loop_
_atom_site_type_symbol
_atom_site_label
_atom_site_fract_x
_atom_site_fract_y
_atom_site_fract_z
Si Si1 0.865925 0.915566 0.000000
Si Si2 0.165193 0.287900 0.663579
Si Si3 0.500000 0.500000 0.120321
Si Si4 0.152096 0.576116 0.656190
Si Si5 0.670986 0.740197 0.500000
Si Si6 0.811886 0.438974 0.000000
Si Si7 0.990606 0.873618 0.256528
O O1 0.721957 0.920658 0.929380
O O2 0.984829 0.825014 0.000000
O O3 0.000000 0.000000 0.000000
O O4 0.197666 0.275700 0.574169
O O5 0.147655 0.200384 0.709115
O O6 0.347335 0.341625 0.697358
O O7 0.957209 0.335303 0.675276
O O8 0.590441 0.575005 0.173787
O O9 0.678744 0.459295 0.072979
O O10 0.340351 0.563690 0.711261
O O11 0.000000 0.500000 0.670205
O O12 0.607349 0.840953 0.500000
O O13 0.000000 0.500000 0.000000
#
# Coordination Sequence:
#
# PCOD8238953 Si02
#       7
#     4   8   4   8   4   4   8
#     4  12  26  46  74 104 147 190 246 302 368 451
#     4  12  25  46  73 107 142 187 244 295 372 434
#     4  11  26  46  68 103 144 184 236 297 366 420
#     4  12  26  44  70 102 142 192 231 297 372 429
#     4  12  24  49  75 102 148 191 246 300 363 447
#     4  11  27  47  73 103 139 194 244 293 361 438
#     4  12  25  44  72 105 143 185 241 307 356 443
#
# _framework density 21.621379999999998
#
# number of rings (size 3 to 8) (size 9 to 14) (size 15 to 20)
#    0.000    0.200    6.000    3.300    1.400    5.600 
#    0.000    0.000    0.000    0.000    0.000    0.000 
#    0.000    0.000    0.000    0.000    0.000    0.000 
#
# Total GULP energy -496102.323289 kJ/mol
# GULP energy per Si atom -12402.558082 kJ/mol
# Density = 2.157217 g / cm^3
# Si number density = 21.621380 Si / 1000 Ang^3
#
#
#
# Elastic Constant Matrix: (Units=GPa)
#
#
# Indices 1 2 3 4 5 6 
#
# 1 89.2831 40.1432 48.3634 0.0000 0.0000 0.0000
# 2 40.1432 127.6927 39.6796 0.0000 0.0000 0.0000
# 3 48.3634 39.6796 145.3533 0.0000 0.0000 0.0000
# 4 0.0000 0.0000 0.0000 36.3970 0.0000 0.0000
# 5 0.0000 0.0000 0.0000 0.0000 29.8568 0.0000
# 6 0.0000 0.0000 0.0000 0.0000 0.0000 47.8304
#
#
#
# Elastic Compliance Matrix: (Units=1/GPa)
#
#
# Indices 1 2 3 4 5 6 
#
# 1 0.014930 -0.003442 -0.004028 0.000000 0.000000 0.000000
# 2 -0.003442 0.009351 -0.001407 0.000000 0.000000 0.000000
# 3 -0.004028 -0.001407 0.008604 0.000000 0.000000 0.000000
# 4 0.000000 0.000000 0.000000 0.027475 0.000000 0.000000
# 5 0.000000 0.000000 0.000000 0.000000 0.033493 0.000000
# 6 0.000000 0.000000 0.000000 0.000000 0.000000 0.020907
#
#
# Mechanical properties :
#
#
# Convention : Reuss Voigt Hill
#
# Bulk Modulus (GPa) = 66.09321 68.74460 67.41891
# Shear Modulus (GPa) = 36.34839 38.42638 37.38739
#
# Velocity S-wave (km/s) = 4.10461 4.22031 4.16286
# Velocity P-wave (km/s) = 7.28688 7.45733 7.37259
#
# Compressibility (1/GPa) = 0.01513015
#
# Stress axis : x y z
#
# Youngs Moduli (GPa) = 66.98039 106.94419 116.22197
#
# Poissons Ratio (x) = 0.36809 0.46814
# Poissons Ratio (y) = 0.23054 0.16357
# Poissons Ratio (z) = 0.26980 0.15051
#
# Static dielectric constant tensor:
#      x y z
#    x 3.817900 0.000000 0.000000 
#    y 0.000000 4.189760 0.000000 
#    z 0.000000 0.000000 4.082490 
# 
# 
# High freq. dielectric constant tensor:
#      x y z
#    x 1.844590 0.000000 0.000000 
#    y 0.000000 1.867390 0.000000 
#    z 0.000000 0.000000 1.871940 
# 
# From -- ./inp_files/24227.got.cif
#   From: 2010.06.25/outbox.cif.g09.slc.cpg/sg58_13_cif.got.tgz:24227.got - 2010.06.26 21:38:00.
