data_PCOD8238430
_publ_section_title
;
Structure prediction by ZEFSAII (Michael W. Deem and Ramdas Pophale) SiO2 
 PCOD8238430
Probable space group: P N N M
;
_chemical_formula_sum "Si O2"
_cell_formula_units_Z 64
_cell_length_a 17.697873
_cell_length_b 9.388156
_cell_length_c 21.569505
_cell_angle_alpha 90.000000
_cell_angle_beta 90.000000
_cell_angle_gamma 90.000000
_cell_volume 3583.781724
_symmetry_space_group_name_H-M "P N N M"
_symmetry_group_IT_number 58
_symmetry_cell_setting 'orthorhombic'
loop_
_space_group_symop_operation_xyz
x,y,z
-x,-y,z
1/2+x,1/2-y,1/2-z
1/2-x,1/2+y,1/2-z
-x,-y,-z
x,y,-z
1/2-x,1/2+y,1/2+z
1/2+x,1/2-y,1/2+z
loop_
_atom_site_type_symbol
_atom_site_label
_atom_site_fract_x
_atom_site_fract_y
_atom_site_fract_z
Si Si1 0.844688 0.414886 0.854441
Si Si2 0.409409 0.616521 0.600974
Si Si3 0.947536 0.874358 0.760759
Si Si4 0.304950 0.260976 0.187027
Si Si5 0.785120 0.671064 0.928537
Si Si6 0.932634 0.197543 0.067626
Si Si7 0.946086 0.380594 0.740293
Si Si8 0.790873 0.925125 0.727658
O O1 0.838714 0.544929 0.902459
O O2 0.876725 0.274315 0.885484
O O3 0.898404 0.454429 0.795962
O O4 0.761121 0.377404 0.829866
O O5 0.410460 0.581827 0.673821
O O6 0.333618 0.686447 0.575765
O O7 0.479986 0.720011 0.585862
O O8 0.414831 0.468876 0.565260
O O9 0.874566 0.859518 0.715833
O O10 0.996224 0.733665 0.768014
O O11 0.000000 0.000000 0.734926
O O12 0.288258 0.305895 0.115601
O O13 0.389447 0.194627 0.191362
O O14 0.245083 0.141429 0.209532
O O15 0.296366 0.401619 0.230682
O O16 0.760454 0.641739 0.000000
O O17 0.918891 0.263838 0.000000
O O18 0.000000 0.500000 0.708352
#
# Coordination Sequence:
#
# PCOD8238430 Si02
#       8
#     8   8   8   8   8   8   8   8
#     4  10  22  37  52  79 111 141 183 218 271 320
#     4  11  20  33  49  79 105 144 187 215 254 315
#     4  12  19  35  58  77 110 145 177 220 280 324
#     4  10  22  37  55  82 111 140 187 220 277 327
#     4  11  22  37  55  76 109 150 184 219 262 319
#     4  11  21  34  50  73 108 148 184 218 252 307
#     4  11  22  36  55  82 111 140 176 230 280 332
#     4  10  22  35  54  81 108 142 176 232 269 326
#
# _framework density 17.858229999999999
#
# number of rings (size 3 to 8) (size 9 to 14) (size 15 to 20)
#    0.000    1.250    5.000    2.625    5.250    0.000 
#    0.000    1.250    0.000    0.375    0.000    7.875 
#    0.000    0.000    0.000    0.000    0.000    0.000 
#
# Total GULP energy -793321.937967 kJ/mol
# GULP energy per Si atom -12395.655281 kJ/mol
# Density = 1.781758 g / cm^3
# Si number density = 17.858230 Si / 1000 Ang^3
#
#
#
# Elastic Constant Matrix: (Units=GPa)
#
#
# Indices 1 2 3 4 5 6 
#
# 1 112.1189 36.8171 42.8222 0.0000 0.0000 0.0000
# 2 36.8171 67.2314 30.7478 0.0000 0.0000 0.0000
# 3 42.8222 30.7478 78.8586 0.0000 0.0000 0.0000
# 4 0.0000 0.0000 0.0000 14.9562 0.0000 0.0000
# 5 0.0000 0.0000 0.0000 0.0000 15.5940 0.0000
# 6 0.0000 0.0000 0.0000 0.0000 0.0000 34.2784
#
#
#
# Elastic Compliance Matrix: (Units=1/GPa)
#
#
# Indices 1 2 3 4 5 6 
#
# 1 0.012264 -0.004467 -0.004918 0.000000 0.000000 0.000000
# 2 -0.004467 0.019729 -0.005267 0.000000 0.000000 0.000000
# 3 -0.004918 -0.005267 0.017405 0.000000 0.000000 0.000000
# 4 0.000000 0.000000 0.000000 0.066862 0.000000 0.000000
# 5 0.000000 0.000000 0.000000 0.000000 0.064127 0.000000
# 6 0.000000 0.000000 0.000000 0.000000 0.000000 0.029173
#
#
# Mechanical properties :
#
#
# Convention : Reuss Voigt Hill
#
# Bulk Modulus (GPa) = 49.76456 53.22036 51.49246
# Shear Modulus (GPa) = 20.36142 22.82051 21.59097
#
# Velocity S-wave (km/s) = 3.38030 3.57861 3.48087
# Velocity P-wave (km/s) = 6.56980 6.85139 6.71207
#
# Compressibility (1/GPa) = 0.02009462
#
# Stress axis : x y z
#
# Youngs Moduli (GPa) = 81.53727 50.68695 57.45403
#
# Poissons Ratio (x) = 0.22641 0.28257
# Poissons Ratio (y) = 0.36422 0.30260
# Poissons Ratio (z) = 0.40101 0.26696
#
# Static dielectric constant tensor:
#      x y z
#    x 3.423210 0.000000 0.000000 
#    y 0.000000 3.368590 0.000000 
#    z 0.000000 0.000000 3.124390 
# 
# 
# High freq. dielectric constant tensor:
#      x y z
#    x 1.689490 0.000000 0.000000 
#    y 0.000000 1.696030 0.000000 
#    z 0.000000 0.000000 1.656450 
# 
# From -- ./inp_files/30307.got.cif
#   From: 2010.06.25/outbox.cif.g09.slc.cpg/sg58_16_cif.got.tgz:30307.got - 2010.06.26 21:38:00.
