data_PCOD8238019
_publ_section_title
;
Structure prediction by ZEFSAII (Michael W. Deem and Ramdas Pophale) SiO2 
 PCOD8238019
Probable space group: P N N M
;
_chemical_formula_sum "Si O2"
_cell_formula_units_Z 28
_cell_length_a 5.037125
_cell_length_b 12.556728
_cell_length_c 18.796231
_cell_angle_alpha 90.000000
_cell_angle_beta 90.000000
_cell_angle_gamma 90.000000
_cell_volume 1188.858012
_symmetry_space_group_name_H-M "P N N M"
_symmetry_group_IT_number 58
_symmetry_cell_setting 'orthorhombic'
loop_
_space_group_symop_operation_xyz
x,y,z
-x,-y,z
1/2+x,1/2-y,1/2-z
1/2-x,1/2+y,1/2-z
-x,-y,-z
x,y,-z
1/2-x,1/2+y,1/2+z
1/2+x,1/2-y,1/2+z
loop_
_atom_site_type_symbol
_atom_site_label
_atom_site_fract_x
_atom_site_fract_y
_atom_site_fract_z
Si Si1 0.562197 0.769117 0.079705
Si Si2 0.561017 0.781456 0.668735
Si Si3 0.305892 0.418476 0.249564
Si Si4 0.500000 0.000000 0.125378
O O1 0.855514 0.741581 0.105608
O O2 0.352667 0.712737 0.133326
O O3 0.539735 0.896890 0.076605
O O4 0.520717 0.725073 0.000000
O O5 0.544759 0.692622 0.731476
O O6 0.467344 0.892380 0.706268
O O7 0.500000 0.500000 0.206514
O O8 0.249815 0.478064 0.323757
#
# Coordination Sequence:
#
# PCOD8238019 Si02
#       4
#     8   8   8   4
#     4  11  23  41  61  90 132 175 214 255 319 400
#     4  11  24  39  63  95 129 170 212 265 326 385
#     4  11  22  40  63  98 134 163 214 279 336 385
#     4  10  21  36  62  98 125 164 208 274 340 388
#
# _framework density 23.552014
#
# number of rings (size 3 to 8) (size 9 to 14) (size 15 to 20)
#    0.000    1.143    2.857    4.714    4.000    0.000 
#    0.000    4.286    0.000    5.143    0.000    0.000 
#    0.000    0.000    0.000    0.000    0.000    0.000 
#
# Total GULP energy -347130.481160 kJ/mol
# GULP energy per Si atom -12397.517184 kJ/mol
# Density = 2.349841 g / cm^3
# Si number density = 23.552014 Si / 1000 Ang^3
#
#
#
# Elastic Constant Matrix: (Units=GPa)
#
#
# Indices 1 2 3 4 5 6 
#
# 1 87.7849 13.9036 10.7254 0.0000 0.0000 0.0000
# 2 13.9036 43.3304 10.0599 0.0000 0.0000 0.0000
# 3 10.7254 10.0599 103.2680 0.0000 0.0000 0.0000
# 4 0.0000 0.0000 0.0000 23.2831 0.0000 0.0000
# 5 0.0000 0.0000 0.0000 0.0000 26.8943 0.0000
# 6 0.0000 0.0000 0.0000 0.0000 0.0000 45.2205
#
#
#
# Elastic Compliance Matrix: (Units=1/GPa)
#
#
# Indices 1 2 3 4 5 6 
#
# 1 0.012082 -0.003668 -0.000897 0.000000 0.000000 0.000000
# 2 -0.003668 0.024726 -0.002028 0.000000 0.000000 0.000000
# 3 -0.000897 -0.002028 0.009974 0.000000 0.000000 0.000000
# 4 0.000000 0.000000 0.000000 0.042950 0.000000 0.000000
# 5 0.000000 0.000000 0.000000 0.000000 0.037183 0.000000
# 6 0.000000 0.000000 0.000000 0.000000 0.000000 0.022114
#
#
# Mechanical properties :
#
#
# Convention : Reuss Voigt Hill
#
# Bulk Modulus (GPa) = 29.76596 33.75123 31.75859
# Shear Modulus (GPa) = 28.83263 32.39256 30.61260
#
# Velocity S-wave (km/s) = 3.50267 3.71261 3.60917
# Velocity P-wave (km/s) = 5.38740 5.72185 5.55714
#
# Compressibility (1/GPa) = 0.03359543
#
# Stress axis : x y z
#
# Youngs Moduli (GPa) = 82.76664 40.44268 100.25785
#
# Poissons Ratio (x) = 0.14836 0.08998
# Poissons Ratio (y) = 0.30363 0.20329
# Poissons Ratio (z) = 0.07428 0.08201
#
# Static dielectric constant tensor:
#      x y z
#    x 4.227520 0.000000 0.000000 
#    y 0.000000 4.328140 0.000000 
#    z 0.000000 0.000000 3.805500 
# 
# 
# High freq. dielectric constant tensor:
#      x y z
#    x 1.950630 0.000000 0.000000 
#    y 0.000000 1.921690 0.000000 
#    z 0.000000 0.000000 1.902140 
# 
# From -- ./inp_files/24029.got.cif
#   From: 2010.06.25/outbox.cif.g09.slc.cpg/sg58_13_cif.got.tgz:24029.got - 2010.06.26 21:38:00.
