data_PCOD8238166
_publ_section_title
;
Structure prediction by ZEFSAII (Michael W. Deem and Ramdas Pophale) SiO2 
 PCOD8238166
Probable space group: P N N M
;
_chemical_formula_sum "Si O2"
_cell_formula_units_Z 48
_cell_length_a 11.597711
_cell_length_b 23.372712
_cell_length_c 9.106462
_cell_angle_alpha 90.000000
_cell_angle_beta 90.000000
_cell_angle_gamma 90.000000
_cell_volume 2468.488282
_symmetry_space_group_name_H-M "P N N M"
_symmetry_group_IT_number 58
_symmetry_cell_setting 'orthorhombic'
loop_
_space_group_symop_operation_xyz
x,y,z
-x,-y,z
1/2+x,1/2-y,1/2-z
1/2-x,1/2+y,1/2-z
-x,-y,-z
x,y,-z
1/2-x,1/2+y,1/2+z
1/2+x,1/2-y,1/2+z
loop_
_atom_site_type_symbol
_atom_site_label
_atom_site_fract_x
_atom_site_fract_y
_atom_site_fract_z
Si Si1 0.369707 0.778038 0.833159
Si Si2 0.351158 0.665796 0.666220
Si Si3 0.520361 0.565901 0.328345
Si Si4 0.761747 0.123888 0.675865
Si Si5 0.087925 0.646401 0.662034
Si Si6 0.539135 0.058742 0.328459
O O1 0.395109 0.714743 0.773778
O O2 0.273941 0.813817 0.740356
O O3 0.497827 0.802593 0.823140
O O4 0.324202 0.775864 0.000000
O O5 0.384867 0.682159 0.500000
O O6 0.405248 0.603356 0.703205
O O7 0.215329 0.667671 0.689580
O O8 0.500000 0.500000 0.274589
O O9 0.553238 0.565422 0.500000
O O10 0.620914 0.597973 0.239402
O O11 0.770365 0.129227 0.500000
O O12 0.662409 0.080165 0.730543
O O13 0.077065 0.618137 0.500000
O O14 0.062503 0.601727 0.789421
O O15 0.548377 0.051477 0.500000
O O16 0.500000 0.000000 0.252318
#
# Coordination Sequence:
#
# PCOD8238166 Si02
#       6
#     8   8   8   8   8   8
#     4  10  21  38  60  88 115 146 192 240 294 354
#     4  10  22  39  59  85 118 153 189 239 296 347
#     4  10  23  41  60  86 122 162 204 246 296 356
#     4  10  21  38  60  85 117 154 193 241 294 350
#     4   9  20  37  56  82 112 144 187 233 281 344
#     4   9  19  35  56  83 113 145 184 234 287 336
#
# _framework density 19.445098000000002
#
# number of rings (size 3 to 8) (size 9 to 14) (size 15 to 20)
#    0.000    2.333    0.000    1.000    4.667    3.333 
#    0.000    0.000    0.000    0.000    0.000    0.000 
#    0.000    0.000    0.000    0.000    0.000    0.000 
#
# Total GULP energy -594902.472093 kJ/mol
# GULP energy per Si atom -12393.801502 kJ/mol
# Density = 1.940084 g / cm^3
# Si number density = 19.445098 Si / 1000 Ang^3
#
#
#
# Elastic Constant Matrix: (Units=GPa)
#
#
# Indices 1 2 3 4 5 6 
#
# 1 91.9801 49.4214 41.7086 0.0000 0.0000 0.0000
# 2 49.4214 126.6011 41.9479 0.0000 0.0000 0.0000
# 3 41.7086 41.9479 56.5428 0.0000 0.0000 0.0000
# 4 0.0000 0.0000 0.0000 28.3652 0.0000 0.0000
# 5 0.0000 0.0000 0.0000 0.0000 28.7606 0.0000
# 6 0.0000 0.0000 0.0000 0.0000 0.0000 19.9981
#
#
#
# Elastic Compliance Matrix: (Units=1/GPa)
#
#
# Indices 1 2 3 4 5 6 
#
# 1 0.017350 -0.003358 -0.010307 0.000000 0.000000 0.000000
# 2 -0.003358 0.011123 -0.005775 0.000000 0.000000 0.000000
# 3 -0.010307 -0.005775 0.029573 0.000000 0.000000 0.000000
# 4 0.000000 0.000000 0.000000 0.035254 0.000000 0.000000
# 5 0.000000 0.000000 0.000000 0.000000 0.034770 0.000000
# 6 0.000000 0.000000 0.000000 0.000000 0.000000 0.050005
#
#
# Mechanical properties :
#
#
# Convention : Reuss Voigt Hill
#
# Bulk Modulus (GPa) = 52.17514 60.14220 56.15867
# Shear Modulus (GPa) = 22.38707 24.89455 23.64081
#
# Velocity S-wave (km/s) = 3.39676 3.58194 3.49058
# Velocity P-wave (km/s) = 6.50186 6.93566 6.72226
#
# Compressibility (1/GPa) = 0.01916621
#
# Stress axis : x y z
#
# Youngs Moduli (GPa) = 57.63772 89.90271 33.81458
#
# Poissons Ratio (x) = 0.30187 0.34852
# Poissons Ratio (y) = 0.19353 0.19529
# Poissons Ratio (z) = 0.59407 0.51920
#
# Static dielectric constant tensor:
#      x y z
#    x 3.593250 0.000000 0.000000 
#    y 0.000000 3.730460 0.000000 
#    z 0.000000 0.000000 3.569660 
# 
# 
# High freq. dielectric constant tensor:
#      x y z
#    x 1.758920 0.000000 0.000000 
#    y 0.000000 1.759370 0.000000 
#    z 0.000000 0.000000 1.753950 
# 
# From -- ./inp_files/4192.got.cif
#   From: 2010.06.25/outbox.cif.g09.slc.cpg/sg58_3_cif.got.tgz:4192.got - 2010.06.26 21:38:00.
