data_PCOD8238808
_publ_section_title
;
Structure prediction by ZEFSAII (Michael W. Deem and Ramdas Pophale) SiO2 
 PCOD8238808
Probable space group: P N N M
;
_chemical_formula_sum "Si O2"
_cell_formula_units_Z 48
_cell_length_a 14.053717
_cell_length_b 20.517978
_cell_length_c 8.282621
_cell_angle_alpha 90.000000
_cell_angle_beta 90.000000
_cell_angle_gamma 90.000000
_cell_volume 2388.325705
_symmetry_space_group_name_H-M "P N N M"
_symmetry_group_IT_number 58
_symmetry_cell_setting 'orthorhombic'
loop_
_space_group_symop_operation_xyz
x,y,z
-x,-y,z
1/2+x,1/2-y,1/2-z
1/2-x,1/2+y,1/2-z
-x,-y,-z
x,y,-z
1/2-x,1/2+y,1/2+z
1/2+x,1/2-y,1/2+z
loop_
_atom_site_type_symbol
_atom_site_label
_atom_site_fract_x
_atom_site_fract_y
_atom_site_fract_z
Si Si1 0.547221 0.934332 0.307859
Si Si2 0.945810 0.195550 0.313872
Si Si3 0.452049 0.565017 0.808406
Si Si4 0.433741 0.808813 0.685898
Si Si5 0.242723 0.759666 0.186102
Si Si6 0.250102 0.111259 0.692174
O O1 0.549979 0.936280 0.500000
O O2 0.483153 0.874291 0.248684
O O3 0.655493 0.925677 0.242977
O O4 0.500000 0.000000 0.237104
O O5 0.974194 0.207014 0.500000
O O6 0.991522 0.250592 0.202291
O O7 0.832716 0.199287 0.290303
O O8 0.983036 0.125600 0.254626
O O9 0.500000 0.500000 0.733881
O O10 0.344324 0.574762 0.741363
O O11 0.448434 0.559226 0.000000
O O12 0.403054 0.815731 0.500000
O O13 0.342759 0.795669 0.795716
O O14 0.249936 0.685916 0.253957
O O15 0.211732 0.759540 0.000000
O O16 0.247983 0.112039 0.500000
#
# Coordination Sequence:
#
# PCOD8238808 Si02
#       6
#     8   8   8   8   8   8
#     4   9  18  32  53  82 114 146 186 235 280 329
#     4  11  21  35  57  87 114 145 190 236 283 336
#     4   9  18  32  53  82 114 146 186 235 280 329
#     4  11  21  35  57  87 114 145 190 236 283 336
#     4  11  21  36  57  83 115 152 190 235 285 337
#     4   9  16  30  51  77 109 146 182 223 281 333
#
# _framework density 20.097761999999999
#
# number of rings (size 3 to 8) (size 9 to 14) (size 15 to 20)
#    0.000    2.000    3.333    1.500    0.000    1.333 
#    0.000    5.000    0.000    4.000    0.000    0.000 
#    0.000    0.000    0.000    0.000    0.000    0.000 
#
# Total GULP energy -595237.827151 kJ/mol
# GULP energy per Si atom -12400.788066 kJ/mol
# Density = 2.005202 g / cm^3
# Si number density = 20.097762 Si / 1000 Ang^3
#
#
#
# Elastic Constant Matrix: (Units=GPa)
#
#
# Indices 1 2 3 4 5 6 
#
# 1 178.7666 97.9073 6.0829 0.0000 0.0000 0.0000
# 2 97.9073 180.2678 11.9079 0.0000 0.0000 0.0000
# 3 6.0829 11.9079 23.2931 0.0000 0.0000 0.0000
# 4 0.0000 0.0000 0.0000 18.5909 0.0000 0.0000
# 5 0.0000 0.0000 0.0000 0.0000 -115.7474 0.0000
# 6 0.0000 0.0000 0.0000 0.0000 0.0000 41.5584
#
#
#
# Elastic Compliance Matrix: (Units=1/GPa)
#
#
# Indices 1 2 3 4 5 6 
#
# 1 0.007963 -0.004334 0.000136 0.000000 0.000000 0.000000
# 2 -0.004334 0.008100 -0.003009 0.000000 0.000000 0.000000
# 3 0.000136 -0.003009 0.044434 0.000000 0.000000 0.000000
# 4 0.000000 0.000000 0.000000 0.053790 0.000000 0.000000
# 5 0.000000 0.000000 0.000000 0.000000 -0.008640 0.000000
# 6 0.000000 0.000000 0.000000 0.000000 0.000000 0.024063
#
#
# Mechanical properties :
#
#
# Convention : Reuss Voigt Hill
#
# Bulk Modulus (GPa) = 21.69998 68.23597 44.96798
# Shear Modulus (GPa) = 31.35120 6.64235 18.99678
#
# Velocity S-wave (km/s) = 3.95389 1.81994 3.07778
# Velocity P-wave (km/s) = 5.62716 6.20016 5.92060
#
# Compressibility (1/GPa) = 0.04608299
#
# Stress axis : x y z
#
# Youngs Moduli (GPa) = 125.58443 123.45955 22.50536
#
# Poissons Ratio (x) = 0.53504 -0.00306
# Poissons Ratio (y) = 0.54425 0.06772
# Poissons Ratio (z) = -0.01709 0.37150
#
# Static dielectric constant tensor:
#      x y z
#    x 3.900650 0.000000 0.000000 
#    y 0.000000 3.798470 0.000000 
#    z 0.000000 0.000000 3.079060 
# 
# 
# High freq. dielectric constant tensor:
#      x y z
#    x 1.801040 0.000000 0.000000 
#    y 0.000000 1.780500 0.000000 
#    z 0.000000 0.000000 1.737650 
# 
# From -- ./inp_files/5852.got.cif
#   From: 2010.06.25/outbox.cif.g09.slc.cpg/sg58_3_cif.got.tgz:5852.got - 2010.06.26 21:38:00.
