data_PCOD8238424
_publ_section_title
;
Structure prediction by ZEFSAII (Michael W. Deem and Ramdas Pophale) SiO2 
 PCOD8238424
Probable space group: P N N M
;
_chemical_formula_sum "Si O2"
_cell_formula_units_Z 36
_cell_length_a 5.583276
_cell_length_b 11.630557
_cell_length_c 23.541797
_cell_angle_alpha 90.000000
_cell_angle_beta 90.000000
_cell_angle_gamma 90.000000
_cell_volume 1528.724485
_symmetry_space_group_name_H-M "P N N M"
_symmetry_group_IT_number 58
_symmetry_cell_setting 'orthorhombic'
loop_
_space_group_symop_operation_xyz
x,y,z
-x,-y,z
1/2+x,1/2-y,1/2-z
1/2-x,1/2+y,1/2-z
-x,-y,-z
x,y,-z
1/2-x,1/2+y,1/2+z
1/2+x,1/2-y,1/2+z
loop_
_atom_site_type_symbol
_atom_site_label
_atom_site_fract_x
_atom_site_fract_y
_atom_site_fract_z
Si Si1 0.073546 0.875483 0.880717
Si Si2 0.751296 0.567751 0.733756
Si Si3 0.000000 0.500000 0.905145
Si Si4 0.160366 0.182015 0.438348
Si Si5 0.232904 0.805109 0.344491
O O1 0.273546 0.882663 0.830403
O O2 0.166835 0.793221 0.930898
O O3 0.830462 0.823278 0.853490
O O4 0.000000 0.000000 0.905768
O O5 0.500000 0.500000 0.736049
O O6 0.700915 0.672569 0.777497
O O7 0.000000 0.500000 0.747511
O O8 0.797430 0.440465 0.943895
O O9 0.924208 0.601801 0.863973
O O10 0.030156 0.198591 0.500000
O O11 0.997100 0.173936 0.383287
#
# Coordination Sequence:
#
# PCOD8238424 Si02
#       5
#     8   8   4   8   8
#     4  10  27  44  67  98 140 189 244 299 359 428
#     4  11  25  44  75 107 145 187 236 302 371 439
#     4  10  21  44  68 106 138 176 233 298 368 434
#     4  11  25  43  71 102 141 189 243 300 364 434
#     4  11  24  42  71 104 140 185 233 298 370 437
#
# _framework density 23.549046000000001
#
# number of rings (size 3 to 8) (size 9 to 14) (size 15 to 20)
#    0.000    1.333    1.111    2.333   12.444    5.778 
#    0.000    1.111    0.000    0.000    0.000    0.000 
#    0.000    0.000    0.000    0.000    0.000    0.000 
#
# Total GULP energy -446039.383770 kJ/mol
# GULP energy per Si atom -12389.982882 kJ/mol
# Density = 2.349545 g / cm^3
# Si number density = 23.549046 Si / 1000 Ang^3
#
#
#
# Elastic Constant Matrix: (Units=GPa)
#
#
# Indices 1 2 3 4 5 6 
#
# 1 104.6736 23.2256 13.1991 0.0000 0.0000 0.0000
# 2 23.2256 113.2903 11.4457 0.0000 0.0000 0.0000
# 3 13.1991 11.4457 81.4889 0.0000 0.0000 0.0000
# 4 0.0000 0.0000 0.0000 6.6176 0.0000 0.0000
# 5 0.0000 0.0000 0.0000 0.0000 0.4528 0.0000
# 6 0.0000 0.0000 0.0000 0.0000 0.0000 21.8955
#
#
#
# Elastic Compliance Matrix: (Units=1/GPa)
#
#
# Indices 1 2 3 4 5 6 
#
# 1 0.010158 -0.001944 -0.001372 0.000000 0.000000 0.000000
# 2 -0.001944 0.009326 -0.000995 0.000000 0.000000 0.000000
# 3 -0.001372 -0.000995 0.012634 0.000000 0.000000 0.000000
# 4 0.000000 0.000000 0.000000 0.151112 0.000000 0.000000
# 5 0.000000 0.000000 0.000000 0.000000 2.208657 0.000000
# 6 0.000000 0.000000 0.000000 0.000000 0.000000 0.045671
#
#
# Mechanical properties :
#
#
# Convention : Reuss Voigt Hill
#
# Bulk Modulus (GPa) = 42.56204 43.91040 43.23622
# Shear Modulus (GPa) = 2.03748 22.56534 12.30141
#
# Velocity S-wave (km/s) = 0.93117 3.09888 2.28803
# Velocity P-wave (km/s) = 4.38966 5.61168 5.03786
#
# Compressibility (1/GPa) = 0.02349512
#
# Stress axis : x y z
#
# Youngs Moduli (GPa) = 98.44601 107.22816 79.15373
#
# Poissons Ratio (x) = 0.20843 0.10862
# Poissons Ratio (y) = 0.19136 0.07876
# Poissons Ratio (z) = 0.13510 0.10670
#
# Static dielectric constant tensor:
#      x y z
#    x 4.171920 0.000000 0.000000 
#    y 0.000000 4.616010 0.000000 
#    z 0.000000 0.000000 4.306770 
# 
# 
# High freq. dielectric constant tensor:
#      x y z
#    x 1.923690 0.000000 0.000000 
#    y 0.000000 1.941140 0.000000 
#    z 0.000000 0.000000 1.926980 
# 
# From -- ./inp_files/30827.got.cif
#   From: 2010.06.25/outbox.cif.g09.slc.cpg/sg58_16_cif.got.tgz:30827.got - 2010.06.26 21:38:00.
