data_PCOD8238422
_publ_section_title
;
Structure prediction by ZEFSAII (Michael W. Deem and Ramdas Pophale) SiO2 
 PCOD8238422
Probable space group: P N N M
;
_chemical_formula_sum "Si O2"
_cell_formula_units_Z 48
_cell_length_a 8.678761
_cell_length_b 15.230317
_cell_length_c 17.256149
_cell_angle_alpha 90.000000
_cell_angle_beta 90.000000
_cell_angle_gamma 90.000000
_cell_volume 2280.922627
_symmetry_space_group_name_H-M "P N N M"
_symmetry_group_IT_number 58
_symmetry_cell_setting 'orthorhombic'
loop_
_space_group_symop_operation_xyz
x,y,z
-x,-y,z
1/2+x,1/2-y,1/2-z
1/2-x,1/2+y,1/2-z
-x,-y,-z
x,y,-z
1/2-x,1/2+y,1/2+z
1/2+x,1/2-y,1/2+z
loop_
_atom_site_type_symbol
_atom_site_label
_atom_site_fract_x
_atom_site_fract_y
_atom_site_fract_z
Si Si1 0.154434 0.950564 0.087775
Si Si2 0.396193 0.420490 0.161015
Si Si3 0.411475 0.739303 0.212023
Si Si4 0.246137 0.970640 0.500000
Si Si5 0.090821 0.758788 0.859426
Si Si6 0.625821 0.067163 0.782022
Si Si7 0.559699 0.868380 0.500000
O O1 0.132783 0.846710 0.095340
O O2 0.292122 0.979649 0.144685
O O3 0.200014 0.974984 0.000000
O O4 0.000000 0.000000 0.113194
O O5 0.500000 0.500000 0.194609
O O6 0.487647 0.328285 0.161208
O O7 0.352599 0.442702 0.073602
O O8 0.247042 0.410527 0.214788
O O9 0.231588 0.723619 0.193696
O O10 0.445217 0.723427 0.303310
O O11 0.453139 0.840981 0.192097
O O12 0.410598 0.926988 0.500000
O O13 0.281677 0.075277 0.500000
O O14 0.048955 0.687187 0.922246
O O15 0.500000 0.000000 0.748527
#
# Coordination Sequence:
#
# PCOD8238422 Si02
#       7
#     8   8   8   4   8   8   4
#     4  10  21  43  66  95 127 168 225 270 333 404
#     4  12  25  44  69 100 135 181 230 280 340 410
#     4  11  24  42  66  98 134 170 229 277 333 409
#     4  11  27  44  64 104 138 179 233 274 344 415
#     4  11  23  41  68  97 129 179 219 275 343 393
#     4  11  26  42  67  98 133 176 221 279 343 399
#     4  11  24  44  71  96 142 180 222 288 346 409
#
# _framework density 21.044115999999999
#
# number of rings (size 3 to 8) (size 9 to 14) (size 15 to 20)
#    0.000    1.000    4.167    2.750    7.000    1.000 
#    1.500    0.000    0.000    0.000    0.000    0.000 
#    0.000    0.000    0.000    0.000    0.000    0.000 
#
# Total GULP energy -595251.855342 kJ/mol
# GULP energy per Si atom -12401.080320 kJ/mol
# Density = 2.099622 g / cm^3
# Si number density = 21.044116 Si / 1000 Ang^3
#
#
#
# Elastic Constant Matrix: (Units=GPa)
#
#
# Indices 1 2 3 4 5 6 
#
# 1 82.1687 41.3763 27.1054 0.0000 0.0000 0.0000
# 2 41.3763 96.4419 15.4259 0.0000 0.0000 0.0000
# 3 27.1054 15.4259 104.9606 0.0000 0.0000 0.0000
# 4 0.0000 0.0000 0.0000 25.9540 0.0000 0.0000
# 5 0.0000 0.0000 0.0000 0.0000 22.7748 0.0000
# 6 0.0000 0.0000 0.0000 0.0000 0.0000 42.2551
#
#
#
# Elastic Compliance Matrix: (Units=1/GPa)
#
#
# Indices 1 2 3 4 5 6 
#
# 1 0.016578 -0.006582 -0.003314 0.000000 0.000000 0.000000
# 2 -0.006582 0.013232 -0.000245 0.000000 0.000000 0.000000
# 3 -0.003314 -0.000245 0.010419 0.000000 0.000000 0.000000
# 4 0.000000 0.000000 0.000000 0.038530 0.000000 0.000000
# 5 0.000000 0.000000 0.000000 0.000000 0.043908 0.000000
# 6 0.000000 0.000000 0.000000 0.000000 0.000000 0.023666
#
#
# Mechanical properties :
#
#
# Convention : Reuss Voigt Hill
#
# Bulk Modulus (GPa) = 50.13229 50.15403 50.14316
# Shear Modulus (GPa) = 28.85779 31.50768 30.18273
#
# Velocity S-wave (km/s) = 3.70712 3.87359 3.79127
# Velocity P-wave (km/s) = 6.49599 6.62501 6.56082
#
# Compressibility (1/GPa) = 0.01994722
#
# Stress axis : x y z
#
# Youngs Moduli (GPa) = 60.32189 75.57378 95.97743
#
# Poissons Ratio (x) = 0.49745 0.31804
# Poissons Ratio (y) = 0.39706 0.02350
# Poissons Ratio (z) = 0.19989 0.01851
#
# Static dielectric constant tensor:
#      x y z
#    x 3.889100 0.000000 0.000000 
#    y 0.000000 3.985730 0.000000 
#    z 0.000000 0.000000 3.832900 
# 
# 
# High freq. dielectric constant tensor:
#      x y z
#    x 1.822650 0.000000 0.000000 
#    y 0.000000 1.834390 0.000000 
#    z 0.000000 0.000000 1.826330 
# 
# From -- ./inp_files/25344.got.cif
#   From: 2010.06.25/outbox.cif.g09.slc.cpg/sg58_13_cif.got.tgz:25344.got - 2010.06.26 21:38:00.
