data_PCOD8238013
_publ_section_title
;
Structure prediction by ZEFSAII (Michael W. Deem and Ramdas Pophale) SiO2 
 PCOD8238013
Probable space group: P N N M
;
_chemical_formula_sum "Si O2"
_cell_formula_units_Z 48
_cell_length_a 8.943123
_cell_length_b 7.630056
_cell_length_c 32.968828
_cell_angle_alpha 90.000000
_cell_angle_beta 90.000000
_cell_angle_gamma 90.000000
_cell_volume 2249.678398
_symmetry_space_group_name_H-M "P N N M"
_symmetry_group_IT_number 58
_symmetry_cell_setting 'orthorhombic'
loop_
_space_group_symop_operation_xyz
x,y,z
-x,-y,z
1/2+x,1/2-y,1/2-z
1/2-x,1/2+y,1/2-z
-x,-y,-z
x,y,-z
1/2-x,1/2+y,1/2+z
1/2+x,1/2-y,1/2+z
loop_
_atom_site_type_symbol
_atom_site_label
_atom_site_fract_x
_atom_site_fract_y
_atom_site_fract_z
Si Si1 0.088439 0.680257 0.822401
Si Si2 0.321749 0.985105 0.954476
Si Si3 0.339750 0.411742 0.254532
Si Si4 0.697434 0.322934 0.897258
Si Si5 0.783116 0.802804 0.186608
Si Si6 0.654996 0.715177 0.896726
O O1 0.151101 0.720547 0.777129
O O2 0.215548 0.718896 0.855699
O O3 0.000000 0.500000 0.828216
O O4 0.955269 0.822083 0.827126
O O5 0.271371 0.157806 0.930129
O O6 0.500000 0.000000 0.955317
O O7 0.254017 0.809789 0.933206
O O8 0.256678 0.988442 0.000000
O O9 0.500000 0.500000 0.243928
O O10 0.250923 0.377670 0.212369
O O11 0.243008 0.531713 0.285221
O O12 0.729717 0.527252 0.906699
O O13 0.521949 0.294959 0.894570
O O14 0.684544 0.797711 0.146944
#
# Coordination Sequence:
#
# PCOD8238013 Si02
#       6
#     8   8   8   8   8   8
#     4  11  21  38  59  82 117 158 201 244 298 355
#     4   9  19  38  62  93 122 148 192 248 304 363
#     4  10  24  38  57  87 118 157 210 257 305 347
#     4  10  21  36  61  88 118 156 197 244 303 357
#     4  11  22  38  58  83 118 160 201 252 297 356
#     4  10  21  36  61  89 118 155 199 246 297 360
#
# _framework density 21.336383999999999
#
# number of rings (size 3 to 8) (size 9 to 14) (size 15 to 20)
#    0.000    1.833    1.667    2.000    2.333    2.000 
#    0.000    9.167    0.000    2.500    0.000    0.000 
#    0.000    0.000    0.000    0.000    0.000    0.000 
#
# Total GULP energy -594664.895103 kJ/mol
# GULP energy per Si atom -12388.851981 kJ/mol
# Density = 2.128782 g / cm^3
# Si number density = 21.336384 Si / 1000 Ang^3
#
#
#
# Elastic Constant Matrix: (Units=GPa)
#
#
# Indices 1 2 3 4 5 6 
#
# 1 27.3759 21.5563 26.5350 0.0000 0.0000 0.0000
# 2 21.5563 95.8880 54.0230 0.0000 0.0000 0.0000
# 3 26.5350 54.0230 140.1211 0.0000 0.0000 0.0000
# 4 0.0000 0.0000 0.0000 38.2514 0.0000 0.0000
# 5 0.0000 0.0000 0.0000 0.0000 22.8803 0.0000
# 6 0.0000 0.0000 0.0000 0.0000 0.0000 20.2130
#
#
#
# Elastic Compliance Matrix: (Units=1/GPa)
#
#
# Indices 1 2 3 4 5 6 
#
# 1 0.048445 -0.007310 -0.006356 0.000000 0.000000 0.000000
# 2 -0.007310 0.014426 -0.004177 0.000000 0.000000 0.000000
# 3 -0.006356 -0.004177 0.009951 0.000000 0.000000 0.000000
# 4 0.000000 0.000000 0.000000 0.026143 0.000000 0.000000
# 5 0.000000 0.000000 0.000000 0.000000 0.043706 0.000000
# 6 0.000000 0.000000 0.000000 0.000000 0.000000 0.049473
#
#
# Mechanical properties :
#
#
# Convention : Reuss Voigt Hill
#
# Bulk Modulus (GPa) = 26.92858 51.95706 39.44282
# Shear Modulus (GPa) = 20.81526 27.02032 23.91779
#
# Velocity S-wave (km/s) = 3.12681 3.56251 3.35175
# Velocity P-wave (km/s) = 5.06797 6.42855 5.78837
#
# Compressibility (1/GPa) = 0.03713527
#
# Stress axis : x y z
#
# Youngs Moduli (GPa) = 20.64190 69.32052 100.49340
#
# Poissons Ratio (x) = 0.50673 0.63872
# Poissons Ratio (y) = 0.15089 0.41981
# Poissons Ratio (z) = 0.13120 0.28958
#
# Static dielectric constant tensor:
#      x y z
#    x 3.741660 0.000000 0.000000 
#    y 0.000000 4.359990 0.000000 
#    z 0.000000 0.000000 3.903980 
# 
# 
# High freq. dielectric constant tensor:
#      x y z
#    x 1.810480 0.000000 0.000000 
#    y 0.000000 1.857300 0.000000 
#    z 0.000000 0.000000 1.824190 
# 
# From -- ./inp_files/34585.got.cif
#   From: 2010.06.25/outbox.cif.g09.slc.cpg/sg58_18_cif.got.tgz:34585.got - 2010.06.26 21:38:00.
