data_PCOD8238189
_publ_section_title
;
Structure prediction by ZEFSAII (Michael W. Deem and Ramdas Pophale) SiO2 
 PCOD8238189
Probable space group: P N N M
;
_chemical_formula_sum "Si O2"
_cell_formula_units_Z 48
_cell_length_a 16.683338
_cell_length_b 9.931685
_cell_length_c 13.598059
_cell_angle_alpha 90.000000
_cell_angle_beta 90.000000
_cell_angle_gamma 90.000000
_cell_volume 2253.112134
_symmetry_space_group_name_H-M "P N N M"
_symmetry_group_IT_number 58
_symmetry_cell_setting 'orthorhombic'
loop_
_space_group_symop_operation_xyz
x,y,z
-x,-y,z
1/2+x,1/2-y,1/2-z
1/2-x,1/2+y,1/2-z
-x,-y,-z
x,y,-z
1/2-x,1/2+y,1/2+z
1/2+x,1/2-y,1/2+z
loop_
_atom_site_type_symbol
_atom_site_label
_atom_site_fract_x
_atom_site_fract_y
_atom_site_fract_z
Si Si1 0.946937 0.629903 0.891654
Si Si2 0.407972 0.211001 0.886175
Si Si3 0.339509 0.453202 0.219855
Si Si4 0.592003 0.289037 0.113829
Si Si5 0.660503 0.046783 0.219815
Si Si6 0.446995 0.370036 0.391655
O O1 0.873474 0.603745 0.821131
O O2 0.000000 0.500000 0.901310
O O3 0.999941 0.750007 0.846440
O O4 0.914116 0.671407 0.000000
O O5 0.348862 0.335286 0.861055
O O6 0.499984 0.250040 0.865054
O O7 0.386246 0.083570 0.819035
O O8 0.395532 0.172041 0.000000
O O9 0.386249 0.583559 0.180990
O O10 0.250019 0.492675 0.250072
O O11 0.373539 0.396126 0.321111
O O12 0.651095 0.164728 0.138939
O O13 0.604443 0.328000 0.000000
O O14 0.500000 0.500000 0.401342
O O15 0.414187 0.328471 0.500000
#
# Coordination Sequence:
#
# PCOD8238189 Si02
#       6
#     8   8   8   8   8   8
#     4  10  21  38  61  86 115 158 206 249 298 362
#     4  11  24  43  67  92 124 169 216 258 306 375
#     4  12  24  40  63  95 130 163 203 260 323 373
#     4  11  24  43  67  92 124 169 216 258 306 375
#     4  12  24  40  63  95 130 163 203 260 323 373
#     4  10  21  38  61  86 115 158 206 249 298 362
#
# _framework density 21.303865999999999
#
# number of rings (size 3 to 8) (size 9 to 14) (size 15 to 20)
#    0.000    1.000    0.000    8.000    0.000    5.333 
#    0.000    3.333    0.000    0.000    0.000    0.000 
#    0.000    0.000    0.000    0.000    0.000    0.000 
#
# Total GULP energy -595273.203103 kJ/mol
# GULP energy per Si atom -12401.525065 kJ/mol
# Density = 2.125538 g / cm^3
# Si number density = 21.303866 Si / 1000 Ang^3
#
#
#
# Elastic Constant Matrix: (Units=GPa)
#
#
# Indices 1 2 3 4 5 6 
#
# 1 123.2322 45.8896 70.9322 0.0000 0.0000 0.0000
# 2 45.8896 145.6169 42.0050 0.0000 0.0000 0.0000
# 3 70.9322 42.0050 129.1546 0.0000 0.0000 0.0000
# 4 0.0000 0.0000 0.0000 24.0251 0.0000 0.0000
# 5 0.0000 0.0000 0.0000 0.0000 18.9733 0.0000
# 6 0.0000 0.0000 0.0000 0.0000 0.0000 30.2939
#
#
#
# Elastic Compliance Matrix: (Units=1/GPa)
#
#
# Indices 1 2 3 4 5 6 
#
# 1 0.012449 -0.002153 -0.006137 0.000000 0.000000 0.000000
# 2 -0.002153 0.007951 -0.001403 0.000000 0.000000 0.000000
# 3 -0.006137 -0.001403 0.011569 0.000000 0.000000 0.000000
# 4 0.000000 0.000000 0.000000 0.041623 0.000000 0.000000
# 5 0.000000 0.000000 0.000000 0.000000 0.052706 0.000000
# 6 0.000000 0.000000 0.000000 0.000000 0.000000 0.033010
#
#
# Mechanical properties :
#
#
# Convention : Reuss Voigt Hill
#
# Bulk Modulus (GPa) = 79.47387 79.51745 79.49566
# Shear Modulus (GPa) = 27.33918 30.60360 28.97139
#
# Velocity S-wave (km/s) = 3.58620 3.79427 3.69170
# Velocity P-wave (km/s) = 7.38469 7.52341 7.45437
#
# Compressibility (1/GPa) = 0.01258275
#
# Stress axis : x y z
#
# Youngs Moduli (GPa) = 80.32946 125.77628 86.43494
#
# Poissons Ratio (x) = 0.27078 0.53043
# Poissons Ratio (y) = 0.17294 0.12130
# Poissons Ratio (z) = 0.49296 0.17652
#
# Static dielectric constant tensor:
#      x y z
#    x 3.647400 0.000000 0.000000 
#    y 0.000000 4.017750 0.000000 
#    z 0.000000 0.000000 4.392190 
# 
# 
# High freq. dielectric constant tensor:
#      x y z
#    x 1.812210 0.000000 0.000000 
#    y 0.000000 1.853200 0.000000 
#    z 0.000000 0.000000 1.859550 
# 
# From -- ./inp_files/19855.got.cif
#   From: 2010.06.25/outbox.cif.g09.slc.cpg/sg58_10_cif.got.tgz:19855.got - 2010.06.26 21:38:00.
