data_PCOD8238117
_publ_section_title
;
Structure prediction by ZEFSAII (Michael W. Deem and Ramdas Pophale) SiO2 
 PCOD8238117
Probable space group: P N N M
;
_chemical_formula_sum "Si O2"
_cell_formula_units_Z 32
_cell_length_a 17.549843
_cell_length_b 11.958522
_cell_length_c 7.684405
_cell_angle_alpha 90.000000
_cell_angle_beta 90.000000
_cell_angle_gamma 90.000000
_cell_volume 1612.727488
_symmetry_space_group_name_H-M "P N N M"
_symmetry_group_IT_number 58
_symmetry_cell_setting 'orthorhombic'
loop_
_space_group_symop_operation_xyz
x,y,z
-x,-y,z
1/2+x,1/2-y,1/2-z
1/2-x,1/2+y,1/2-z
-x,-y,-z
x,y,-z
1/2-x,1/2+y,1/2+z
1/2+x,1/2-y,1/2+z
loop_
_atom_site_type_symbol
_atom_site_label
_atom_site_fract_x
_atom_site_fract_y
_atom_site_fract_z
Si Si1 0.087581 0.626068 0.500000
Si Si2 0.837535 0.765051 0.208170
Si Si3 0.091017 0.378556 0.500000
Si Si4 0.583756 0.488851 0.696112
Si Si5 0.671131 0.699529 0.191019
O O1 0.125596 0.503554 0.500000
O O2 0.115726 0.692684 0.327375
O O3 0.998621 0.617276 0.500000
O O4 0.885963 0.677805 0.318787
O O5 0.864994 0.888050 0.272749
O O6 0.750445 0.744592 0.268956
O O7 0.847647 0.747482 0.000000
O O8 0.500000 0.500000 0.790249
O O9 0.566547 0.454180 0.500000
O O10 0.630929 0.604221 0.695673
O O11 0.685775 0.645927 0.000000
#
# Coordination Sequence:
#
# PCOD8238117 Si02
#       5
#     4   8   4   8   8
#     4   9  22  41  57  91 123 155 205 259 290 366
#     4  10  23  38  59  93 122 155 204 257 296 363
#     4  11  22  39  69  81 119 175 199 235 324 362
#     4  10  21  37  60  89 121 155 201 256 305 357
#     4   9  21  37  57  82 126 151 191 262 294 347
#
# _framework density 19.842162999999999
#
# number of rings (size 3 to 8) (size 9 to 14) (size 15 to 20)
#    0.750    1.500    0.000    1.500    7.000    0.500 
#    0.000    3.750    0.000    0.000    0.000    0.000 
#    0.000    0.000    0.000    0.000    0.000    0.000 
#
# Total GULP energy -396435.279927 kJ/mol
# GULP energy per Si atom -12388.602498 kJ/mol
# Density = 1.979700 g / cm^3
# Si number density = 19.842163 Si / 1000 Ang^3
#
#
#
# Elastic Constant Matrix: (Units=GPa)
#
#
# Indices 1 2 3 4 5 6 
#
# 1 137.8250 76.4151 15.7183 0.0000 0.0000 0.0000
# 2 76.4151 179.6290 29.8365 0.0000 0.0000 0.0000
# 3 15.7183 29.8365 46.6744 0.0000 0.0000 0.0000
# 4 0.0000 0.0000 0.0000 6.7397 0.0000 0.0000
# 5 0.0000 0.0000 0.0000 0.0000 55.2380 0.0000
# 6 0.0000 0.0000 0.0000 0.0000 0.0000 41.0771
#
#
#
# Elastic Compliance Matrix: (Units=1/GPa)
#
#
# Indices 1 2 3 4 5 6 
#
# 1 0.009515 -0.003933 -0.000690 0.000000 0.000000 0.000000
# 2 -0.003933 0.007854 -0.003696 0.000000 0.000000 0.000000
# 3 -0.000690 -0.003696 0.024020 0.000000 0.000000 0.000000
# 4 0.000000 0.000000 0.000000 0.148375 0.000000 0.000000
# 5 0.000000 0.000000 0.000000 0.000000 0.018103 0.000000
# 6 0.000000 0.000000 0.000000 0.000000 0.000000 0.024344
#
#
# Mechanical properties :
#
#
# Convention : Reuss Voigt Hill
#
# Bulk Modulus (GPa) = 40.40317 67.56312 53.98315
# Shear Modulus (GPa) = 19.44762 36.75486 28.10124
#
# Velocity S-wave (km/s) = 3.13408 4.30858 3.76738
# Velocity P-wave (km/s) = 5.78818 7.67307 6.79629
#
# Compressibility (1/GPa) = 0.02475053
#
# Stress axis : x y z
#
# Youngs Moduli (GPa) = 105.09814 127.32168 41.63161
#
# Poissons Ratio (x) = 0.50077 0.02873
# Poissons Ratio (y) = 0.41336 0.15388
# Poissons Ratio (z) = 0.07253 0.47061
#
# Static dielectric constant tensor:
#      x y z
#    x 3.747360 0.000000 0.000000 
#    y 0.000000 3.796840 0.000000 
#    z 0.000000 0.000000 3.502130 
# 
# 
# High freq. dielectric constant tensor:
#      x y z
#    x 1.786230 0.000000 0.000000 
#    y 0.000000 1.776700 0.000000 
#    z 0.000000 0.000000 1.745970 
# 
# From -- ./inp_files/3728.got.cif
#   From: 2010.06.25/outbox.cif.g09.slc.cpg/sg58_2_cif.got.tgz:3728.got - 2010.06.26 21:38:00.
