data_PCOD8238701
_publ_section_title
;
Structure prediction by ZEFSAII (Michael W. Deem and Ramdas Pophale) SiO2 
 PCOD8238701
Probable space group: P N N M
;
_chemical_formula_sum "Si O2"
_cell_formula_units_Z 36
_cell_length_a 7.301010
_cell_length_b 21.675376
_cell_length_c 10.423723
_cell_angle_alpha 90.000000
_cell_angle_beta 90.000000
_cell_angle_gamma 90.000000
_cell_volume 1649.576440
_symmetry_space_group_name_H-M "P N N M"
_symmetry_group_IT_number 58
_symmetry_cell_setting 'orthorhombic'
loop_
_space_group_symop_operation_xyz
x,y,z
-x,-y,z
1/2+x,1/2-y,1/2-z
1/2-x,1/2+y,1/2-z
-x,-y,-z
x,y,-z
1/2-x,1/2+y,1/2+z
1/2+x,1/2-y,1/2+z
loop_
_atom_site_type_symbol
_atom_site_label
_atom_site_fract_x
_atom_site_fract_y
_atom_site_fract_z
Si Si1 0.734278 0.554455 0.854743
Si Si2 0.992119 0.344304 0.230797
Si Si3 0.997754 0.881240 0.000000
Si Si4 0.851177 0.923948 0.736283
Si Si5 0.521973 0.755518 0.500000
Si Si6 0.362713 0.818346 0.000000
O O1 0.525568 0.579712 0.857909
O O2 0.750046 0.489313 0.781559
O O3 0.860963 0.601697 0.780028
O O4 0.803816 0.546644 0.000000
O O5 0.788431 0.369148 0.203659
O O6 0.038328 0.291638 0.127711
O O7 0.007649 0.318260 0.375013
O O8 0.925201 0.919486 0.119883
O O9 0.918789 0.810769 0.000000
O O10 0.220576 0.876679 0.000000
O O11 0.741977 0.744463 0.500000
#
# Coordination Sequence:
#
# PCOD8238701 Si02
#       6
#     8   8   4   8   4   4
#     4  11  24  43  68 107 143 182 237 292 354 432
#     4  12  24  46  71 101 141 182 238 296 353 426
#     4  10  23  45  63  98 136 185 238 280 360 417
#     4  11  24  41  71  98 141 185 228 291 359 415
#     4  10  26  42  73  98 136 188 237 292 351 422
#     4  10  25  48  66 103 139 182 242 283 353 423
#
# _framework density 21.823785000000001
#
# number of rings (size 3 to 8) (size 9 to 14) (size 15 to 20)
#    0.667    0.444    3.333    2.667    6.222    3.556 
#    0.000    2.222    0.000    0.000    0.000    0.000 
#    0.000    0.000    0.000    0.000    0.000    0.000 
#
# Total GULP energy -446409.152970 kJ/mol
# GULP energy per Si atom -12400.254249 kJ/mol
# Density = 2.177411 g / cm^3
# Si number density = 21.823785 Si / 1000 Ang^3
#
#
#
# Elastic Constant Matrix: (Units=GPa)
#
#
# Indices 1 2 3 4 5 6 
#
# 1 48.4031 8.3005 5.1648 0.0000 0.0000 0.0000
# 2 8.3005 61.9394 51.7619 0.0000 0.0000 0.0000
# 3 5.1648 51.7619 160.0193 0.0000 0.0000 0.0000
# 4 0.0000 0.0000 0.0000 33.1115 0.0000 0.0000
# 5 0.0000 0.0000 0.0000 0.0000 22.1587 0.0000
# 6 0.0000 0.0000 0.0000 0.0000 0.0000 33.4423
#
#
#
# Elastic Compliance Matrix: (Units=1/GPa)
#
#
# Indices 1 2 3 4 5 6 
#
# 1 0.021158 -0.003104 0.000321 0.000000 0.000000 0.000000
# 2 -0.003104 0.022581 -0.007204 0.000000 0.000000 0.000000
# 3 0.000321 -0.007204 0.008569 0.000000 0.000000 0.000000
# 4 0.000000 0.000000 0.000000 0.030201 0.000000 0.000000
# 5 0.000000 0.000000 0.000000 0.000000 0.045129 0.000000
# 6 0.000000 0.000000 0.000000 0.000000 0.000000 0.029902
#
#
# Mechanical properties :
#
#
# Convention : Reuss Voigt Hill
#
# Bulk Modulus (GPa) = 30.92664 44.53515 37.73090
# Shear Modulus (GPa) = 26.55445 31.41813 28.98629
#
# Velocity S-wave (km/s) = 3.49200 3.79836 3.64840
# Velocity P-wave (km/s) = 5.51911 6.29982 5.92234
#
# Compressibility (1/GPa) = 0.03233458
#
# Stress axis : x y z
#
# Youngs Moduli (GPa) = 47.26390 44.28465 116.69624
#
# Poissons Ratio (x) = 0.13744 -0.03747
# Poissons Ratio (y) = 0.14669 0.84071
# Poissons Ratio (z) = -0.01517 0.31904
#
# Static dielectric constant tensor:
#      x y z
#    x 3.888140 0.000000 0.000000 
#    y 0.000000 3.804390 0.000000 
#    z 0.000000 0.000000 3.813510 
# 
# 
# High freq. dielectric constant tensor:
#      x y z
#    x 1.853240 0.000000 0.000000 
#    y 0.000000 1.849050 0.000000 
#    z 0.000000 0.000000 1.865160 
# 
# From -- ./inp_files/2315.got.cif
#   From: 2010.06.25/outbox.cif.g09.slc.cpg/sg58_2_cif.got.tgz:2315.got - 2010.06.26 21:38:00.
