data_PCOD8238751
_publ_section_title
;
Structure prediction by ZEFSAII (Michael W. Deem and Ramdas Pophale) SiO2 
 PCOD8238751
Probable space group: P N N M
;
_chemical_formula_sum "Si O2"
_cell_formula_units_Z 64
_cell_length_a 18.944615
_cell_length_b 23.116522
_cell_length_c 8.858136
_cell_angle_alpha 90.000000
_cell_angle_beta 90.000000
_cell_angle_gamma 90.000000
_cell_volume 3879.275471
_symmetry_space_group_name_H-M "P N N M"
_symmetry_group_IT_number 58
_symmetry_cell_setting 'orthorhombic'
loop_
_space_group_symop_operation_xyz
x,y,z
-x,-y,z
1/2+x,1/2-y,1/2-z
1/2-x,1/2+y,1/2-z
-x,-y,-z
x,y,-z
1/2-x,1/2+y,1/2+z
1/2+x,1/2-y,1/2+z
loop_
_atom_site_type_symbol
_atom_site_label
_atom_site_fract_x
_atom_site_fract_y
_atom_site_fract_z
Si Si1 0.847772 0.057503 0.322600
Si Si2 0.370445 0.563377 0.322220
Si Si3 0.214773 0.161997 0.326291
Si Si4 0.127198 0.278349 0.670722
Si Si5 0.494362 0.383662 0.822354
Si Si6 0.840580 0.265235 0.177251
Si Si7 0.237341 0.847054 0.177472
Si Si8 0.004837 0.759312 0.176022
O O1 0.844448 0.045919 0.500000
O O2 0.780919 0.095486 0.270446
O O3 0.919121 0.090607 0.274988
O O4 0.842364 0.997627 0.235396
O O5 0.379855 0.562345 0.500000
O O6 0.312305 0.610850 0.278608
O O7 0.445989 0.576065 0.248907
O O8 0.216256 0.140896 0.500000
O O9 0.163756 0.216598 0.307849
O O10 0.292819 0.180917 0.265679
O O11 0.100454 0.285415 0.500000
O O12 0.181578 0.329666 0.711021
O O13 0.059456 0.282829 0.779895
O O14 0.501933 0.318596 0.765974
O O15 0.505932 0.383996 0.000000
O O16 0.813212 0.203951 0.241608
O O17 0.922488 0.273637 0.219728
O O18 0.826480 0.261948 0.000000
O O19 0.225068 0.857901 0.000000
O O20 0.003120 0.774092 0.000000
#
# Coordination Sequence:
#
# PCOD8238751 Si02
#       8
#     8   8   8   8   8   8   8   8
#     4  11  23  36  51  71  97 133 171 209 248 290
#     4  12  24  35  50  72  97 131 172 211 245 287
#     4   9  17  33  52  69  96 132 166 201 243 295
#     4   9  18  31  50  72 100 135 163 196 249 297
#     4  11  22  35  48  68 100 135 170 203 241 288
#     4   8  16  30  50  73  98 130 162 198 248 294
#     4   9  17  33  52  71  97 131 167 203 244 293
#     4  11  19  29  50  77 102 130 166 203 242 290
#
# _framework density 16.497927000000001
#
# number of rings (size 3 to 8) (size 9 to 14) (size 15 to 20)
#    0.000    2.000    2.500    4.125    0.000    3.500 
#    0.000    3.125    0.000    0.000    0.000    0.875 
#    0.000    7.000    0.000    0.000    0.000    0.000 
#
# Total GULP energy -793594.920318 kJ/mol
# GULP energy per Si atom -12399.920630 kJ/mol
# Density = 1.646038 g / cm^3
# Si number density = 16.497927 Si / 1000 Ang^3
#
#
#
# Elastic Constant Matrix: (Units=GPa)
#
#
# Indices 1 2 3 4 5 6 
#
# 1 90.3376 31.6183 30.5154 0.0000 0.0000 0.0000
# 2 31.6183 57.0827 24.1903 0.0000 0.0000 0.0000
# 3 30.5154 24.1903 62.6610 0.0000 0.0000 0.0000
# 4 0.0000 0.0000 0.0000 21.4032 0.0000 0.0000
# 5 0.0000 0.0000 0.0000 0.0000 17.9929 0.0000
# 6 0.0000 0.0000 0.0000 0.0000 0.0000 22.7765
#
#
#
# Elastic Compliance Matrix: (Units=1/GPa)
#
#
# Indices 1 2 3 4 5 6 
#
# 1 0.014873 -0.006180 -0.004857 0.000000 0.000000 0.000000
# 2 -0.006180 0.023513 -0.006068 0.000000 0.000000 0.000000
# 3 -0.004857 -0.006068 0.020667 0.000000 0.000000 0.000000
# 4 0.000000 0.000000 0.000000 0.046722 0.000000 0.000000
# 5 0.000000 0.000000 0.000000 0.000000 0.055577 0.000000
# 6 0.000000 0.000000 0.000000 0.000000 0.000000 0.043905
#
#
# Mechanical properties :
#
#
# Convention : Reuss Voigt Hill
#
# Bulk Modulus (GPa) = 40.25260 42.52548 41.38904
# Shear Modulus (GPa) = 20.18178 20.68502 20.43340
#
# Velocity S-wave (km/s) = 3.50135 3.54474 3.52311
# Velocity P-wave (km/s) = 6.38729 6.52578 6.45691
#
# Compressibility (1/GPa) = 0.02484311
#
# Stress axis : x y z
#
# Youngs Moduli (GPa) = 67.23423 42.53003 48.38679
#
# Poissons Ratio (x) = 0.26283 0.23504
# Poissons Ratio (y) = 0.41550 0.29359
# Poissons Ratio (z) = 0.32659 0.25805
#
# Static dielectric constant tensor:
#      x y z
#    x 3.344280 0.000000 0.000000 
#    y 0.000000 2.973540 0.000000 
#    z 0.000000 0.000000 3.016040 
# 
# 
# High freq. dielectric constant tensor:
#      x y z
#    x 1.633520 0.000000 0.000000 
#    y 0.000000 1.609130 0.000000 
#    z 0.000000 0.000000 1.631570 
# 
# From -- ./inp_files/9406.got.cif
#   From: 2010.06.25/outbox.cif.g09.slc.cpg/sg58_5_cif.got.tgz:9406.got - 2010.06.26 21:38:00.
