data_PCOD8238523
_publ_section_title
;
Structure prediction by ZEFSAII (Michael W. Deem and Ramdas Pophale) SiO2 
 PCOD8238523
Probable space group: P N N M
;
_chemical_formula_sum "Si O2"
_cell_formula_units_Z 48
_cell_length_a 31.393116
_cell_length_b 9.407323
_cell_length_c 7.691954
_cell_angle_alpha 90.000000
_cell_angle_beta 90.000000
_cell_angle_gamma 90.000000
_cell_volume 2271.627716
_symmetry_space_group_name_H-M "P N N M"
_symmetry_group_IT_number 58
_symmetry_cell_setting 'orthorhombic'
loop_
_space_group_symop_operation_xyz
x,y,z
-x,-y,z
1/2+x,1/2-y,1/2-z
1/2-x,1/2+y,1/2-z
-x,-y,-z
x,y,-z
1/2-x,1/2+y,1/2+z
1/2+x,1/2-y,1/2+z
loop_
_atom_site_type_symbol
_atom_site_label
_atom_site_fract_x
_atom_site_fract_y
_atom_site_fract_z
Si Si1 0.713161 0.955230 0.705057
Si Si2 0.433985 0.910236 0.000000
Si Si3 0.372102 0.543571 0.303331
Si Si4 0.706645 0.630019 0.800793
Si Si5 0.042323 0.908972 0.799127
Si Si6 0.132399 0.358752 0.793289
Si Si7 0.978976 0.293725 0.500000
O O1 0.715630 0.942625 0.500000
O O2 0.753417 0.043736 0.779460
O O3 0.671359 0.040797 0.761940
O O4 0.713002 0.798183 0.783855
O O5 0.407489 0.905982 0.821371
O O6 0.469402 0.785771 0.000000
O O7 0.460673 0.051314 0.000000
O O8 0.383829 0.570798 0.500000
O O9 0.336475 0.421762 0.289728
O O10 0.416839 0.493935 0.220813
O O11 0.356214 0.696835 0.232955
O O12 0.702133 0.589001 0.000000
O O13 0.038178 0.773439 0.677687
O O14 0.049240 0.861131 0.000000
O O15 0.000000 0.000000 0.779423
O O16 0.122430 0.372402 0.000000
#
# Coordination Sequence:
#
# PCOD8238523 Si02
#       7
#     8   4   8   8   8   8   4
#     4  10  23  42  61  89 127 167 208 257 317 380
#     4  11  26  42  64  96 126 177 216 265 333 387
#     4  10  22  40  63  93 127 164 211 265 320 384
#     4  11  24  39  64  95 125 166 212 262 322 380
#     4  10  22  40  66  94 126 171 219 267 328 387
#     4  10  23  43  66  90 128 171 216 263 319 382
#     4  11  25  42  62  94 137 162 219 278 325 386
#
# _framework density 21.130222
#
# number of rings (size 3 to 8) (size 9 to 14) (size 15 to 20)
#    0.000    1.667    0.000    2.750    5.833    5.333 
#    0.000    1.667    0.000    0.000    0.000    0.000 
#    0.000    0.000    0.000    0.000    0.000    0.000 
#
# Total GULP energy -595051.425701 kJ/mol
# GULP energy per Si atom -12396.904702 kJ/mol
# Density = 2.108213 g / cm^3
# Si number density = 21.130222 Si / 1000 Ang^3
#
#
#
# Elastic Constant Matrix: (Units=GPa)
#
#
# Indices 1 2 3 4 5 6 
#
# 1 160.6395 70.9736 30.1438 0.0000 0.0000 0.0000
# 2 70.9736 123.4749 25.5113 0.0000 0.0000 0.0000
# 3 30.1438 25.5113 66.3344 0.0000 0.0000 0.0000
# 4 0.0000 0.0000 0.0000 35.0440 0.0000 0.0000
# 5 0.0000 0.0000 0.0000 0.0000 -139.6685 0.0000
# 6 0.0000 0.0000 0.0000 0.0000 0.0000 40.9712
#
#
#
# Elastic Compliance Matrix: (Units=1/GPa)
#
#
# Indices 1 2 3 4 5 6 
#
# 1 0.008627 -0.004507 -0.002187 0.000000 0.000000 0.000000
# 2 -0.004507 0.011152 -0.002241 0.000000 0.000000 0.000000
# 3 -0.002187 -0.002241 0.016931 0.000000 0.000000 0.000000
# 4 0.000000 0.000000 0.000000 0.028536 0.000000 0.000000
# 5 0.000000 0.000000 0.000000 0.000000 -0.007160 0.000000
# 6 0.000000 0.000000 0.000000 0.000000 0.000000 0.024407
#
#
# Mechanical properties :
#
#
# Convention : Reuss Voigt Hill
#
# Bulk Modulus (GPa) = 53.07764 67.07847 60.07806
# Shear Modulus (GPa) = 46.88562 2.19070 24.53816
#
# Velocity S-wave (km/s) = 4.71562 1.01932 3.41146
# Velocity P-wave (km/s) = 7.40427 5.76190 6.63411
#
# Compressibility (1/GPa) = 0.01884032
#
# Stress axis : x y z
#
# Youngs Moduli (GPa) = 115.91951 89.66716 59.06397
#
# Poissons Ratio (x) = 0.40411 0.12917
# Poissons Ratio (y) = 0.52243 0.13237
# Poissons Ratio (z) = 0.25351 0.20095
#
# Static dielectric constant tensor:
#      x y z
#    x 4.033520 0.000000 0.000000 
#    y 0.000000 3.901010 0.000000 
#    z 0.000000 0.000000 3.763540 
# 
# 
# High freq. dielectric constant tensor:
#      x y z
#    x 1.840510 0.000000 0.000000 
#    y 0.000000 1.833080 0.000000 
#    z 0.000000 0.000000 1.827700 
# 
# From -- ./inp_files/3063.got.cif
#   From: 2010.06.25/outbox.cif.g09.slc.cpg/sg58_2_cif.got.tgz:3063.got - 2010.06.26 21:38:00.
