data_PCOD8238948
_publ_section_title
;
Structure prediction by ZEFSAII (Michael W. Deem and Ramdas Pophale) SiO2 
 PCOD8238948
Probable space group: P N N M
;
_chemical_formula_sum "Si O2"
_cell_formula_units_Z 24
_cell_length_a 10.504982
_cell_length_b 9.421434
_cell_length_c 10.167825
_cell_angle_alpha 90.000000
_cell_angle_beta 90.000000
_cell_angle_gamma 90.000000
_cell_volume 1006.329921
_symmetry_space_group_name_H-M "P N N M"
_symmetry_group_IT_number 58
_symmetry_cell_setting 'orthorhombic'
loop_
_space_group_symop_operation_xyz
x,y,z
-x,-y,z
1/2+x,1/2-y,1/2-z
1/2-x,1/2+y,1/2-z
-x,-y,-z
x,y,-z
1/2-x,1/2+y,1/2+z
1/2+x,1/2-y,1/2+z
loop_
_atom_site_type_symbol
_atom_site_label
_atom_site_fract_x
_atom_site_fract_y
_atom_site_fract_z
Si Si1 0.133225 0.934313 0.649431
Si Si2 0.375396 0.596432 0.500000
Si Si3 0.300113 0.716825 0.233792
Si Si4 0.876925 0.596992 0.500000
O O1 0.127791 0.882899 0.500000
O O2 0.168697 0.800939 0.740008
O O3 0.234678 0.062289 0.672399
O O4 0.000000 0.000000 0.698612
O O5 0.500000 0.500000 0.500000
O O6 0.374459 0.698230 0.372151
O O7 0.251096 0.495566 0.500000
O O8 0.385688 0.802271 0.128683
O O9 0.000000 0.500000 0.500000
#
# Coordination Sequence:
#
# PCOD8238948 Si02
#       4
#     8   4   8   4
#     4  11  25  45  76 108 149 200 253 308 381 459
#     4  12  28  49  76 111 152 197 252 321 383 445
#     4  12  25  46  75 108 150 194 250 311 380 448
#     4  12  30  45  75 114 151 198 256 311 379 463
#
# _framework density 23.849039000000001
#
# number of rings (size 3 to 8) (size 9 to 14) (size 15 to 20)
#    0.000    0.333    6.667    1.000    4.667    0.000 
#    0.000    0.833    0.000    0.000    0.000    0.000 
#    0.000    0.000    0.000    0.000    0.000    0.000 
#
# Total GULP energy -297539.063887 kJ/mol
# GULP energy per Si atom -12397.460995 kJ/mol
# Density = 2.379476 g / cm^3
# Si number density = 23.849039 Si / 1000 Ang^3
#
#
#
# Elastic Constant Matrix: (Units=GPa)
#
#
# Indices 1 2 3 4 5 6 
#
# 1 115.3935 47.6501 34.9086 0.0000 0.0000 0.0000
# 2 47.6501 97.7430 30.7203 0.0000 0.0000 0.0000
# 3 34.9086 30.7203 171.5518 0.0000 0.0000 0.0000
# 4 0.0000 0.0000 0.0000 64.0956 0.0000 0.0000
# 5 0.0000 0.0000 0.0000 0.0000 23.6207 0.0000
# 6 0.0000 0.0000 0.0000 0.0000 0.0000 40.1378
#
#
#
# Elastic Compliance Matrix: (Units=1/GPa)
#
#
# Indices 1 2 3 4 5 6 
#
# 1 0.011147 -0.005003 -0.001372 0.000000 0.000000 0.000000
# 2 -0.005003 0.013086 -0.001325 0.000000 0.000000 0.000000
# 3 -0.001372 -0.001325 0.006346 0.000000 0.000000 0.000000
# 4 0.000000 0.000000 0.000000 0.015602 0.000000 0.000000
# 5 0.000000 0.000000 0.000000 0.000000 0.042336 0.000000
# 6 0.000000 0.000000 0.000000 0.000000 0.000000 0.024914
#
#
# Mechanical properties :
#
#
# Convention : Reuss Voigt Hill
#
# Bulk Modulus (GPa) = 65.88557 67.91627 66.90092
# Shear Modulus (GPa) = 37.34367 43.66476 40.50421
#
# Velocity S-wave (km/s) = 3.96136 4.28352 4.12559
# Velocity P-wave (km/s) = 6.97203 7.28039 7.12788
#
# Compressibility (1/GPa) = 0.01517783
#
# Stress axis : x y z
#
# Youngs Moduli (GPa) = 89.70980 76.41511 157.58574
#
# Poissons Ratio (x) = 0.38230 0.21627
# Poissons Ratio (y) = 0.44881 0.20886
# Poissons Ratio (z) = 0.12312 0.10128
#
# Static dielectric constant tensor:
#      x y z
#    x 4.212250 0.000000 0.000000 
#    y 0.000000 4.934860 0.000000 
#    z 0.000000 0.000000 4.782290 
# 
# 
# High freq. dielectric constant tensor:
#      x y z
#    x 1.912660 0.000000 0.000000 
#    y 0.000000 1.961370 0.000000 
#    z 0.000000 0.000000 1.972850 
# 
# From -- ./inp_files/12163.got.cif
#   From: 2010.06.25/outbox.cif.g09.slc.cpg/sg58_7_cif.got.tgz:12163.got - 2010.06.26 21:38:00.
