data_PCOD8238877
_publ_section_title
;
Structure prediction by ZEFSAII (Michael W. Deem and Ramdas Pophale) SiO2 
 PCOD8238877
Probable space group: P N N M
;
_chemical_formula_sum "Si O2"
_cell_formula_units_Z 56
_cell_length_a 22.647087
_cell_length_b 13.603357
_cell_length_c 9.355798
_cell_angle_alpha 90.000000
_cell_angle_beta 90.000000
_cell_angle_gamma 90.000000
_cell_volume 2882.300656
_symmetry_space_group_name_H-M "P N N M"
_symmetry_group_IT_number 58
_symmetry_cell_setting 'orthorhombic'
loop_
_space_group_symop_operation_xyz
x,y,z
-x,-y,z
1/2+x,1/2-y,1/2-z
1/2-x,1/2+y,1/2-z
-x,-y,-z
x,y,-z
1/2-x,1/2+y,1/2+z
1/2+x,1/2-y,1/2+z
loop_
_atom_site_type_symbol
_atom_site_label
_atom_site_fract_x
_atom_site_fract_y
_atom_site_fract_z
Si Si1 0.120049 0.205211 0.835593
Si Si2 0.533524 0.403840 0.836413
Si Si3 0.931136 0.612138 0.666115
Si Si4 0.046331 0.712062 0.339798
Si Si5 0.836897 0.293506 0.836332
Si Si6 0.340376 0.986481 0.336082
Si Si7 0.737356 0.196467 0.337599
O O1 0.093105 0.108930 0.758291
O O2 0.095452 0.298436 0.753670
O O3 0.191136 0.212587 0.824463
O O4 0.099460 0.206824 0.000000
O O5 0.500000 0.500000 0.779718
O O6 0.491209 0.310753 0.818449
O O7 0.553537 0.417810 0.000000
O O8 0.913202 0.619634 0.500000
O O9 0.899818 0.517055 0.737305
O O10 0.002529 0.617386 0.681217
O O11 0.073066 0.708512 0.500000
O O12 0.097462 0.712206 0.224789
O O13 0.813023 0.404971 0.819582
O O14 0.793906 0.217723 0.758559
O O15 0.839995 0.261149 0.000000
O O16 0.358727 0.964389 0.500000
O O17 0.291975 0.906335 0.285977
O O18 0.759307 0.185749 0.500000
#
# Coordination Sequence:
#
# PCOD8238877 Si02
#       7
#     8   8   8   8   8   8   8
#     4   9  17  31  53  78 105 139 176 221 274 320
#     4   9  18  34  55  80 109 144 187 227 268 326
#     4   9  17  31  55  82 106 136 176 215 258 321
#     4   9  19  35  53  77 112 146 175 219 276 323
#     4  11  23  37  55  81 111 143 184 230 273 326
#     4   9  20  38  57  79 107 141 180 223 277 328
#     4   9  19  38  58  74 103 143 181 223 273 327
#
# _framework density 19.428923999999999
#
# number of rings (size 3 to 8) (size 9 to 14) (size 15 to 20)
#    0.000    2.714    0.000    3.000    0.000    7.714 
#    2.571    2.857    0.000    0.000    0.000    0.000 
#    0.000    0.000    0.000    0.000    0.000    0.000 
#
# Total GULP energy -694101.874798 kJ/mol
# GULP energy per Si atom -12394.676336 kJ/mol
# Density = 1.938470 g / cm^3
# Si number density = 19.428924 Si / 1000 Ang^3
#
#
#
# Elastic Constant Matrix: (Units=GPa)
#
#
# Indices 1 2 3 4 5 6 
#
# 1 79.4066 10.5171 48.8697 0.0000 0.0000 0.0000
# 2 10.5171 29.2586 12.1691 0.0000 0.0000 0.0000
# 3 48.8697 12.1691 106.0105 0.0000 0.0000 0.0000
# 4 0.0000 0.0000 0.0000 23.3075 0.0000 0.0000
# 5 0.0000 0.0000 0.0000 0.0000 37.5211 0.0000
# 6 0.0000 0.0000 0.0000 0.0000 0.0000 25.3917
#
#
#
# Elastic Compliance Matrix: (Units=1/GPa)
#
#
# Indices 1 2 3 4 5 6 
#
# 1 0.017853 -0.003144 -0.007869 0.000000 0.000000 0.000000
# 2 -0.003144 0.036445 -0.002734 0.000000 0.000000 0.000000
# 3 -0.007869 -0.002734 0.013374 0.000000 0.000000 0.000000
# 4 0.000000 0.000000 0.000000 0.042905 0.000000 0.000000
# 5 0.000000 0.000000 0.000000 0.000000 0.026652 0.000000
# 6 0.000000 0.000000 0.000000 0.000000 0.000000 0.039383
#
#
# Mechanical properties :
#
#
# Convention : Reuss Voigt Hill
#
# Bulk Modulus (GPa) = 24.88949 39.75415 32.32182
# Shear Modulus (GPa) = 22.98861 26.78539 24.88700
#
# Velocity S-wave (km/s) = 3.44352 3.71703 3.58288
# Velocity P-wave (km/s) = 5.35246 6.23919 5.81276
#
# Compressibility (1/GPa) = 0.04017761
#
# Stress axis : x y z
#
# Youngs Moduli (GPa) = 56.01392 27.43834 74.76989
#
# Poissons Ratio (x) = 0.08628 0.58836
# Poissons Ratio (y) = 0.17613 0.20443
# Poissons Ratio (z) = 0.44077 0.07502
#
# Static dielectric constant tensor:
#      x y z
#    x 3.577610 0.000000 0.000000 
#    y 0.000000 3.589020 0.000000 
#    z 0.000000 0.000000 3.720860 
# 
# 
# High freq. dielectric constant tensor:
#      x y z
#    x 1.742170 0.000000 0.000000 
#    y 0.000000 1.743260 0.000000 
#    z 0.000000 0.000000 1.761790 
# 
# From -- ./inp_files/9066.got.cif
#   From: 2010.06.25/outbox.cif.g09.slc.cpg/sg58_5_cif.got.tgz:9066.got - 2010.06.26 21:38:00.
