data_PCOD8238919
_publ_section_title
;
Structure prediction by ZEFSAII (Michael W. Deem and Ramdas Pophale) SiO2 
 PCOD8238919
Probable space group: P N N M
;
_chemical_formula_sum "Si O2"
_cell_formula_units_Z 20
_cell_length_a 4.750409
_cell_length_b 10.776090
_cell_length_c 13.387106
_cell_angle_alpha 90.000000
_cell_angle_beta 90.000000
_cell_angle_gamma 90.000000
_cell_volume 685.297133
_symmetry_space_group_name_H-M "P N N M"
_symmetry_group_IT_number 58
_symmetry_cell_setting 'orthorhombic'
loop_
_space_group_symop_operation_xyz
x,y,z
-x,-y,z
1/2+x,1/2-y,1/2-z
1/2-x,1/2+y,1/2-z
-x,-y,-z
x,y,-z
1/2-x,1/2+y,1/2+z
1/2+x,1/2-y,1/2+z
loop_
_atom_site_type_symbol
_atom_site_label
_atom_site_fract_x
_atom_site_fract_y
_atom_site_fract_z
Si Si1 0.880908 0.672742 0.213881
Si Si2 0.302992 0.117799 0.000000
Si Si3 0.500000 0.500000 0.667997
Si Si4 0.694851 0.620463 0.000000
O O1 0.689319 0.793821 0.243667
O O2 0.892197 0.629677 0.097801
O O3 0.259691 0.949327 0.232068
O O4 0.500000 0.000000 0.000000
O O5 0.103610 0.113824 0.097695
O O6 0.478549 0.247588 0.000000
O O7 0.500000 0.500000 0.000000
#
# Coordination Sequence:
#
# PCOD8238919 Si02
#       4
#     8   4   4   4
#     4  12  27  48  75 110 155 200 255 317 387 455
#     4  11  23  46  78 103 146 201 265 307 384 469
#     4  11  24  43  74 108 146 205 258 315 382 472
#     4  12  25  48  77 114 153 200 253 320 388 456
#
# _framework density 29.184419999999999
#
# number of rings (size 3 to 8) (size 9 to 14) (size 15 to 20)
#    0.000    0.400    6.000    2.400    0.000    3.200 
#    0.000    2.000    0.000    0.000    0.000    0.000 
#    0.000    0.000    0.000    0.000    0.000    0.000 
#
# Total GULP energy -247942.563556 kJ/mol
# GULP energy per Si atom -12397.128178 kJ/mol
# Density = 2.911799 g / cm^3
# Si number density = 29.184420 Si / 1000 Ang^3
#
#
#
# Elastic Constant Matrix: (Units=GPa)
#
#
# Indices 1 2 3 4 5 6 
#
# 1 64.5151 -7.3751 36.0320 0.0000 0.0000 0.0000
# 2 -7.3751 182.2437 13.5888 0.0000 0.0000 0.0000
# 3 36.0320 13.5888 267.6689 0.0000 0.0000 0.0000
# 4 0.0000 0.0000 0.0000 27.6883 0.0000 0.0000
# 5 0.0000 0.0000 0.0000 0.0000 5.0635 0.0000
# 6 0.0000 0.0000 0.0000 0.0000 0.0000 44.0273
#
#
#
# Elastic Compliance Matrix: (Units=1/GPa)
#
#
# Indices 1 2 3 4 5 6 
#
# 1 0.016892 0.000856 -0.002317 0.000000 0.000000 0.000000
# 2 0.000856 0.005551 -0.000397 0.000000 0.000000 0.000000
# 3 -0.002317 -0.000397 0.004068 0.000000 0.000000 0.000000
# 4 0.000000 0.000000 0.000000 0.036116 0.000000 0.000000
# 5 0.000000 0.000000 0.000000 0.000000 0.197493 0.000000
# 6 0.000000 0.000000 0.000000 0.000000 0.000000 0.022713
#
#
# Mechanical properties :
#
#
# Convention : Reuss Voigt Hill
#
# Bulk Modulus (GPa) = 43.86800 66.54656 55.20728
# Shear Modulus (GPa) = 16.99815 46.83464 31.91639
#
# Velocity S-wave (km/s) = 2.41600 4.01032 3.31057
# Velocity P-wave (km/s) = 4.77982 6.65546 5.79404
#
# Compressibility (1/GPa) = 0.02279566
#
# Stress axis : x y z
#
# Youngs Moduli (GPa) = 59.19806 180.13394 245.81634
#
# Poissons Ratio (x) = -0.15427 0.56966
# Poissons Ratio (y) = -0.05070 0.09762
# Poissons Ratio (z) = 0.13719 0.07153
#
# Static dielectric constant tensor:
#      x y z
#    x 4.871740 0.000000 0.000000 
#    y 0.000000 5.856520 0.000000 
#    z 0.000000 0.000000 6.228270 
# 
# 
# High freq. dielectric constant tensor:
#      x y z
#    x 2.147030 0.000000 0.000000 
#    y 0.000000 2.233080 0.000000 
#    z 0.000000 0.000000 2.219550 
# 
# From -- ./inp_files/23948.got.cif
#   From: 2010.06.25/outbox.cif.g09.slc.cpg/sg58_12_cif.got.tgz:23948.got - 2010.06.26 21:38:00.
