data_PCOD8238737
_publ_section_title
;
Structure prediction by ZEFSAII (Michael W. Deem and Ramdas Pophale) SiO2 
 PCOD8238737
Probable space group: P N N M
;
_chemical_formula_sum "Si O2"
_cell_formula_units_Z 32
_cell_length_a 5.093496
_cell_length_b 12.961423
_cell_length_c 22.738066
_cell_angle_alpha 90.000000
_cell_angle_beta 90.000000
_cell_angle_gamma 90.000000
_cell_volume 1501.143383
_symmetry_space_group_name_H-M "P N N M"
_symmetry_group_IT_number 58
_symmetry_cell_setting 'orthorhombic'
loop_
_space_group_symop_operation_xyz
x,y,z
-x,-y,z
1/2+x,1/2-y,1/2-z
1/2-x,1/2+y,1/2-z
-x,-y,-z
x,y,-z
1/2-x,1/2+y,1/2+z
1/2+x,1/2-y,1/2+z
loop_
_atom_site_type_symbol
_atom_site_label
_atom_site_fract_x
_atom_site_fract_y
_atom_site_fract_z
Si Si1 0.250590 0.070116 0.000000
Si Si2 0.000000 0.000000 0.339483
Si Si3 0.252796 0.746127 0.409765
Si Si4 0.114498 0.784098 0.716451
Si Si5 0.745556 0.378237 0.065334
O O1 0.253973 0.137404 0.058581
O O2 0.500000 0.000000 0.000000
O O3 0.000000 0.000000 0.000000
O O4 0.093378 0.906458 0.297848
O O5 0.761826 0.966109 0.383743
O O6 0.205332 0.723068 0.341309
O O7 0.536569 0.795129 0.419397
O O8 0.034981 0.822323 0.435292
O O9 0.332641 0.762750 0.765867
O O10 0.790383 0.426254 0.000000
#
# Coordination Sequence:
#
# PCOD8238737 Si02
#       5
#     4   4   8   8   8
#     4  12  24  42  68  97 134 175 228 276 330 403
#     4  10  25  42  72 102 130 177 230 270 346 414
#     4  11  23  43  67  96 133 174 216 273 343 386
#     4  11  25  47  69  94 136 177 225 284 327 392
#     4  11  20  39  69 102 136 162 202 275 347 416
#
# _framework density 21.317081999999999
#
# number of rings (size 3 to 8) (size 9 to 14) (size 15 to 20)
#    0.000    1.000    2.500    4.875    0.000    9.000 
#    6.750    6.250    0.000    0.000    0.000    0.000 
#    0.000    0.000    0.000    0.000    0.000    0.000 
#
# Total GULP energy -396804.892813 kJ/mol
# GULP energy per Si atom -12400.152900 kJ/mol
# Density = 2.126856 g / cm^3
# Si number density = 21.317082 Si / 1000 Ang^3
#
#
#
# Elastic Constant Matrix: (Units=GPa)
#
#
# Indices 1 2 3 4 5 6 
#
# 1 105.8639 49.5255 25.7772 0.0000 0.0000 0.0000
# 2 49.5255 150.4010 60.0851 0.0000 0.0000 0.0000
# 3 25.7772 60.0851 128.1323 0.0000 0.0000 0.0000
# 4 0.0000 0.0000 0.0000 54.7601 0.0000 0.0000
# 5 0.0000 0.0000 0.0000 0.0000 20.4026 0.0000
# 6 0.0000 0.0000 0.0000 0.0000 0.0000 43.6531
#
#
#
# Elastic Compliance Matrix: (Units=1/GPa)
#
#
# Indices 1 2 3 4 5 6 
#
# 1 0.011209 -0.003433 -0.000645 0.000000 0.000000 0.000000
# 2 -0.003433 0.009233 -0.003639 0.000000 0.000000 0.000000
# 3 -0.000645 -0.003639 0.009641 0.000000 0.000000 0.000000
# 4 0.000000 0.000000 0.000000 0.018261 0.000000 0.000000
# 5 0.000000 0.000000 0.000000 0.000000 0.049013 0.000000
# 6 0.000000 0.000000 0.000000 0.000000 0.000000 0.022908
#
#
# Mechanical properties :
#
#
# Convention : Reuss Voigt Hill
#
# Bulk Modulus (GPa) = 68.26725 72.79699 70.53212
# Shear Modulus (GPa) = 35.56595 40.36378 37.96487
#
# Velocity S-wave (km/s) = 4.08907 4.35615 4.22472
# Velocity P-wave (km/s) = 7.37483 7.71525 7.54696
#
# Compressibility (1/GPa) = 0.01464831
#
# Stress axis : x y z
#
# Youngs Moduli (GPa) = 89.21090 108.30375 103.72745
#
# Poissons Ratio (x) = 0.37186 0.06691
# Poissons Ratio (y) = 0.30630 0.37747
# Poissons Ratio (z) = 0.05754 0.39412
#
# Static dielectric constant tensor:
#      x y z
#    x 3.984530 0.000000 0.000000 
#    y 0.000000 3.860310 0.000000 
#    z 0.000000 0.000000 4.216540 
# 
# 
# High freq. dielectric constant tensor:
#      x y z
#    x 1.856920 0.000000 0.000000 
#    y 0.000000 1.826230 0.000000 
#    z 0.000000 0.000000 1.846400 
# 
# From -- ./inp_files/30785.got.cif
#   From: 2010.06.25/outbox.cif.g09.slc.cpg/sg58_16_cif.got.tgz:30785.got - 2010.06.26 21:38:00.
