data_PCOD8238039
_publ_section_title
;
Structure prediction by ZEFSAII (Michael W. Deem and Ramdas Pophale) SiO2 
 PCOD8238039
Probable space group: P N N M
;
_chemical_formula_sum "Si O2"
_cell_formula_units_Z 64
_cell_length_a 28.978441
_cell_length_b 12.054418
_cell_length_c 9.475114
_cell_angle_alpha 90.000000
_cell_angle_beta 90.000000
_cell_angle_gamma 90.000000
_cell_volume 3309.830154
_symmetry_space_group_name_H-M "P N N M"
_symmetry_group_IT_number 58
_symmetry_cell_setting 'orthorhombic'
loop_
_space_group_symop_operation_xyz
x,y,z
-x,-y,z
1/2+x,1/2-y,1/2-z
1/2-x,1/2+y,1/2-z
-x,-y,-z
x,y,-z
1/2-x,1/2+y,1/2+z
1/2+x,1/2-y,1/2+z
loop_
_atom_site_type_symbol
_atom_site_label
_atom_site_fract_x
_atom_site_fract_y
_atom_site_fract_z
Si Si1 0.433360 0.519555 0.843766
Si Si2 0.334253 0.254750 0.665256
Si Si3 0.837298 0.870657 0.339682
Si Si4 0.320212 0.039317 0.838577
Si Si5 0.060801 0.809138 0.834314
Si Si6 0.479446 0.755796 0.161928
Si Si7 0.115088 0.347105 0.332523
Si Si8 0.780687 0.028313 0.839011
O O1 0.379421 0.543834 0.831788
O O2 0.447606 0.432163 0.725218
O O3 0.462903 0.629681 0.821231
O O4 0.443954 0.470217 0.000000
O O5 0.326847 0.236467 0.500000
O O6 0.315427 0.147189 0.743797
O O7 0.387794 0.270417 0.703288
O O8 0.304145 0.359246 0.719352
O O9 0.819523 0.856650 0.500000
O O10 0.853235 0.753046 0.273107
O O11 0.796135 0.920338 0.247567
O O12 0.363416 0.964494 0.785936
O O13 0.274516 0.963471 0.825470
O O14 0.327806 0.076542 0.000000
O O15 0.024617 0.725585 0.758720
O O16 0.051363 0.809905 0.000000
O O17 0.438132 0.836118 0.218238
O O18 0.491931 0.783867 0.000000
O O19 0.115114 0.330700 0.500000
O O20 0.796557 0.010678 0.000000
#
# Coordination Sequence:
#
# PCOD8238039 Si02
#       8
#     8   8   8   8   8   8   8   8
#     4   9  17  30  49  78 112 144 181 226 269 318
#     4  10  23  41  57  79 116 152 181 223 282 334
#     4   9  17  31  56  83 108 144 183 219 268 330
#     4  10  22  39  61  83 106 142 191 235 271 326
#     4  11  21  33  51  77 111 151 186 222 277 335
#     4   9  18  33  54  79 109 144 184 230 279 326
#     4   8  17  36  58  81 109 142 183 232 280 320
#     4  10  21  37  56  82 114 144 177 225 281 332
#
# _framework density 19.33634
#
# number of rings (size 3 to 8) (size 9 to 14) (size 15 to 20)
#    0.000    2.500    1.250    2.250    1.750    4.000 
#    0.000    3.750    0.000    3.750    0.000    0.000 
#    0.000    0.000    0.000    0.000    0.000    0.000 
#
# Total GULP energy -793508.650070 kJ/mol
# GULP energy per Si atom -12398.572657 kJ/mol
# Density = 1.929233 g / cm^3
# Si number density = 19.336340 Si / 1000 Ang^3
#
#
#
# Elastic Constant Matrix: (Units=GPa)
#
#
# Indices 1 2 3 4 5 6 
#
# 1 88.6112 24.8677 34.9241 0.0000 0.0000 0.0000
# 2 24.8677 65.8679 26.3041 0.0000 0.0000 0.0000
# 3 34.9241 26.3041 59.8686 0.0000 0.0000 0.0000
# 4 0.0000 0.0000 0.0000 20.2701 0.0000 0.0000
# 5 0.0000 0.0000 0.0000 0.0000 28.2179 0.0000
# 6 0.0000 0.0000 0.0000 0.0000 0.0000 18.1691
#
#
#
# Elastic Compliance Matrix: (Units=1/GPa)
#
#
# Indices 1 2 3 4 5 6 
#
# 1 0.015022 -0.002634 -0.007606 0.000000 0.000000 0.000000
# 2 -0.002634 0.018874 -0.006756 0.000000 0.000000 0.000000
# 3 -0.007606 -0.006756 0.024108 0.000000 0.000000 0.000000
# 4 0.000000 0.000000 0.000000 0.049334 0.000000 0.000000
# 5 0.000000 0.000000 0.000000 0.000000 0.035438 0.000000
# 6 0.000000 0.000000 0.000000 0.000000 0.000000 0.055039
#
#
# Mechanical properties :
#
#
# Convention : Reuss Voigt Hill
#
# Bulk Modulus (GPa) = 41.64417 42.94882 42.29649
# Shear Modulus (GPa) = 20.84964 21.88153 21.36558
#
# Velocity S-wave (km/s) = 3.28725 3.36762 3.32768
# Velocity P-wave (km/s) = 5.99929 6.11398 6.05691
#
# Compressibility (1/GPa) = 0.02401297
#
# Stress axis : x y z
#
# Youngs Moduli (GPa) = 66.56840 52.98174 41.47919
#
# Poissons Ratio (x) = 0.13956 0.31548
# Poissons Ratio (y) = 0.17535 0.28024
# Poissons Ratio (z) = 0.50631 0.35795
#
# Static dielectric constant tensor:
#      x y z
#    x 3.729810 0.000000 0.000000 
#    y 0.000000 3.288180 0.000000 
#    z 0.000000 0.000000 3.309380 
# 
# 
# High freq. dielectric constant tensor:
#      x y z
#    x 1.765210 0.000000 0.000000 
#    y 0.000000 1.731090 0.000000 
#    z 0.000000 0.000000 1.727840 
# 
# From -- ./inp_files/10971.got.cif
#   From: 2010.06.25/outbox.cif.g09.slc.cpg/sg58_6_cif.got.tgz:10971.got - 2010.06.26 21:38:00.
