data_PCOD8238916
_publ_section_title
;
Structure prediction by ZEFSAII (Michael W. Deem and Ramdas Pophale) SiO2 
 PCOD8238916
Probable space group: P N N M
;
_chemical_formula_sum "Si O2"
_cell_formula_units_Z 28
_cell_length_a 9.691387
_cell_length_b 9.770931
_cell_length_c 14.025531
_cell_angle_alpha 90.000000
_cell_angle_beta 90.000000
_cell_angle_gamma 90.000000
_cell_volume 1328.131861
_symmetry_space_group_name_H-M "P N N M"
_symmetry_group_IT_number 58
_symmetry_cell_setting 'orthorhombic'
loop_
_space_group_symop_operation_xyz
x,y,z
-x,-y,z
1/2+x,1/2-y,1/2-z
1/2-x,1/2+y,1/2-z
-x,-y,-z
x,y,-z
1/2-x,1/2+y,1/2+z
1/2+x,1/2-y,1/2+z
loop_
_atom_site_type_symbol
_atom_site_label
_atom_site_fract_x
_atom_site_fract_y
_atom_site_fract_z
Si Si1 0.478263 0.835738 0.000000
Si Si2 0.339684 0.514421 0.693610
Si Si3 0.545126 0.843997 0.500000
Si Si4 0.733554 0.261956 0.153425
Si Si5 0.721588 0.344275 0.500000
O O1 0.399114 0.779857 0.907831
O O2 0.500000 0.000000 0.000000
O O3 0.630650 0.766390 0.000000
O O4 0.500000 0.500000 0.680575
O O5 0.304292 0.614535 0.778656
O O6 0.274567 0.367201 0.718790
O O7 0.278759 0.558837 0.592114
O O8 0.633983 0.806917 0.407618
O O9 0.404084 0.759719 0.500000
O O10 0.500000 0.000000 0.500000
#
# Coordination Sequence:
#
# PCOD8238916 Si02
#       5
#     4   8   4   8   4
#     4  11  23  45  72 101 139 185 238 286 355 423
#     4  12  26  44  73 105 142 184 238 289 356 423
#     4  11  26  48  74 105 141 188 246 294 351 428
#     4  11  27  45  71 108 142 185 239 293 353 428
#     4  12  24  46  76  93 141 191 232 288 357 414
#
# _framework density 21.082242999999998
#
# number of rings (size 3 to 8) (size 9 to 14) (size 15 to 20)
#    0.000    0.571    5.714    1.286    8.000    0.000 
#    0.000    2.857    0.000    0.000    0.000    0.000 
#    0.000    0.000    0.000    0.000    0.000    0.000 
#
# Total GULP energy -347270.896536 kJ/mol
# GULP energy per Si atom -12402.532019 kJ/mol
# Density = 2.103426 g / cm^3
# Si number density = 21.082243 Si / 1000 Ang^3
#
#
#
# Elastic Constant Matrix: (Units=GPa)
#
#
# Indices 1 2 3 4 5 6 
#
# 1 176.4779 52.5810 47.5337 0.0000 0.0000 0.0000
# 2 52.5810 140.0035 62.3435 0.0000 0.0000 0.0000
# 3 47.5337 62.3435 116.8995 0.0000 0.0000 0.0000
# 4 0.0000 0.0000 0.0000 -23.3464 0.0000 0.0000
# 5 0.0000 0.0000 0.0000 0.0000 77.1870 0.0000
# 6 0.0000 0.0000 0.0000 0.0000 0.0000 121.4169
#
#
#
# Elastic Compliance Matrix: (Units=1/GPa)
#
#
# Indices 1 2 3 4 5 6 
#
# 1 0.006658 -0.001698 -0.001801 0.000000 0.000000 0.000000
# 2 -0.001698 0.009800 -0.004536 0.000000 0.000000 0.000000
# 3 -0.001801 -0.004536 0.011706 0.000000 0.000000 0.000000
# 4 0.000000 0.000000 0.000000 -0.042833 0.000000 0.000000
# 5 0.000000 0.000000 0.000000 0.000000 0.012956 0.000000
# 6 0.000000 0.000000 0.000000 0.000000 0.000000 0.008236
#
#
# Mechanical properties :
#
#
# Convention : Reuss Voigt Hill
#
# Bulk Modulus (GPa) = 82.69600 84.25527 83.47563
# Shear Modulus (GPa) = 187.79390 53.11301 120.45345
#
# Velocity S-wave (km/s) = 9.44829 5.02473 7.56697
# Velocity P-wave (km/s) = 12.58322 8.58579 10.77156
#
# Compressibility (1/GPa) = 0.01209248
#
# Stress axis : x y z
#
# Youngs Moduli (GPa) = 150.20366 102.03664 85.42620
#
# Poissons Ratio (x) = 0.17328 0.15389
# Poissons Ratio (y) = 0.25508 0.38750
# Poissons Ratio (z) = 0.27059 0.46285
#
# Static dielectric constant tensor:
#      x y z
#    x 5.086570 0.000000 0.000000 
#    y 0.000000 3.713630 0.000000 
#    z 0.000000 0.000000 3.681440 
# 
# 
# High freq. dielectric constant tensor:
#      x y z
#    x 1.853620 0.000000 0.000000 
#    y 0.000000 1.833050 0.000000 
#    z 0.000000 0.000000 1.824520 
# 
# From -- ./inp_files/19046.got.cif
#   From: 2010.06.25/outbox.cif.g09.slc.cpg/sg58_10_cif.got.tgz:19046.got - 2010.06.26 21:38:00.
