data_PCOD8238559
_publ_section_title
;
Structure prediction by ZEFSAII (Michael W. Deem and Ramdas Pophale) SiO2 
 PCOD8238559
Probable space group: P N N M
;
_chemical_formula_sum "Si O2"
_cell_formula_units_Z 64
_cell_length_a 30.623564
_cell_length_b 11.844694
_cell_length_c 8.463594
_cell_angle_alpha 90.000000
_cell_angle_beta 90.000000
_cell_angle_gamma 90.000000
_cell_volume 3069.971901
_symmetry_space_group_name_H-M "P N N M"
_symmetry_group_IT_number 58
_symmetry_cell_setting 'orthorhombic'
loop_
_space_group_symop_operation_xyz
x,y,z
-x,-y,z
1/2+x,1/2-y,1/2-z
1/2-x,1/2+y,1/2-z
-x,-y,-z
x,y,-z
1/2-x,1/2+y,1/2+z
1/2+x,1/2-y,1/2+z
loop_
_atom_site_type_symbol
_atom_site_label
_atom_site_fract_x
_atom_site_fract_y
_atom_site_fract_z
Si Si1 0.625920 0.645412 0.183016
Si Si2 0.880266 0.900927 0.183972
Si Si3 0.046062 0.720956 0.817069
Si Si4 0.697269 0.244873 0.313197
Si Si5 0.069473 0.495429 0.683627
Si Si6 0.338128 0.991871 0.684732
Si Si7 0.043888 0.247361 0.314699
Si Si8 0.706777 0.800335 0.813530
O O1 0.621705 0.533646 0.287049
O O2 0.585535 0.727605 0.216591
O O3 0.671106 0.705838 0.230413
O O4 0.625808 0.611566 0.000000
O O5 0.835113 0.844311 0.244324
O O6 0.920748 0.847747 0.277073
O O7 0.887395 0.876167 0.000000
O O8 0.040036 0.588459 0.773143
O O9 0.001066 0.784185 0.773760
O O10 0.056857 0.736783 0.000000
O O11 0.699398 0.240349 0.500000
O O12 0.679252 0.126656 0.248229
O O13 0.746109 0.261696 0.248673
O O14 0.058585 0.505488 0.500000
O O15 0.119522 0.526432 0.716318
O O16 0.060269 0.369494 0.747310
O O17 0.349821 0.985826 0.500000
O O18 0.301909 0.085503 0.717864
O O19 0.034912 0.249778 0.500000
O O20 0.706660 0.825239 0.000000
#
# Coordination Sequence:
#
# PCOD8238559 Si02
#       8
#     8   8   8   8   8   8   8   8
#     4  11  24  42  64  89 125 166 209 256 309 369
#     4  11  23  42  65  90 125 164 209 259 311 365
#     4  12  25  41  65  94 125 161 207 255 309 368
#     4   9  21  40  62  91 127 165 204 256 312 364
#     4  11  22  39  63  93 129 165 201 250 309 370
#     4  11  21  37  64  94 125 162 206 257 309 363
#     4  11  24  42  65  93 126 162 206 252 309 374
#     4  10  22  41  63  89 126 168 207 253 310 368
#
# _framework density 20.847097999999999
#
# number of rings (size 3 to 8) (size 9 to 14) (size 15 to 20)
#    0.000    1.250    2.500    3.375    1.750    4.000 
#    0.000    4.375    0.000    0.000    0.000    0.000 
#    0.000    0.000    0.000    0.000    0.000    0.000 
#
# Total GULP energy -793978.445164 kJ/mol
# GULP energy per Si atom -12405.913206 kJ/mol
# Density = 2.079965 g / cm^3
# Si number density = 20.847098 Si / 1000 Ang^3
#
#
#
# Elastic Constant Matrix: (Units=GPa)
#
#
# Indices 1 2 3 4 5 6 
#
# 1 121.4636 25.2851 18.4967 0.0000 0.0000 0.0000
# 2 25.2851 104.7558 15.7802 0.0000 0.0000 0.0000
# 3 18.4967 15.7802 47.7631 0.0000 0.0000 0.0000
# 4 0.0000 0.0000 0.0000 32.6542 0.0000 0.0000
# 5 0.0000 0.0000 0.0000 0.0000 25.9626 0.0000
# 6 0.0000 0.0000 0.0000 0.0000 0.0000 27.9715
#
#
#
# Elastic Compliance Matrix: (Units=1/GPa)
#
#
# Indices 1 2 3 4 5 6 
#
# 1 0.009041 -0.001741 -0.002926 0.000000 0.000000 0.000000
# 2 -0.001741 0.010381 -0.002755 0.000000 0.000000 0.000000
# 3 -0.002926 -0.002755 0.022980 0.000000 0.000000 0.000000
# 4 0.000000 0.000000 0.000000 0.030624 0.000000 0.000000
# 5 0.000000 0.000000 0.000000 0.000000 0.038517 0.000000
# 6 0.000000 0.000000 0.000000 0.000000 0.000000 0.035751
#
#
# Mechanical properties :
#
#
# Convention : Reuss Voigt Hill
#
# Bulk Modulus (GPa) = 36.28853 43.67850 39.98351
# Shear Modulus (GPa) = 29.18426 31.61238 30.39832
#
# Velocity S-wave (km/s) = 3.74561 3.89831 3.82272
# Velocity P-wave (km/s) = 6.01256 6.42338 6.22136
#
# Compressibility (1/GPa) = 0.02755692
#
# Stress axis : x y z
#
# Youngs Moduli (GPa) = 110.60726 96.32580 43.51592
#
# Poissons Ratio (x) = 0.16775 0.12732
# Poissons Ratio (y) = 0.19262 0.11991
# Poissons Ratio (z) = 0.32362 0.26542
#
# Static dielectric constant tensor:
#      x y z
#    x 3.941730 0.000000 0.000000 
#    y 0.000000 3.755460 0.000000 
#    z 0.000000 0.000000 3.519610 
# 
# 
# High freq. dielectric constant tensor:
#      x y z
#    x 1.828270 0.000000 0.000000 
#    y 0.000000 1.818790 0.000000 
#    z 0.000000 0.000000 1.804910 
# 
# From -- ./inp_files/10943.got.cif
#   From: 2010.06.25/outbox.cif.g09.slc.cpg/sg58_6_cif.got.tgz:10943.got - 2010.06.26 21:38:00.
