data_PCOD8238999
_publ_section_title
;
Structure prediction by ZEFSAII (Michael W. Deem and Ramdas Pophale) SiO2 
 PCOD8238999
Probable space group: P N N M
;
_chemical_formula_sum "Si O2"
_cell_formula_units_Z 40
_cell_length_a 16.953757
_cell_length_b 7.473667
_cell_length_c 14.100300
_cell_angle_alpha 90.000000
_cell_angle_beta 90.000000
_cell_angle_gamma 90.000000
_cell_volume 1786.602964
_symmetry_space_group_name_H-M "P N N M"
_symmetry_group_IT_number 58
_symmetry_cell_setting 'orthorhombic'
loop_
_space_group_symop_operation_xyz
x,y,z
-x,-y,z
1/2+x,1/2-y,1/2-z
1/2-x,1/2+y,1/2-z
-x,-y,-z
x,y,-z
1/2-x,1/2+y,1/2+z
1/2+x,1/2-y,1/2+z
loop_
_atom_site_type_symbol
_atom_site_label
_atom_site_fract_x
_atom_site_fract_y
_atom_site_fract_z
Si Si1 0.727193 0.027405 0.387804
Si Si2 0.171460 0.656049 0.611776
Si Si3 0.984932 0.289071 0.293755
Si Si4 0.355926 0.757239 0.112711
Si Si5 0.066475 0.640536 0.103080
O O1 0.722176 0.033311 0.500000
O O2 0.790761 0.882207 0.354561
O O3 0.641722 0.964571 0.350843
O O4 0.754775 0.223652 0.349605
O O5 0.174518 0.656080 0.500000
O O6 0.175212 0.451858 0.649093
O O7 0.089779 0.752878 0.640173
O O8 0.062797 0.196008 0.335952
O O9 0.000000 0.500000 0.291338
O O10 0.964634 0.224243 0.185246
O O11 0.371042 0.760317 0.000000
O O12 0.000000 0.500000 0.079429
O O13 0.086481 0.734961 0.000000
#
# Coordination Sequence:
#
# PCOD8238999 Si02
#       5
#     8   8   8   8   8
#     4   9  18  33  55  82 107 141 185 225 270 317
#     4   9  17  31  52  81 113 141 173 219 275 332
#     4   9  17  31  49  77 110 143 179 215 273 327
#     4   9  17  31  55  84 115 141 169 220 279 333
#     4   9  18  35  56  75 105 150 193 227 261 311
#
# _framework density 22.388857999999999
#
# number of rings (size 3 to 8) (size 9 to 14) (size 15 to 20)
#    0.000    3.000    0.000    0.600    0.000    3.200 
#   10.800    3.000    0.000    8.400    0.000   14.000 
#    0.000    0.000    0.000    0.000    0.000    0.000 
#
# Total GULP energy -495522.650478 kJ/mol
# GULP energy per Si atom -12388.066262 kJ/mol
# Density = 2.233790 g / cm^3
# Si number density = 22.388858 Si / 1000 Ang^3
#
#
#
# Elastic Constant Matrix: (Units=GPa)
#
#
# Indices 1 2 3 4 5 6 
#
# 1 121.3690 18.7437 22.5394 0.0000 0.0000 0.0000
# 2 18.7437 44.2956 21.0777 0.0000 0.0000 0.0000
# 3 22.5394 21.0777 29.4383 0.0000 0.0000 0.0000
# 4 0.0000 0.0000 0.0000 43.1588 0.0000 0.0000
# 5 0.0000 0.0000 0.0000 0.0000 22.9942 0.0000
# 6 0.0000 0.0000 0.0000 0.0000 0.0000 24.0887
#
#
#
# Elastic Compliance Matrix: (Units=1/GPa)
#
#
# Indices 1 2 3 4 5 6 
#
# 1 0.009627 -0.000859 -0.006756 0.000000 0.000000 0.000000
# 2 -0.000859 0.034319 -0.023914 0.000000 0.000000 0.000000
# 3 -0.006756 -0.023914 0.056264 0.000000 0.000000 0.000000
# 4 0.000000 0.000000 0.000000 0.023170 0.000000 0.000000
# 5 0.000000 0.000000 0.000000 0.000000 0.043489 0.000000
# 6 0.000000 0.000000 0.000000 0.000000 0.000000 0.041513
#
#
# Mechanical properties :
#
#
# Convention : Reuss Voigt Hill
#
# Bulk Modulus (GPa) = 26.91660 35.53607 31.22633
# Shear Modulus (GPa) = 17.61656 26.89782 22.25719
#
# Velocity S-wave (km/s) = 2.80812 3.46987 3.15639
# Velocity P-wave (km/s) = 4.75000 5.65332 5.22123
#
# Compressibility (1/GPa) = 0.03715180
#
# Stress axis : x y z
#
# Youngs Moduli (GPa) = 103.87922 29.13879 17.77320
#
# Poissons Ratio (x) = 0.02503 0.12007
# Poissons Ratio (y) = 0.08922 0.42503
# Poissons Ratio (z) = 0.70177 0.69684
#
# Static dielectric constant tensor:
#      x y z
#    x 4.432110 0.000000 0.000000 
#    y 0.000000 3.949550 0.000000 
#    z 0.000000 0.000000 4.247050 
# 
# 
# High freq. dielectric constant tensor:
#      x y z
#    x 1.889090 0.000000 0.000000 
#    y 0.000000 1.832520 0.000000 
#    z 0.000000 0.000000 1.890600 
# 
# From -- ./inp_files/19663.got.cif
#   From: 2010.06.25/outbox.cif.g09.slc.cpg/sg58_10_cif.got.tgz:19663.got - 2010.06.26 21:38:00.
