data_PCOD8238780
_publ_section_title
;
Structure prediction by ZEFSAII (Michael W. Deem and Ramdas Pophale) SiO2 
 PCOD8238780
Probable space group: P N N M
;
_chemical_formula_sum "Si O2"
_cell_formula_units_Z 40
_cell_length_a 6.715455
_cell_length_b 14.780654
_cell_length_c 18.470395
_cell_angle_alpha 90.000000
_cell_angle_beta 90.000000
_cell_angle_gamma 90.000000
_cell_volume 1833.349554
_symmetry_space_group_name_H-M "P N N M"
_symmetry_group_IT_number 58
_symmetry_cell_setting 'orthorhombic'
loop_
_space_group_symop_operation_xyz
x,y,z
-x,-y,z
1/2+x,1/2-y,1/2-z
1/2-x,1/2+y,1/2-z
-x,-y,-z
x,y,-z
1/2-x,1/2+y,1/2+z
1/2+x,1/2-y,1/2+z
loop_
_atom_site_type_symbol
_atom_site_label
_atom_site_fract_x
_atom_site_fract_y
_atom_site_fract_z
Si Si1 0.768035 0.027491 0.228643
Si Si2 0.382078 0.302532 0.806524
Si Si3 0.659178 0.577582 0.578116
Si Si4 0.173066 0.648381 0.195132
Si Si5 0.068962 0.263750 0.916625
O O1 0.636362 0.945298 0.260979
O O2 0.739812 0.115246 0.279442
O O3 0.698027 0.053272 0.146293
O O4 0.000000 0.000000 0.224275
O O5 0.596250 0.342339 0.825788
O O6 0.410892 0.230038 0.743342
O O7 0.283763 0.257224 0.877222
O O8 0.500000 0.500000 0.567790
O O9 0.774451 0.586976 0.500000
O O10 0.546241 0.670528 0.596377
O O11 0.056063 0.653721 0.119038
O O12 0.105840 0.286203 0.000000
#
# Coordination Sequence:
#
# PCOD8238780 Si02
#       5
#     8   8   8   8   8
#     4   9  18  33  56  85 115 154 200 239 293 360
#     4  11  20  38  59  85 116 156 201 245 294 358
#     4   9  16  31  57  86 117 153 191 242 307 359
#     4  11  21  37  61  87 120 156 201 245 296 358
#     4  11  23  39  60  90 122 157 199 253 305 348
#
# _framework density 21.817990000000002
#
# number of rings (size 3 to 8) (size 9 to 14) (size 15 to 20)
#    0.000    1.800    4.000    2.400    0.000    1.600 
#    0.000    2.000    0.000    3.600    0.000    9.800 
#    0.000    0.000    0.000    0.000    0.000    0.000 
#
# Total GULP energy -495925.810518 kJ/mol
# GULP energy per Si atom -12398.145263 kJ/mol
# Density = 2.176833 g / cm^3
# Si number density = 21.817990 Si / 1000 Ang^3
#
#
#
# Elastic Constant Matrix: (Units=GPa)
#
#
# Indices 1 2 3 4 5 6 
#
# 1 25.8716 5.9402 25.9575 0.0000 0.0000 0.0000
# 2 5.9402 102.1628 50.7203 0.0000 0.0000 0.0000
# 3 25.9575 50.7203 167.0982 0.0000 0.0000 0.0000
# 4 0.0000 0.0000 0.0000 42.5332 0.0000 0.0000
# 5 0.0000 0.0000 0.0000 0.0000 30.0495 0.0000
# 6 0.0000 0.0000 0.0000 0.0000 0.0000 30.9798
#
#
#
# Elastic Compliance Matrix: (Units=1/GPa)
#
#
# Indices 1 2 3 4 5 6 
#
# 1 0.045880 0.001025 -0.007438 0.000000 0.000000 0.000000
# 2 0.001025 0.011548 -0.003664 0.000000 0.000000 0.000000
# 3 -0.007438 -0.003664 0.008252 0.000000 0.000000 0.000000
# 4 0.000000 0.000000 0.000000 0.023511 0.000000 0.000000
# 5 0.000000 0.000000 0.000000 0.000000 0.033278 0.000000
# 6 0.000000 0.000000 0.000000 0.000000 0.000000 0.032279
#
#
# Mechanical properties :
#
#
# Convention : Reuss Voigt Hill
#
# Bulk Modulus (GPa) = 21.96586 51.15205 36.55896
# Shear Modulus (GPa) = 26.30484 34.88017 30.59250
#
# Velocity S-wave (km/s) = 3.47601 4.00270 3.74862
# Velocity P-wave (km/s) = 5.11858 6.69761 5.96061
#
# Compressibility (1/GPa) = 0.04552518
#
# Stress axis : x y z
#
# Youngs Moduli (GPa) = 21.79593 86.59531 121.17840
#
# Poissons Ratio (x) = -0.08878 0.90137
# Poissons Ratio (y) = -0.02235 0.44406
# Poissons Ratio (z) = 0.16213 0.31733
#
# Static dielectric constant tensor:
#      x y z
#    x 3.637220 0.000000 0.000000 
#    y 0.000000 4.113730 0.000000 
#    z 0.000000 0.000000 4.263720 
# 
# 
# High freq. dielectric constant tensor:
#      x y z
#    x 1.848300 0.000000 0.000000 
#    y 0.000000 1.861990 0.000000 
#    z 0.000000 0.000000 1.852910 
# 
# From -- ./inp_files/25106.got.cif
#   From: 2010.06.25/outbox.cif.g09.slc.cpg/sg58_13_cif.got.tgz:25106.got - 2010.06.26 21:38:00.
