data_PCOD8238661
_publ_section_title
;
Structure prediction by ZEFSAII (Michael W. Deem and Ramdas Pophale) SiO2 
 PCOD8238661
Probable space group: P N N M
;
_chemical_formula_sum "Si O2"
_cell_formula_units_Z 64
_cell_length_a 30.476184
_cell_length_b 11.995660
_cell_length_c 8.767611
_cell_angle_alpha 90.000000
_cell_angle_beta 90.000000
_cell_angle_gamma 90.000000
_cell_volume 3205.280250
_symmetry_space_group_name_H-M "P N N M"
_symmetry_group_IT_number 58
_symmetry_cell_setting 'orthorhombic'
loop_
_space_group_symop_operation_xyz
x,y,z
-x,-y,z
1/2+x,1/2-y,1/2-z
1/2-x,1/2+y,1/2-z
-x,-y,-z
x,y,-z
1/2-x,1/2+y,1/2+z
1/2+x,1/2-y,1/2+z
loop_
_atom_site_type_symbol
_atom_site_label
_atom_site_fract_x
_atom_site_fract_y
_atom_site_fract_z
Si Si1 0.917219 0.746878 0.178364
Si Si2 0.546870 0.447987 0.824003
Si Si3 0.705591 0.460218 0.322953
Si Si4 0.672527 0.250057 0.821429
Si Si5 0.375344 0.155182 0.319414
Si Si6 0.805793 0.503510 0.677425
Si Si7 0.950931 0.508787 0.181037
Si Si8 0.871958 0.100736 0.320218
O O1 0.876099 0.788239 0.277300
O O2 0.931788 0.626148 0.236954
O O3 0.953977 0.837843 0.218360
O O4 0.905950 0.745974 0.000000
O O5 0.500000 0.500000 0.794190
O O6 0.584878 0.532743 0.770104
O O7 0.553512 0.414753 0.000000
O O8 0.693402 0.466050 0.500000
O O9 0.705232 0.332745 0.265654
O O10 0.754327 0.501800 0.289589
O O11 0.671801 0.538072 0.233145
O O12 0.678784 0.124231 0.763963
O O13 0.681131 0.262008 0.000000
O O14 0.375718 0.162818 0.500000
O O15 0.375094 0.277949 0.252659
O O16 0.331363 0.090682 0.270441
O O17 0.418812 0.089367 0.259543
O O18 0.816396 0.485685 0.500000
O O19 0.000000 0.500000 0.250436
O O20 0.953513 0.505177 0.000000
O O21 0.869575 0.115326 0.500000
#
# Coordination Sequence:
#
# PCOD8238661 Si02
#       8
#     8   8   8   8   8   8   8   8
#     4  11  21  37  64  92 119 157 205 255 301 358
#     4  10  23  42  62  87 123 163 203 251 306 365
#     4  11  24  42  64  93 122 158 206 253 303 365
#     4  11  22  40  64  89 122 161 200 252 309 362
#     4  11  23  40  64  90 123 163 205 252 302 360
#     4  10  24  43  63  90 125 161 201 250 306 367
#     4   9  20  38  59  89 125 158 196 248 305 355
#     4  11  24  42  62  88 125 166 202 247 308 364
#
# _framework density 19.967051999999999
#
# number of rings (size 3 to 8) (size 9 to 14) (size 15 to 20)
#    0.000    1.500    2.500    1.875    3.500    2.250 
#    0.000    0.000    0.000    3.000    0.000    0.000 
#    0.000    0.000    0.000    0.000    0.000    0.000 
#
# Total GULP energy -793795.516443 kJ/mol
# GULP energy per Si atom -12403.054944 kJ/mol
# Density = 1.992161 g / cm^3
# Si number density = 19.967052 Si / 1000 Ang^3
#
#
#
# Elastic Constant Matrix: (Units=GPa)
#
#
# Indices 1 2 3 4 5 6 
#
# 1 102.2926 44.8351 40.0968 0.0000 0.0000 0.0000
# 2 44.8351 138.6256 39.9900 0.0000 0.0000 0.0000
# 3 40.0968 39.9900 53.5276 0.0000 0.0000 0.0000
# 4 0.0000 0.0000 0.0000 35.4889 0.0000 0.0000
# 5 0.0000 0.0000 0.0000 0.0000 26.5016 0.0000
# 6 0.0000 0.0000 0.0000 0.0000 0.0000 27.3333
#
#
#
# Elastic Compliance Matrix: (Units=1/GPa)
#
#
# Indices 1 2 3 4 5 6 
#
# 1 0.014241 -0.001948 -0.009212 0.000000 0.000000 0.000000
# 2 -0.001948 0.009462 -0.005609 0.000000 0.000000 0.000000
# 3 -0.009212 -0.005609 0.029773 0.000000 0.000000 0.000000
# 4 0.000000 0.000000 0.000000 0.028178 0.000000 0.000000
# 5 0.000000 0.000000 0.000000 0.000000 0.037734 0.000000
# 6 0.000000 0.000000 0.000000 0.000000 0.000000 0.036585
#
#
# Mechanical properties :
#
#
# Convention : Reuss Voigt Hill
#
# Bulk Modulus (GPa) = 50.15938 60.47663 55.31800
# Shear Modulus (GPa) = 25.48964 29.16635 27.32799
#
# Velocity S-wave (km/s) = 3.57681 3.82609 3.70355
# Velocity P-wave (km/s) = 6.49875 7.06205 6.78625
#
# Compressibility (1/GPa) = 0.01993645
#
# Stress axis : x y z
#
# Youngs Moduli (GPa) = 70.22081 105.68550 33.58712
#
# Poissons Ratio (x) = 0.20592 0.30940
# Poissons Ratio (y) = 0.13682 0.18841
# Poissons Ratio (z) = 0.64687 0.59284
#
# Static dielectric constant tensor:
#      x y z
#    x 3.749940 0.000000 0.000000 
#    y 0.000000 3.793530 0.000000 
#    z 0.000000 0.000000 3.506580 
# 
# 
# High freq. dielectric constant tensor:
#      x y z
#    x 1.786400 0.000000 0.000000 
#    y 0.000000 1.794510 0.000000 
#    z 0.000000 0.000000 1.770380 
# 
# From -- ./inp_files/10973.got.cif
#   From: 2010.06.25/outbox.cif.g09.slc.cpg/sg58_6_cif.got.tgz:10973.got - 2010.06.26 21:38:00.
