data_PCOD8238767
_publ_section_title
;
Structure prediction by ZEFSAII (Michael W. Deem and Ramdas Pophale) SiO2 
 PCOD8238767
Probable space group: P N N M
;
_chemical_formula_sum "Si O2"
_cell_formula_units_Z 64
_cell_length_a 9.368164
_cell_length_b 21.652355
_cell_length_c 16.135281
_cell_angle_alpha 90.000000
_cell_angle_beta 90.000000
_cell_angle_gamma 90.000000
_cell_volume 3272.925781
_symmetry_space_group_name_H-M "P N N M"
_symmetry_group_IT_number 58
_symmetry_cell_setting 'orthorhombic'
loop_
_space_group_symop_operation_xyz
x,y,z
-x,-y,z
1/2+x,1/2-y,1/2-z
1/2-x,1/2+y,1/2-z
-x,-y,-z
x,y,-z
1/2-x,1/2+y,1/2+z
1/2+x,1/2-y,1/2+z
loop_
_atom_site_type_symbol
_atom_site_label
_atom_site_fract_x
_atom_site_fract_y
_atom_site_fract_z
Si Si1 0.886279 0.052672 0.097590
Si Si2 0.086314 0.782188 0.404928
Si Si3 0.096830 0.441966 0.687940
Si Si4 0.677086 0.274508 0.805379
Si Si5 0.418485 0.655777 0.350623
Si Si6 0.958626 0.280535 0.906371
Si Si7 0.874560 0.357733 0.405867
Si Si8 0.819711 0.657517 0.806815
O O1 0.725950 0.036558 0.127889
O O2 0.939700 0.113665 0.146513
O O3 0.880337 0.066120 0.000000
O O4 0.000000 0.000000 0.119365
O O5 0.116206 0.798224 0.500000
O O6 0.141921 0.714081 0.379875
O O7 0.163647 0.832114 0.346272
O O8 0.918292 0.782653 0.387419
O O9 0.165861 0.411243 0.769780
O O10 0.000000 0.500000 0.713161
O O11 0.994008 0.391861 0.646435
O O12 0.630645 0.328538 0.742509
O O13 0.837441 0.281102 0.836566
O O14 0.652544 0.207514 0.765475
O O15 0.453384 0.716932 0.403046
O O16 0.287052 0.617225 0.392502
O O17 0.065729 0.335307 0.880860
O O18 0.902496 0.291195 0.000000
O O19 0.924082 0.365391 0.500000
#
# Coordination Sequence:
#
# PCOD8238767 Si02
#       8
#     8   8   8   8   8   8   8   8
#     4  11  24  41  59  83 118 162 208 247 289 350
#     4  11  21  35  56  84 118 155 194 245 304 357
#     4  12  25  41  61  86 122 166 208 249 294 355
#     4  11  20  34  54  83 119 149 190 245 298 359
#     4  11  22  35  58  82 117 159 197 247 300 358
#     4  11  21  34  56  85 118 153 192 244 309 364
#     4  11  21  35  56  86 120 158 199 239 294 358
#     4  11  21  38  57  84 118 155 199 244 297 359
#
# _framework density 19.554369999999999
#
# number of rings (size 3 to 8) (size 9 to 14) (size 15 to 20)
#    0.000    0.875    3.750    6.750    0.000    2.000 
#    0.000    0.000    0.000    1.500    0.000    0.000 
#    0.000    8.000    0.000    0.000    0.000    0.000 
#
# Total GULP energy -793634.425980 kJ/mol
# GULP energy per Si atom -12400.537906 kJ/mol
# Density = 1.950986 g / cm^3
# Si number density = 19.554370 Si / 1000 Ang^3
#
#
#
# Elastic Constant Matrix: (Units=GPa)
#
#
# Indices 1 2 3 4 5 6 
#
# 1 108.4397 24.8840 26.1467 0.0000 0.0000 0.0000
# 2 24.8840 65.0803 34.5643 0.0000 0.0000 0.0000
# 3 26.1467 34.5643 88.9820 0.0000 0.0000 0.0000
# 4 0.0000 0.0000 0.0000 17.3687 0.0000 0.0000
# 5 0.0000 0.0000 0.0000 0.0000 38.6353 0.0000
# 6 0.0000 0.0000 0.0000 0.0000 0.0000 29.5562
#
#
#
# Elastic Compliance Matrix: (Units=1/GPa)
#
#
# Indices 1 2 3 4 5 6 
#
# 1 0.010357 -0.002953 -0.001896 0.000000 0.000000 0.000000
# 2 -0.002953 0.020201 -0.006979 0.000000 0.000000 0.000000
# 3 -0.001896 -0.006979 0.014507 0.000000 0.000000 0.000000
# 4 0.000000 0.000000 0.000000 0.057575 0.000000 0.000000
# 5 0.000000 0.000000 0.000000 0.000000 0.025883 0.000000
# 6 0.000000 0.000000 0.000000 0.000000 0.000000 0.033834
#
#
# Mechanical properties :
#
#
# Convention : Reuss Voigt Hill
#
# Bulk Modulus (GPa) = 46.71237 48.18801 47.45019
# Shear Modulus (GPa) = 25.88673 28.90582 27.39627
#
# Velocity S-wave (km/s) = 3.64240 3.84894 3.74710
# Velocity P-wave (km/s) = 6.45211 6.66701 6.56044
#
# Compressibility (1/GPa) = 0.02140760
#
# Stress axis : x y z
#
# Youngs Moduli (GPa) = 96.55754 49.50139 68.93458
#
# Poissons Ratio (x) = 0.14617 0.13071
# Poissons Ratio (y) = 0.28512 0.48112
# Poissons Ratio (z) = 0.18309 0.34549
#
# Static dielectric constant tensor:
#      x y z
#    x 3.725980 0.000000 0.000000 
#    y 0.000000 3.289050 0.000000 
#    z 0.000000 0.000000 3.467920 
# 
# 
# High freq. dielectric constant tensor:
#      x y z
#    x 1.786650 0.000000 0.000000 
#    y 0.000000 1.718590 0.000000 
#    z 0.000000 0.000000 1.755720 
# 
# From -- ./inp_files/20309.got.cif
#   From: 2010.06.25/outbox.cif.g09.slc.cpg/sg58_11_cif.got.tgz:20309.got - 2010.06.26 21:38:00.
