data_PCOD8238833
_publ_section_title
;
Structure prediction by ZEFSAII (Michael W. Deem and Ramdas Pophale) SiO2 
 PCOD8238833
Probable space group: P N N M
;
_chemical_formula_sum "Si O2"
_cell_formula_units_Z 56
_cell_length_a 19.379180
_cell_length_b 17.737122
_cell_length_c 9.089834
_cell_angle_alpha 90.000000
_cell_angle_beta 90.000000
_cell_angle_gamma 90.000000
_cell_volume 3124.456639
_symmetry_space_group_name_H-M "P N N M"
_symmetry_group_IT_number 58
_symmetry_cell_setting 'orthorhombic'
loop_
_space_group_symop_operation_xyz
x,y,z
-x,-y,z
1/2+x,1/2-y,1/2-z
1/2-x,1/2+y,1/2-z
-x,-y,-z
x,y,-z
1/2-x,1/2+y,1/2+z
1/2+x,1/2-y,1/2+z
loop_
_atom_site_type_symbol
_atom_site_label
_atom_site_fract_x
_atom_site_fract_y
_atom_site_fract_z
Si Si1 0.117372 0.785729 0.325538
Si Si2 0.465133 0.696523 0.825438
Si Si3 0.693136 0.569573 0.175235
Si Si4 0.571346 0.464700 0.175058
Si Si5 0.105399 0.619324 0.330835
Si Si6 0.843308 0.525524 0.825742
Si Si7 0.443396 0.861234 0.830670
O O1 0.112143 0.789326 0.500000
O O2 0.173595 0.846154 0.268426
O O3 0.136533 0.700238 0.279837
O O4 0.042590 0.808111 0.259952
O O5 0.422856 0.622812 0.772385
O O6 0.429124 0.775031 0.776970
O O7 0.471234 0.697856 0.000000
O O8 0.636947 0.510128 0.238191
O O9 0.768378 0.549120 0.236676
O O10 0.692832 0.566606 0.000000
O O11 0.500000 0.500000 0.235753
O O12 0.571054 0.469817 0.000000
O O13 0.123722 0.601845 0.500000
O O14 0.140506 0.558002 0.228359
O O15 0.023340 0.618809 0.309536
O O16 0.899648 0.584009 0.770056
O O17 0.844529 0.525937 0.000000
O O18 0.421594 0.872798 0.000000
#
# Coordination Sequence:
#
# PCOD8238833 Si02
#       7
#     8   8   8   8   8   8   8
#     4   8  13  26  47  68  89 118 156 195 236 281
#     4   8  13  23  44  73  94 113 152 202 243 276
#     4   9  17  28  42  65 100 133 156 186 235 295
#     4   9  13  21  43  70  96 124 153 192 242 287
#     4   9  18  33  55  74  90 120 167 213 241 272
#     4  11  22  33  45  69 105 135 159 191 241 298
#     4   9  18  33  52  73  95 122 164 212 244 274
#
# _framework density 17.923117000000001
#
# number of rings (size 3 to 8) (size 9 to 14) (size 15 to 20)
#    0.000    3.000    1.429    2.571    0.000    2.286 
#    2.571    0.000    0.000    0.857    0.000    0.000 
#    0.000    2.857    0.000    0.000    0.000    0.000 
#
# Total GULP energy -693995.773839 kJ/mol
# GULP energy per Si atom -12392.781676 kJ/mol
# Density = 1.788232 g / cm^3
# Si number density = 17.923117 Si / 1000 Ang^3
#
#
#
# Elastic Constant Matrix: (Units=GPa)
#
#
# Indices 1 2 3 4 5 6 
#
# 1 85.9658 71.8574 26.1499 0.0000 0.0000 0.0000
# 2 71.8574 178.8434 32.0224 0.0000 0.0000 0.0000
# 3 26.1499 32.0224 29.1171 0.0000 0.0000 0.0000
# 4 0.0000 0.0000 0.0000 9.9989 0.0000 0.0000
# 5 0.0000 0.0000 0.0000 0.0000 13.6350 0.0000
# 6 0.0000 0.0000 0.0000 0.0000 0.0000 20.0298
#
#
#
# Elastic Compliance Matrix: (Units=1/GPa)
#
#
# Indices 1 2 3 4 5 6 
#
# 1 0.020182 -0.006056 -0.011465 0.000000 0.000000 0.000000
# 2 -0.006056 0.008780 -0.004217 0.000000 0.000000 0.000000
# 3 -0.011465 -0.004217 0.049279 0.000000 0.000000 0.000000
# 4 0.000000 0.000000 0.000000 0.100011 0.000000 0.000000
# 5 0.000000 0.000000 0.000000 0.000000 0.073341 0.000000
# 6 0.000000 0.000000 0.000000 0.000000 0.000000 0.049926
#
#
# Mechanical properties :
#
#
# Convention : Reuss Voigt Hill
#
# Bulk Modulus (GPa) = 28.76518 61.55396 45.15957
# Shear Modulus (GPa) = 14.02197 19.65917 16.84057
#
# Velocity S-wave (km/s) = 2.80007 3.31548 3.06862
# Velocity P-wave (km/s) = 5.15149 7.00532 6.14867
#
# Compressibility (1/GPa) = 0.03476425
#
# Stress axis : x y z
#
# Youngs Moduli (GPa) = 49.54803 113.89734 20.29278
#
# Poissons Ratio (x) = 0.68978 0.23266
# Poissons Ratio (y) = 0.30007 0.08557
# Poissons Ratio (z) = 0.56808 0.48029
#
# Static dielectric constant tensor:
#      x y z
#    x 3.323600 0.000000 0.000000 
#    y 0.000000 3.784910 0.000000 
#    z 0.000000 0.000000 2.702380 
# 
# 
# High freq. dielectric constant tensor:
#      x y z
#    x 1.677390 0.000000 0.000000 
#    y 0.000000 1.718330 0.000000 
#    z 0.000000 0.000000 1.628490 
# 
# From -- ./inp_files/9165.got.cif
#   From: 2010.06.25/outbox.cif.g09.slc.cpg/sg58_5_cif.got.tgz:9165.got - 2010.06.26 21:38:00.
