data_PCOD8238160
_publ_section_title
;
Structure prediction by ZEFSAII (Michael W. Deem and Ramdas Pophale) SiO2 
 PCOD8238160
Probable space group: P N N M
;
_chemical_formula_sum "Si O2"
_cell_formula_units_Z 56
_cell_length_a 21.118368
_cell_length_b 14.740541
_cell_length_c 8.516527
_cell_angle_alpha 90.000000
_cell_angle_beta 90.000000
_cell_angle_gamma 90.000000
_cell_volume 2651.162231
_symmetry_space_group_name_H-M "P N N M"
_symmetry_group_IT_number 58
_symmetry_cell_setting 'orthorhombic'
loop_
_space_group_symop_operation_xyz
x,y,z
-x,-y,z
1/2+x,1/2-y,1/2-z
1/2-x,1/2+y,1/2-z
-x,-y,-z
x,y,-z
1/2-x,1/2+y,1/2+z
1/2+x,1/2-y,1/2+z
loop_
_atom_site_type_symbol
_atom_site_label
_atom_site_fract_x
_atom_site_fract_y
_atom_site_fract_z
Si Si1 0.902908 0.291261 0.682952
Si Si2 0.237553 0.764406 0.681084
Si Si3 0.524177 0.633141 0.682778
Si Si4 0.571677 0.985693 0.314809
Si Si5 0.771251 0.918555 0.681260
Si Si6 0.088067 0.038829 0.682202
Si Si7 0.310035 0.932404 0.818405
O O1 0.915718 0.306481 0.500000
O O2 0.837678 0.236915 0.714227
O O3 0.959686 0.233759 0.759263
O O4 0.901804 0.387688 0.767672
O O5 0.251177 0.743294 0.500000
O O6 0.270685 0.688438 0.787039
O O7 0.267846 0.860743 0.723384
O O8 0.539141 0.621860 0.500000
O O9 0.565516 0.562542 0.782294
O O10 0.450404 0.612860 0.715953
O O11 0.574554 0.997101 0.500000
O O12 0.617033 0.063054 0.239551
O O13 0.500000 0.000000 0.252544
O O14 0.755664 0.938417 0.500000
O O15 0.839307 0.956181 0.729970
O O16 0.719796 0.968325 0.789485
O O17 0.077568 0.061219 0.500000
O O18 0.308718 0.906576 0.000000
#
# Coordination Sequence:
#
# PCOD8238160 Si02
#       7
#     8   8   8   8   8   8   8
#     4  11  23  41  65  93 125 167 215 263 321 388
#     4  11  24  41  65  95 126 166 214 265 322 383
#     4  11  22  36  59  89 122 164 208 257 312 375
#     4  11  25  45  69  95 127 168 215 270 327 385
#     4  11  23  40  64  92 125 163 206 261 318 377
#     4  10  21  38  59  87 124 164 205 258 318 375
#     4  12  25  42  66  96 131 172 214 266 327 389
#
# _framework density 21.122810999999999
#
# number of rings (size 3 to 8) (size 9 to 14) (size 15 to 20)
#    0.000    1.000    1.429    6.429    0.000    9.714 
#    0.000    0.000    0.000    0.000    0.000    0.000 
#    0.000    0.000    0.000    0.000    0.000    0.000 
#
# Total GULP energy -694739.622011 kJ/mol
# GULP energy per Si atom -12406.064679 kJ/mol
# Density = 2.107473 g / cm^3
# Si number density = 21.122811 Si / 1000 Ang^3
#
#
#
# Elastic Constant Matrix: (Units=GPa)
#
#
# Indices 1 2 3 4 5 6 
#
# 1 110.5700 24.9737 39.4630 0.0000 0.0000 0.0000
# 2 24.9737 72.5814 5.6975 0.0000 0.0000 0.0000
# 3 39.4630 5.6975 70.8186 0.0000 0.0000 0.0000
# 4 0.0000 0.0000 0.0000 34.4140 0.0000 0.0000
# 5 0.0000 0.0000 0.0000 0.0000 27.1847 0.0000
# 6 0.0000 0.0000 0.0000 0.0000 0.0000 34.4871
#
#
#
# Elastic Compliance Matrix: (Units=1/GPa)
#
#
# Indices 1 2 3 4 5 6 
#
# 1 0.012196 -0.003686 -0.006500 0.000000 0.000000 0.000000
# 2 -0.003686 0.014979 0.000849 0.000000 0.000000 0.000000
# 3 -0.006500 0.000849 0.017674 0.000000 0.000000 0.000000
# 4 0.000000 0.000000 0.000000 0.029058 0.000000 0.000000
# 5 0.000000 0.000000 0.000000 0.000000 0.036785 0.000000
# 6 0.000000 0.000000 0.000000 0.000000 0.000000 0.028996
#
#
# Mechanical properties :
#
#
# Convention : Reuss Voigt Hill
#
# Bulk Modulus (GPa) = 38.20303 43.80427 41.00365
# Shear Modulus (GPa) = 29.92413 31.47288 30.69850
#
# Velocity S-wave (km/s) = 3.76796 3.86423 3.81640
# Velocity P-wave (km/s) = 6.08731 6.37908 6.23490
#
# Compressibility (1/GPa) = 0.02617593
#
# Stress axis : x y z
#
# Youngs Moduli (GPa) = 81.99093 66.75847 56.57953
#
# Poissons Ratio (x) = 0.24609 0.36776
# Poissons Ratio (y) = 0.30225 -0.04804
# Poissons Ratio (z) = 0.53293 -0.05668
#
# Static dielectric constant tensor:
#      x y z
#    x 4.027120 0.000000 0.000000 
#    y 0.000000 3.705740 0.000000 
#    z 0.000000 0.000000 3.817030 
# 
# 
# High freq. dielectric constant tensor:
#      x y z
#    x 1.836160 0.000000 0.000000 
#    y 0.000000 1.823000 0.000000 
#    z 0.000000 0.000000 1.836380 
# 
# From -- ./inp_files/9019.got.cif
#   From: 2010.06.25/outbox.cif.g09.slc.cpg/sg58_5_cif.got.tgz:9019.got - 2010.06.26 21:38:00.
