data_PCOD8238603
_publ_section_title
;
Structure prediction by ZEFSAII (Michael W. Deem and Ramdas Pophale) SiO2 
 PCOD8238603
Probable space group: P N N M
;
_chemical_formula_sum "Si O2"
_cell_formula_units_Z 48
_cell_length_a 8.770759
_cell_length_b 9.748372
_cell_length_c 26.822050
_cell_angle_alpha 90.000000
_cell_angle_beta 90.000000
_cell_angle_gamma 90.000000
_cell_volume 2293.301944
_symmetry_space_group_name_H-M "P N N M"
_symmetry_group_IT_number 58
_symmetry_cell_setting 'orthorhombic'
loop_
_space_group_symop_operation_xyz
x,y,z
-x,-y,z
1/2+x,1/2-y,1/2-z
1/2-x,1/2+y,1/2-z
-x,-y,-z
x,y,-z
1/2-x,1/2+y,1/2+z
1/2+x,1/2-y,1/2+z
loop_
_atom_site_type_symbol
_atom_site_label
_atom_site_fract_x
_atom_site_fract_y
_atom_site_fract_z
Si Si1 0.391571 0.877416 0.307488
Si Si2 0.569594 0.649808 0.856003
Si Si3 0.563966 0.351185 0.446962
Si Si4 0.396409 0.873168 0.805719
Si Si5 0.416855 0.142386 0.942486
Si Si6 0.427182 0.351622 0.348654
O O1 0.249035 0.864926 0.344657
O O2 0.338071 0.899522 0.250515
O O3 0.493873 0.740485 0.306606
O O4 0.500000 0.000000 0.325988
O O5 0.500000 0.500000 0.861330
O O6 0.492214 0.732314 0.810195
O O7 0.530196 0.733967 0.906446
O O8 0.500000 0.500000 0.455931
O O9 0.547984 0.269179 0.500000
O O10 0.738636 0.373025 0.432046
O O11 0.468452 0.280231 0.402263
O O12 0.252599 0.861871 0.842083
O O13 0.500000 0.000000 0.823877
O O14 0.500000 0.000000 0.928304
O O15 0.452819 0.181469 0.000000
O O16 0.500000 0.500000 0.346281
#
# Coordination Sequence:
#
# PCOD8238603 Si02
#       6
#     8   8   8   8   8   8
#     4  11  24  44  62  89 126 171 214 259 318 382
#     4  12  25  41  63  95 132 168 208 264 324 380
#     4   9  19  36  61  93 124 156 203 257 310 370
#     4  11  25  41  65  92 125 165 218 265 312 376
#     4  10  22  42  69  96 127 166 213 265 318 379
#     4  11  22  38  64  92 121 164 208 262 316 373
#
# _framework density 20.930520000000001
#
# number of rings (size 3 to 8) (size 9 to 14) (size 15 to 20)
#    0.000    1.333    1.667    3.500    7.000    5.667 
#    0.000    0.000    0.000    4.500    0.000    0.000 
#    0.000    0.000    0.000    0.000    0.000    0.000 
#
# Total GULP energy -595046.601582 kJ/mol
# GULP energy per Si atom -12396.804200 kJ/mol
# Density = 2.088288 g / cm^3
# Si number density = 20.930520 Si / 1000 Ang^3
#
#
#
# Elastic Constant Matrix: (Units=GPa)
#
#
# Indices 1 2 3 4 5 6 
#
# 1 139.7618 54.6456 54.0176 0.0000 0.0000 0.0000
# 2 54.6456 133.2606 43.0462 0.0000 0.0000 0.0000
# 3 54.0176 43.0462 107.5084 0.0000 0.0000 0.0000
# 4 0.0000 0.0000 0.0000 23.4832 0.0000 0.0000
# 5 0.0000 0.0000 0.0000 0.0000 35.7077 0.0000
# 6 0.0000 0.0000 0.0000 0.0000 0.0000 36.8556
#
#
#
# Elastic Compliance Matrix: (Units=1/GPa)
#
#
# Indices 1 2 3 4 5 6 
#
# 1 0.009688 -0.002757 -0.003764 0.000000 0.000000 0.000000
# 2 -0.002757 0.009403 -0.002380 0.000000 0.000000 0.000000
# 3 -0.003764 -0.002380 0.012146 0.000000 0.000000 0.000000
# 4 0.000000 0.000000 0.000000 0.042584 0.000000 0.000000
# 5 0.000000 0.000000 0.000000 0.000000 0.028005 0.000000
# 6 0.000000 0.000000 0.000000 0.000000 0.000000 0.027133
#
#
# Mechanical properties :
#
#
# Convention : Reuss Voigt Hill
#
# Bulk Modulus (GPa) = 74.42886 75.99441 75.21164
# Shear Modulus (GPa) = 33.06055 34.46406 33.76230
#
# Velocity S-wave (km/s) = 3.97865 4.06223 4.02066
# Velocity P-wave (km/s) = 7.53282 7.64127 7.58724
#
# Compressibility (1/GPa) = 0.01343565
#
# Stress axis : x y z
#
# Youngs Moduli (GPa) = 103.22505 106.34535 82.33432
#
# Poissons Ratio (x) = 0.29317 0.30988
# Poissons Ratio (y) = 0.28457 0.19595
# Poissons Ratio (z) = 0.38851 0.25310
#
# Static dielectric constant tensor:
#      x y z
#    x 3.630670 0.000000 0.000000 
#    y 0.000000 3.403630 0.000000 
#    z 0.000000 0.000000 4.545190 
# 
# 
# High freq. dielectric constant tensor:
#      x y z
#    x 1.829500 0.000000 0.000000 
#    y 0.000000 1.796390 0.000000 
#    z 0.000000 0.000000 1.832940 
# 
# From -- ./inp_files/34604.got.cif
#   From: 2010.06.25/outbox.cif.g09.slc.cpg/sg58_18_cif.got.tgz:34604.got - 2010.06.26 21:38:00.
