data_PCOD8238056
_publ_section_title
;
Structure prediction by ZEFSAII (Michael W. Deem and Ramdas Pophale) SiO2 
 PCOD8238056
Probable space group: P N N M
;
_chemical_formula_sum "Si O2"
_cell_formula_units_Z 60
_cell_length_a 11.798546
_cell_length_b 10.532308
_cell_length_c 24.002997
_cell_angle_alpha 90.000000
_cell_angle_beta 90.000000
_cell_angle_gamma 90.000000
_cell_volume 2982.754515
_symmetry_space_group_name_H-M "P N N M"
_symmetry_group_IT_number 58
_symmetry_cell_setting 'orthorhombic'
loop_
_space_group_symop_operation_xyz
x,y,z
-x,-y,z
1/2+x,1/2-y,1/2-z
1/2-x,1/2+y,1/2-z
-x,-y,-z
x,y,-z
1/2-x,1/2+y,1/2+z
1/2+x,1/2-y,1/2+z
loop_
_atom_site_type_symbol
_atom_site_label
_atom_site_fract_x
_atom_site_fract_y
_atom_site_fract_z
Si Si1 0.178095 0.049576 0.770026
Si Si2 0.769597 0.084495 0.663977
Si Si3 0.102297 0.661031 0.696517
Si Si4 0.000000 0.500000 0.606342
Si Si5 0.047959 0.293075 0.198119
Si Si6 0.306233 0.834674 0.936631
Si Si7 0.916126 0.106164 0.133751
Si Si8 0.125913 0.049399 0.435419
O O1 0.302215 0.053515 0.797196
O O2 0.120634 0.184978 0.772605
O O3 0.182953 0.023313 0.704627
O O4 0.112325 0.941217 0.803728
O O5 0.841908 0.207026 0.679932
O O6 0.634839 0.102126 0.674032
O O7 0.788475 0.036749 0.600976
O O8 0.026400 0.621240 0.644554
O O9 0.034725 0.654548 0.754575
O O10 0.103592 0.449695 0.568774
O O11 0.980639 0.239118 0.144095
O O12 0.194723 0.869383 0.901974
O O13 0.359833 0.698279 0.919613
O O14 0.265971 0.828860 0.000000
O O15 0.000000 0.000000 0.105633
O O16 0.155726 0.025376 0.500000
O O17 0.000000 0.000000 0.421829
#
# Coordination Sequence:
#
# PCOD8238056 Si02
#       8
#     8   8   8   4   8   8   8   8
#     4  10  21  37  57  91 129 163 204 253 310 383
#     4  11  23  37  63  94 124 170 209 253 321 377
#     4  11  22  36  59  95 128 164 202 255 320 381
#     4  12  23  38  64  94 132 154 213 278 312 376
#     4  10  23  36  59  94 129 164 205 252 314 382
#     4  11  25  44  68  93 124 172 216 268 329 376
#     4  10  21  43  63  88 131 168 213 264 307 381
#     4  10  24  45  66  92 126 166 218 268 321 385
#
# _framework density 20.115635000000001
#
# number of rings (size 3 to 8) (size 9 to 14) (size 15 to 20)
#    0.000    1.467    2.667    1.800    5.600    0.267 
#    0.000    1.333    0.000    1.600    0.000    0.000 
#    0.000    0.000    0.000    0.000    0.000    0.000 
#
# Total GULP energy -743862.988200 kJ/mol
# GULP energy per Si atom -12397.716470 kJ/mol
# Density = 2.006985 g / cm^3
# Si number density = 20.115635 Si / 1000 Ang^3
#
#
#
# Elastic Constant Matrix: (Units=GPa)
#
#
# Indices 1 2 3 4 5 6 
#
# 1 117.4718 45.8168 42.1545 0.0000 0.0000 0.0000
# 2 45.8168 71.7266 37.0350 0.0000 0.0000 0.0000
# 3 42.1545 37.0350 84.6197 0.0000 0.0000 0.0000
# 4 0.0000 0.0000 0.0000 20.1090 0.0000 0.0000
# 5 0.0000 0.0000 0.0000 0.0000 32.4091 0.0000
# 6 0.0000 0.0000 0.0000 0.0000 0.0000 30.3133
#
#
#
# Elastic Compliance Matrix: (Units=1/GPa)
#
#
# Indices 1 2 3 4 5 6 
#
# 1 0.012051 -0.005940 -0.003403 0.000000 0.000000 0.000000
# 2 -0.005940 0.020941 -0.006206 0.000000 0.000000 0.000000
# 3 -0.003403 -0.006206 0.016229 0.000000 0.000000 0.000000
# 4 0.000000 0.000000 0.000000 0.049729 0.000000 0.000000
# 5 0.000000 0.000000 0.000000 0.000000 0.030856 0.000000
# 6 0.000000 0.000000 0.000000 0.000000 0.000000 0.032989
#
#
# Mechanical properties :
#
#
# Convention : Reuss Voigt Hill
#
# Bulk Modulus (GPa) = 55.18294 58.20341 56.69318
# Shear Modulus (GPa) = 25.00834 26.48706 25.74770
#
# Velocity S-wave (km/s) = 3.52977 3.63263 3.58157
# Velocity P-wave (km/s) = 6.64114 6.82582 6.73412
#
# Compressibility (1/GPa) = 0.01812154
#
# Stress axis : x y z
#
# Youngs Moduli (GPa) = 82.98136 47.75414 61.61807
#
# Poissons Ratio (x) = 0.28368 0.20971
# Poissons Ratio (y) = 0.49295 0.38238
# Poissons Ratio (z) = 0.28242 0.29634
#
# Static dielectric constant tensor:
#      x y z
#    x 3.980360 0.000000 0.000000 
#    y 0.000000 3.711720 0.000000 
#    z 0.000000 0.000000 3.420240 
# 
# 
# High freq. dielectric constant tensor:
#      x y z
#    x 1.798360 0.000000 0.000000 
#    y 0.000000 1.789190 0.000000 
#    z 0.000000 0.000000 1.765960 
# 
# From -- ./inp_files/29657.got.cif
#   From: 2010.06.25/outbox.cif.g09.slc.cpg/sg58_15_cif.got.tgz:29657.got - 2010.06.26 21:38:00.
