data_PCOD8238492
_publ_section_title
;
Structure prediction by ZEFSAII (Michael W. Deem and Ramdas Pophale) SiO2 
 PCOD8238492
Probable space group: P N N M
;
_chemical_formula_sum "Si O2"
_cell_formula_units_Z 56
_cell_length_a 16.255043
_cell_length_b 14.062696
_cell_length_c 11.941679
_cell_angle_alpha 90.000000
_cell_angle_beta 90.000000
_cell_angle_gamma 90.000000
_cell_volume 2729.745157
_symmetry_space_group_name_H-M "P N N M"
_symmetry_group_IT_number 58
_symmetry_cell_setting 'orthorhombic'
loop_
_space_group_symop_operation_xyz
x,y,z
-x,-y,z
1/2+x,1/2-y,1/2-z
1/2-x,1/2+y,1/2-z
-x,-y,-z
x,y,-z
1/2-x,1/2+y,1/2+z
1/2+x,1/2-y,1/2+z
loop_
_atom_site_type_symbol
_atom_site_label
_atom_site_fract_x
_atom_site_fract_y
_atom_site_fract_z
Si Si1 0.313905 0.105089 0.627305
Si Si2 0.130743 0.787521 0.243525
Si Si3 0.790774 0.698804 0.874417
Si Si4 0.522561 0.212365 0.131616
Si Si5 0.148423 0.138413 0.729839
Si Si6 0.090180 0.972107 0.879077
Si Si7 0.580447 0.054040 0.703896
O O1 0.336273 0.074709 0.500000
O O2 0.348205 0.208913 0.651625
O O3 0.215885 0.109088 0.638399
O O4 0.352318 0.030215 0.717456
O O5 0.212347 0.833714 0.300267
O O6 0.086424 0.867470 0.172160
O O7 0.070070 0.739738 0.334282
O O8 0.814246 0.803163 0.833050
O O9 0.871683 0.631424 0.871834
O O10 0.759033 0.705762 0.000000
O O11 0.579153 0.300598 0.167596
O O12 0.552485 0.111196 0.184698
O O13 0.527387 0.196788 0.000000
O O14 0.120419 0.040348 0.781855
O O15 0.139088 0.974555 0.000000
O O16 0.000000 0.000000 0.911802
O O17 0.500000 0.000000 0.650660
#
# Coordination Sequence:
#
# PCOD8238492 Si02
#       7
#     8   8   8   8   8   8   8
#     4  11  23  41  64  91 127 166 205 260 320 367
#     4  11  22  42  62  94 128 160 216 258 302 383
#     4  10  22  39  63  90 126 167 203 260 319 363
#     4  11  23  43  67  92 125 166 207 260 322 374
#     4  10  22  42  63  93 127 160 213 255 303 388
#     4  11  22  38  62  91 125 163 201 253 305 356
#     4  11  23  42  61  96 124 160 213 262 305 383
#
# _framework density 20.514737
#
# number of rings (size 3 to 8) (size 9 to 14) (size 15 to 20)
#    0.000    1.286    2.857    3.000    0.000    1.429 
#    0.000    9.286    0.000    0.000    0.000    0.000 
#    0.000    0.000    0.000    0.000    0.000    0.000 
#
# Total GULP energy -693854.666093 kJ/mol
# GULP energy per Si atom -12390.261895 kJ/mol
# Density = 2.046804 g / cm^3
# Si number density = 20.514737 Si / 1000 Ang^3
#
#
#
# Elastic Constant Matrix: (Units=GPa)
#
#
# Indices 1 2 3 4 5 6 
#
# 1 96.7600 41.4394 39.1862 0.0000 0.0000 0.0000
# 2 41.4394 114.3243 53.5866 0.0000 0.0000 0.0000
# 3 39.1862 53.5866 127.6132 0.0000 0.0000 0.0000
# 4 0.0000 0.0000 0.0000 20.1439 0.0000 0.0000
# 5 0.0000 0.0000 0.0000 0.0000 17.4486 0.0000
# 6 0.0000 0.0000 0.0000 0.0000 0.0000 37.6396
#
#
#
# Elastic Compliance Matrix: (Units=1/GPa)
#
#
# Indices 1 2 3 4 5 6 
#
# 1 0.012832 -0.003492 -0.002474 0.000000 0.000000 0.000000
# 2 -0.003492 0.011841 -0.003900 0.000000 0.000000 0.000000
# 3 -0.002474 -0.003900 0.010234 0.000000 0.000000 0.000000
# 4 0.000000 0.000000 0.000000 0.049643 0.000000 0.000000
# 5 0.000000 0.000000 0.000000 0.000000 0.057311 0.000000
# 6 0.000000 0.000000 0.000000 0.000000 0.000000 0.026568
#
#
# Mechanical properties :
#
#
# Convention : Reuss Voigt Hill
#
# Bulk Modulus (GPa) = 65.89785 67.45798 66.67792
# Shear Modulus (GPa) = 25.87751 28.67877 27.27814
#
# Velocity S-wave (km/s) = 3.55549 3.74299 3.65044
# Velocity P-wave (km/s) = 7.00337 7.18568 7.09511
#
# Compressibility (1/GPa) = 0.01517500
#
# Stress axis : x y z
#
# Youngs Moduli (GPa) = 77.92886 84.45500 97.71781
#
# Poissons Ratio (x) = 0.29488 0.24178
# Poissons Ratio (y) = 0.27210 0.38109
# Poissons Ratio (z) = 0.19281 0.32936
#
# Static dielectric constant tensor:
#      x y z
#    x 3.654740 0.000000 0.000000 
#    y 0.000000 3.780210 0.000000 
#    z 0.000000 0.000000 3.449180 
# 
# 
# High freq. dielectric constant tensor:
#      x y z
#    x 1.808450 0.000000 0.000000 
#    y 0.000000 1.815410 0.000000 
#    z 0.000000 0.000000 1.788510 
# 
# From -- ./inp_files/15695.got.cif
#   From: 2010.06.25/outbox.cif.g09.slc.cpg/sg58_8_cif.got.tgz:15695.got - 2010.06.26 21:38:00.
