data_PCOD8238829
_publ_section_title
;
Structure prediction by ZEFSAII (Michael W. Deem and Ramdas Pophale) SiO2 
 PCOD8238829
Probable space group: P N N M
;
_chemical_formula_sum "Si O2"
_cell_formula_units_Z 52
_cell_length_a 9.702098
_cell_length_b 17.002900
_cell_length_c 15.626832
_cell_angle_alpha 90.000000
_cell_angle_beta 90.000000
_cell_angle_gamma 90.000000
_cell_volume 2577.861621
_symmetry_space_group_name_H-M "P N N M"
_symmetry_group_IT_number 58
_symmetry_cell_setting 'orthorhombic'
loop_
_space_group_symop_operation_xyz
x,y,z
-x,-y,z
1/2+x,1/2-y,1/2-z
1/2-x,1/2+y,1/2-z
-x,-y,-z
x,y,-z
1/2-x,1/2+y,1/2+z
1/2+x,1/2-y,1/2+z
loop_
_atom_site_type_symbol
_atom_site_label
_atom_site_fract_x
_atom_site_fract_y
_atom_site_fract_z
Si Si1 0.183669 0.695626 0.096971
Si Si2 0.500000 0.500000 0.180861
Si Si3 0.896992 0.430128 0.592433
Si Si4 0.048353 0.279550 0.366554
Si Si5 0.706940 0.386051 0.259418
Si Si6 0.348716 0.362521 0.098908
Si Si7 0.904092 0.722220 0.821450
O O1 0.291987 0.767618 0.107103
O O2 0.217169 0.629181 0.168229
O O3 0.029043 0.728249 0.110975
O O4 0.194191 0.661306 0.000000
O O5 0.574272 0.438558 0.242711
O O6 0.392552 0.451321 0.122553
O O7 0.821392 0.442335 0.500000
O O8 0.797382 0.433486 0.673061
O O9 0.000000 0.500000 0.610140
O O10 0.978238 0.347958 0.580018
O O11 0.033480 0.306950 0.268297
O O12 0.974276 0.195832 0.379640
O O13 0.666749 0.306213 0.307813
O O14 0.210658 0.339698 0.149143
O O15 0.312107 0.358425 0.000000
#
# Coordination Sequence:
#
# PCOD8238829 Si02
#       7
#     8   4   8   8   8   8   8
#     4  11  22  38  66 103 131 166 219 276 332 397
#     4  12  27  42  67 100 140 182 220 278 356 400
#     4  11  24  42  66  95 128 175 232 284 333 394
#     4  11  21  41  68  92 129 173 225 275 324 400
#     4  11  25  42  66  96 136 179 218 283 332 413
#     4  12  24  42  69  99 133 181 232 277 335 413
#     4  11  22  41  65  95 132 175 222 275 332 397
#
# _framework density 20.171758000000001
#
# number of rings (size 3 to 8) (size 9 to 14) (size 15 to 20)
#    0.000    0.769    6.154    3.000    2.154    1.231 
#    0.000    0.385    0.000    2.308    0.000    0.000 
#    0.000    0.000    0.000    0.000    0.000    0.000 
#
# Total GULP energy -644772.619614 kJ/mol
# GULP energy per Si atom -12399.473454 kJ/mol
# Density = 2.012585 g / cm^3
# Si number density = 20.171758 Si / 1000 Ang^3
#
#
#
# Elastic Constant Matrix: (Units=GPa)
#
#
# Indices 1 2 3 4 5 6 
#
# 1 61.2171 6.9413 21.4467 0.0000 0.0000 0.0000
# 2 6.9413 64.9841 13.1159 0.0000 0.0000 0.0000
# 3 21.4467 13.1159 146.7960 0.0000 0.0000 0.0000
# 4 0.0000 0.0000 0.0000 23.2840 0.0000 0.0000
# 5 0.0000 0.0000 0.0000 0.0000 36.0293 0.0000
# 6 0.0000 0.0000 0.0000 0.0000 0.0000 31.5416
#
#
#
# Elastic Compliance Matrix: (Units=1/GPa)
#
#
# Indices 1 2 3 4 5 6 
#
# 1 0.017335 -0.001365 -0.002411 0.000000 0.000000 0.000000
# 2 -0.001365 0.015778 -0.001210 0.000000 0.000000 0.000000
# 3 -0.002411 -0.001210 0.007273 0.000000 0.000000 0.000000
# 4 0.000000 0.000000 0.000000 0.042948 0.000000 0.000000
# 5 0.000000 0.000000 0.000000 0.000000 0.027755 0.000000
# 6 0.000000 0.000000 0.000000 0.000000 0.000000 0.031704
#
#
# Mechanical properties :
#
#
# Convention : Reuss Voigt Hill
#
# Bulk Modulus (GPa) = 32.88005 39.55611 36.21808
# Shear Modulus (GPa) = 30.69317 33.60388 32.14852
#
# Velocity S-wave (km/s) = 3.90499 4.08596 3.99650
# Velocity P-wave (km/s) = 6.05536 6.47397 6.26816
#
# Compressibility (1/GPa) = 0.03041358
#
# Stress axis : x y z
#
# Youngs Moduli (GPa) = 57.68803 63.37750 137.50427
#
# Poissons Ratio (x) = 0.08651 0.33147
# Poissons Ratio (y) = 0.07875 0.16643
# Poissons Ratio (z) = 0.13906 0.07671
#
# Static dielectric constant tensor:
#      x y z
#    x 3.688710 0.000000 0.000000 
#    y 0.000000 3.577950 0.000000 
#    z 0.000000 0.000000 3.858650 
# 
# 
# High freq. dielectric constant tensor:
#      x y z
#    x 1.788410 0.000000 0.000000 
#    y 0.000000 1.771170 0.000000 
#    z 0.000000 0.000000 1.804850 
# 
# From -- ./inp_files/25476.got.cif
#   From: 2010.06.25/outbox.cif.g09.slc.cpg/sg58_13_cif.got.tgz:25476.got - 2010.06.26 21:38:00.
