data_PCOD8238200
_publ_section_title
;
Structure prediction by ZEFSAII (Michael W. Deem and Ramdas Pophale) SiO2 
 PCOD8238200
Probable space group: P N N M
;
_chemical_formula_sum "Si O2"
_cell_formula_units_Z 48
_cell_length_a 30.996467
_cell_length_b 9.530067
_cell_length_c 7.631306
_cell_angle_alpha 90.000000
_cell_angle_beta 90.000000
_cell_angle_gamma 90.000000
_cell_volume 2254.275638
_symmetry_space_group_name_H-M "P N N M"
_symmetry_group_IT_number 58
_symmetry_cell_setting 'orthorhombic'
loop_
_space_group_symop_operation_xyz
x,y,z
-x,-y,z
1/2+x,1/2-y,1/2-z
1/2-x,1/2+y,1/2-z
-x,-y,-z
x,y,-z
1/2-x,1/2+y,1/2+z
1/2+x,1/2-y,1/2+z
loop_
_atom_site_type_symbol
_atom_site_label
_atom_site_fract_x
_atom_site_fract_y
_atom_site_fract_z
Si Si1 0.475018 0.706538 0.000000
Si Si2 0.868619 0.154156 0.204284
Si Si3 0.206732 0.335632 0.801406
Si Si4 0.134018 0.532730 0.204982
Si Si5 0.042752 0.412088 0.797832
Si Si6 0.215422 0.024239 0.795984
Si Si7 0.435245 0.403969 0.000000
O O1 0.457207 0.776857 0.823708
O O2 0.457288 0.552598 0.000000
O O3 0.527067 0.712375 0.000000
O O4 0.853948 0.309907 0.265632
O O5 0.908611 0.108883 0.321593
O O6 0.830596 0.045428 0.240275
O O7 0.882859 0.154411 0.000000
O O8 0.167078 0.419831 0.707968
O O9 0.214779 0.182324 0.714250
O O10 0.248923 0.432050 0.800788
O O11 0.193628 0.301614 0.000000
O O12 0.084519 0.503281 0.255144
O O13 0.141507 0.522008 0.000000
O O14 0.000000 0.500000 0.758842
O O15 0.044880 0.363670 0.000000
O O16 0.227306 0.023772 0.000000
#
# Coordination Sequence:
#
# PCOD8238200 Si02
#       7
#     4   8   8   8   8   8   4
#     4  11  25  42  60  94 135 160 215 272 317 378
#     4  10  22  42  66  88 124 167 210 258 317 373
#     4  10  21  38  61  88 124 161 203 258 311 373
#     4   9  19  37  62  92 121 160 212 261 313 378
#     4  10  21  39  66  93 125 168 215 263 322 379
#     4  10  22  39  60  89 122 161 206 253 311 376
#     4  11  26  42  62  94 128 169 214 261 319 385
#
# _framework density 21.292871000000002
#
# number of rings (size 3 to 8) (size 9 to 14) (size 15 to 20)
#    0.000    2.000    0.000    2.250    3.500    5.333 
#    3.000    1.667    0.000    0.000    0.000    0.000 
#    0.000    0.000    0.000    0.000    0.000    0.000 
#
# Total GULP energy -595153.462030 kJ/mol
# GULP energy per Si atom -12399.030459 kJ/mol
# Density = 2.124441 g / cm^3
# Si number density = 21.292871 Si / 1000 Ang^3
#
#
#
# Elastic Constant Matrix: (Units=GPa)
#
#
# Indices 1 2 3 4 5 6 
#
# 1 117.6971 72.3076 27.3484 0.0000 0.0000 0.0000
# 2 72.3076 164.6616 30.4471 0.0000 0.0000 0.0000
# 3 27.3484 30.4471 64.9467 0.0000 0.0000 0.0000
# 4 0.0000 0.0000 0.0000 19.7510 0.0000 0.0000
# 5 0.0000 0.0000 0.0000 0.0000 -0.8370 0.0000
# 6 0.0000 0.0000 0.0000 0.0000 0.0000 38.0727
#
#
#
# Elastic Compliance Matrix: (Units=1/GPa)
#
#
# Indices 1 2 3 4 5 6 
#
# 1 0.012099 -0.004786 -0.002851 0.000000 0.000000 0.000000
# 2 -0.004786 0.008543 -0.001989 0.000000 0.000000 0.000000
# 3 -0.002851 -0.001989 0.017531 0.000000 0.000000 0.000000
# 4 0.000000 0.000000 0.000000 0.050630 0.000000 0.000000
# 5 0.000000 0.000000 0.000000 0.000000 -1.194728 0.000000
# 6 0.000000 0.000000 0.000000 0.000000 0.000000 0.026266
#
#
# Mechanical properties :
#
#
# Convention : Reuss Voigt Hill
#
# Bulk Modulus (GPa) = 52.85663 67.50128 60.17895
# Shear Modulus (GPa) = -4.74338 25.87749 10.56705
#
# Velocity S-wave (km/s) = -1.49416 3.48992 2.23013
# Velocity P-wave (km/s) = 4.67983 6.92889 5.91229
#
# Compressibility (1/GPa) = 0.01891910
#
# Stress axis : x y z
#
# Youngs Moduli (GPa) = 82.65077 117.06136 57.04342
#
# Poissons Ratio (x) = 0.56024 0.16264
# Poissons Ratio (y) = 0.39555 0.11349
# Poissons Ratio (z) = 0.23565 0.23289
#
# Static dielectric constant tensor:
#      x y z
#    x 3.955670 0.000000 0.000000 
#    y 0.000000 4.061810 0.000000 
#    z 0.000000 0.000000 3.694960 
# 
# 
# High freq. dielectric constant tensor:
#      x y z
#    x 1.841530 0.000000 0.000000 
#    y 0.000000 1.845660 0.000000 
#    z 0.000000 0.000000 1.822150 
# 
# From -- ./inp_files/10772.got.cif
#   From: 2010.06.25/outbox.cif.g09.slc.cpg/sg58_6_cif.got.tgz:10772.got - 2010.06.26 21:38:00.
