data_PCOD8238820
_publ_section_title
;
Structure prediction by ZEFSAII (Michael W. Deem and Ramdas Pophale) SiO2 
 PCOD8238820
Probable space group: P N N M
;
_chemical_formula_sum "Si O2"
_cell_formula_units_Z 40
_cell_length_a 18.519948
_cell_length_b 10.989143
_cell_length_c 9.978493
_cell_angle_alpha 90.000000
_cell_angle_beta 90.000000
_cell_angle_gamma 90.000000
_cell_volume 2030.806500
_symmetry_space_group_name_H-M "P N N M"
_symmetry_group_IT_number 58
_symmetry_cell_setting 'orthorhombic'
loop_
_space_group_symop_operation_xyz
x,y,z
-x,-y,z
1/2+x,1/2-y,1/2-z
1/2-x,1/2+y,1/2-z
-x,-y,-z
x,y,-z
1/2-x,1/2+y,1/2+z
1/2+x,1/2-y,1/2+z
loop_
_atom_site_type_symbol
_atom_site_label
_atom_site_fract_x
_atom_site_fract_y
_atom_site_fract_z
Si Si1 0.345660 0.059559 0.500000
Si Si2 0.570820 0.073980 0.262296
Si Si3 0.173705 0.042513 0.500000
Si Si4 0.112919 0.956133 0.765653
Si Si5 0.477511 0.670440 0.349801
Si Si6 0.356036 0.814894 0.000000
Si Si7 0.813433 0.171292 0.000000
O O1 0.259709 0.049864 0.500000
O O2 0.360840 0.204224 0.500000
O O3 0.378961 0.002186 0.364398
O O4 0.542395 0.189677 0.342562
O O5 0.500000 0.000000 0.216784
O O6 0.613947 0.115844 0.130505
O O7 0.127440 0.169593 0.500000
O O8 0.151447 0.960502 0.624373
O O9 0.043112 0.868289 0.752999
O O10 0.092580 0.091830 0.812986
O O11 0.170551 0.903770 0.867682
O O12 0.503401 0.638463 0.500000
O O13 0.270968 0.811116 0.000000
#
# Coordination Sequence:
#
# PCOD8238820 Si02
#       7
#     4   8   4   8   8   4   4
#     4  11  25  43  66  96 125 172 219 252 323 384
#     4  12  24  42  68  91 131 169 215 263 317 381
#     4  11  24  42  64  97 134 164 206 270 323 385
#     4  11  21  39  66  95 126 159 212 265 314 370
#     4  11  21  38  68  96 120 165 219 257 314 374
#     4  11  25  43  61  95 132 171 207 259 334 375
#     4  11  22  42  68  90 130 169 212 262 311 389
#
# _framework density 19.69661
#
# number of rings (size 3 to 8) (size 9 to 14) (size 15 to 20)
#    0.000    0.800    5.000    3.600    0.000    2.400 
#    0.000    3.000    4.400    0.000    0.000    0.000 
#    0.000    0.000    0.000    0.000    0.000    0.000 
#
# Total GULP energy -495987.489130 kJ/mol
# GULP energy per Si atom -12399.687228 kJ/mol
# Density = 1.965178 g / cm^3
# Si number density = 19.696610 Si / 1000 Ang^3
#
#
#
# Elastic Constant Matrix: (Units=GPa)
#
#
# Indices 1 2 3 4 5 6 
#
# 1 86.2210 45.4034 48.5689 0.0000 0.0000 0.0000
# 2 45.4034 105.6604 52.2133 0.0000 0.0000 0.0000
# 3 48.5689 52.2133 158.4855 0.0000 0.0000 0.0000
# 4 0.0000 0.0000 0.0000 14.8516 0.0000 0.0000
# 5 0.0000 0.0000 0.0000 0.0000 40.3294 0.0000
# 6 0.0000 0.0000 0.0000 0.0000 0.0000 33.6978
#
#
#
# Elastic Compliance Matrix: (Units=1/GPa)
#
#
# Indices 1 2 3 4 5 6 
#
# 1 0.016243 -0.005399 -0.003199 0.000000 0.000000 0.000000
# 2 -0.005399 0.013099 -0.002661 0.000000 0.000000 0.000000
# 3 -0.003199 -0.002661 0.008167 0.000000 0.000000 0.000000
# 4 0.000000 0.000000 0.000000 0.067333 0.000000 0.000000
# 5 0.000000 0.000000 0.000000 0.000000 0.024796 0.000000
# 6 0.000000 0.000000 0.000000 0.000000 0.000000 0.029676
#
#
# Mechanical properties :
#
#
# Convention : Reuss Voigt Hill
#
# Bulk Modulus (GPa) = 66.70667 71.41535 69.06101
# Shear Modulus (GPa) = 26.76249 31.38786 29.07517
#
# Velocity S-wave (km/s) = 3.69010 3.99628 3.84624
# Velocity P-wave (km/s) = 7.21778 7.59145 7.40697
#
# Compressibility (1/GPa) = 0.01499100
#
# Stress axis : x y z
#
# Youngs Moduli (GPa) = 61.56387 76.34008 122.44696
#
# Poissons Ratio (x) = 0.41216 0.39173
# Poissons Ratio (y) = 0.33239 0.32583
# Poissons Ratio (z) = 0.19695 0.20314
#
# Static dielectric constant tensor:
#      x y z
#    x 3.534560 0.000000 0.000000 
#    y 0.000000 3.790060 0.000000 
#    z 0.000000 0.000000 3.520590 
# 
# 
# High freq. dielectric constant tensor:
#      x y z
#    x 1.773650 0.000000 0.000000 
#    y 0.000000 1.778480 0.000000 
#    z 0.000000 0.000000 1.770540 
# 
# From -- ./inp_files/8814.got.cif
#   From: 2010.06.25/outbox.cif.g09.slc.cpg/sg58_5_cif.got.tgz:8814.got - 2010.06.26 21:38:00.
