data_PCOD8238942
_publ_section_title
;
Structure prediction by ZEFSAII (Michael W. Deem and Ramdas Pophale) SiO2 
 PCOD8238942
Probable space group: P N N M
;
_chemical_formula_sum "Si O2"
_cell_formula_units_Z 28
_cell_length_a 7.147890
_cell_length_b 7.058753
_cell_length_c 26.194567
_cell_angle_alpha 90.000000
_cell_angle_beta 90.000000
_cell_angle_gamma 90.000000
_cell_volume 1321.651854
_symmetry_space_group_name_H-M "P N N M"
_symmetry_group_IT_number 58
_symmetry_cell_setting 'orthorhombic'
loop_
_space_group_symop_operation_xyz
x,y,z
-x,-y,z
1/2+x,1/2-y,1/2-z
1/2-x,1/2+y,1/2-z
-x,-y,-z
x,y,-z
1/2-x,1/2+y,1/2+z
1/2+x,1/2-y,1/2+z
loop_
_atom_site_type_symbol
_atom_site_label
_atom_site_fract_x
_atom_site_fract_y
_atom_site_fract_z
Si Si1 0.786687 0.758473 0.316965
Si Si2 0.500000 0.500000 0.372493
Si Si3 0.000000 0.500000 0.242170
Si Si4 0.000000 0.000000 0.602582
Si Si5 0.138851 0.334760 0.058728
O O1 0.653933 0.590809 0.335887
O O2 0.930582 0.676329 0.275657
O O3 0.906038 0.837647 0.363644
O O4 0.669413 0.930868 0.293265
O O5 0.602797 0.348347 0.407539
O O6 0.850815 0.098632 0.565706
O O7 0.000000 0.500000 0.077447
O O8 0.101824 0.282832 0.000000
#
# Coordination Sequence:
#
# PCOD8238942 Si02
#       5
#     8   4   4   4   8
#     4  12  24  41  67  94 138 170 232 266 338 392
#     4  12  23  45  68 102 130 184 216 281 327 404
#     4  12  24  42  60 100 130 180 212 288 322 392
#     4  12  23  45  68 102 130 184 216 281 327 404
#     4  11  24  45  69 101 139 173 220 277 336 395
#
# _framework density 21.185608999999999
#
# number of rings (size 3 to 8) (size 9 to 14) (size 15 to 20)
#    0.000    0.286    2.857    7.714    0.000    0.000 
#    0.000    1.429    0.000    0.000    0.000    0.000 
#    0.000    0.000    0.000    0.000    0.000    0.000 
#
# Total GULP energy -347506.754902 kJ/mol
# GULP energy per Si atom -12410.955532 kJ/mol
# Density = 2.113739 g / cm^3
# Si number density = 21.185609 Si / 1000 Ang^3
#
#
#
# Elastic Constant Matrix: (Units=GPa)
#
#
# Indices 1 2 3 4 5 6 
#
# 1 97.9032 18.4195 10.2120 0.0000 0.0000 0.0000
# 2 18.4195 76.2544 15.2417 0.0000 0.0000 0.0000
# 3 10.2120 15.2417 61.3532 0.0000 0.0000 0.0000
# 4 0.0000 0.0000 0.0000 -67.4287 0.0000 0.0000
# 5 0.0000 0.0000 0.0000 0.0000 35.2251 0.0000
# 6 0.0000 0.0000 0.0000 0.0000 0.0000 60.0643
#
#
#
# Elastic Compliance Matrix: (Units=1/GPa)
#
#
# Indices 1 2 3 4 5 6 
#
# 1 0.010785 -0.002364 -0.001208 0.000000 0.000000 0.000000
# 2 -0.002364 0.014317 -0.003163 0.000000 0.000000 0.000000
# 3 -0.001208 -0.003163 0.017286 0.000000 0.000000 0.000000
# 4 0.000000 0.000000 0.000000 -0.014830 0.000000 0.000000
# 5 0.000000 0.000000 0.000000 0.000000 0.028389 0.000000
# 6 0.000000 0.000000 0.000000 0.000000 0.000000 0.016649
#
#
# Mechanical properties :
#
#
# Convention : Reuss Voigt Hill
#
# Bulk Modulus (GPa) = 34.58025 35.91745 35.24885
# Shear Modulus (GPa) = 52.24412 18.34798 35.29605
#
# Velocity S-wave (km/s) = 4.97129 2.94608 4.08614
# Velocity P-wave (km/s) = 7.02208 5.34444 6.23990
#
# Compressibility (1/GPa) = 0.02891824
#
# Stress axis : x y z
#
# Youngs Moduli (GPa) = 92.72253 69.84590 57.85033
#
# Poissons Ratio (x) = 0.16509 0.06988
# Poissons Ratio (y) = 0.21917 0.18300
# Poissons Ratio (z) = 0.11200 0.22095
#
# Static dielectric constant tensor:
#      x y z
#    x 3.699370 0.000000 0.000000 
#    y 0.000000 4.231630 0.000000 
#    z 0.000000 0.000000 3.825800 
# 
# 
# High freq. dielectric constant tensor:
#      x y z
#    x 1.846580 0.000000 0.000000 
#    y 0.000000 1.837640 0.000000 
#    z 0.000000 0.000000 1.842740 
# 
# From -- ./inp_files/32605.got.cif
#   From: 2010.06.25/outbox.cif.g09.slc.cpg/sg58_17_cif.got.tgz:32605.got - 2010.06.26 21:38:00.
