data_PCOD8238363
_publ_section_title
;
Structure prediction by ZEFSAII (Michael W. Deem and Ramdas Pophale) SiO2 
 PCOD8238363
Probable space group: P N N M
;
_chemical_formula_sum "Si O2"
_cell_formula_units_Z 48
_cell_length_a 14.776338
_cell_length_b 18.713235
_cell_length_c 8.404529
_cell_angle_alpha 90.000000
_cell_angle_beta 90.000000
_cell_angle_gamma 90.000000
_cell_volume 2323.962245
_symmetry_space_group_name_H-M "P N N M"
_symmetry_group_IT_number 58
_symmetry_cell_setting 'orthorhombic'
loop_
_space_group_symop_operation_xyz
x,y,z
-x,-y,z
1/2+x,1/2-y,1/2-z
1/2-x,1/2+y,1/2-z
-x,-y,-z
x,y,-z
1/2-x,1/2+y,1/2+z
1/2+x,1/2-y,1/2+z
loop_
_atom_site_type_symbol
_atom_site_label
_atom_site_fract_x
_atom_site_fract_y
_atom_site_fract_z
Si Si1 0.252399 0.581707 0.312633
Si Si2 0.813371 0.261232 0.683505
Si Si3 0.903557 0.524368 0.688964
Si Si4 0.149426 0.319179 0.684690
Si Si5 0.052036 0.070773 0.685042
Si Si6 0.501250 0.280529 0.318202
O O1 0.269625 0.573670 0.500000
O O2 0.225671 0.662068 0.267296
O O3 0.173490 0.529613 0.250930
O O4 0.342267 0.560305 0.219357
O O5 0.843078 0.259620 0.500000
O O6 0.736916 0.202395 0.714435
O O7 0.899390 0.244689 0.791040
O O8 0.908887 0.522780 0.500000
O O9 0.882006 0.603883 0.749431
O O10 0.000000 0.500000 0.761183
O O11 0.176275 0.322126 0.500000
O O12 0.068506 0.263219 0.705716
O O13 0.036056 0.085897 0.500000
O O14 0.010001 0.135769 0.783586
O O15 0.000000 0.000000 0.741105
O O16 0.528908 0.266231 0.500000
#
# Coordination Sequence:
#
# PCOD8238363 Si02
#       6
#     8   8   8   8   8   8
#     4  10  21  40  66  94 124 165 211 255 310 379
#     4  11  23  40  64  93 126 165 208 260 318 378
#     4   9  19  37  62  92 124 162 206 251 306 373
#     4  11  22  39  64  95 128 162 206 262 316 377
#     4  11  25  43  63  91 126 165 208 264 326 378
#     4  12  25  42  65  92 124 168 215 261 313 378
#
# _framework density 20.654381000000001
#
# number of rings (size 3 to 8) (size 9 to 14) (size 15 to 20)
#    0.000    1.333    1.667    4.000    2.333    4.667 
#    0.000    0.833    0.000    3.500    0.000    0.000 
#    0.000    0.000    0.000    0.000    0.000    0.000 
#
# Total GULP energy -595548.677196 kJ/mol
# GULP energy per Si atom -12407.264108 kJ/mol
# Density = 2.060737 g / cm^3
# Si number density = 20.654381 Si / 1000 Ang^3
#
#
#
# Elastic Constant Matrix: (Units=GPa)
#
#
# Indices 1 2 3 4 5 6 
#
# 1 102.2316 13.9123 19.2220 0.0000 0.0000 0.0000
# 2 13.9123 82.1892 32.3744 0.0000 0.0000 0.0000
# 3 19.2220 32.3744 45.5232 0.0000 0.0000 0.0000
# 4 0.0000 0.0000 0.0000 25.4394 0.0000 0.0000
# 5 0.0000 0.0000 0.0000 0.0000 33.0481 0.0000
# 6 0.0000 0.0000 0.0000 0.0000 0.0000 43.0810
#
#
#
# Elastic Compliance Matrix: (Units=1/GPa)
#
#
# Indices 1 2 3 4 5 6 
#
# 1 0.010625 -0.000044 -0.004456 0.000000 0.000000 0.000000
# 2 -0.000044 0.016902 -0.012002 0.000000 0.000000 0.000000
# 3 -0.004456 -0.012002 0.032383 0.000000 0.000000 0.000000
# 4 0.000000 0.000000 0.000000 0.039309 0.000000 0.000000
# 5 0.000000 0.000000 0.000000 0.000000 0.030259 0.000000
# 6 0.000000 0.000000 0.000000 0.000000 0.000000 0.023212
#
#
# Mechanical properties :
#
#
# Convention : Reuss Voigt Hill
#
# Bulk Modulus (GPa) = 37.16213 40.10684 38.63449
# Shear Modulus (GPa) = 25.68557 31.27605 28.48081
#
# Velocity S-wave (km/s) = 3.53028 3.89557 3.71741
# Velocity P-wave (km/s) = 5.88631 6.30033 6.09683
#
# Compressibility (1/GPa) = 0.02690911
#
# Stress axis : x y z
#
# Youngs Moduli (GPa) = 94.11417 59.16508 30.88013
#
# Poissons Ratio (x) = 0.00257 0.13759
# Poissons Ratio (y) = 0.00410 0.37061
# Poissons Ratio (z) = 0.41933 0.71008
#
# Static dielectric constant tensor:
#      x y z
#    x 3.915860 0.000000 0.000000 
#    y 0.000000 3.904630 0.000000 
#    z 0.000000 0.000000 3.474990 
# 
# 
# High freq. dielectric constant tensor:
#      x y z
#    x 1.821580 0.000000 0.000000 
#    y 0.000000 1.820110 0.000000 
#    z 0.000000 0.000000 1.792130 
# 
# From -- ./inp_files/5833.got.cif
#   From: 2010.06.25/outbox.cif.g09.slc.cpg/sg58_3_cif.got.tgz:5833.got - 2010.06.26 21:38:00.
