data_PCOD8238208
_publ_section_title
;
Structure prediction by ZEFSAII (Michael W. Deem and Ramdas Pophale) SiO2 
 PCOD8238208
Probable space group: P N N M
;
_chemical_formula_sum "Si O2"
_cell_formula_units_Z 64
_cell_length_a 15.036260
_cell_length_b 23.658198
_cell_length_c 9.310488
_cell_angle_alpha 90.000000
_cell_angle_beta 90.000000
_cell_angle_gamma 90.000000
_cell_volume 3312.027496
_symmetry_space_group_name_H-M "P N N M"
_symmetry_group_IT_number 58
_symmetry_cell_setting 'orthorhombic'
loop_
_space_group_symop_operation_xyz
x,y,z
-x,-y,z
1/2+x,1/2-y,1/2-z
1/2-x,1/2+y,1/2-z
-x,-y,-z
x,y,-z
1/2-x,1/2+y,1/2+z
1/2+x,1/2-y,1/2+z
loop_
_atom_site_type_symbol
_atom_site_label
_atom_site_fract_x
_atom_site_fract_y
_atom_site_fract_z
Si Si1 0.607407 0.221877 0.336143
Si Si2 0.899586 0.007582 0.668917
Si Si3 0.749122 0.417964 0.833134
Si Si4 0.645204 0.116954 0.159802
Si Si5 0.914198 0.234345 0.834493
Si Si6 0.231068 0.698314 0.671054
Si Si7 0.151718 0.884422 0.840462
Si Si8 0.396978 0.991522 0.335521
O O1 0.623085 0.203554 0.500000
O O2 0.593314 0.164981 0.246022
O O3 0.518469 0.257229 0.316059
O O4 0.689148 0.260124 0.282150
O O5 0.898602 0.016080 0.500000
O O6 0.860002 0.064167 0.733818
O O7 0.836870 0.955109 0.712437
O O8 0.000000 0.000000 0.726774
O O9 0.748762 0.363211 0.734126
O O10 0.840695 0.451905 0.804289
O O11 0.742865 0.400338 0.000000
O O12 0.746972 0.135192 0.154653
O O13 0.639363 0.056640 0.233700
O O14 0.604523 0.112783 0.000000
O O15 0.860451 0.278183 0.736232
O O16 0.900615 0.170100 0.782241
O O17 0.883671 0.242382 0.000000
O O18 0.222627 0.693487 0.500000
O O19 0.118802 0.901898 0.000000
O O20 0.383257 0.972660 0.500000
O O21 0.500000 0.000000 0.299786
#
# Coordination Sequence:
#
# PCOD8238208 Si02
#       8
#     8   8   8   8   8   8   8   8
#     4  10  23  41  62  86 117 160 201 237 287 357
#     4  10  22  39  60  88 118 153 196 240 289 344
#     4  10  22  40  59  82 119 160 194 235 289 348
#     4  11  22  38  62  90 118 149 193 251 300 337
#     4  10  22  42  63  85 118 159 199 237 290 357
#     4  11  24  40  60  89 121 153 196 247 294 342
#     4  10  21  38  62  88 115 152 195 241 294 346
#     4  10  22  40  62  86 114 157 201 234 285 355
#
# _framework density 19.323511
#
# number of rings (size 3 to 8) (size 9 to 14) (size 15 to 20)
#    0.000    1.750    2.500    0.750    3.500    3.500 
#    0.000    0.000    0.000    0.000    0.000    0.000 
#    0.000    0.000    0.000    0.000    0.000    0.000 
#
# Total GULP energy -793785.433987 kJ/mol
# GULP energy per Si atom -12402.897406 kJ/mol
# Density = 1.927953 g / cm^3
# Si number density = 19.323511 Si / 1000 Ang^3
#
#
#
# Elastic Constant Matrix: (Units=GPa)
#
#
# Indices 1 2 3 4 5 6 
#
# 1 83.4679 15.7417 24.6575 0.0000 0.0000 0.0000
# 2 15.7417 104.7502 52.3226 0.0000 0.0000 0.0000
# 3 24.6575 52.3226 71.4597 0.0000 0.0000 0.0000
# 4 0.0000 0.0000 0.0000 34.6123 0.0000 0.0000
# 5 0.0000 0.0000 0.0000 0.0000 22.2949 0.0000
# 6 0.0000 0.0000 0.0000 0.0000 0.0000 28.2922
#
#
#
# Elastic Compliance Matrix: (Units=1/GPa)
#
#
# Indices 1 2 3 4 5 6 
#
# 1 0.013355 0.000465 -0.004948 0.000000 0.000000 0.000000
# 2 0.000465 0.015067 -0.011193 0.000000 0.000000 0.000000
# 3 -0.004948 -0.011193 0.023897 0.000000 0.000000 0.000000
# 4 0.000000 0.000000 0.000000 0.028891 0.000000 0.000000
# 5 0.000000 0.000000 0.000000 0.000000 0.044853 0.000000
# 6 0.000000 0.000000 0.000000 0.000000 0.000000 0.035345
#
#
# Mechanical properties :
#
#
# Convention : Reuss Voigt Hill
#
# Bulk Modulus (GPa) = 47.69591 49.45796 48.57693
# Shear Modulus (GPa) = 25.03121 28.17028 26.60075
#
# Velocity S-wave (km/s) = 3.60304 3.82229 3.71428
# Velocity P-wave (km/s) = 6.48426 6.71790 6.60211
#
# Compressibility (1/GPa) = 0.02096616
#
# Stress axis : x y z
#
# Youngs Moduli (GPa) = 74.87927 66.36837 41.84685
#
# Poissons Ratio (x) = -0.03085 0.20708
# Poissons Ratio (y) = -0.03480 0.46838
# Poissons Ratio (z) = 0.37054 0.74284
#
# Static dielectric constant tensor:
#      x y z
#    x 3.759540 0.000000 0.000000 
#    y 0.000000 3.420500 0.000000 
#    z 0.000000 0.000000 3.554340 
# 
# 
# High freq. dielectric constant tensor:
#      x y z
#    x 1.759150 0.000000 0.000000 
#    y 0.000000 1.756560 0.000000 
#    z 0.000000 0.000000 1.749570 
# 
# From -- ./inp_files/6814.got.cif
#   From: 2010.06.25/outbox.cif.g09.slc.cpg/sg58_4_cif.got.tgz:6814.got - 2010.06.26 21:38:00.
