data_PCOD8238774
_publ_section_title
;
Structure prediction by ZEFSAII (Michael W. Deem and Ramdas Pophale) SiO2 
 PCOD8238774
Probable space group: P N N M
;
_chemical_formula_sum "Si O2"
_cell_formula_units_Z 40
_cell_length_a 5.128441
_cell_length_b 41.149821
_cell_length_c 10.171095
_cell_angle_alpha 90.000000
_cell_angle_beta 90.000000
_cell_angle_gamma 90.000000
_cell_volume 2146.451227
_symmetry_space_group_name_H-M "P N N M"
_symmetry_group_IT_number 58
_symmetry_cell_setting 'orthorhombic'
loop_
_space_group_symop_operation_xyz
x,y,z
-x,-y,z
1/2+x,1/2-y,1/2-z
1/2-x,1/2+y,1/2-z
-x,-y,-z
x,y,-z
1/2-x,1/2+y,1/2+z
1/2+x,1/2-y,1/2+z
loop_
_atom_site_type_symbol
_atom_site_label
_atom_site_fract_x
_atom_site_fract_y
_atom_site_fract_z
Si Si1 0.456429 0.263447 0.500000
Si Si2 0.959937 0.352088 0.344573
Si Si3 0.010630 0.036636 0.156878
Si Si4 0.039597 0.814093 0.770866
Si Si5 0.989833 0.574602 0.656540
Si Si6 0.041280 0.779255 0.500000
O O1 0.499597 0.284374 0.630110
O O2 0.665807 0.234511 0.500000
O O3 0.163026 0.250197 0.500000
O O4 0.998598 0.350002 0.500000
O O5 0.669371 0.341797 0.305003
O O6 0.001357 0.388560 0.291519
O O7 0.170883 0.328593 0.278613
O O8 0.766585 0.056980 0.211062
O O9 0.266524 0.054333 0.211845
O O10 0.008976 0.036029 0.000000
O O11 0.000000 0.000000 0.212121
O O12 0.990748 0.801631 0.625140
O O13 0.995626 0.574715 0.500000
#
# Coordination Sequence:
#
# PCOD8238774 Si02
#       6
#     4   8   8   8   8   4
#     4  12  22  42  60  82 108 136 179 216 267 334
#     4  11  20  36  55  78 104 142 186 223 260 315
#     4   9  15  24  37  60  95 136 173 210 256 306
#     4  12  23  39  60  80 109 140 176 225 267 322
#     4   9  17  26  42  65  93 131 178 216 248 302
#     4  12  26  40  58  86 108 138 173 220 281 320
#
# _framework density 18.635408999999999
#
# number of rings (size 3 to 8) (size 9 to 14) (size 15 to 20)
#    0.000    1.400    2.000    5.400    0.000    5.600 
#    0.000    0.000    0.000    0.000    0.000    0.000 
#    0.000    0.000    0.000   63.000    0.000   28.000 
#
# Total GULP energy -496175.799766 kJ/mol
# GULP energy per Si atom -12404.394994 kJ/mol
# Density = 1.859299 g / cm^3
# Si number density = 18.635409 Si / 1000 Ang^3
#
#
#
# Elastic Constant Matrix: (Units=GPa)
#
#
# Indices 1 2 3 4 5 6 
#
# 1 103.6594 26.5376 5.2553 0.0000 0.0000 0.0000
# 2 26.5376 109.4128 29.2471 0.0000 0.0000 0.0000
# 3 5.2553 29.2471 72.1264 0.0000 0.0000 0.0000
# 4 0.0000 0.0000 0.0000 -1.5332 0.0000 0.0000
# 5 0.0000 0.0000 0.0000 0.0000 11.6934 0.0000
# 6 0.0000 0.0000 0.0000 0.0000 0.0000 41.5363
#
#
#
# Elastic Compliance Matrix: (Units=1/GPa)
#
#
# Indices 1 2 3 4 5 6 
#
# 1 0.010291 -0.002575 0.000294 0.000000 0.000000 0.000000
# 2 -0.002575 0.010895 -0.004230 0.000000 0.000000 0.000000
# 3 0.000294 -0.004230 0.015558 0.000000 0.000000 0.000000
# 4 0.000000 0.000000 0.000000 -0.652223 0.000000 0.000000
# 5 0.000000 0.000000 0.000000 0.000000 0.085518 0.000000
# 6 0.000000 0.000000 0.000000 0.000000 0.000000 0.024075
#
#
# Mechanical properties :
#
#
# Convention : Reuss Voigt Hill
#
# Bulk Modulus (GPa) = 42.15311 45.25319 43.70315
# Shear Modulus (GPa) = -10.31024 25.28321 7.48648
#
# Velocity S-wave (km/s) = -2.35470 3.68738 2.00651
# Velocity P-wave (km/s) = 3.90848 6.51653 5.37314
#
# Compressibility (1/GPa) = 0.02372304
#
# Stress axis : x y z
#
# Youngs Moduli (GPa) = 97.17025 91.78537 64.27361
#
# Poissons Ratio (x) = 0.23632 -0.01891
# Poissons Ratio (y) = 0.25019 0.27190
# Poissons Ratio (z) = -0.02859 0.38828
#
# Static dielectric constant tensor:
#      x y z
#    x 3.635920 0.000000 0.000000 
#    y 0.000000 3.610340 0.000000 
#    z 0.000000 0.000000 2.923970 
# 
# 
# High freq. dielectric constant tensor:
#      x y z
#    x 1.746070 0.000000 0.000000 
#    y 0.000000 1.738720 0.000000 
#    z 0.000000 0.000000 1.659010 
# 
# From -- ./inp_files/11864.got.cif
#   From: 2010.06.25/outbox.cif.g09.slc.cpg/sg58_6_cif.got.tgz:11864.got - 2010.06.26 21:38:00.
