data_PCOD8238542
_publ_section_title
;
Structure prediction by ZEFSAII (Michael W. Deem and Ramdas Pophale) SiO2 
 PCOD8238542
Probable space group: P N N M
;
_chemical_formula_sum "Si O2"
_cell_formula_units_Z 48
_cell_length_a 28.295158
_cell_length_b 9.523220
_cell_length_c 8.034525
_cell_angle_alpha 90.000000
_cell_angle_beta 90.000000
_cell_angle_gamma 90.000000
_cell_volume 2164.991258
_symmetry_space_group_name_H-M "P N N M"
_symmetry_group_IT_number 58
_symmetry_cell_setting 'orthorhombic'
loop_
_space_group_symop_operation_xyz
x,y,z
-x,-y,z
1/2+x,1/2-y,1/2-z
1/2-x,1/2+y,1/2-z
-x,-y,-z
x,y,-z
1/2-x,1/2+y,1/2+z
1/2+x,1/2-y,1/2+z
loop_
_atom_site_type_symbol
_atom_site_label
_atom_site_fract_x
_atom_site_fract_y
_atom_site_fract_z
Si Si1 0.869524 0.274396 0.812211
Si Si2 0.456508 0.893650 0.000000
Si Si3 0.546170 0.412129 0.000000
Si Si4 0.385762 0.535230 0.694258
Si Si5 0.443617 0.007796 0.678143
Si Si6 0.300336 0.705559 0.192393
Si Si7 0.710087 0.977709 0.696394
O O1 0.867344 0.117223 0.739530
O O2 0.923396 0.334183 0.799233
O O3 0.833658 0.386157 0.728033
O O4 0.851937 0.260437 0.000000
O O5 0.476954 0.740545 0.000000
O O6 0.424576 0.916883 0.166141
O O7 0.500000 0.000000 0.000000
O O8 0.500000 0.500000 0.000000
O O9 0.573829 0.427925 0.173488
O O10 0.403949 0.527592 0.500000
O O11 0.344965 0.652020 0.701724
O O12 0.424723 0.947604 0.500000
O O13 0.500000 0.000000 0.676968
O O14 0.288847 0.868610 0.222529
O O15 0.256583 0.608506 0.246653
O O16 0.312591 0.683013 0.000000
O O17 0.705315 0.998774 0.500000
#
# Coordination Sequence:
#
# PCOD8238542 Si02
#       7
#     8   4   4   8   8   8   8
#     4   9  20  39  64  96 128 176 229 272 339 407
#     4  10  24  42  66  94 128 172 222 274 340 395
#     4  12  30  48  68 106 142 178 238 292 345 425
#     4  11  25  47  72  96 140 185 224 288 353 417
#     4   9  19  36  63  93 126 166 221 274 324 400
#     4  11  23  42  64 100 138 176 233 286 347 411
#     4  10  22  40  67  96 137 182 231 288 341 417
#
# _framework density 22.17099
#
# number of rings (size 3 to 8) (size 9 to 14) (size 15 to 20)
#    0.000    1.833    0.833    1.500    7.000    3.667 
#    1.500    0.000    0.000    0.000    0.000    0.000 
#    0.000    0.000    0.000    0.000    0.000    0.000 
#
# Total GULP energy -594645.514120 kJ/mol
# GULP energy per Si atom -12388.448211 kJ/mol
# Density = 2.212053 g / cm^3
# Si number density = 22.170990 Si / 1000 Ang^3
#
#
#
# Elastic Constant Matrix: (Units=GPa)
#
#
# Indices 1 2 3 4 5 6 
#
# 1 108.1573 57.8883 32.4162 0.0000 0.0000 0.0000
# 2 57.8883 182.4728 44.9788 0.0000 0.0000 0.0000
# 3 32.4162 44.9788 138.7988 0.0000 0.0000 0.0000
# 4 0.0000 0.0000 0.0000 25.1867 0.0000 0.0000
# 5 0.0000 0.0000 0.0000 0.0000 -3.9216 0.0000
# 6 0.0000 0.0000 0.0000 0.0000 0.0000 40.0863
#
#
#
# Elastic Compliance Matrix: (Units=1/GPa)
#
#
# Indices 1 2 3 4 5 6 
#
# 1 0.011466 -0.003236 -0.001629 0.000000 0.000000 0.000000
# 2 -0.003236 0.006869 -0.001470 0.000000 0.000000 0.000000
# 3 -0.001629 -0.001470 0.008062 0.000000 0.000000 0.000000
# 4 0.000000 0.000000 0.000000 0.039704 0.000000 0.000000
# 5 0.000000 0.000000 0.000000 0.000000 -0.255001 0.000000
# 6 0.000000 0.000000 0.000000 0.000000 0.000000 0.024946
#
#
# Mechanical properties :
#
#
# Convention : Reuss Voigt Hill
#
# Bulk Modulus (GPa) = 72.85432 77.77727 75.31579
# Shear Modulus (GPa) = -34.08130 31.88000 -1.10065
#
# Velocity S-wave (km/s) = -3.92497 3.79610 -0.70535
# Velocity P-wave (km/s) = 3.52009 7.37364 5.77761
#
# Compressibility (1/GPa) = 0.01372602
#
# Stress axis : x y z
#
# Youngs Moduli (GPa) = 87.21408 145.57597 124.04429
#
# Poissons Ratio (x) = 0.47107 0.20210
# Poissons Ratio (y) = 0.28222 0.18238
# Poissons Ratio (z) = 0.14209 0.21404
#
# Static dielectric constant tensor:
#      x y z
#    x 3.920520 0.000000 0.000000 
#    y 0.000000 4.155610 0.000000 
#    z 0.000000 0.000000 6.706810 
# 
# 
# High freq. dielectric constant tensor:
#      x y z
#    x 1.859810 0.000000 0.000000 
#    y 0.000000 1.880620 0.000000 
#    z 0.000000 0.000000 1.877650 
# 
# From -- ./inp_files/10801.got.cif
#   From: 2010.06.25/outbox.cif.g09.slc.cpg/sg58_6_cif.got.tgz:10801.got - 2010.06.26 21:38:00.
