data_PCOD8238967
_publ_section_title
;
Structure prediction by ZEFSAII (Michael W. Deem and Ramdas Pophale) SiO2 
 PCOD8238967
Probable space group: P N N M
;
_chemical_formula_sum "Si O2"
_cell_formula_units_Z 32
_cell_length_a 6.329665
_cell_length_b 7.191163
_cell_length_c 32.224747
_cell_angle_alpha 90.000000
_cell_angle_beta 90.000000
_cell_angle_gamma 90.000000
_cell_volume 1466.794844
_symmetry_space_group_name_H-M "P N N M"
_symmetry_group_IT_number 58
_symmetry_cell_setting 'orthorhombic'
loop_
_space_group_symop_operation_xyz
x,y,z
-x,-y,z
1/2+x,1/2-y,1/2-z
1/2-x,1/2+y,1/2-z
-x,-y,-z
x,y,-z
1/2-x,1/2+y,1/2+z
1/2+x,1/2-y,1/2+z
loop_
_atom_site_type_symbol
_atom_site_label
_atom_site_fract_x
_atom_site_fract_y
_atom_site_fract_z
Si Si1 0.500000 0.500000 0.262847
Si Si2 0.000000 0.000000 0.920831
Si Si3 0.120418 0.687185 0.621431
Si Si4 0.820172 0.641273 0.196318
Si Si5 0.378968 0.806463 0.955346
O O1 0.701535 0.557599 0.235804
O O2 0.432072 0.666253 0.292568
O O3 0.853548 0.869651 0.892942
O O4 0.132841 0.853965 0.948628
O O5 0.147293 0.826598 0.659983
O O6 0.000000 0.500000 0.635976
O O7 0.987943 0.794514 0.584467
O O8 0.000000 0.500000 0.180764
O O9 0.500000 0.000000 0.957659
O O10 0.404211 0.700395 0.000000
#
# Coordination Sequence:
#
# PCOD8238967 Si02
#       5
#     4   4   8   8   8
#     4  12  27  44  66  95 120 162 210 261 320 387
#     4   8  14  28  50  85 118 166 202 253 300 359
#     4   9  20  33  57  87 124 161 207 258 305 369
#     4  12  26  44  66  93 126 163 208 261 323 380
#     4   8  14  26  47  82 123 163 205 250 300 359
#
# _framework density 21.816275000000001
#
# number of rings (size 3 to 8) (size 9 to 14) (size 15 to 20)
#    0.000    2.750    2.500    1.125    3.500    5.000 
#    0.000    0.000    0.000    0.750    0.000    2.625 
#    0.000    0.000    0.000    0.000    0.000    0.250 
#
# Total GULP energy -396569.595460 kJ/mol
# GULP energy per Si atom -12392.799858 kJ/mol
# Density = 2.176662 g / cm^3
# Si number density = 21.816275 Si / 1000 Ang^3
#
#
#
# Elastic Constant Matrix: (Units=GPa)
#
#
# Indices 1 2 3 4 5 6 
#
# 1 125.8225 30.8923 46.8397 0.0000 0.0000 0.0000
# 2 30.8923 78.3451 44.8389 0.0000 0.0000 0.0000
# 3 46.8397 44.8389 153.1188 0.0000 0.0000 0.0000
# 4 0.0000 0.0000 0.0000 1.2943 0.0000 0.0000
# 5 0.0000 0.0000 0.0000 0.0000 90.9719 0.0000
# 6 0.0000 0.0000 0.0000 0.0000 0.0000 28.5365
#
#
#
# Elastic Compliance Matrix: (Units=1/GPa)
#
#
# Indices 1 2 3 4 5 6 
#
# 1 0.009348 -0.002462 -0.002139 0.000000 0.000000 0.000000
# 2 -0.002462 0.015982 -0.003927 0.000000 0.000000 0.000000
# 3 -0.002139 -0.003927 0.008335 0.000000 0.000000 0.000000
# 4 0.000000 0.000000 0.000000 0.772634 0.000000 0.000000
# 5 0.000000 0.000000 0.000000 0.000000 0.010992 0.000000
# 6 0.000000 0.000000 0.000000 0.000000 0.000000 0.035043
#
#
# Mechanical properties :
#
#
# Convention : Reuss Voigt Hill
#
# Bulk Modulus (GPa) = 60.20429 66.93648 63.57038
# Shear Modulus (GPa) = 5.71476 39.80823 22.76149
#
# Velocity S-wave (km/s) = 1.62024 4.27629 3.23356
# Velocity P-wave (km/s) = 5.58177 7.42501 6.56837
#
# Compressibility (1/GPa) = 0.01661011
#
# Stress axis : x y z
#
# Youngs Moduli (GPa) = 106.97036 62.56861 119.97437
#
# Poissons Ratio (x) = 0.15405 0.25659
# Poissons Ratio (y) = 0.26337 0.47115
# Poissons Ratio (z) = 0.22878 0.24571
#
# Static dielectric constant tensor:
#      x y z
#    x 4.380520 0.000000 0.000000 
#    y 0.000000 3.437320 0.000000 
#    z 0.000000 0.000000 4.667880 
# 
# 
# High freq. dielectric constant tensor:
#      x y z
#    x 1.869950 0.000000 0.000000 
#    y 0.000000 1.811460 0.000000 
#    z 0.000000 0.000000 1.867920 
# 
# From -- ./inp_files/34032.got.cif
#   From: 2010.06.25/outbox.cif.g09.slc.cpg/sg58_18_cif.got.tgz:34032.got - 2010.06.26 21:38:00.
