data_PCOD8238663
_publ_section_title
;
Structure prediction by ZEFSAII (Michael W. Deem and Ramdas Pophale) SiO2 
 PCOD8238663
Probable space group: P N N M
;
_chemical_formula_sum "Si O2"
_cell_formula_units_Z 64
_cell_length_a 15.237533
_cell_length_b 23.975392
_cell_length_c 8.700703
_cell_angle_alpha 90.000000
_cell_angle_beta 90.000000
_cell_angle_gamma 90.000000
_cell_volume 3178.591517
_symmetry_space_group_name_H-M "P N N M"
_symmetry_group_IT_number 58
_symmetry_cell_setting 'orthorhombic'
loop_
_space_group_symop_operation_xyz
x,y,z
-x,-y,z
1/2+x,1/2-y,1/2-z
1/2-x,1/2+y,1/2-z
-x,-y,-z
x,y,-z
1/2-x,1/2+y,1/2+z
1/2+x,1/2-y,1/2+z
loop_
_atom_site_type_symbol
_atom_site_label
_atom_site_fract_x
_atom_site_fract_y
_atom_site_fract_z
Si Si1 0.588886 0.219968 0.324358
Si Si2 0.902062 0.008091 0.682834
Si Si3 0.750409 0.426758 0.818159
Si Si4 0.669042 0.120689 0.178116
Si Si5 0.894322 0.238032 0.824922
Si Si6 0.261037 0.694858 0.679774
Si Si7 0.151048 0.870851 0.678999
Si Si8 0.400221 0.999937 0.181019
O O1 0.611174 0.204125 0.500000
O O2 0.594671 0.166067 0.214223
O O3 0.489378 0.236949 0.305512
O O4 0.653782 0.269508 0.269530
O O5 0.903270 0.005642 0.500000
O O6 0.871747 0.068189 0.742934
O O7 0.833135 0.962130 0.745844
O O8 0.000000 0.000000 0.749390
O O9 0.738067 0.363193 0.769754
O O10 0.842125 0.451266 0.755554
O O11 0.754408 0.430584 0.000000
O O12 0.747565 0.140562 0.286977
O O13 0.639282 0.059483 0.227961
O O14 0.695845 0.122307 0.000000
O O15 0.826401 0.270897 0.718488
O O16 0.905120 0.174282 0.771118
O O17 0.860887 0.240881 0.000000
O O18 0.262483 0.681564 0.500000
O O19 0.130339 0.864928 0.500000
O O20 0.500000 0.000000 0.243962
O O21 0.399963 0.010003 0.000000
#
# Coordination Sequence:
#
# PCOD8238663 Si02
#       8
#     8   8   8   8   8   8   8   8
#     4  10  24  43  63  88 125 162 200 251 309 366
#     4   9  20  38  60  89 123 159 201 245 295 358
#     4  11  23  40  63  91 123 161 202 251 301 357
#     4  11  22  38  64  91 120 158 206 257 303 358
#     4  11  24  42  63  93 124 158 204 255 305 365
#     4  11  24  43  63  87 123 166 202 246 306 367
#     4  11  21  38  64  90 121 162 203 253 309 358
#     4  10  23  42  62  89 123 161 203 250 304 365
#
# _framework density 20.134705
#
# number of rings (size 3 to 8) (size 9 to 14) (size 15 to 20)
#    0.000    1.500    2.500    1.875    3.500    2.250 
#    0.000    0.000    0.000    3.000    0.000    0.000 
#    0.000    0.000    0.000    0.000    0.000    0.000 
#
# Total GULP energy -793773.113334 kJ/mol
# GULP energy per Si atom -12402.704896 kJ/mol
# Density = 2.008888 g / cm^3
# Si number density = 20.134705 Si / 1000 Ang^3
#
#
#
# Elastic Constant Matrix: (Units=GPa)
#
#
# Indices 1 2 3 4 5 6 
#
# 1 70.0485 4.6503 17.1662 0.0000 0.0000 0.0000
# 2 4.6503 95.1503 12.0696 0.0000 0.0000 0.0000
# 3 17.1662 12.0696 35.3504 0.0000 0.0000 0.0000
# 4 0.0000 0.0000 0.0000 35.0224 0.0000 0.0000
# 5 0.0000 0.0000 0.0000 0.0000 24.1084 0.0000
# 6 0.0000 0.0000 0.0000 0.0000 0.0000 27.7122
#
#
#
# Elastic Compliance Matrix: (Units=1/GPa)
#
#
# Indices 1 2 3 4 5 6 
#
# 1 0.016208 0.000216 -0.007944 0.000000 0.000000 0.000000
# 2 0.000216 0.010988 -0.003856 0.000000 0.000000 0.000000
# 3 -0.007944 -0.003856 0.033463 0.000000 0.000000 0.000000
# 4 0.000000 0.000000 0.000000 0.028553 0.000000 0.000000
# 5 0.000000 0.000000 0.000000 0.000000 0.041479 0.000000
# 6 0.000000 0.000000 0.000000 0.000000 0.000000 0.036085
#
#
# Mechanical properties :
#
#
# Convention : Reuss Voigt Hill
#
# Bulk Modulus (GPa) = 26.67450 29.81347 28.24399
# Shear Modulus (GPa) = 24.69818 28.47945 26.58882
#
# Velocity S-wave (km/s) = 3.50615 3.76499 3.63787
# Velocity P-wave (km/s) = 5.44680 5.80856 5.63058
#
# Compressibility (1/GPa) = 0.03748898
#
# Stress axis : x y z
#
# Youngs Moduli (GPa) = 61.69645 91.00566 29.88398
#
# Poissons Ratio (x) = -0.01962 0.23741
# Poissons Ratio (y) = -0.01330 0.11524
# Poissons Ratio (z) = 0.49014 0.35095
#
# Static dielectric constant tensor:
#      x y z
#    x 3.759520 0.000000 0.000000 
#    y 0.000000 3.817330 0.000000 
#    z 0.000000 0.000000 3.513770 
# 
# 
# High freq. dielectric constant tensor:
#      x y z
#    x 1.792870 0.000000 0.000000 
#    y 0.000000 1.800680 0.000000 
#    z 0.000000 0.000000 1.775080 
# 
# From -- ./inp_files/6812.got.cif
#   From: 2010.06.25/outbox.cif.g09.slc.cpg/sg58_4_cif.got.tgz:6812.got - 2010.06.26 21:38:00.
