data_PCOD8238139
_publ_section_title
;
Structure prediction by ZEFSAII (Michael W. Deem and Ramdas Pophale) SiO2 
 PCOD8238139
Probable space group: P N N M
;
_chemical_formula_sum "Si O2"
_cell_formula_units_Z 36
_cell_length_a 7.942263
_cell_length_b 14.011162
_cell_length_c 14.997822
_cell_angle_alpha 90.000000
_cell_angle_beta 90.000000
_cell_angle_gamma 90.000000
_cell_volume 1668.962635
_symmetry_space_group_name_H-M "P N N M"
_symmetry_group_IT_number 58
_symmetry_cell_setting 'orthorhombic'
loop_
_space_group_symop_operation_xyz
x,y,z
-x,-y,z
1/2+x,1/2-y,1/2-z
1/2-x,1/2+y,1/2-z
-x,-y,-z
x,y,-z
1/2-x,1/2+y,1/2+z
1/2+x,1/2-y,1/2+z
loop_
_atom_site_type_symbol
_atom_site_label
_atom_site_fract_x
_atom_site_fract_y
_atom_site_fract_z
Si Si1 0.852070 0.184437 0.690831
Si Si2 0.497862 0.304652 0.500000
Si Si3 0.832142 0.195334 0.500000
Si Si4 0.130326 0.345025 0.500000
Si Si5 0.664451 0.050993 0.184997
Si Si6 0.861025 0.864866 0.820201
O O1 0.866539 0.137114 0.591454
O O2 0.705042 0.137169 0.748499
O O3 0.803405 0.296166 0.674210
O O4 0.031020 0.174321 0.737551
O O5 0.631014 0.218289 0.500000
O O6 0.298438 0.276772 0.500000
O O7 0.528771 0.364826 0.589773
O O8 0.957567 0.286671 0.500000
O O9 0.134441 0.413798 0.414947
O O10 0.500000 0.000000 0.222706
O O11 0.814958 0.974817 0.192693
#
# Coordination Sequence:
#
# PCOD8238139 Si02
#       6
#     8   4   4   4   8   8
#     4  11  23  41  64  89 129 170 216 261 320 381
#     4  10  21  37  65  92 132 156 204 263 336 385
#     4  10  24  44  62  95 128 177 221 267 304 390
#     4  12  22  41  68 104 129 166 202 275 348 392
#     4  12  24  40  65  98 131 165 210 268 327 390
#     4  11  22  40  62  94 128 166 208 266 325 389
#
# _framework density 21.570284999999998
#
# number of rings (size 3 to 8) (size 9 to 14) (size 15 to 20)
#    0.000    0.889    2.222    7.000    0.000    0.889 
#    0.000    2.778    0.000    0.000    0.000    0.000 
#    0.000    0.000    0.000    0.000    0.000    0.000 
#
# Total GULP energy -446267.609569 kJ/mol
# GULP energy per Si atom -12396.322488 kJ/mol
# Density = 2.152119 g / cm^3
# Si number density = 21.570285 Si / 1000 Ang^3
#
#
#
# Elastic Constant Matrix: (Units=GPa)
#
#
# Indices 1 2 3 4 5 6 
#
# 1 88.6499 7.4345 16.8501 0.0000 0.0000 0.0000
# 2 7.4345 57.6967 28.5344 0.0000 0.0000 0.0000
# 3 16.8501 28.5344 167.1683 0.0000 0.0000 0.0000
# 4 0.0000 0.0000 0.0000 18.8083 0.0000 0.0000
# 5 0.0000 0.0000 0.0000 0.0000 31.1624 0.0000
# 6 0.0000 0.0000 0.0000 0.0000 0.0000 33.4294
#
#
#
# Elastic Compliance Matrix: (Units=1/GPa)
#
#
# Indices 1 2 3 4 5 6 
#
# 1 0.011553 -0.000997 -0.000994 0.000000 0.000000 0.000000
# 2 -0.000997 0.019016 -0.003145 0.000000 0.000000 0.000000
# 3 -0.000994 -0.003145 0.006619 0.000000 0.000000 0.000000
# 4 0.000000 0.000000 0.000000 0.053168 0.000000 0.000000
# 5 0.000000 0.000000 0.000000 0.000000 0.032090 0.000000
# 6 0.000000 0.000000 0.000000 0.000000 0.000000 0.029914
#
#
# Mechanical properties :
#
#
# Convention : Reuss Voigt Hill
#
# Bulk Modulus (GPa) = 37.15428 46.57257 41.86342
# Shear Modulus (GPa) = 29.13672 34.05974 31.59823
#
# Velocity S-wave (km/s) = 3.67928 3.97799 3.83155
# Velocity P-wave (km/s) = 5.94236 6.53737 6.24695
#
# Compressibility (1/GPa) = 0.02691480
#
# Stress axis : x y z
#
# Youngs Moduli (GPa) = 86.55811 52.58715 151.07740
#
# Poissons Ratio (x) = 0.05242 0.15022
# Poissons Ratio (y) = 0.08629 0.47520
# Poissons Ratio (z) = 0.08607 0.16541
#
# Static dielectric constant tensor:
#      x y z
#    x 4.026310 0.000000 0.000000 
#    y 0.000000 3.492570 0.000000 
#    z 0.000000 0.000000 4.224140 
# 
# 
# High freq. dielectric constant tensor:
#      x y z
#    x 1.866570 0.000000 0.000000 
#    y 0.000000 1.805630 0.000000 
#    z 0.000000 0.000000 1.863050 
# 
# From -- ./inp_files/19426.got.cif
#   From: 2010.06.25/outbox.cif.g09.slc.cpg/sg58_10_cif.got.tgz:19426.got - 2010.06.26 21:38:00.
