data_PCOD8238199
_publ_section_title
;
Structure prediction by ZEFSAII (Michael W. Deem and Ramdas Pophale) SiO2 
 PCOD8238199
Probable space group: P N N M
;
_chemical_formula_sum "Si O2"
_cell_formula_units_Z 48
_cell_length_a 18.645308
_cell_length_b 14.879620
_cell_length_c 8.457249
_cell_angle_alpha 90.000000
_cell_angle_beta 90.000000
_cell_angle_gamma 90.000000
_cell_volume 2346.337704
_symmetry_space_group_name_H-M "P N N M"
_symmetry_group_IT_number 58
_symmetry_cell_setting 'orthorhombic'
loop_
_space_group_symop_operation_xyz
x,y,z
-x,-y,z
1/2+x,1/2-y,1/2-z
1/2-x,1/2+y,1/2-z
-x,-y,-z
x,y,-z
1/2-x,1/2+y,1/2+z
1/2+x,1/2-y,1/2+z
loop_
_atom_site_type_symbol
_atom_site_label
_atom_site_fract_x
_atom_site_fract_y
_atom_site_fract_z
Si Si1 0.434858 0.058755 0.313763
Si Si2 0.666325 0.360275 0.185140
Si Si3 0.754172 0.202882 0.312731
Si Si4 0.986521 0.898438 0.816361
Si Si5 0.913996 0.251419 0.683646
Si Si6 0.217959 0.496884 0.187441
O O1 0.433821 0.045834 0.500000
O O2 0.446423 0.163335 0.274986
O O3 0.500000 0.000000 0.240909
O O4 0.359676 0.023304 0.240863
O O5 0.696691 0.261687 0.218933
O O6 0.594893 0.372030 0.285042
O O7 0.723174 0.432985 0.250233
O O8 0.649976 0.372446 0.000000
O O9 0.743270 0.213117 0.500000
O O10 0.833347 0.232092 0.258630
O O11 0.740783 0.101465 0.255524
O O12 0.038563 0.835678 0.715807
O O13 0.004643 0.886065 0.000000
O O14 0.000000 0.000000 0.759755
O O15 0.915433 0.273832 0.500000
O O16 0.214920 0.502579 0.000000
#
# Coordination Sequence:
#
# PCOD8238199 Si02
#       6
#     8   8   8   8   8   8
#     4  10  21  38  61  88 121 166 212 254 302 364
#     4  11  22  39  63  92 124 158 200 252 308 367
#     4  10  21  38  61  89 121 162 204 248 301 362
#     4  11  25  43  64  90 122 161 207 256 308 371
#     4  11  23  40  63  92 128 164 203 257 312 365
#     4   9  19  37  60  86 120 160 203 246 299 363
#
# _framework density 20.457412000000001
#
# number of rings (size 3 to 8) (size 9 to 14) (size 15 to 20)
#    0.000    1.667    1.667    2.500    2.333    3.667 
#    0.000    2.500    0.000    0.000    0.000    0.000 
#    0.000    0.000    0.000    0.000    0.000    0.000 
#
# Total GULP energy -595462.233067 kJ/mol
# GULP energy per Si atom -12405.463189 kJ/mol
# Density = 2.041085 g / cm^3
# Si number density = 20.457412 Si / 1000 Ang^3
#
#
#
# Elastic Constant Matrix: (Units=GPa)
#
#
# Indices 1 2 3 4 5 6 
#
# 1 113.8379 33.8457 11.3047 0.0000 0.0000 0.0000
# 2 33.8457 126.3316 7.3026 0.0000 0.0000 0.0000
# 3 11.3047 7.3026 18.8760 0.0000 0.0000 0.0000
# 4 0.0000 0.0000 0.0000 25.1864 0.0000 0.0000
# 5 0.0000 0.0000 0.0000 0.0000 -14.5437 0.0000
# 6 0.0000 0.0000 0.0000 0.0000 0.0000 43.8775
#
#
#
# Elastic Compliance Matrix: (Units=1/GPa)
#
#
# Indices 1 2 3 4 5 6 
#
# 1 0.009997 -0.002385 -0.005064 0.000000 0.000000 0.000000
# 2 -0.002385 0.008666 -0.001924 0.000000 0.000000 0.000000
# 3 -0.005064 -0.001924 0.056755 0.000000 0.000000 0.000000
# 4 0.000000 0.000000 0.000000 0.039704 0.000000 0.000000
# 5 0.000000 0.000000 0.000000 0.000000 -0.068758 0.000000
# 6 0.000000 0.000000 0.000000 0.000000 0.000000 0.022791
#
#
# Mechanical properties :
#
#
# Convention : Reuss Voigt Hill
#
# Bulk Modulus (GPa) = 17.64598 40.43904 29.04251
# Shear Modulus (GPa) = 46.82070 24.67687 35.74878
#
# Velocity S-wave (km/s) = 4.78922 3.47689 4.18481
# Velocity P-wave (km/s) = 6.26311 5.99405 6.13006
#
# Compressibility (1/GPa) = 0.05667014
#
# Stress axis : x y z
#
# Youngs Moduli (GPa) = 100.03460 115.39374 17.61974
#
# Poissons Ratio (x) = 0.27527 0.08923
# Poissons Ratio (y) = 0.23863 0.03390
# Poissons Ratio (z) = 0.50658 0.22201
#
# Static dielectric constant tensor:
#      x y z
#    x 3.930280 0.000000 0.000000 
#    y 0.000000 3.722260 0.000000 
#    z 0.000000 0.000000 3.377760 
# 
# 
# High freq. dielectric constant tensor:
#      x y z
#    x 1.811930 0.000000 0.000000 
#    y 0.000000 1.814090 0.000000 
#    z 0.000000 0.000000 1.776530 
# 
# From -- ./inp_files/5873.got.cif
#   From: 2010.06.25/outbox.cif.g09.slc.cpg/sg58_3_cif.got.tgz:5873.got - 2010.06.26 21:38:00.
