data_PCOD8238451
_publ_section_title
;
Structure prediction by ZEFSAII (Michael W. Deem and Ramdas Pophale) SiO2 
 PCOD8238451
Probable space group: P N N M
;
_chemical_formula_sum "Si O2"
_cell_formula_units_Z 48
_cell_length_a 13.836930
_cell_length_b 10.775423
_cell_length_c 15.597619
_cell_angle_alpha 90.000000
_cell_angle_beta 90.000000
_cell_angle_gamma 90.000000
_cell_volume 2325.585867
_symmetry_space_group_name_H-M "P N N M"
_symmetry_group_IT_number 58
_symmetry_cell_setting 'orthorhombic'
loop_
_space_group_symop_operation_xyz
x,y,z
-x,-y,z
1/2+x,1/2-y,1/2-z
1/2-x,1/2+y,1/2-z
-x,-y,-z
x,y,-z
1/2-x,1/2+y,1/2+z
1/2+x,1/2-y,1/2+z
loop_
_atom_site_type_symbol
_atom_site_label
_atom_site_fract_x
_atom_site_fract_y
_atom_site_fract_z
Si Si1 0.263484 0.369198 0.234221
Si Si2 0.037784 0.372209 0.199165
Si Si3 0.259643 0.505859 0.594916
Si Si4 0.107747 0.678981 0.341708
Si Si5 0.098076 0.935279 0.404192
Si Si6 0.545248 0.372804 0.403104
O O1 0.151646 0.378008 0.212173
O O2 0.282547 0.404500 0.332854
O O3 0.308431 0.231625 0.223106
O O4 0.318816 0.462674 0.166917
O O5 0.985874 0.366198 0.291003
O O6 0.000000 0.500000 0.153628
O O7 0.009434 0.249178 0.146559
O O8 0.264033 0.443870 0.500000
O O9 0.153484 0.563572 0.607899
O O10 0.338576 0.616671 0.600239
O O11 0.077209 0.787207 0.407556
O O12 0.128874 0.979572 0.500000
O O13 0.000000 0.000000 0.373542
O O14 0.500000 0.500000 0.363427
O O15 0.507175 0.358021 0.500000
#
# Coordination Sequence:
#
# PCOD8238451 Si02
#       6
#     8   8   8   8   8   8
#     4  10  23  39  62  94 131 172 222 274 336 387
#     4  12  23  39  61  98 135 172 217 274 348 398
#     4  11  21  39  64  92 127 173 221 269 327 402
#     4  10  22  37  63  88 126 168 219 265 325 398
#     4   9  20  39  66  96 124 165 224 274 323 389
#     4  10  22  40  67  95 123 169 227 276 328 402
#
# _framework density 20.639961
#
# number of rings (size 3 to 8) (size 9 to 14) (size 15 to 20)
#    1.000    0.667    3.333    1.500    2.333    1.000 
#    0.000    2.500    0.000    1.000    0.000    0.000 
#    0.000    0.000    0.000    0.000    0.000    0.000 
#
# Total GULP energy -594803.838745 kJ/mol
# GULP energy per Si atom -12391.746641 kJ/mol
# Density = 2.059298 g / cm^3
# Si number density = 20.639961 Si / 1000 Ang^3
#
#
#
# Elastic Constant Matrix: (Units=GPa)
#
#
# Indices 1 2 3 4 5 6 
#
# 1 127.4692 23.9384 45.1367 0.0000 0.0000 0.0000
# 2 23.9384 88.5503 39.0083 0.0000 0.0000 0.0000
# 3 45.1367 39.0083 124.3826 0.0000 0.0000 0.0000
# 4 0.0000 0.0000 0.0000 30.0350 0.0000 0.0000
# 5 0.0000 0.0000 0.0000 0.0000 32.0306 0.0000
# 6 0.0000 0.0000 0.0000 0.0000 0.0000 33.1975
#
#
#
# Elastic Compliance Matrix: (Units=1/GPa)
#
#
# Indices 1 2 3 4 5 6 
#
# 1 0.009105 -0.001167 -0.002938 0.000000 0.000000 0.000000
# 2 -0.001167 0.013253 -0.003733 0.000000 0.000000 0.000000
# 3 -0.002938 -0.003733 0.010276 0.000000 0.000000 0.000000
# 4 0.000000 0.000000 0.000000 0.033295 0.000000 0.000000
# 5 0.000000 0.000000 0.000000 0.000000 0.031220 0.000000
# 6 0.000000 0.000000 0.000000 0.000000 0.000000 0.030123
#
#
# Mechanical properties :
#
#
# Convention : Reuss Voigt Hill
#
# Bulk Modulus (GPa) = 58.96795 61.84102 60.40448
# Shear Modulus (GPa) = 33.64745 34.54052 34.09398
#
# Velocity S-wave (km/s) = 4.04197 4.09525 4.06870
# Velocity P-wave (km/s) = 7.10036 7.23798 7.16950
#
# Compressibility (1/GPa) = 0.01695837
#
# Stress axis : x y z
#
# Youngs Moduli (GPa) = 109.83562 75.45517 97.30947
#
# Poissons Ratio (x) = 0.08806 0.28588
# Poissons Ratio (y) = 0.12819 0.36324
# Poissons Ratio (z) = 0.32268 0.28166
#
# Static dielectric constant tensor:
#      x y z
#    x 3.683380 0.000000 0.000000 
#    y 0.000000 3.632110 0.000000 
#    z 0.000000 0.000000 3.665730 
# 
# 
# High freq. dielectric constant tensor:
#      x y z
#    x 1.812140 0.000000 0.000000 
#    y 0.000000 1.786670 0.000000 
#    z 0.000000 0.000000 1.797210 
# 
# From -- ./inp_files/26794.got.cif
#   From: 2010.06.25/outbox.cif.g09.slc.cpg/sg58_14_cif.got.tgz:26794.got - 2010.06.26 21:38:00.
