data_PCOD8238246
_publ_section_title
;
Structure prediction by ZEFSAII (Michael W. Deem and Ramdas Pophale) SiO2 
 PCOD8238246
Probable space group: P N N M
;
_chemical_formula_sum "Si O2"
_cell_formula_units_Z 64
_cell_length_a 8.972757
_cell_length_b 11.543726
_cell_length_c 30.924670
_cell_angle_alpha 90.000000
_cell_angle_beta 90.000000
_cell_angle_gamma 90.000000
_cell_volume 3203.147887
_symmetry_space_group_name_H-M "P N N M"
_symmetry_group_IT_number 58
_symmetry_cell_setting 'orthorhombic'
loop_
_space_group_symop_operation_xyz
x,y,z
-x,-y,z
1/2+x,1/2-y,1/2-z
1/2-x,1/2+y,1/2-z
-x,-y,-z
x,y,-z
1/2-x,1/2+y,1/2+z
1/2+x,1/2-y,1/2+z
loop_
_atom_site_type_symbol
_atom_site_label
_atom_site_fract_x
_atom_site_fract_y
_atom_site_fract_z
Si Si1 0.211665 0.404493 0.238901
Si Si2 0.268251 0.571537 0.685683
Si Si3 0.257810 0.217752 0.362495
Si Si4 0.638489 0.919160 0.047155
Si Si5 0.344196 0.440637 0.396858
Si Si6 0.965764 0.225978 0.783569
Si Si7 0.333373 0.475707 0.848487
Si Si8 0.419017 0.234850 0.870921
O O1 0.196348 0.510904 0.272401
O O2 0.361463 0.330710 0.247174
O O3 0.223401 0.458925 0.191600
O O4 0.065214 0.323755 0.239629
O O5 0.268095 0.472875 0.648887
O O6 0.431634 0.625189 0.695299
O O7 0.164386 0.674682 0.668990
O O8 0.341404 0.299073 0.398332
O O9 0.353693 0.220563 0.318798
O O10 0.091084 0.268131 0.357050
O O11 0.236358 0.082886 0.376374
O O12 0.608154 0.821869 0.082612
O O13 0.500000 0.000000 0.041662
O O14 0.767757 0.006174 0.061361
O O15 0.677936 0.863879 0.000000
O O16 0.500000 0.500000 0.396549
O O17 0.500000 0.500000 0.830830
O O18 0.345046 0.361282 0.877782
#
# Coordination Sequence:
#
# PCOD8238246 Si02
#       8
#     8   8   8   8   8   8   8   8
#     4  12  26  41  55  82 118 165 210 277 313 361
#     4  11  22  41  62  85 115 159 218 263 315 376
#     4  11  23  42  60  89 118 163 213 263 314 384
#     4  10  21  38  67 104 130 156 205 264 325 395
#     4  11  20  38  64  92 128 165 200 257 320 388
#     4  12  26  43  56  81 122 161 216 272 322 370
#     4  10  23  40  62  83 122 159 215 259 311 367
#     4  10  22  43  67  91 122 170 206 261 328 391
#
# _framework density 19.980345
#
# number of rings (size 3 to 8) (size 9 to 14) (size 15 to 20)
#    0.000    1.125    5.000    1.125    5.250    0.750 
#    4.500    0.000    0.000    4.125    0.000    0.875 
#    0.000    0.000    0.000    0.000    0.000    0.000 
#
# Total GULP energy -793206.311120 kJ/mol
# GULP energy per Si atom -12393.848611 kJ/mol
# Density = 1.993487 g / cm^3
# Si number density = 19.980345 Si / 1000 Ang^3
#
#
#
# Elastic Constant Matrix: (Units=GPa)
#
#
# Indices 1 2 3 4 5 6 
#
# 1 82.8610 63.3236 32.9865 0.0000 0.0000 0.0000
# 2 63.3236 156.6296 53.9840 0.0000 0.0000 0.0000
# 3 32.9865 53.9840 97.4588 0.0000 0.0000 0.0000
# 4 0.0000 0.0000 0.0000 17.9272 0.0000 0.0000
# 5 0.0000 0.0000 0.0000 0.0000 8.7974 0.0000
# 6 0.0000 0.0000 0.0000 0.0000 0.0000 35.8003
#
#
#
# Elastic Compliance Matrix: (Units=1/GPa)
#
#
# Indices 1 2 3 4 5 6 
#
# 1 0.017960 -0.006385 -0.002542 0.000000 0.000000 0.000000
# 2 -0.006385 0.010161 -0.003467 0.000000 0.000000 0.000000
# 3 -0.002542 -0.003467 0.013042 0.000000 0.000000 0.000000
# 4 0.000000 0.000000 0.000000 0.055781 0.000000 0.000000
# 5 0.000000 0.000000 0.000000 0.000000 0.113670 0.000000
# 6 0.000000 0.000000 0.000000 0.000000 0.000000 0.027933
#
#
# Mechanical properties :
#
#
# Convention : Reuss Voigt Hill
#
# Bulk Modulus (GPa) = 61.07226 70.83751 65.95488
# Shear Modulus (GPa) = 18.60174 24.94868 21.77521
#
# Velocity S-wave (km/s) = 3.05454 3.53747 3.30484
# Velocity P-wave (km/s) = 6.56299 7.22603 6.90248
#
# Compressibility (1/GPa) = 0.01637405
#
# Stress axis : x y z
#
# Youngs Moduli (GPa) = 55.68007 98.41766 76.67703
#
# Poissons Ratio (x) = 0.62837 0.19492
# Poissons Ratio (y) = 0.35550 0.26585
# Poissons Ratio (z) = 0.14155 0.34123
#
# Static dielectric constant tensor:
#      x y z
#    x 3.743880 0.000000 0.000000 
#    y 0.000000 3.975520 0.000000 
#    z 0.000000 0.000000 5.478180 
# 
# 
# High freq. dielectric constant tensor:
#      x y z
#    x 1.790710 0.000000 0.000000 
#    y 0.000000 1.794360 0.000000 
#    z 0.000000 0.000000 1.731150 
# 
# From -- ./inp_files/34767.got.cif
#   From: 2010.06.25/outbox.cif.g09.slc.cpg/sg58_18_cif.got.tgz:34767.got - 2010.06.26 21:38:00.
