data_PCOD8238270
_publ_section_title
;
Structure prediction by ZEFSAII (Michael W. Deem and Ramdas Pophale) SiO2 
 PCOD8238270
Probable space group: P N N M
;
_chemical_formula_sum "Si O2"
_cell_formula_units_Z 56
_cell_length_a 6.816179
_cell_length_b 30.354117
_cell_length_c 13.948682
_cell_angle_alpha 90.000000
_cell_angle_beta 90.000000
_cell_angle_gamma 90.000000
_cell_volume 2885.969680
_symmetry_space_group_name_H-M "P N N M"
_symmetry_group_IT_number 58
_symmetry_cell_setting 'orthorhombic'
loop_
_space_group_symop_operation_xyz
x,y,z
-x,-y,z
1/2+x,1/2-y,1/2-z
1/2-x,1/2+y,1/2-z
-x,-y,-z
x,y,-z
1/2-x,1/2+y,1/2+z
1/2+x,1/2-y,1/2+z
loop_
_atom_site_type_symbol
_atom_site_label
_atom_site_fract_x
_atom_site_fract_y
_atom_site_fract_z
Si Si1 0.618776 0.299612 0.761627
Si Si2 0.211626 0.100308 0.748091
Si Si3 0.556929 0.759965 0.390033
Si Si4 0.096774 0.453321 0.256539
Si Si5 0.945214 0.050202 0.888678
Si Si6 0.378958 0.422726 0.108605
Si Si7 0.221231 0.824816 0.394918
O O1 0.719673 0.346883 0.747357
O O2 0.577461 0.278134 0.657732
O O3 0.748991 0.267372 0.827314
O O4 0.411290 0.303585 0.813764
O O5 0.433581 0.083789 0.741305
O O6 0.107822 0.082106 0.843433
O O7 0.093789 0.082617 0.655211
O O8 0.607797 0.746477 0.500000
O O9 0.439484 0.805830 0.388050
O O10 0.229622 0.439318 0.347157
O O11 0.242701 0.457634 0.164911
O O12 0.000000 0.500000 0.276800
O O13 0.940486 0.060560 0.000000
O O14 0.000000 0.000000 0.865387
O O15 0.262018 0.377047 0.117486
O O16 0.406779 0.439057 0.000000
O O17 0.129452 0.814230 0.500000
#
# Coordination Sequence:
#
# PCOD8238270 Si02
#       7
#     8   8   8   8   8   8   8
#     4  11  21  38  60  83 120 155 188 243 295 340
#     4  10  22  38  60  85 118 152 195 242 293 343
#     4  11  22  36  59  87 114 152 197 235 289 356
#     4  11  21  36  58  86 116 150 194 244 290 351
#     4  10  21  39  62  85 113 153 197 242 294 356
#     4   9  20  36  56  83 116 153 193 238 287 342
#     4   9  18  36  58  82 111 149 197 236 279 347
#
# _framework density 19.404223999999999
#
# number of rings (size 3 to 8) (size 9 to 14) (size 15 to 20)
#    0.000    1.857    2.857    1.286    0.000    2.857 
#    0.000    0.714    0.000    0.000    0.000    0.000 
#    0.000    0.000    0.000    0.000    0.000    0.000 
#
# Total GULP energy -694454.774534 kJ/mol
# GULP energy per Si atom -12400.978117 kJ/mol
# Density = 1.936006 g / cm^3
# Si number density = 19.404224 Si / 1000 Ang^3
#
#
#
# Elastic Constant Matrix: (Units=GPa)
#
#
# Indices 1 2 3 4 5 6 
#
# 1 76.0144 16.8912 39.2802 0.0000 0.0000 0.0000
# 2 16.8912 48.6826 30.2720 0.0000 0.0000 0.0000
# 3 39.2802 30.2720 143.6708 0.0000 0.0000 0.0000
# 4 0.0000 0.0000 0.0000 26.9059 0.0000 0.0000
# 5 0.0000 0.0000 0.0000 0.0000 21.8452 0.0000
# 6 0.0000 0.0000 0.0000 0.0000 0.0000 32.2904
#
#
#
# Elastic Compliance Matrix: (Units=1/GPa)
#
#
# Indices 1 2 3 4 5 6 
#
# 1 0.015743 -0.003206 -0.003629 0.000000 0.000000 0.000000
# 2 -0.003206 0.024291 -0.004242 0.000000 0.000000 0.000000
# 3 -0.003629 -0.004242 0.008846 0.000000 0.000000 0.000000
# 4 0.000000 0.000000 0.000000 0.037167 0.000000 0.000000
# 5 0.000000 0.000000 0.000000 0.000000 0.045777 0.000000
# 6 0.000000 0.000000 0.000000 0.000000 0.000000 0.030969
#
#
# Mechanical properties :
#
#
# Convention : Reuss Voigt Hill
#
# Bulk Modulus (GPa) = 37.41437 49.02828 43.22133
# Shear Modulus (GPa) = 25.79258 28.33659 27.06459
#
# Velocity S-wave (km/s) = 3.64981 3.82557 3.73872
# Velocity P-wave (km/s) = 6.08974 6.69590 6.40000
#
# Compressibility (1/GPa) = 0.02672770
#
# Stress axis : x y z
#
# Youngs Moduli (GPa) = 63.52083 41.16726 113.04279
#
# Poissons Ratio (x) = 0.13197 0.41020
# Poissons Ratio (y) = 0.20364 0.47950
# Poissons Ratio (z) = 0.23050 0.17462
#
# Static dielectric constant tensor:
#      x y z
#    x 3.434140 0.000000 0.000000 
#    y 0.000000 3.435230 0.000000 
#    z 0.000000 0.000000 3.598060 
# 
# 
# High freq. dielectric constant tensor:
#      x y z
#    x 1.756450 0.000000 0.000000 
#    y 0.000000 1.746780 0.000000 
#    z 0.000000 0.000000 1.757650 
# 
# From -- ./inp_files/18719.got.cif
#   From: 2010.06.25/outbox.cif.g09.slc.cpg/sg58_10_cif.got.tgz:18719.got - 2010.06.26 21:38:00.
