data_PCOD8238970
_publ_section_title
;
Structure prediction by ZEFSAII (Michael W. Deem and Ramdas Pophale) SiO2 
 PCOD8238970
Probable space group: P N N M
;
_chemical_formula_sum "Si O2"
_cell_formula_units_Z 64
_cell_length_a 19.804975
_cell_length_b 19.451948
_cell_length_c 9.589147
_cell_angle_alpha 90.000000
_cell_angle_beta 90.000000
_cell_angle_gamma 90.000000
_cell_volume 3694.174233
_symmetry_space_group_name_H-M "P N N M"
_symmetry_group_IT_number 58
_symmetry_cell_setting 'orthorhombic'
loop_
_space_group_symop_operation_xyz
x,y,z
-x,-y,z
1/2+x,1/2-y,1/2-z
1/2-x,1/2+y,1/2-z
-x,-y,-z
x,y,-z
1/2-x,1/2+y,1/2+z
1/2+x,1/2-y,1/2+z
loop_
_atom_site_type_symbol
_atom_site_label
_atom_site_fract_x
_atom_site_fract_y
_atom_site_fract_z
Si Si1 0.495312 0.753658 0.339229
Si Si2 0.850143 0.954940 0.334767
Si Si3 0.633455 0.606320 0.162476
Si Si4 0.721085 0.875980 0.333860
Si Si5 0.397913 0.031822 0.665684
Si Si6 0.347870 0.262683 0.661617
Si Si7 0.478263 0.626125 0.838764
Si Si8 0.533548 0.098996 0.334962
O O1 0.480002 0.737379 0.500000
O O2 0.575489 0.762291 0.315408
O O3 0.463091 0.694353 0.247502
O O4 0.457241 0.822589 0.285866
O O5 0.846882 0.956596 0.500000
O O6 0.794048 0.901102 0.277399
O O7 0.924539 0.930753 0.287088
O O8 0.836223 0.033364 0.284365
O O9 0.666619 0.668411 0.249686
O O10 0.553429 0.599621 0.189814
O O11 0.648673 0.620179 0.000000
O O12 0.718633 0.876558 0.500000
O O13 0.668305 0.931893 0.271864
O O14 0.701487 0.798711 0.284510
O O15 0.395874 0.038203 0.500000
O O16 0.463651 0.069794 0.727057
O O17 0.403894 0.950696 0.709315
O O18 0.334370 0.279931 0.500000
O O19 0.467065 0.644030 0.000000
O O20 0.525496 0.098729 0.500000
#
# Coordination Sequence:
#
# PCOD8238970 Si02
#       8
#     8   8   8   8   8   8   8   8
#     4   9  15  25  42  66  92 113 137 175 220 262
#     4   9  17  29  45  62  82 113 151 186 215 250
#     4   9  17  30  48  67  86 111 146 185 220 253
#     4   9  15  25  42  64  88 113 146 181 212 254
#     4   8  12  19  34  58  85 112 139 171 210 250
#     4   9  16  27  45  68  89 111 140 176 215 259
#     4   9  17  29  45  64  85 112 147 186 223 254
#     4   8  12  19  34  58  88 113 135 169 213 252
#
# _framework density 17.324576
#
# number of rings (size 3 to 8) (size 9 to 14) (size 15 to 20)
#    0.000    3.250    1.250    1.125    0.000    1.500 
#    0.000    1.875    0.000    6.000    0.000    2.625 
#    0.000    0.000    0.000    0.000    0.000    0.000 
#
# Total GULP energy -792920.874465 kJ/mol
# GULP energy per Si atom -12389.388664 kJ/mol
# Density = 1.728514 g / cm^3
# Si number density = 17.324576 Si / 1000 Ang^3
#
#
#
# Elastic Constant Matrix: (Units=GPa)
#
#
# Indices 1 2 3 4 5 6 
#
# 1 58.6285 48.7457 14.6547 0.0000 0.0000 0.0000
# 2 48.7457 161.6789 38.0568 0.0000 0.0000 0.0000
# 3 14.6547 38.0568 26.9775 0.0000 0.0000 0.0000
# 4 0.0000 0.0000 0.0000 21.9683 0.0000 0.0000
# 5 0.0000 0.0000 0.0000 0.0000 8.8530 0.0000
# 6 0.0000 0.0000 0.0000 0.0000 0.0000 27.6351
#
#
#
# Elastic Compliance Matrix: (Units=1/GPa)
#
#
# Indices 1 2 3 4 5 6 
#
# 1 0.023057 -0.005994 -0.004070 0.000000 0.000000 0.000000
# 2 -0.005994 0.010818 -0.012005 0.000000 0.000000 0.000000
# 3 -0.004070 -0.012005 0.056214 0.000000 0.000000 0.000000
# 4 0.000000 0.000000 0.000000 0.045520 0.000000 0.000000
# 5 0.000000 0.000000 0.000000 0.000000 0.112956 0.000000
# 6 0.000000 0.000000 0.000000 0.000000 0.000000 0.036186
#
#
# Mechanical properties :
#
#
# Convention : Reuss Voigt Hill
#
# Bulk Modulus (GPa) = 21.76181 50.02215 35.89198
# Shear Modulus (GPa) = 14.52624 21.41313 17.96968
#
# Velocity S-wave (km/s) = 2.89879 3.51949 3.22411
# Velocity P-wave (km/s) = 4.87775 6.74181 5.88406
#
# Compressibility (1/GPa) = 0.04595206
#
# Stress axis : x y z
#
# Youngs Moduli (GPa) = 43.37036 92.43909 17.78926
#
# Poissons Ratio (x) = 0.55405 0.07240
# Poissons Ratio (y) = 0.25995 0.21356
# Poissons Ratio (z) = 0.17651 1.10971
#
# Static dielectric constant tensor:
#      x y z
#    x 3.196560 0.000000 0.000000 
#    y 0.000000 3.590680 0.000000 
#    z 0.000000 0.000000 2.717660 
# 
# 
# High freq. dielectric constant tensor:
#      x y z
#    x 1.645100 0.000000 0.000000 
#    y 0.000000 1.685600 0.000000 
#    z 0.000000 0.000000 1.604980 
# 
# From -- ./inp_files/17216.got.cif
#   From: 2010.06.25/outbox.cif.g09.slc.cpg/sg58_9_cif.got.tgz:17216.got - 2010.06.26 21:38:00.
