data_PCOD8238399
_publ_section_title
;
Structure prediction by ZEFSAII (Michael W. Deem and Ramdas Pophale) SiO2 
 PCOD8238399
Probable space group: P N N M
;
_chemical_formula_sum "Si O2"
_cell_formula_units_Z 48
_cell_length_a 8.710708
_cell_length_b 14.321768
_cell_length_c 18.718777
_cell_angle_alpha 90.000000
_cell_angle_beta 90.000000
_cell_angle_gamma 90.000000
_cell_volume 2335.218703
_symmetry_space_group_name_H-M "P N N M"
_symmetry_group_IT_number 58
_symmetry_cell_setting 'orthorhombic'
loop_
_space_group_symop_operation_xyz
x,y,z
-x,-y,z
1/2+x,1/2-y,1/2-z
1/2-x,1/2+y,1/2-z
-x,-y,-z
x,y,-z
1/2-x,1/2+y,1/2+z
1/2+x,1/2-y,1/2+z
loop_
_atom_site_type_symbol
_atom_site_label
_atom_site_fract_x
_atom_site_fract_y
_atom_site_fract_z
Si Si1 0.205771 0.162431 0.704670
Si Si2 0.161869 0.041615 0.919287
Si Si3 0.321521 0.998606 0.213876
Si Si4 0.675911 0.238978 0.579787
Si Si5 0.657254 0.671680 0.783327
Si Si6 0.089506 0.594154 0.918551
O O1 0.285095 0.262167 0.718931
O O2 0.262193 0.114314 0.630861
O O3 0.024378 0.170939 0.709892
O O4 0.257105 0.100639 0.770929
O O5 0.148285 0.152063 0.908799
O O6 0.289208 0.988761 0.870769
O O7 0.205037 0.014681 0.000000
O O8 0.000000 0.000000 0.895766
O O9 0.230271 0.927817 0.264627
O O10 0.500000 0.000000 0.231651
O O11 0.742107 0.219641 0.500000
O O12 0.793686 0.201999 0.637873
O O13 0.516607 0.184619 0.589407
O O14 0.000000 0.500000 0.893589
O O15 0.147004 0.580931 0.000000
#
# Coordination Sequence:
#
# PCOD8238399 Si02
#       6
#     8   8   8   8   8   8
#     4  12  24  41  62  93 129 166 212 263 316 377
#     4  10  22  41  65  94 128 170 214 259 320 381
#     4  12  25  42  65  94 127 166 212 267 319 378
#     4  10  21  41  66  94 132 171 211 262 318 379
#     4  12  25  40  65  95 129 170 212 262 320 377
#     4  10  22  41  66  94 128 170 212 260 320 383
#
# _framework density 20.554821
#
# number of rings (size 3 to 8) (size 9 to 14) (size 15 to 20)
#    0.000    1.000    1.667    6.000    2.333    1.000 
#    0.000    0.000    0.000    5.000    0.000    0.000 
#    0.000    0.000    0.000    0.000    0.000    0.000 
#
# Total GULP energy -595136.483296 kJ/mol
# GULP energy per Si atom -12398.676735 kJ/mol
# Density = 2.050804 g / cm^3
# Si number density = 20.554821 Si / 1000 Ang^3
#
#
#
# Elastic Constant Matrix: (Units=GPa)
#
#
# Indices 1 2 3 4 5 6 
#
# 1 164.2412 44.0228 66.1363 0.0000 0.0000 0.0000
# 2 44.0228 59.8598 21.4818 0.0000 0.0000 0.0000
# 3 66.1363 21.4818 116.3914 0.0000 0.0000 0.0000
# 4 0.0000 0.0000 0.0000 36.6739 0.0000 0.0000
# 5 0.0000 0.0000 0.0000 0.0000 46.3651 0.0000
# 6 0.0000 0.0000 0.0000 0.0000 0.0000 32.0695
#
#
#
# Elastic Compliance Matrix: (Units=1/GPa)
#
#
# Indices 1 2 3 4 5 6 
#
# 1 0.009212 -0.005244 -0.004267 0.000000 0.000000 0.000000
# 2 -0.005244 0.020876 -0.000873 0.000000 0.000000 0.000000
# 3 -0.004267 -0.000873 0.011177 0.000000 0.000000 0.000000
# 4 0.000000 0.000000 0.000000 0.027267 0.000000 0.000000
# 5 0.000000 0.000000 0.000000 0.000000 0.021568 0.000000
# 6 0.000000 0.000000 0.000000 0.000000 0.000000 0.031182
#
#
# Mechanical properties :
#
#
# Convention : Reuss Voigt Hill
#
# Bulk Modulus (GPa) = 48.78645 67.08600 57.93623
# Shear Modulus (GPa) = 33.58345 36.94516 35.26430
#
# Velocity S-wave (km/s) = 4.04647 4.24417 4.14650
# Velocity P-wave (km/s) = 6.75413 7.53165 7.15346
#
# Compressibility (1/GPa) = 0.02049749
#
# Stress axis : x y z
#
# Youngs Moduli (GPa) = 108.55068 47.90299 89.46642
#
# Poissons Ratio (x) = 0.25119 0.38174
# Poissons Ratio (y) = 0.56922 0.07813
# Poissons Ratio (z) = 0.46317 0.04183
#
# Static dielectric constant tensor:
#      x y z
#    x 3.467760 0.000000 0.000000 
#    y 0.000000 3.906570 0.000000 
#    z 0.000000 0.000000 4.016950 
# 
# 
# High freq. dielectric constant tensor:
#      x y z
#    x 1.787200 0.000000 0.000000 
#    y 0.000000 1.818880 0.000000 
#    z 0.000000 0.000000 1.823140 
# 
# From -- ./inp_files/25292.got.cif
#   From: 2010.06.25/outbox.cif.g09.slc.cpg/sg58_13_cif.got.tgz:25292.got - 2010.06.26 21:38:00.
