data_PCOD8238203
_publ_section_title
;
Structure prediction by ZEFSAII (Michael W. Deem and Ramdas Pophale) SiO2 
 PCOD8238203
Probable space group: P N N M
;
_chemical_formula_sum "Si O2"
_cell_formula_units_Z 64
_cell_length_a 24.467994
_cell_length_b 15.051736
_cell_length_c 8.852691
_cell_angle_alpha 90.000000
_cell_angle_beta 90.000000
_cell_angle_gamma 90.000000
_cell_volume 3260.320264
_symmetry_space_group_name_H-M "P N N M"
_symmetry_group_IT_number 58
_symmetry_cell_setting 'orthorhombic'
loop_
_space_group_symop_operation_xyz
x,y,z
-x,-y,z
1/2+x,1/2-y,1/2-z
1/2-x,1/2+y,1/2-z
-x,-y,-z
x,y,-z
1/2-x,1/2+y,1/2+z
1/2+x,1/2-y,1/2+z
loop_
_atom_site_type_symbol
_atom_site_label
_atom_site_fract_x
_atom_site_fract_y
_atom_site_fract_z
Si Si1 0.557034 0.181040 0.822250
Si Si2 0.441076 0.175754 0.325364
Si Si3 0.756034 0.733378 0.671447
Si Si4 0.609686 0.013199 0.326222
Si Si5 0.354719 0.302150 0.177055
Si Si6 0.138776 0.163281 0.677030
Si Si7 0.659443 0.513138 0.677954
Si Si8 0.782246 0.532684 0.328989
O O1 0.502419 0.191744 0.727054
O O2 0.587329 0.090132 0.780984
O O3 0.594474 0.264033 0.774840
O O4 0.544402 0.180354 0.000000
O O5 0.434617 0.202300 0.500000
O O6 0.402198 0.236333 0.225516
O O7 0.427158 0.072882 0.299714
O O8 0.736304 0.750360 0.500000
O O9 0.703421 0.740121 0.777474
O O10 0.800605 0.804877 0.724861
O O11 0.785909 0.638863 0.681617
O O12 0.607717 0.043963 0.500000
O O13 0.672097 0.990374 0.279846
O O14 0.365320 0.397610 0.252097
O O15 0.356130 0.315399 0.000000
O O16 0.136103 0.145299 0.500000
O O17 0.125716 0.071715 0.763546
O O18 0.654346 0.522627 0.500000
O O19 0.722682 0.501669 0.727460
O O20 0.793203 0.500615 0.500000
#
# Coordination Sequence:
#
# PCOD8238203 Si02
#       8
#     8   8   8   8   8   8   8   8
#     4  11  23  42  64  89 121 159 202 252 301 356
#     4  11  25  43  61  86 120 161 204 254 307 358
#     4   9  18  36  58  84 121 160 192 242 303 353
#     4  11  23  37  58  88 122 160 200 244 298 359
#     4  11  23  40  62  89 119 158 205 252 302 360
#     4  10  21  38  61  89 122 158 199 246 302 358
#     4  10  22  39  60  88 124 161 198 248 304 358
#     4   9  18  35  56  83 120 158 195 238 292 351
#
# _framework density 19.629974000000001
#
# number of rings (size 3 to 8) (size 9 to 14) (size 15 to 20)
#    0.000    1.750    1.250    3.750    1.750    7.500 
#    0.000    0.625    0.000    3.750    0.000    0.000 
#    0.000    0.000    0.000    0.000    0.000    0.000 
#
# Total GULP energy -793867.533616 kJ/mol
# GULP energy per Si atom -12404.180213 kJ/mol
# Density = 1.958530 g / cm^3
# Si number density = 19.629974 Si / 1000 Ang^3
#
#
#
# Elastic Constant Matrix: (Units=GPa)
#
#
# Indices 1 2 3 4 5 6 
#
# 1 79.9675 31.1701 31.1382 0.0000 0.0000 0.0000
# 2 31.1701 66.7706 30.1789 0.0000 0.0000 0.0000
# 3 31.1382 30.1789 69.5678 0.0000 0.0000 0.0000
# 4 0.0000 0.0000 0.0000 28.2431 0.0000 0.0000
# 5 0.0000 0.0000 0.0000 0.0000 32.4283 0.0000
# 6 0.0000 0.0000 0.0000 0.0000 0.0000 22.7734
#
#
#
# Elastic Compliance Matrix: (Units=1/GPa)
#
#
# Indices 1 2 3 4 5 6 
#
# 1 0.016606 -0.005464 -0.005062 0.000000 0.000000 0.000000
# 2 -0.005464 0.020427 -0.006416 0.000000 0.000000 0.000000
# 3 -0.005062 -0.006416 0.019424 0.000000 0.000000 0.000000
# 4 0.000000 0.000000 0.000000 0.035407 0.000000 0.000000
# 5 0.000000 0.000000 0.000000 0.000000 0.030837 0.000000
# 6 0.000000 0.000000 0.000000 0.000000 0.000000 0.043911
#
#
# Mechanical properties :
#
#
# Convention : Reuss Voigt Hill
#
# Bulk Modulus (GPa) = 44.30193 44.58670 44.44431
# Shear Modulus (GPa) = 24.03610 24.94356 24.48983
#
# Velocity S-wave (km/s) = 3.50302 3.56854 3.53593
# Velocity P-wave (km/s) = 6.24332 6.30414 6.27380
#
# Compressibility (1/GPa) = 0.02257238
#
# Stress axis : x y z
#
# Youngs Moduli (GPa) = 60.21871 48.95443 51.48376
#
# Poissons Ratio (x) = 0.26749 0.26064
# Poissons Ratio (y) = 0.32904 0.33031
# Poissons Ratio (z) = 0.30486 0.31408
#
# Static dielectric constant tensor:
#      x y z
#    x 3.586920 0.000000 0.000000 
#    y 0.000000 3.537350 0.000000 
#    z 0.000000 0.000000 3.521020 
# 
# 
# High freq. dielectric constant tensor:
#      x y z
#    x 1.757740 0.000000 0.000000 
#    y 0.000000 1.766040 0.000000 
#    z 0.000000 0.000000 1.768270 
# 
# From -- ./inp_files/10045.got.cif
#   From: 2010.06.25/outbox.cif.g09.slc.cpg/sg58_6_cif.got.tgz:10045.got - 2010.06.26 21:38:00.
