data_PCOD8238531
_publ_section_title
;
Structure prediction by ZEFSAII (Michael W. Deem and Ramdas Pophale) SiO2 
 PCOD8238531
Probable space group: P N N M
;
_chemical_formula_sum "Si O2"
_cell_formula_units_Z 48
_cell_length_a 9.505797
_cell_length_b 8.583170
_cell_length_c 27.463795
_cell_angle_alpha 90.000000
_cell_angle_beta 90.000000
_cell_angle_gamma 90.000000
_cell_volume 2240.767509
_symmetry_space_group_name_H-M "P N N M"
_symmetry_group_IT_number 58
_symmetry_cell_setting 'orthorhombic'
loop_
_space_group_symop_operation_xyz
x,y,z
-x,-y,z
1/2+x,1/2-y,1/2-z
1/2-x,1/2+y,1/2-z
-x,-y,-z
x,y,-z
1/2-x,1/2+y,1/2+z
1/2+x,1/2-y,1/2+z
loop_
_atom_site_type_symbol
_atom_site_label
_atom_site_fract_x
_atom_site_fract_y
_atom_site_fract_z
Si Si1 0.351462 0.940981 0.201453
Si Si2 0.320247 0.814917 0.555282
Si Si3 0.656741 0.972340 0.088297
Si Si4 0.084211 0.853702 0.090597
Si Si5 0.848432 0.924201 0.721646
Si Si6 0.148711 0.551916 0.138385
O O1 0.348195 0.759323 0.213521
O O2 0.500000 0.000000 0.221750
O O3 0.337038 0.983764 0.144883
O O4 0.227448 0.033722 0.228153
O O5 0.280991 0.856370 0.500000
O O6 0.199343 0.706037 0.578527
O O7 0.475575 0.736377 0.555497
O O8 0.321741 0.973556 0.586021
O O9 0.500000 0.000000 0.066922
O O10 0.776588 0.080803 0.062219
O O11 0.140984 0.739120 0.132709
O O12 0.000000 0.000000 0.114604
O O13 0.766988 0.000873 0.676097
O O14 0.000000 0.000000 0.722197
O O15 0.000000 0.500000 0.160408
#
# Coordination Sequence:
#
# PCOD8238531 Si02
#       6
#     8   8   8   8   8   8
#     4  11  25  45  65 101 133 177 218 269 326 398
#     4  10  23  40  65  95 128 172 221 274 329 391
#     4  10  22  40  67  92 133 170 215 266 330 392
#     4   9  19  39  62  92 120 166 213 265 322 386
#     4  12  26  42  70  99 136 175 219 270 329 392
#     4  10  22  40  64  93 131 170 217 270 331 388
#
# _framework density 21.421230000000001
#
# number of rings (size 3 to 8) (size 9 to 14) (size 15 to 20)
#    0.000    1.667    1.667    1.500    7.000    8.333 
#    3.000    0.000    0.000    1.500    0.000    0.000 
#    0.000    0.000    0.000    0.000    0.000    0.000 
#
# Total GULP energy -594977.575187 kJ/mol
# GULP energy per Si atom -12395.366150 kJ/mol
# Density = 2.137247 g / cm^3
# Si number density = 21.421230 Si / 1000 Ang^3
#
#
#
# Elastic Constant Matrix: (Units=GPa)
#
#
# Indices 1 2 3 4 5 6 
#
# 1 157.6485 38.2533 30.9906 0.0000 0.0000 0.0000
# 2 38.2533 99.7807 32.2207 0.0000 0.0000 0.0000
# 3 30.9906 32.2207 79.7160 0.0000 0.0000 0.0000
# 4 0.0000 0.0000 0.0000 21.0512 0.0000 0.0000
# 5 0.0000 0.0000 0.0000 0.0000 16.8878 0.0000
# 6 0.0000 0.0000 0.0000 0.0000 0.0000 33.2216
#
#
#
# Elastic Compliance Matrix: (Units=1/GPa)
#
#
# Indices 1 2 3 4 5 6 
#
# 1 0.007248 -0.002149 -0.001949 0.000000 0.000000 0.000000
# 2 -0.002149 0.012164 -0.004081 0.000000 0.000000 0.000000
# 3 -0.001949 -0.004081 0.014952 0.000000 0.000000 0.000000
# 4 0.000000 0.000000 0.000000 0.047503 0.000000 0.000000
# 5 0.000000 0.000000 0.000000 0.000000 0.059214 0.000000
# 6 0.000000 0.000000 0.000000 0.000000 0.000000 0.030101
#
#
# Mechanical properties :
#
#
# Convention : Reuss Voigt Hill
#
# Bulk Modulus (GPa) = 55.54035 60.00825 57.77430
# Shear Modulus (GPa) = 25.83422 29.94417 27.88920
#
# Velocity S-wave (km/s) = 3.47653 3.74287 3.61216
# Velocity P-wave (km/s) = 6.48838 6.83762 6.66529
#
# Compressibility (1/GPa) = 0.01800493
#
# Stress axis : x y z
#
# Youngs Moduli (GPa) = 137.97132 82.21139 66.88193
#
# Poissons Ratio (x) = 0.17670 0.13035
# Poissons Ratio (y) = 0.29654 0.27294
# Poissons Ratio (z) = 0.26890 0.33550
#
# Static dielectric constant tensor:
#      x y z
#    x 4.313990 0.000000 0.000000 
#    y 0.000000 4.022890 0.000000 
#    z 0.000000 0.000000 3.494540 
# 
# 
# High freq. dielectric constant tensor:
#      x y z
#    x 1.856060 0.000000 0.000000 
#    y 0.000000 1.849780 0.000000 
#    z 0.000000 0.000000 1.813470 
# 
# From -- ./inp_files/34566.got.cif
#   From: 2010.06.25/outbox.cif.g09.slc.cpg/sg58_18_cif.got.tgz:34566.got - 2010.06.26 21:38:00.
