data_PCOD8238192
_publ_section_title
;
Structure prediction by ZEFSAII (Michael W. Deem and Ramdas Pophale) SiO2 
 PCOD8238192
Probable space group: P N N M
;
_chemical_formula_sum "Si O2"
_cell_formula_units_Z 48
_cell_length_a 17.826416
_cell_length_b 16.297494
_cell_length_c 8.974303
_cell_angle_alpha 90.000000
_cell_angle_beta 90.000000
_cell_angle_gamma 90.000000
_cell_volume 2607.267526
_symmetry_space_group_name_H-M "P N N M"
_symmetry_group_IT_number 58
_symmetry_cell_setting 'orthorhombic'
loop_
_space_group_symop_operation_xyz
x,y,z
-x,-y,z
1/2+x,1/2-y,1/2-z
1/2-x,1/2+y,1/2-z
-x,-y,-z
x,y,-z
1/2-x,1/2+y,1/2+z
1/2+x,1/2-y,1/2+z
loop_
_atom_site_type_symbol
_atom_site_label
_atom_site_fract_x
_atom_site_fract_y
_atom_site_fract_z
Si Si1 0.912006 0.504610 0.327824
Si Si2 0.523053 0.408293 0.174678
Si Si3 0.094440 0.331868 0.170735
Si Si4 0.667137 0.337143 0.327403
Si Si5 0.947892 0.234995 0.172748
Si Si6 0.176268 0.638943 0.174173
O O1 0.891868 0.490642 0.500000
O O2 0.882181 0.593593 0.277207
O O3 0.872553 0.436817 0.228624
O O4 0.000000 0.500000 0.297070
O O5 0.500000 0.500000 0.217026
O O6 0.601975 0.389426 0.251135
O O7 0.457317 0.347758 0.232071
O O8 0.532548 0.395873 0.000000
O O9 0.154525 0.259727 0.196131
O O10 0.012365 0.299623 0.217478
O O11 0.094175 0.362086 0.000000
O O12 0.666951 0.360581 0.500000
O O13 0.745778 0.361632 0.258470
O O14 0.867838 0.276213 0.207694
O O15 0.957061 0.211313 0.000000
O O16 0.191070 0.628731 0.000000
#
# Coordination Sequence:
#
# PCOD8238192 Si02
#       6
#     8   8   8   8   8   8
#     4  11  22  34  55  88 119 150 189 232 281 337
#     4  10  21  38  61  87 113 149 194 237 283 338
#     4   9  18  36  58  80 109 149 188 226 278 337
#     4  10  22  40  60  84 115 151 190 237 291 338
#     4   9  19  35  58  84 110 147 188 230 282 336
#     4  11  22  38  59  84 117 153 190 235 290 342
#
# _framework density 18.410080000000001
#
# number of rings (size 3 to 8) (size 9 to 14) (size 15 to 20)
#    0.000    2.000    1.667    3.000    0.000    6.667 
#    3.000    0.000    0.000    0.000    0.000    0.000 
#    0.000    0.000    0.000    0.000    0.000    0.000 
#
# Total GULP energy -595350.972980 kJ/mol
# GULP energy per Si atom -12403.145270 kJ/mol
# Density = 1.836818 g / cm^3
# Si number density = 18.410080 Si / 1000 Ang^3
#
#
#
# Elastic Constant Matrix: (Units=GPa)
#
#
# Indices 1 2 3 4 5 6 
#
# 1 84.4436 45.0624 38.3932 0.0000 0.0000 0.0000
# 2 45.0624 121.2575 62.8665 0.0000 0.0000 0.0000
# 3 38.3932 62.8665 74.1371 0.0000 0.0000 0.0000
# 4 0.0000 0.0000 0.0000 33.2423 0.0000 0.0000
# 5 0.0000 0.0000 0.0000 0.0000 14.5010 0.0000
# 6 0.0000 0.0000 0.0000 0.0000 0.0000 18.1575
#
#
#
# Elastic Compliance Matrix: (Units=1/GPa)
#
#
# Indices 1 2 3 4 5 6 
#
# 1 0.016062 -0.002956 -0.005811 0.000000 0.000000 0.000000
# 2 -0.002956 0.015261 -0.011410 0.000000 0.000000 0.000000
# 3 -0.005811 -0.011410 0.026173 0.000000 0.000000 0.000000
# 4 0.000000 0.000000 0.000000 0.030082 0.000000 0.000000
# 5 0.000000 0.000000 0.000000 0.000000 0.068961 0.000000
# 6 0.000000 0.000000 0.000000 0.000000 0.000000 0.055074
#
#
# Mechanical properties :
#
#
# Convention : Reuss Voigt Hill
#
# Bulk Modulus (GPa) = 58.33800 63.60914 60.97357
# Shear Modulus (GPa) = 19.40379 22.08125 20.74252
#
# Velocity S-wave (km/s) = 3.25002 3.46701 3.36027
# Velocity P-wave (km/s) = 6.77055 7.11710 6.94599
#
# Compressibility (1/GPa) = 0.01714149
#
# Stress axis : x y z
#
# Youngs Moduli (GPa) = 62.25928 65.52582 38.20667
#
# Poissons Ratio (x) = 0.19371 0.22202
# Poissons Ratio (y) = 0.18405 0.43594
# Poissons Ratio (z) = 0.36180 0.74766
#
# Static dielectric constant tensor:
#      x y z
#    x 3.360800 0.000000 0.000000 
#    y 0.000000 3.394070 0.000000 
#    z 0.000000 0.000000 3.439540 
# 
# 
# High freq. dielectric constant tensor:
#      x y z
#    x 1.702590 0.000000 0.000000 
#    y 0.000000 1.715840 0.000000 
#    z 0.000000 0.000000 1.724670 
# 
# From -- ./inp_files/5764.got.cif
#   From: 2010.06.25/outbox.cif.g09.slc.cpg/sg58_3_cif.got.tgz:5764.got - 2010.06.26 21:38:00.
