data_PCOD8238983
_publ_section_title
;
Structure prediction by ZEFSAII (Michael W. Deem and Ramdas Pophale) SiO2 
 PCOD8238983
Probable space group: P N N M
;
_chemical_formula_sum "Si O2"
_cell_formula_units_Z 40
_cell_length_a 9.935522
_cell_length_b 29.243196
_cell_length_c 7.827804
_cell_angle_alpha 90.000000
_cell_angle_beta 90.000000
_cell_angle_gamma 90.000000
_cell_volume 2274.340407
_symmetry_space_group_name_H-M "P N N M"
_symmetry_group_IT_number 58
_symmetry_cell_setting 'orthorhombic'
loop_
_space_group_symop_operation_xyz
x,y,z
-x,-y,z
1/2+x,1/2-y,1/2-z
1/2-x,1/2+y,1/2-z
-x,-y,-z
x,y,-z
1/2-x,1/2+y,1/2+z
1/2+x,1/2-y,1/2+z
loop_
_atom_site_type_symbol
_atom_site_label
_atom_site_fract_x
_atom_site_fract_y
_atom_site_fract_z
Si Si1 0.363424 0.614882 0.311909
Si Si2 0.384329 0.718404 0.698310
Si Si3 0.671412 0.547621 0.000000
Si Si4 0.817424 0.108343 0.808403
Si Si5 0.350656 0.555518 0.000000
Si Si6 0.822195 0.207647 0.805275
O O1 0.305419 0.601976 0.500000
O O2 0.328234 0.667484 0.268465
O O3 0.522355 0.608602 0.314997
O O4 0.298464 0.582182 0.168546
O O5 0.379223 0.731545 0.500000
O O6 0.290054 0.753970 0.794772
O O7 0.535265 0.723181 0.778016
O O8 0.732756 0.570760 0.828551
O O9 0.511244 0.552887 0.000000
O O10 0.714459 0.494701 0.000000
O O11 0.770121 0.158336 0.736812
O O12 0.760731 0.097269 0.000000
O O13 0.860892 0.197223 0.000000
#
# Coordination Sequence:
#
# PCOD8238983 Si02
#       6
#     8   8   4   8   4   8
#     4   8  15  27  39  55  84 115 143 181 224 266
#     4   9  18  30  44  65  91 121 156 188 225 273
#     4   9  16  24  38  60  81 111 153 183 218 273
#     4   8  15  27  39  55  84 115 143 181 224 266
#     4   9  16  24  38  60  81 111 153 183 218 273
#     4   9  18  30  44  65  91 121 156 188 225 273
#
# _framework density 17.587516999999998
#
# number of rings (size 3 to 8) (size 9 to 14) (size 15 to 20)
#    0.000    3.400    0.000    2.400    2.800    1.600 
#    0.000    4.000    0.000    0.000    0.000    0.000 
#    0.000    3.200    0.000    8.800    0.000    8.800 
#
# Total GULP energy -495614.866671 kJ/mol
# GULP energy per Si atom -12390.371667 kJ/mol
# Density = 1.754749 g / cm^3
# Si number density = 17.587517 Si / 1000 Ang^3
#
#
#
# Elastic Constant Matrix: (Units=GPa)
#
#
# Indices 1 2 3 4 5 6 
#
# 1 -22.6293 -104.5338 -53.2239 0.0000 0.0000 0.0000
# 2 -104.5338 -209.7499 -106.4163 0.0000 0.0000 0.0000
# 3 -53.2239 -106.4163 14.3229 0.0000 0.0000 0.0000
# 4 0.0000 0.0000 0.0000 32.3880 0.0000 0.0000
# 5 0.0000 0.0000 0.0000 0.0000 10.0000 0.0000
# 6 0.0000 0.0000 0.0000 0.0000 0.0000 16.7749
#
#
#
# Elastic Compliance Matrix: (Units=1/GPa)
#
#
# Indices 1 2 3 4 5 6 
#
# 1 0.033936 -0.016960 0.000094 0.000000 0.000000 0.000000
# 2 -0.016960 0.007477 -0.007474 0.000000 0.000000 0.000000
# 3 0.000094 -0.007474 0.014639 0.000000 0.000000 0.000000
# 4 0.000000 0.000000 0.000000 0.030876 0.000000 0.000000
# 5 0.000000 0.000000 0.000000 0.000000 0.100000 0.000000
# 6 0.000000 0.000000 0.000000 0.000000 0.000000 0.059613
#
#
# Mechanical properties :
#
#
# Convention : Reuss Voigt Hill
#
# Bulk Modulus (GPa) = 135.66672 -82.93381 26.36646
# Shear Modulus (GPa) = 16.79666 14.90709 15.85187
#
# Velocity S-wave (km/s) = 3.09371 2.91451 3.00545
# Velocity P-wave (km/s) = 9.49036 5.99429 5.20267
#
# Compressibility (1/GPa) = 0.00737100
#
# Stress axis : x y z
#
# Youngs Moduli (GPa) = 29.46705 133.74638 68.31187
#
# Poissons Ratio (x) = 2.26840 -0.00641
# Poissons Ratio (y) = 0.49978 0.51054
# Poissons Ratio (z) = -0.00276 0.99958
#
# Static dielectric constant tensor:
#      x y z
#    x 2.582760 0.000000 0.000000 
#    y 0.000000 3.381460 0.000000 
#    z 0.000000 0.000000 3.513760 
# 
# 
# High freq. dielectric constant tensor:
#      x y z
#    x 1.597200 0.000000 0.000000 
#    y 0.000000 1.682570 0.000000 
#    z 0.000000 0.000000 1.688140 
# 
# From -- ./inp_files/2666.got.cif
#   From: 2010.06.25/outbox.cif.g09.slc.cpg/sg58_2_cif.got.tgz:2666.got - 2010.06.26 21:38:00.
