data_PCOD8238746
_publ_section_title
;
Structure prediction by ZEFSAII (Michael W. Deem and Ramdas Pophale) SiO2 
 PCOD8238746
Probable space group: P N N M
;
_chemical_formula_sum "Si O2"
_cell_formula_units_Z 64
_cell_length_a 13.097792
_cell_length_b 19.781141
_cell_length_c 14.042088
_cell_angle_alpha 90.000000
_cell_angle_beta 90.000000
_cell_angle_gamma 90.000000
_cell_volume 3638.154334
_symmetry_space_group_name_H-M "P N N M"
_symmetry_group_IT_number 58
_symmetry_cell_setting 'orthorhombic'
loop_
_space_group_symop_operation_xyz
x,y,z
-x,-y,z
1/2+x,1/2-y,1/2-z
1/2-x,1/2+y,1/2-z
-x,-y,-z
x,y,-z
1/2-x,1/2+y,1/2+z
1/2+x,1/2-y,1/2+z
loop_
_atom_site_type_symbol
_atom_site_label
_atom_site_fract_x
_atom_site_fract_y
_atom_site_fract_z
Si Si1 0.485697 0.305722 0.726920
Si Si2 0.257650 0.986559 0.891530
Si Si3 0.411527 0.551233 0.276544
Si Si4 0.698038 0.513701 0.108510
Si Si5 0.354558 0.812050 0.727106
Si Si6 0.339592 0.330479 0.891504
Si Si7 0.395199 0.964848 0.276582
Si Si8 0.792816 0.167230 0.108535
O O1 0.553609 0.372192 0.719139
O O2 0.558428 0.242473 0.711488
O O3 0.431126 0.299444 0.829486
O O4 0.401053 0.304651 0.644060
O O5 0.360342 0.988453 0.828793
O O6 0.204400 0.913644 0.879159
O O7 0.179034 0.042414 0.853144
O O8 0.287458 0.002542 0.000000
O O9 0.500000 0.500000 0.306507
O O10 0.372889 0.535719 0.169749
O O11 0.654027 0.588916 0.120635
O O12 0.813699 0.511167 0.145118
O O13 0.694461 0.488852 0.000000
O O14 0.269885 0.804121 0.644600
O O15 0.409385 0.884416 0.720452
O O16 0.299675 0.802279 0.829379
O O17 0.354216 0.307252 0.000000
O O18 0.500000 0.000000 0.304120
O O19 0.774995 0.189525 0.000000
#
# Coordination Sequence:
#
# PCOD8238746 Si02
#       8
#     8   8   8   8   8   8   8   8
#     4  11  20  33  53  78 104 138 170 209 257 305
#     4   9  18  33  53  77 104 133 169 212 253 301
#     4  11  18  31  51  79 109 132 167 204 253 310
#     4   9  18  33  53  77 104 133 169 212 253 301
#     4   9  20  36  53  72 102 138 169 208 259 302
#     4   9  18  35  55  73  99 138 175 204 249 311
#     4   9  18  36  57  74  97 134 177 215 254 302
#     4   9  18  35  55  73  99 138 175 204 249 311
#
# _framework density 17.591336999999999
#
# number of rings (size 3 to 8) (size 9 to 14) (size 15 to 20)
#    0.000    2.500    2.500    1.500    0.000    3.000 
#    9.000    0.000    0.000    0.000    0.000    0.000 
#    0.000    0.000    0.000    0.000    0.000    0.000 
#
# Total GULP energy -793665.827886 kJ/mol
# GULP energy per Si atom -12401.028561 kJ/mol
# Density = 1.755130 g / cm^3
# Si number density = 17.591337 Si / 1000 Ang^3
#
#
#
# Elastic Constant Matrix: (Units=GPa)
#
#
# Indices 1 2 3 4 5 6 
#
# 1 50.8619 28.0672 -23.7183 0.0000 0.0000 0.0000
# 2 28.0672 55.9438 -9.3485 0.0000 0.0000 0.0000
# 3 -23.7183 -9.3485 58.8105 0.0000 0.0000 0.0000
# 4 0.0000 0.0000 0.0000 14.0699 0.0000 0.0000
# 5 0.0000 0.0000 0.0000 0.0000 14.6715 0.0000
# 6 0.0000 0.0000 0.0000 0.0000 0.0000 30.3983
#
#
#
# Elastic Compliance Matrix: (Units=1/GPa)
#
#
# Indices 1 2 3 4 5 6 
#
# 1 0.032834 -0.014649 0.010913 0.000000 0.000000 0.000000
# 2 -0.014649 0.024899 -0.001950 0.000000 0.000000 0.000000
# 3 0.010913 -0.001950 0.021095 0.000000 0.000000 0.000000
# 4 0.000000 0.000000 0.000000 0.071074 0.000000 0.000000
# 5 0.000000 0.000000 0.000000 0.000000 0.068159 0.000000
# 6 0.000000 0.000000 0.000000 0.000000 0.000000 0.032897
#
#
# Mechanical properties :
#
#
# Convention : Reuss Voigt Hill
#
# Bulk Modulus (GPa) = 14.82448 17.29077 16.05762
# Shear Modulus (GPa) = 17.55521 23.20231 20.37876
#
# Velocity S-wave (km/s) = 3.16246 3.63569 3.40730
# Velocity P-wave (km/s) = 4.66693 5.24164 4.96262
#
# Compressibility (1/GPa) = 0.06745600
#
# Stress axis : x y z
#
# Youngs Moduli (GPa) = 30.45603 40.16256 47.40423
#
# Poissons Ratio (x) = 0.58835 -0.51734
# Poissons Ratio (y) = 0.44616 0.09245
# Poissons Ratio (z) = -0.33238 0.07832
#
# Static dielectric constant tensor:
#      x y z
#    x 3.134750 0.000000 0.000000 
#    y 0.000000 3.004370 0.000000 
#    z 0.000000 0.000000 3.407370 
# 
# 
# High freq. dielectric constant tensor:
#      x y z
#    x 1.678890 0.000000 0.000000 
#    y 0.000000 1.650520 0.000000 
#    z 0.000000 0.000000 1.686380 
# 
# From -- ./inp_files/21499.got.cif
#   From: 2010.06.25/outbox.cif.g09.slc.cpg/sg58_11_cif.got.tgz:21499.got - 2010.06.26 21:38:00.
