data_PCOD8238308
_publ_section_title
;
Structure prediction by ZEFSAII (Michael W. Deem and Ramdas Pophale) SiO2 
 PCOD8238308
Probable space group: P N N M
;
_chemical_formula_sum "Si O2"
_cell_formula_units_Z 36
_cell_length_a 12.093030
_cell_length_b 5.127399
_cell_length_c 23.326775
_cell_angle_alpha 90.000000
_cell_angle_beta 90.000000
_cell_angle_gamma 90.000000
_cell_volume 1446.395110
_symmetry_space_group_name_H-M "P N N M"
_symmetry_group_IT_number 58
_symmetry_cell_setting 'orthorhombic'
loop_
_space_group_symop_operation_xyz
x,y,z
-x,-y,z
1/2+x,1/2-y,1/2-z
1/2-x,1/2+y,1/2-z
-x,-y,-z
x,y,-z
1/2-x,1/2+y,1/2+z
1/2+x,1/2-y,1/2+z
loop_
_atom_site_type_symbol
_atom_site_label
_atom_site_fract_x
_atom_site_fract_y
_atom_site_fract_z
Si Si1 0.877059 0.983602 0.065929
Si Si2 0.774757 0.121555 0.782443
Si Si3 0.736385 0.500366 0.934084
Si Si4 0.000000 0.000000 0.252219
Si Si5 0.411218 0.805169 0.143304
O O1 0.798251 0.754116 0.091816
O O2 0.819676 0.261128 0.073009
O O3 0.891617 0.902912 0.000000
O O4 0.000000 0.000000 0.093881
O O5 0.756748 0.426851 0.768982
O O6 0.704959 0.051006 0.839619
O O7 0.905293 0.087327 0.792364
O O8 0.622289 0.436413 0.898336
O O9 0.699800 0.540779 0.000000
O O10 0.036740 0.229212 0.295277
O O11 0.500000 0.000000 0.112842
#
# Coordination Sequence:
#
# PCOD8238308 Si02
#       5
#     8   8   8   4   8
#     4   9  18  37  63  86 121 171 217 269 319 362
#     4  10  21  39  64  92 116 156 215 266 324 386
#     4  10  22  37  60  95 132 169 219 263 315 400
#     4  10  22  42  67  90 123 162 214 282 330 384
#     4  11  23  40  65  93 129 178 211 266 336 400
#
# _framework density 24.889467
#
# number of rings (size 3 to 8) (size 9 to 14) (size 15 to 20)
#    0.000    2.000    2.222    0.667    3.111    3.111 
#    2.000    0.556   19.556    0.000    0.000    0.000 
#    0.000    0.000    0.000    0.000    0.000    0.000 
#
# Total GULP energy -445993.884638 kJ/mol
# GULP energy per Si atom -12388.719018 kJ/mol
# Density = 2.483282 g / cm^3
# Si number density = 24.889467 Si / 1000 Ang^3
#
#
#
# Elastic Constant Matrix: (Units=GPa)
#
#
# Indices 1 2 3 4 5 6 
#
# 1 139.8195 34.7813 47.8030 0.0000 0.0000 0.0000
# 2 34.7813 123.3738 17.6585 0.0000 0.0000 0.0000
# 3 47.8030 17.6585 39.3873 0.0000 0.0000 0.0000
# 4 0.0000 0.0000 0.0000 24.6671 0.0000 0.0000
# 5 0.0000 0.0000 0.0000 0.0000 11.0583 0.0000
# 6 0.0000 0.0000 0.0000 0.0000 0.0000 44.4088
#
#
#
# Elastic Compliance Matrix: (Units=1/GPa)
#
#
# Indices 1 2 3 4 5 6 
#
# 1 0.012460 -0.001441 -0.014476 0.000000 0.000000 0.000000
# 2 -0.001441 0.008828 -0.002209 0.000000 0.000000 0.000000
# 3 -0.014476 -0.002209 0.043948 0.000000 0.000000 0.000000
# 4 0.000000 0.000000 0.000000 0.040540 0.000000 0.000000
# 5 0.000000 0.000000 0.000000 0.000000 0.090429 0.000000
# 6 0.000000 0.000000 0.000000 0.000000 0.000000 0.022518
#
#
# Mechanical properties :
#
#
# Convention : Reuss Voigt Hill
#
# Bulk Modulus (GPa) = 34.50183 55.89624 45.19904
# Shear Modulus (GPa) = 18.89387 29.51604 24.20496
#
# Velocity S-wave (km/s) = 2.75819 3.44740 3.12187
# Velocity P-wave (km/s) = 4.90261 6.19295 5.58517
#
# Compressibility (1/GPa) = 0.02898397
#
# Stress axis : x y z
#
# Youngs Moduli (GPa) = 80.25920 113.27833 22.75403
#
# Poissons Ratio (x) = 0.16319 0.32939
# Poissons Ratio (y) = 0.11563 0.05027
# Poissons Ratio (z) = 1.16183 0.25027
#
# Static dielectric constant tensor:
#      x y z
#    x 5.153690 0.000000 0.000000 
#    y 0.000000 4.280220 0.000000 
#    z 0.000000 0.000000 4.280250 
# 
# 
# High freq. dielectric constant tensor:
#      x y z
#    x 2.009310 0.000000 0.000000 
#    y 0.000000 1.988770 0.000000 
#    z 0.000000 0.000000 1.962100 
# 
# From -- ./inp_files/31791.got.cif
#   From: 2010.06.25/outbox.cif.g09.slc.cpg/sg58_16_cif.got.tgz:31791.got - 2010.06.26 21:38:00.
