data_PCOD8238320
_publ_section_title
;
Structure prediction by ZEFSAII (Michael W. Deem and Ramdas Pophale) SiO2 
 PCOD8238320
Probable space group: P N N M
;
_chemical_formula_sum "Si O2"
_cell_formula_units_Z 48
_cell_length_a 13.902313
_cell_length_b 14.403398
_cell_length_c 13.065926
_cell_angle_alpha 90.000000
_cell_angle_beta 90.000000
_cell_angle_gamma 90.000000
_cell_volume 2616.328173
_symmetry_space_group_name_H-M "P N N M"
_symmetry_group_IT_number 58
_symmetry_cell_setting 'orthorhombic'
loop_
_space_group_symop_operation_xyz
x,y,z
-x,-y,z
1/2+x,1/2-y,1/2-z
1/2-x,1/2+y,1/2-z
-x,-y,-z
x,y,-z
1/2-x,1/2+y,1/2+z
1/2+x,1/2-y,1/2+z
loop_
_atom_site_type_symbol
_atom_site_label
_atom_site_fract_x
_atom_site_fract_y
_atom_site_fract_z
Si Si1 0.710990 0.006029 0.725682
Si Si2 0.181714 0.832372 0.380024
Si Si3 0.927323 0.583464 0.385075
Si Si4 0.497859 0.254127 0.775677
Si Si5 0.131356 0.657875 0.120045
Si Si6 0.207518 0.180726 0.764335
O O1 0.775983 0.068583 0.652551
O O2 0.660574 0.074160 0.806429
O O3 0.634104 0.951174 0.653347
O O4 0.772559 0.928460 0.788848
O O5 0.162931 0.832993 0.500000
O O6 0.253910 0.747147 0.354605
O O7 0.080721 0.823741 0.321149
O O8 0.886305 0.586365 0.500000
O O9 0.984771 0.677109 0.362229
O O10 0.000000 0.500000 0.369843
O O11 0.460932 0.206402 0.671250
O O12 0.594585 0.309418 0.751670
O O13 0.230784 0.705692 0.161224
O O14 0.122588 0.670463 0.000000
#
# Coordination Sequence:
#
# PCOD8238320 Si02
#       6
#     8   8   8   8   8   8
#     4  10  21  40  57  89 122 154 204 247 301 366
#     4  11  22  39  64  92 123 159 203 255 307 356
#     4  11  20  36  61  85 115 156 202 253 305 354
#     4  11  21  39  57  92 119 155 205 249 295 365
#     4   9  20  38  59  84 121 158 196 247 302 356
#     4   9  22  39  59  83 128 155 196 248 303 363
#
# _framework density 18.346321
#
# number of rings (size 3 to 8) (size 9 to 14) (size 15 to 20)
#    1.000    0.833    3.333    1.000    0.000    4.667 
#    0.000    1.667    0.000    0.000    0.000    4.667 
#    0.000    0.000    0.000    0.000    0.000    0.000 
#
# Total GULP energy -594990.024947 kJ/mol
# GULP energy per Si atom -12395.625520 kJ/mol
# Density = 1.830456 g / cm^3
# Si number density = 18.346321 Si / 1000 Ang^3
#
#
#
# Elastic Constant Matrix: (Units=GPa)
#
#
# Indices 1 2 3 4 5 6 
#
# 1 88.5931 17.2339 45.9980 0.0000 0.0000 0.0000
# 2 17.2339 67.5232 19.7303 0.0000 0.0000 0.0000
# 3 45.9980 19.7303 102.1625 0.0000 0.0000 0.0000
# 4 0.0000 0.0000 0.0000 -11.8624 0.0000 0.0000
# 5 0.0000 0.0000 0.0000 0.0000 7.2552 0.0000
# 6 0.0000 0.0000 0.0000 0.0000 0.0000 30.4809
#
#
#
# Elastic Compliance Matrix: (Units=1/GPa)
#
#
# Indices 1 2 3 4 5 6 
#
# 1 0.014973 -0.001962 -0.006362 0.000000 0.000000 0.000000
# 2 -0.001962 0.015953 -0.002197 0.000000 0.000000 0.000000
# 3 -0.006362 -0.002197 0.013077 0.000000 0.000000 0.000000
# 4 0.000000 0.000000 0.000000 -0.084300 0.000000 0.000000
# 5 0.000000 0.000000 0.000000 0.000000 0.137832 0.000000
# 6 0.000000 0.000000 0.000000 0.000000 0.000000 0.032807
#
#
# Mechanical properties :
#
#
# Convention : Reuss Voigt Hill
#
# Bulk Modulus (GPa) = 43.55689 47.13368 45.34529
# Shear Modulus (GPa) = 31.43871 16.86251 24.15061
#
# Velocity S-wave (km/s) = 4.14409 3.03499 3.63212
# Velocity P-wave (km/s) = 6.83308 6.16672 6.50843
#
# Compressibility (1/GPa) = 0.02295848
#
# Stress axis : x y z
#
# Youngs Moduli (GPa) = 66.78840 62.68553 76.46837
#
# Poissons Ratio (x) = 0.12301 0.48652
# Poissons Ratio (y) = 0.13106 0.16803
# Poissons Ratio (z) = 0.42493 0.13774
#
# Static dielectric constant tensor:
#      x y z
#    x 3.270740 0.000000 0.000000 
#    y 0.000000 3.338810 0.000000 
#    z 0.000000 0.000000 3.171920 
# 
# 
# High freq. dielectric constant tensor:
#      x y z
#    x 1.705200 0.000000 0.000000 
#    y 0.000000 1.710050 0.000000 
#    z 0.000000 0.000000 1.699800 
# 
# From -- ./inp_files/15601.got.cif
#   From: 2010.06.25/outbox.cif.g09.slc.cpg/sg58_8_cif.got.tgz:15601.got - 2010.06.26 21:38:00.
