data_PCOD8238397
_publ_section_title
;
Structure prediction by ZEFSAII (Michael W. Deem and Ramdas Pophale) SiO2 
 PCOD8238397
Probable space group: P N N M
;
_chemical_formula_sum "Si O2"
_cell_formula_units_Z 64
_cell_length_a 10.969391
_cell_length_b 12.177569
_cell_length_c 23.399976
_cell_angle_alpha 90.000000
_cell_angle_beta 90.000000
_cell_angle_gamma 90.000000
_cell_volume 3125.780864
_symmetry_space_group_name_H-M "P N N M"
_symmetry_group_IT_number 58
_symmetry_cell_setting 'orthorhombic'
loop_
_space_group_symop_operation_xyz
x,y,z
-x,-y,z
1/2+x,1/2-y,1/2-z
1/2-x,1/2+y,1/2-z
-x,-y,-z
x,y,-z
1/2-x,1/2+y,1/2+z
1/2+x,1/2-y,1/2+z
loop_
_atom_site_type_symbol
_atom_site_label
_atom_site_fract_x
_atom_site_fract_y
_atom_site_fract_z
Si Si1 0.479199 0.127471 0.564064
Si Si2 0.256281 0.750900 0.934915
Si Si3 0.703725 0.876634 0.156128
Si Si4 0.823814 0.577995 0.733694
Si Si5 0.913328 0.717058 0.826075
Si Si6 0.857745 0.015264 0.933322
Si Si7 0.457219 0.761928 0.152554
Si Si8 0.951558 0.118704 0.751852
O O1 0.513458 0.168081 0.500000
O O2 0.337356 0.151337 0.576582
O O3 0.565018 0.192749 0.607549
O O4 0.500000 0.000000 0.571418
O O5 0.381101 0.722925 0.902163
O O6 0.185117 0.862321 0.917936
O O7 0.297519 0.757493 0.000000
O O8 0.785620 0.779815 0.181651
O O9 0.774781 0.935919 0.104989
O O10 0.578324 0.826073 0.132255
O O11 0.669537 0.953780 0.210476
O O12 0.908978 0.603363 0.789131
O O13 0.864962 0.656179 0.683038
O O14 0.691099 0.610402 0.754584
O O15 0.020135 0.794400 0.801839
O O16 0.837364 0.986829 0.000000
O O17 0.000000 0.000000 0.916874
O O18 0.489227 0.657749 0.192092
O O19 0.000000 0.000000 0.770238
#
# Coordination Sequence:
#
# PCOD8238397 Si02
#       8
#     8   8   8   8   8   8   8   8
#     4  10  23  44  69  98 127 163 217 274 323 377
#     4  10  21  41  66  93 130 170 212 268 329 392
#     4  12  23  39  62  91 135 167 211 270 318 391
#     4  11  23  40  58  88 128 168 210 264 323 382
#     4  11  24  38  64  94 123 166 214 263 326 379
#     4  10  22  38  63  97 128 168 216 265 327 383
#     4  11  24  41  60  94 129 169 218 256 325 402
#     4  11  23  41  63  88 123 168 214 268 318 384
#
# _framework density 20.474883999999999
#
# number of rings (size 3 to 8) (size 9 to 14) (size 15 to 20)
#    0.000    1.250    3.750    1.875    1.750    5.000 
#    0.000    1.250    0.000    0.750    0.000    0.000 
#    0.000    0.000    0.000    0.000    0.000    0.000 
#
# Total GULP energy -793583.881112 kJ/mol
# GULP energy per Si atom -12399.748142 kJ/mol
# Density = 2.042828 g / cm^3
# Si number density = 20.474884 Si / 1000 Ang^3
#
#
#
# Elastic Constant Matrix: (Units=GPa)
#
#
# Indices 1 2 3 4 5 6 
#
# 1 75.5943 34.8714 33.9287 0.0000 0.0000 0.0000
# 2 34.8714 84.2284 45.4948 0.0000 0.0000 0.0000
# 3 33.9287 45.4948 105.7310 0.0000 0.0000 0.0000
# 4 0.0000 0.0000 0.0000 28.6170 0.0000 0.0000
# 5 0.0000 0.0000 0.0000 0.0000 31.1432 0.0000
# 6 0.0000 0.0000 0.0000 0.0000 0.0000 33.2710
#
#
#
# Elastic Compliance Matrix: (Units=1/GPa)
#
#
# Indices 1 2 3 4 5 6 
#
# 1 0.017138 -0.005374 -0.003187 0.000000 0.000000 0.000000
# 2 -0.005374 0.017152 -0.005656 0.000000 0.000000 0.000000
# 3 -0.003187 -0.005656 0.012914 0.000000 0.000000 0.000000
# 4 0.000000 0.000000 0.000000 0.034944 0.000000 0.000000
# 5 0.000000 0.000000 0.000000 0.000000 0.032110 0.000000
# 6 0.000000 0.000000 0.000000 0.000000 0.000000 0.030056
#
#
# Mechanical properties :
#
#
# Convention : Reuss Voigt Hill
#
# Bulk Modulus (GPa) = 53.27457 54.90484 54.08971
# Shear Modulus (GPa) = 27.93208 28.69017 28.31112
#
# Velocity S-wave (km/s) = 3.69753 3.74737 3.72253
# Velocity P-wave (km/s) = 6.65620 6.75260 6.70457
#
# Compressibility (1/GPa) = 0.01877068
#
# Stress axis : x y z
#
# Youngs Moduli (GPa) = 58.35016 58.30132 77.43255
#
# Poissons Ratio (x) = 0.31329 0.24680
# Poissons Ratio (y) = 0.31356 0.43796
# Poissons Ratio (z) = 0.18598 0.32975
#
# Static dielectric constant tensor:
#      x y z
#    x 3.487940 0.000000 0.000000 
#    y 0.000000 4.795650 0.000000 
#    z 0.000000 0.000000 3.755680 
# 
# 
# High freq. dielectric constant tensor:
#      x y z
#    x 1.804670 0.000000 0.000000 
#    y 0.000000 1.797780 0.000000 
#    z 0.000000 0.000000 1.800900 
# 
# From -- ./inp_files/32065.got.cif
#   From: 2010.06.25/outbox.cif.g09.slc.cpg/sg58_17_cif.got.tgz:32065.got - 2010.06.26 21:38:00.
