data_PCOD8238590
_publ_section_title
;
Structure prediction by ZEFSAII (Michael W. Deem and Ramdas Pophale) SiO2 
 PCOD8238590
Probable space group: P N N M
;
_chemical_formula_sum "Si O2"
_cell_formula_units_Z 48
_cell_length_a 9.762978
_cell_length_b 26.677936
_cell_length_c 8.967052
_cell_angle_alpha 90.000000
_cell_angle_beta 90.000000
_cell_angle_gamma 90.000000
_cell_volume 2335.523413
_symmetry_space_group_name_H-M "P N N M"
_symmetry_group_IT_number 58
_symmetry_cell_setting 'orthorhombic'
loop_
_space_group_symop_operation_xyz
x,y,z
-x,-y,z
1/2+x,1/2-y,1/2-z
1/2-x,1/2+y,1/2-z
-x,-y,-z
x,y,-z
1/2-x,1/2+y,1/2+z
1/2+x,1/2-y,1/2+z
loop_
_atom_site_type_symbol
_atom_site_label
_atom_site_fract_x
_atom_site_fract_y
_atom_site_fract_z
Si Si1 0.756838 0.536325 0.175010
Si Si2 0.018088 0.381478 0.826795
Si Si3 0.432138 0.301131 0.172864
Si Si4 0.130227 0.272675 0.171427
Si Si5 0.279199 0.066696 0.174331
Si Si6 0.971683 0.094857 0.825349
O O1 0.812688 0.484069 0.237605
O O2 0.612859 0.549687 0.251525
O O3 0.866377 0.578601 0.216245
O O4 0.733462 0.531764 0.000000
O O5 0.884231 0.390774 0.727660
O O6 0.074447 0.327093 0.784992
O O7 0.978887 0.385595 0.000000
O O8 0.292755 0.270189 0.200688
O O9 0.560998 0.268742 0.225127
O O10 0.421667 0.352455 0.262222
O O11 0.449018 0.314853 0.000000
O O12 0.096375 0.260003 0.000000
O O13 0.129554 0.086823 0.214544
O O14 0.296309 0.056494 0.000000
O O15 0.944164 0.093612 0.000000
#
# Coordination Sequence:
#
# PCOD8238590 Si02
#       6
#     8   8   8   8   8   8
#     4  11  22  41  66  92 122 163 211 257 307 368
#     4  10  22  42  64  89 124 163 205 255 306 362
#     4  11  24  43  67  94 124 161 207 253 307 370
#     4  10  23  44  65  92 127 159 201 256 308 364
#     4  11  25  40  59  93 129 164 206 255 306 366
#     4  11  24  42  63  90 128 165 204 256 310 362
#
# _framework density 20.552139
#
# number of rings (size 3 to 8) (size 9 to 14) (size 15 to 20)
#    0.000    1.333    1.667    3.000    2.333   10.000 
#    0.000    0.000    0.000    0.000    0.000    0.000 
#    0.000    0.000    0.000    0.000    0.000    0.000 
#
# Total GULP energy -595591.240417 kJ/mol
# GULP energy per Si atom -12408.150842 kJ/mol
# Density = 2.050536 g / cm^3
# Si number density = 20.552139 Si / 1000 Ang^3
#
#
#
# Elastic Constant Matrix: (Units=GPa)
#
#
# Indices 1 2 3 4 5 6 
#
# 1 71.6578 -3.7705 35.6156 0.0000 0.0000 0.0000
# 2 -3.7705 49.5553 7.9723 0.0000 0.0000 0.0000
# 3 35.6156 7.9723 63.3794 0.0000 0.0000 0.0000
# 4 0.0000 0.0000 0.0000 13.0563 0.0000 0.0000
# 5 0.0000 0.0000 0.0000 0.0000 33.2764 0.0000
# 6 0.0000 0.0000 0.0000 0.0000 0.0000 36.6292
#
#
#
# Elastic Compliance Matrix: (Units=1/GPa)
#
#
# Indices 1 2 3 4 5 6 
#
# 1 0.019904 0.003382 -0.011610 0.000000 0.000000 0.000000
# 2 0.003382 0.021171 -0.004564 0.000000 0.000000 0.000000
# 3 -0.011610 -0.004564 0.022876 0.000000 0.000000 0.000000
# 4 0.000000 0.000000 0.000000 0.076592 0.000000 0.000000
# 5 0.000000 0.000000 0.000000 0.000000 0.030051 0.000000
# 6 0.000000 0.000000 0.000000 0.000000 0.000000 0.027301
#
#
# Mechanical properties :
#
#
# Convention : Reuss Voigt Hill
#
# Bulk Modulus (GPa) = 26.06354 29.35858 27.71106
# Shear Modulus (GPa) = 21.16250 26.24404 23.70327
#
# Velocity S-wave (km/s) = 3.21237 3.57732 3.39975
# Velocity P-wave (km/s) = 5.14474 5.60169 5.37807
#
# Compressibility (1/GPa) = 0.03836778
#
# Stress axis : x y z
#
# Youngs Moduli (GPa) = 50.24189 47.23445 43.71335
#
# Poissons Ratio (x) = -0.15976 0.50752
# Poissons Ratio (y) = -0.16993 0.19949
# Poissons Ratio (z) = 0.58332 0.21556
#
# Static dielectric constant tensor:
#      x y z
#    x 3.845640 0.000000 0.000000 
#    y 0.000000 3.748860 0.000000 
#    z 0.000000 0.000000 3.704250 
# 
# 
# High freq. dielectric constant tensor:
#      x y z
#    x 1.815800 0.000000 0.000000 
#    y 0.000000 1.808970 0.000000 
#    z 0.000000 0.000000 1.807760 
# 
# From -- ./inp_files/3012.got.cif
#   From: 2010.06.25/outbox.cif.g09.slc.cpg/sg58_2_cif.got.tgz:3012.got - 2010.06.26 21:38:00.
