data_PCOD8238768
_publ_section_title
;
Structure prediction by ZEFSAII (Michael W. Deem and Ramdas Pophale) SiO2 
 PCOD8238768
Probable space group: P N N M
;
_chemical_formula_sum "Si O2"
_cell_formula_units_Z 56
_cell_length_a 9.324303
_cell_length_b 16.112666
_cell_length_c 18.663858
_cell_angle_alpha 90.000000
_cell_angle_beta 90.000000
_cell_angle_gamma 90.000000
_cell_volume 2804.046453
_symmetry_space_group_name_H-M "P N N M"
_symmetry_group_IT_number 58
_symmetry_cell_setting 'orthorhombic'
loop_
_space_group_symop_operation_xyz
x,y,z
-x,-y,z
1/2+x,1/2-y,1/2-z
1/2-x,1/2+y,1/2-z
-x,-y,-z
x,y,-z
1/2-x,1/2+y,1/2+z
1/2+x,1/2-y,1/2+z
loop_
_atom_site_type_symbol
_atom_site_label
_atom_site_fract_x
_atom_site_fract_y
_atom_site_fract_z
Si Si1 0.658858 0.488881 0.667676
Si Si2 0.120637 0.642653 0.331408
Si Si3 0.690879 0.162877 0.858259
Si Si4 0.219719 0.815517 0.708050
Si Si5 0.057319 0.081353 0.316175
Si Si6 0.999275 0.597139 0.175530
Si Si7 0.770928 0.324692 0.081358
O O1 0.500000 0.500000 0.633268
O O2 0.766013 0.421296 0.632197
O O3 0.731490 0.576609 0.655407
O O4 0.648770 0.457576 0.750148
O O5 0.195870 0.731745 0.336059
O O6 0.975085 0.645631 0.378051
O O7 0.074582 0.617047 0.251042
O O8 0.712299 0.213028 0.783811
O O9 0.759882 0.223704 0.917473
O O10 0.334890 0.873963 0.669255
O O11 0.070087 0.863928 0.717805
O O12 0.144752 0.136579 0.371028
O O13 0.000000 0.000000 0.358787
O O14 0.000000 0.500000 0.160939
O O15 0.077934 0.645106 0.111604
O O16 0.755141 0.354858 0.000000
#
# Coordination Sequence:
#
# PCOD8238768 Si02
#       7
#     8   8   8   8   8   8   8
#     4  11  21  33  63  97 126 146 192 266 323 366
#     4  11  21  34  59  98 124 153 194 263 326 365
#     4  11  21  38  59  92 126 159 196 253 326 361
#     4  11  20  34  62  93 123 151 197 273 318 359
#     4  11  20  39  60  95 121 157 205 254 319 359
#     4  11  23  38  58  88 126 161 205 253 317 364
#     4  12  26  42  60  86 129 176 213 242 291 385
#
# _framework density 19.971138
#
# number of rings (size 3 to 8) (size 9 to 14) (size 15 to 20)
#    0.000    0.857    7.143    3.000    4.000    0.571 
#    0.000    0.714    0.000    2.143    0.000    0.000 
#    0.000    0.000    0.000    0.000    0.000    0.000 
#
# Total GULP energy -694011.276599 kJ/mol
# GULP energy per Si atom -12393.058511 kJ/mol
# Density = 1.992568 g / cm^3
# Si number density = 19.971138 Si / 1000 Ang^3
#
#
#
# Elastic Constant Matrix: (Units=GPa)
#
#
# Indices 1 2 3 4 5 6 
#
# 1 108.8515 39.5295 6.4516 0.0000 0.0000 0.0000
# 2 39.5295 131.1270 5.2380 0.0000 0.0000 0.0000
# 3 6.4516 5.2380 33.6097 0.0000 0.0000 0.0000
# 4 0.0000 0.0000 0.0000 12.0578 0.0000 0.0000
# 5 0.0000 0.0000 0.0000 0.0000 4.2873 0.0000
# 6 0.0000 0.0000 0.0000 0.0000 0.0000 45.5959
#
#
#
# Elastic Compliance Matrix: (Units=1/GPa)
#
#
# Indices 1 2 3 4 5 6 
#
# 1 0.010392 -0.003072 -0.001516 0.000000 0.000000 0.000000
# 2 -0.003072 0.008582 -0.000748 0.000000 0.000000 0.000000
# 3 -0.001516 -0.000748 0.030161 0.000000 0.000000 0.000000
# 4 0.000000 0.000000 0.000000 0.082934 0.000000 0.000000
# 5 0.000000 0.000000 0.000000 0.000000 0.233250 0.000000
# 6 0.000000 0.000000 0.000000 0.000000 0.000000 0.021932
#
#
# Mechanical properties :
#
#
# Convention : Reuss Voigt Hill
#
# Bulk Modulus (GPa) = 25.99888 41.78072 33.88980
# Shear Modulus (GPa) = 12.17302 27.21280 19.69291
#
# Velocity S-wave (km/s) = 2.47155 3.69535 3.14358
# Velocity P-wave (km/s) = 4.60339 6.25887 5.49385
#
# Compressibility (1/GPa) = 0.03846319
#
# Stress axis : x y z
#
# Youngs Moduli (GPa) = 96.22413 116.51960 33.15551
#
# Poissons Ratio (x) = 0.35799 0.05027
# Poissons Ratio (y) = 0.29563 0.02479
# Poissons Ratio (z) = 0.14588 0.08713
#
# Static dielectric constant tensor:
#      x y z
#    x 4.056040 0.000000 0.000000 
#    y 0.000000 3.939290 0.000000 
#    z 0.000000 0.000000 2.983690 
# 
# 
# High freq. dielectric constant tensor:
#      x y z
#    x 1.802950 0.000000 0.000000 
#    y 0.000000 1.806790 0.000000 
#    z 0.000000 0.000000 1.693460 
# 
# From -- ./inp_files/28945.got.cif
#   From: 2010.06.25/outbox.cif.g09.slc.cpg/sg58_15_cif.got.tgz:28945.got - 2010.06.26 21:38:00.
