data_PCOD8238568
_publ_section_title
;
Structure prediction by ZEFSAII (Michael W. Deem and Ramdas Pophale) SiO2 
 PCOD8238568
Probable space group: P N N M
;
_chemical_formula_sum "Si O2"
_cell_formula_units_Z 56
_cell_length_a 20.928647
_cell_length_b 14.733442
_cell_length_c 8.735830
_cell_angle_alpha 90.000000
_cell_angle_beta 90.000000
_cell_angle_gamma 90.000000
_cell_volume 2693.701975
_symmetry_space_group_name_H-M "P N N M"
_symmetry_group_IT_number 58
_symmetry_cell_setting 'orthorhombic'
loop_
_space_group_symop_operation_xyz
x,y,z
-x,-y,z
1/2+x,1/2-y,1/2-z
1/2-x,1/2+y,1/2-z
-x,-y,-z
x,y,-z
1/2-x,1/2+y,1/2+z
1/2+x,1/2-y,1/2+z
loop_
_atom_site_type_symbol
_atom_site_label
_atom_site_fract_x
_atom_site_fract_y
_atom_site_fract_z
Si Si1 0.265368 0.491540 0.828655
Si Si2 0.628588 0.069116 0.328155
Si Si3 0.527228 0.739149 0.320071
Si Si4 0.445809 0.074389 0.828793
Si Si5 0.397871 0.746984 0.820202
Si Si6 0.842030 0.178842 0.680781
Si Si7 0.733458 0.319319 0.679414
O O1 0.204769 0.424191 0.832844
O O2 0.320941 0.423304 0.773238
O O3 0.253806 0.575095 0.714959
O O4 0.278910 0.529429 0.000000
O O5 0.600147 0.078729 0.500000
O O6 0.599645 0.146840 0.221382
O O7 0.614123 0.970640 0.256281
O O8 0.525308 0.727692 0.500000
O O9 0.530436 0.843757 0.273519
O O10 0.460919 0.698736 0.251415
O O11 0.589062 0.688270 0.256588
O O12 0.500000 0.000000 0.837912
O O13 0.426332 0.107620 0.000000
O O14 0.333290 0.703863 0.758374
O O15 0.401363 0.734811 0.000000
O O16 0.848695 0.189134 0.500000
O O17 0.791974 0.256265 0.740630
O O18 0.724911 0.304385 0.500000
#
# Coordination Sequence:
#
# PCOD8238568 Si02
#       7
#     8   8   8   8   8   8   8
#     4  10  22  41  64  93 126 163 207 259 315 375
#     4  11  21  37  61  90 123 160 204 257 314 371
#     4  12  25  40  61  90 126 166 211 266 319 373
#     4  11  22  35  54  85 122 162 203 246 306 381
#     4  12  24  40  63  90 124 167 210 255 313 379
#     4  10  22  43  66  91 130 171 208 257 320 381
#     4  11  23  42  67  96 128 167 212 264 314 372
#
# _framework density 20.789234
#
# number of rings (size 3 to 8) (size 9 to 14) (size 15 to 20)
#    0.000    1.000    2.857    4.714    0.000    5.714 
#    0.000    0.714    0.000    4.286    0.000    0.000 
#    0.000    0.000    0.000    0.000    0.000    0.000 
#
# Total GULP energy -694405.373815 kJ/mol
# GULP energy per Si atom -12400.095961 kJ/mol
# Density = 2.074192 g / cm^3
# Si number density = 20.789234 Si / 1000 Ang^3
#
#
#
# Elastic Constant Matrix: (Units=GPa)
#
#
# Indices 1 2 3 4 5 6 
#
# 1 124.3171 13.4336 47.5049 0.0000 0.0000 0.0000
# 2 13.4336 50.5747 21.1052 0.0000 0.0000 0.0000
# 3 47.5049 21.1052 109.7758 0.0000 0.0000 0.0000
# 4 0.0000 0.0000 0.0000 33.3241 0.0000 0.0000
# 5 0.0000 0.0000 0.0000 0.0000 35.1424 0.0000
# 6 0.0000 0.0000 0.0000 0.0000 0.0000 31.2519
#
#
#
# Elastic Compliance Matrix: (Units=1/GPa)
#
#
# Indices 1 2 3 4 5 6 
#
# 1 0.009675 -0.000894 -0.004015 0.000000 0.000000 0.000000
# 2 -0.000894 0.021580 -0.003762 0.000000 0.000000 0.000000
# 3 -0.004015 -0.003762 0.011570 0.000000 0.000000 0.000000
# 4 0.000000 0.000000 0.000000 0.030008 0.000000 0.000000
# 5 0.000000 0.000000 0.000000 0.000000 0.028456 0.000000
# 6 0.000000 0.000000 0.000000 0.000000 0.000000 0.031998
#
#
# Mechanical properties :
#
#
# Convention : Reuss Voigt Hill
#
# Bulk Modulus (GPa) = 39.24200 49.86167 44.55184
# Shear Modulus (GPa) = 31.42217 33.45195 32.43706
#
# Velocity S-wave (km/s) = 3.89197 4.01571 3.95433
# Velocity P-wave (km/s) = 6.25409 6.74816 6.50582
#
# Compressibility (1/GPa) = 0.02548290
#
# Stress axis : x y z
#
# Youngs Moduli (GPa) = 103.36202 46.33886 86.42984
#
# Poissons Ratio (x) = 0.04145 0.34699
# Poissons Ratio (y) = 0.09245 0.32514
# Poissons Ratio (z) = 0.41497 0.17432
#
# Static dielectric constant tensor:
#      x y z
#    x 4.074410 0.000000 0.000000 
#    y 0.000000 3.643700 0.000000 
#    z 0.000000 0.000000 3.809260 
# 
# 
# High freq. dielectric constant tensor:
#      x y z
#    x 1.828960 0.000000 0.000000 
#    y 0.000000 1.793850 0.000000 
#    z 0.000000 0.000000 1.815320 
# 
# From -- ./inp_files/8981.got.cif
#   From: 2010.06.25/outbox.cif.g09.slc.cpg/sg58_5_cif.got.tgz:8981.got - 2010.06.26 21:38:00.
