data_PCOD8238313
_publ_section_title
;
Structure prediction by ZEFSAII (Michael W. Deem and Ramdas Pophale) SiO2 
 PCOD8238313
Probable space group: P N N M
;
_chemical_formula_sum "Si O2"
_cell_formula_units_Z 56
_cell_length_a 20.451673
_cell_length_b 9.803594
_cell_length_c 14.978720
_cell_angle_alpha 90.000000
_cell_angle_beta 90.000000
_cell_angle_gamma 90.000000
_cell_volume 3003.231843
_symmetry_space_group_name_H-M "P N N M"
_symmetry_group_IT_number 58
_symmetry_cell_setting 'orthorhombic'
loop_
_space_group_symop_operation_xyz
x,y,z
-x,-y,z
1/2+x,1/2-y,1/2-z
1/2-x,1/2+y,1/2-z
-x,-y,-z
x,y,-z
1/2-x,1/2+y,1/2+z
1/2+x,1/2-y,1/2+z
loop_
_atom_site_type_symbol
_atom_site_label
_atom_site_fract_x
_atom_site_fract_y
_atom_site_fract_z
Si Si1 0.509199 0.844552 0.219141
Si Si2 0.452510 0.378480 0.904516
Si Si3 0.934708 0.170866 0.000000
Si Si4 0.087020 0.126208 0.000000
Si Si5 0.631420 0.768606 0.330178
Si Si6 0.710401 0.018544 0.608319
Si Si7 0.339704 0.480424 0.217236
Si Si8 0.878814 0.749668 0.183442
O O1 0.506938 0.752025 0.130787
O O2 0.582751 0.832751 0.257451
O O3 0.450857 0.795807 0.284638
O O4 0.500000 0.000000 0.190445
O O5 0.500000 0.500000 0.925459
O O6 0.405348 0.433500 0.829201
O O7 0.418975 0.338943 0.000000
O O8 0.916977 0.252674 0.087357
O O9 0.010604 0.146050 0.000000
O O10 0.894232 0.031550 0.000000
O O11 0.118645 0.189885 0.085884
O O12 0.688402 0.868334 0.362729
O O13 0.667662 0.629231 0.298083
O O14 0.705729 0.040619 0.500000
O O15 0.784240 0.033284 0.642308
O O16 0.667994 0.120507 0.669733
O O17 0.346518 0.635831 0.252286
#
# Coordination Sequence:
#
# PCOD8238313 Si02
#       8
#     8   8   4   4   8   8   8   8
#     4  11  22  37  61  92 125 153 192 248 310 357
#     4  10  21  39  65  90 112 151 204 255 291 339
#     4  11  20  33  59  95 125 151 191 242 305 360
#     4  11  22  33  61  95 129 151 187 248 301 362
#     4  11  22  37  61  88 122 157 197 247 295 360
#     4  12  25  40  60  85 122 165 197 245 298 351
#     4  11  24  41  61  85 120 158 211 240 291 355
#     4  12  22  39  61  91 121 160 196 242 302 361
#
# _framework density 18.64658
#
# number of rings (size 3 to 8) (size 9 to 14) (size 15 to 20)
#    0.000    0.857    7.143    1.286    0.000    0.286 
#    0.000    2.143    0.000    0.000    0.000    0.000 
#    0.000    0.000    0.000    0.000    0.000    0.000 
#
# Total GULP energy -693978.832920 kJ/mol
# GULP energy per Si atom -12392.479159 kJ/mol
# Density = 1.860414 g / cm^3
# Si number density = 18.646580 Si / 1000 Ang^3
#
#
#
# Elastic Constant Matrix: (Units=GPa)
#
#
# Indices 1 2 3 4 5 6 
#
# 1 60.3665 18.0253 14.6320 0.0000 0.0000 0.0000
# 2 18.0253 94.8983 29.1369 0.0000 0.0000 0.0000
# 3 14.6320 29.1369 96.5057 0.0000 0.0000 0.0000
# 4 0.0000 0.0000 0.0000 45.3928 0.0000 0.0000
# 5 0.0000 0.0000 0.0000 0.0000 35.0347 0.0000
# 6 0.0000 0.0000 0.0000 0.0000 0.0000 25.7372
#
#
#
# Elastic Compliance Matrix: (Units=1/GPa)
#
#
# Indices 1 2 3 4 5 6 
#
# 1 0.017858 -0.002822 -0.001855 0.000000 0.000000 0.000000
# 2 -0.002822 0.012060 -0.003213 0.000000 0.000000 0.000000
# 3 -0.001855 -0.003213 0.011614 0.000000 0.000000 0.000000
# 4 0.000000 0.000000 0.000000 0.022030 0.000000 0.000000
# 5 0.000000 0.000000 0.000000 0.000000 0.028543 0.000000
# 6 0.000000 0.000000 0.000000 0.000000 0.000000 0.038854
#
#
# Mechanical properties :
#
#
# Convention : Reuss Voigt Hill
#
# Bulk Modulus (GPa) = 38.83555 41.70653 40.27104
# Shear Modulus (GPa) = 32.19066 33.89801 33.04434
#
# Velocity S-wave (km/s) = 4.15945 4.26833 4.21425
# Velocity P-wave (km/s) = 6.62876 6.83425 6.73229
#
# Compressibility (1/GPa) = 0.02574960
#
# Stress axis : x y z
#
# Youngs Moduli (GPa) = 55.99745 82.91685 86.10621
#
# Poissons Ratio (x) = 0.23402 0.15977
# Poissons Ratio (y) = 0.15804 0.27669
# Poissons Ratio (z) = 0.10390 0.26644
#
# Static dielectric constant tensor:
#      x y z
#    x 3.228990 0.000000 0.000000 
#    y 0.000000 3.740530 0.000000 
#    z 0.000000 0.000000 3.550810 
# 
# 
# High freq. dielectric constant tensor:
#      x y z
#    x 1.711680 0.000000 0.000000 
#    y 0.000000 1.735210 0.000000 
#    z 0.000000 0.000000 1.729810 
# 
# From -- ./inp_files/20161.got.cif
#   From: 2010.06.25/outbox.cif.g09.slc.cpg/sg58_11_cif.got.tgz:20161.got - 2010.06.26 21:38:00.
