data_PCOD8238781
_publ_section_title
;
Structure prediction by ZEFSAII (Michael W. Deem and Ramdas Pophale) SiO2 
 PCOD8238781
Probable space group: P N N M
;
_chemical_formula_sum "Si O2"
_cell_formula_units_Z 64
_cell_length_a 24.643451
_cell_length_b 9.963925
_cell_length_c 13.710592
_cell_angle_alpha 90.000000
_cell_angle_beta 90.000000
_cell_angle_gamma 90.000000
_cell_volume 3366.574134
_symmetry_space_group_name_H-M "P N N M"
_symmetry_group_IT_number 58
_symmetry_cell_setting 'orthorhombic'
loop_
_space_group_symop_operation_xyz
x,y,z
-x,-y,z
1/2+x,1/2-y,1/2-z
1/2-x,1/2+y,1/2-z
-x,-y,-z
x,y,-z
1/2-x,1/2+y,1/2+z
1/2+x,1/2-y,1/2+z
loop_
_atom_site_type_symbol
_atom_site_label
_atom_site_fract_x
_atom_site_fract_y
_atom_site_fract_z
Si Si1 0.619640 0.041268 0.306316
Si Si2 0.345495 0.077191 0.106759
Si Si3 0.849399 0.116907 0.605754
Si Si4 0.265186 0.896292 0.335445
Si Si5 0.946951 0.784690 0.115847
Si Si6 0.929812 0.277618 0.886293
Si Si7 0.730317 0.406514 0.329383
Si Si8 0.880042 0.018472 0.189577
O O1 0.633484 0.023425 0.190969
O O2 0.675865 0.048160 0.369702
O O3 0.587467 0.177852 0.322971
O O4 0.582011 0.921287 0.340621
O O5 0.364681 0.228779 0.131821
O O6 0.279792 0.075905 0.095516
O O7 0.368140 0.032811 0.000000
O O8 0.874996 0.076566 0.500000
O O9 0.783867 0.107714 0.587339
O O10 0.872017 0.021451 0.692241
O O11 0.274585 0.746909 0.292553
O O12 0.242231 0.996977 0.258139
O O13 0.009541 0.764123 0.141261
O O14 0.931870 0.931220 0.157359
O O15 0.935879 0.772767 0.000000
O O16 0.887290 0.170060 0.845965
O O17 0.921896 0.290802 0.000000
O O18 0.671437 0.454178 0.368355
#
# Coordination Sequence:
#
# PCOD8238781 Si02
#       8
#     8   8   8   8   8   8   8   8
#     4  11  20  38  60  84 115 151 192 238 287 344
#     4   9  18  34  58  86 117 154 189 222 272 342
#     4   9  18  34  58  86 117 154 189 222 272 342
#     4   9  18  32  55  83 115 151 188 225 268 330
#     4  11  24  40  60  83 111 147 192 248 302 347
#     4  11  24  40  58  83 111 147 196 244 296 347
#     4   9  18  32  55  83 115 151 188 225 268 330
#     4  11  20  38  60  84 115 151 192 238 287 344
#
# _framework density 19.010424
#
# number of rings (size 3 to 8) (size 9 to 14) (size 15 to 20)
#    0.000    2.000    2.500    1.500    1.750    4.000 
#    0.000    0.625    0.000    4.500    0.000    0.000 
#    0.000    0.000    0.000    0.000    0.000    0.000 
#
# Total GULP energy -792872.200950 kJ/mol
# GULP energy per Si atom -12388.628140 kJ/mol
# Density = 1.896716 g / cm^3
# Si number density = 19.010424 Si / 1000 Ang^3
#
#
#
# Elastic Constant Matrix: (Units=GPa)
#
#
# Indices 1 2 3 4 5 6 
#
# 1 60.4364 15.8838 26.7828 0.0000 0.0000 0.0000
# 2 15.8838 58.9907 22.5426 0.0000 0.0000 0.0000
# 3 26.7828 22.5426 84.8645 0.0000 0.0000 0.0000
# 4 0.0000 0.0000 0.0000 13.8556 0.0000 0.0000
# 5 0.0000 0.0000 0.0000 0.0000 196.9256 0.0000
# 6 0.0000 0.0000 0.0000 0.0000 0.0000 36.2773
#
#
#
# Elastic Compliance Matrix: (Units=1/GPa)
#
#
# Indices 1 2 3 4 5 6 
#
# 1 0.019789 -0.003274 -0.005376 0.000000 0.000000 0.000000
# 2 -0.003274 0.019409 -0.004122 0.000000 0.000000 0.000000
# 3 -0.005376 -0.004122 0.014575 0.000000 0.000000 0.000000
# 4 0.000000 0.000000 0.000000 0.072173 0.000000 0.000000
# 5 0.000000 0.000000 0.000000 0.000000 0.005078 0.000000
# 6 0.000000 0.000000 0.000000 0.000000 0.000000 0.027565
#
#
# Mechanical properties :
#
#
# Convention : Reuss Voigt Hill
#
# Bulk Modulus (GPa) = 35.42491 37.19002 36.30746
# Shear Modulus (GPa) = 25.83403 58.68384 42.25894
#
# Velocity S-wave (km/s) = 3.69038 5.56204 4.71992
# Velocity P-wave (km/s) = 6.06906 7.80089 6.98882
#
# Compressibility (1/GPa) = 0.02822872
#
# Stress axis : x y z
#
# Youngs Moduli (GPa) = 50.53294 51.52325 68.61062
#
# Poissons Ratio (x) = 0.16870 0.36882
# Poissons Ratio (y) = 0.16545 0.28283
# Poissons Ratio (z) = 0.27165 0.21239
#
# Static dielectric constant tensor:
#      x y z
#    x 5.070080 0.000000 0.000000 
#    y 0.000000 3.568010 0.000000 
#    z 0.000000 0.000000 3.286310 
# 
# 
# High freq. dielectric constant tensor:
#      x y z
#    x 1.734190 0.000000 0.000000 
#    y 0.000000 1.743790 0.000000 
#    z 0.000000 0.000000 1.720850 
# 
# From -- ./inp_files/23560.got.cif
#   From: 2010.06.25/outbox.cif.g09.slc.cpg/sg58_12_cif.got.tgz:23560.got - 2010.06.26 21:38:00.
