data_PCOD8238726
_publ_section_title
;
Structure prediction by ZEFSAII (Michael W. Deem and Ramdas Pophale) SiO2 
 PCOD8238726
Probable space group: P N N M
;
_chemical_formula_sum "Si O2"
_cell_formula_units_Z 64
_cell_length_a 32.753799
_cell_length_b 10.570451
_cell_length_c 8.682435
_cell_angle_alpha 90.000000
_cell_angle_beta 90.000000
_cell_angle_gamma 90.000000
_cell_volume 3006.053721
_symmetry_space_group_name_H-M "P N N M"
_symmetry_group_IT_number 58
_symmetry_cell_setting 'orthorhombic'
loop_
_space_group_symop_operation_xyz
x,y,z
-x,-y,z
1/2+x,1/2-y,1/2-z
1/2-x,1/2+y,1/2-z
-x,-y,-z
x,y,-z
1/2-x,1/2+y,1/2+z
1/2+x,1/2-y,1/2+z
loop_
_atom_site_type_symbol
_atom_site_label
_atom_site_fract_x
_atom_site_fract_y
_atom_site_fract_z
Si Si1 0.073760 0.753358 0.321567
Si Si2 0.287818 0.977184 0.318855
Si Si3 0.199458 0.984444 0.817954
Si Si4 0.452635 0.494067 0.323576
Si Si5 0.506290 0.144006 0.667623
Si Si6 0.168834 0.237469 0.677216
Si Si7 0.159046 0.718558 0.181427
Si Si8 0.076622 0.236641 0.674458
O O1 0.070347 0.723058 0.500000
O O2 0.034436 0.701021 0.236581
O O3 0.115572 0.693419 0.260062
O O4 0.073143 0.902522 0.287239
O O5 0.292003 0.957841 0.500000
O O6 0.241429 0.998465 0.272639
O O7 0.312089 0.102835 0.265247
O O8 0.302905 0.849446 0.238242
O O9 0.172877 0.106875 0.771912
O O10 0.177609 0.853869 0.765687
O O11 0.207352 0.983812 0.000000
O O12 0.500000 0.500000 0.274968
O O13 0.447146 0.451501 0.500000
O O14 0.432433 0.628639 0.297641
O O15 0.514391 0.209951 0.500000
O O16 0.544675 0.153623 0.783159
O O17 0.500000 0.000000 0.636571
O O18 0.180377 0.210580 0.500000
O O19 0.122495 0.286478 0.694942
O O20 0.152649 0.718213 0.000000
O O21 0.068966 0.190152 0.500000
#
# Coordination Sequence:
#
# PCOD8238726 Si02
#       8
#     8   8   8   8   8   8   8   8
#     4  12  25  40  64  94 127 165 210 265 320 372
#     4  11  24  43  70 100 132 173 216 266 327 392
#     4  11  23  43  71 100 132 171 214 267 329 392
#     4  11  22  38  62  89 120 162 209 257 313 375
#     4  11  25  43  63  87 122 170 216 261 314 378
#     4  11  25  43  64  97 137 173 217 270 323 387
#     4  10  24  44  66  96 133 172 216 266 323 392
#     4  11  24  41  64  94 128 165 211 267 318 370
#
# _framework density 21.290371
#
# number of rings (size 3 to 8) (size 9 to 14) (size 15 to 20)
#    0.000    1.000    1.250    4.875    1.750    8.500 
#    0.000    0.000    0.000    0.000    0.000    0.000 
#    0.000    0.000    0.000    0.000    0.000    0.000 
#
# Total GULP energy -793756.476024 kJ/mol
# GULP energy per Si atom -12402.444938 kJ/mol
# Density = 2.124191 g / cm^3
# Si number density = 21.290371 Si / 1000 Ang^3
#
#
#
# Elastic Constant Matrix: (Units=GPa)
#
#
# Indices 1 2 3 4 5 6 
#
# 1 103.1598 8.8946 30.0051 0.0000 0.0000 0.0000
# 2 8.8946 85.5341 19.4872 0.0000 0.0000 0.0000
# 3 30.0051 19.4872 71.8112 0.0000 0.0000 0.0000
# 4 0.0000 0.0000 0.0000 26.8398 0.0000 0.0000
# 5 0.0000 0.0000 0.0000 0.0000 32.1137 0.0000
# 6 0.0000 0.0000 0.0000 0.0000 0.0000 14.1518
#
#
#
# Elastic Compliance Matrix: (Units=1/GPa)
#
#
# Indices 1 2 3 4 5 6 
#
# 1 0.011036 -0.000103 -0.004583 0.000000 0.000000 0.000000
# 2 -0.000103 0.012463 -0.003339 0.000000 0.000000 0.000000
# 3 -0.004583 -0.003339 0.016746 0.000000 0.000000 0.000000
# 4 0.000000 0.000000 0.000000 0.037258 0.000000 0.000000
# 5 0.000000 0.000000 0.000000 0.000000 0.031139 0.000000
# 6 0.000000 0.000000 0.000000 0.000000 0.000000 0.070662
#
#
# Mechanical properties :
#
#
# Convention : Reuss Voigt Hill
#
# Bulk Modulus (GPa) = 41.33201 41.91987 41.62594
# Shear Modulus (GPa) = 24.57972 28.09558 26.33765
#
# Velocity S-wave (km/s) = 3.40148 3.63662 3.52101
# Velocity P-wave (km/s) = 5.90613 6.11275 6.01033
#
# Compressibility (1/GPa) = 0.02419432
#
# Stress axis : x y z
#
# Youngs Moduli (GPa) = 90.61561 80.23961 59.71446
#
# Poissons Ratio (x) = 0.00830 0.27367
# Poissons Ratio (y) = 0.00937 0.19937
# Poissons Ratio (z) = 0.41529 0.26790
#
# Static dielectric constant tensor:
#      x y z
#    x 4.363990 0.000000 0.000000 
#    y 0.000000 3.253190 0.000000 
#    z 0.000000 0.000000 3.861580 
# 
# 
# High freq. dielectric constant tensor:
#      x y z
#    x 1.846170 0.000000 0.000000 
#    y 0.000000 1.840000 0.000000 
#    z 0.000000 0.000000 1.842130 
# 
# From -- ./inp_files/10981.got.cif
#   From: 2010.06.25/outbox.cif.g09.slc.cpg/sg58_6_cif.got.tgz:10981.got - 2010.06.26 21:38:00.
