data_PCOD8238030
_publ_section_title
;
Structure prediction by ZEFSAII (Michael W. Deem and Ramdas Pophale) SiO2 
 PCOD8238030
Probable space group: P N N M
;
_chemical_formula_sum "Si O2"
_cell_formula_units_Z 28
_cell_length_a 22.229456
_cell_length_b 9.416396
_cell_length_c 7.496281
_cell_angle_alpha 90.000000
_cell_angle_beta 90.000000
_cell_angle_gamma 90.000000
_cell_volume 1569.131738
_symmetry_space_group_name_H-M "P N N M"
_symmetry_group_IT_number 58
_symmetry_cell_setting 'orthorhombic'
loop_
_space_group_symop_operation_xyz
x,y,z
-x,-y,z
1/2+x,1/2-y,1/2-z
1/2-x,1/2+y,1/2-z
-x,-y,-z
x,y,-z
1/2-x,1/2+y,1/2+z
1/2+x,1/2-y,1/2+z
loop_
_atom_site_type_symbol
_atom_site_label
_atom_site_fract_x
_atom_site_fract_y
_atom_site_fract_z
Si Si1 0.882949 0.229230 0.000000
Si Si2 0.647127 0.035628 0.500000
Si Si3 0.142969 0.241097 0.303424
Si Si4 0.744504 0.821122 0.500000
Si Si5 0.430417 0.470508 0.206028
O O1 0.897134 0.398716 0.000000
O O2 0.911245 0.164228 0.178107
O O3 0.810220 0.207072 0.000000
O O4 0.634127 0.126299 0.324581
O O5 0.716505 0.980402 0.500000
O O6 0.116721 0.281484 0.500000
O O7 0.213892 0.200375 0.323716
O O8 0.106902 0.106735 0.225993
O O9 0.500000 0.500000 0.237913
O O10 0.415807 0.436666 0.000000
#
# Coordination Sequence:
#
# PCOD8238030 Si02
#       5
#     4   4   8   4   8
#     4  10  22  34  56  88 116 144 196 231 292 344
#     4  10  21  37  55  87 115 150 185 238 301 338
#     4   9  20  37  56  81 116 148 194 237 285 346
#     4   8  22  33  53  86 111 148 187 224 301 338
#     4  10  21  39  62  84 112 158 200 235 278 340
#
# _framework density 17.844263000000002
#
# number of rings (size 3 to 8) (size 9 to 14) (size 15 to 20)
#    1.714    0.857    0.000    1.286    4.000    1.143 
#    2.571    2.857    0.000    5.143    0.000    0.000 
#    0.000    0.000    0.000    0.000    0.000    0.000 
#
# Total GULP energy -346967.296835 kJ/mol
# GULP energy per Si atom -12391.689173 kJ/mol
# Density = 1.780365 g / cm^3
# Si number density = 17.844263 Si / 1000 Ang^3
#
#
#
# Elastic Constant Matrix: (Units=GPa)
#
#
# Indices 1 2 3 4 5 6 
#
# 1 74.4874 22.0462 20.8604 0.0000 0.0000 0.0000
# 2 22.0462 119.3762 63.9970 0.0000 0.0000 0.0000
# 3 20.8604 63.9970 92.9789 0.0000 0.0000 0.0000
# 4 0.0000 0.0000 0.0000 23.9336 0.0000 0.0000
# 5 0.0000 0.0000 0.0000 0.0000 -0.2285 0.0000
# 6 0.0000 0.0000 0.0000 0.0000 0.0000 31.3746
#
#
#
# Elastic Compliance Matrix: (Units=1/GPa)
#
#
# Indices 1 2 3 4 5 6 
#
# 1 0.014488 -0.001479 -0.002233 0.000000 0.000000 0.000000
# 2 -0.001479 0.013426 -0.008910 0.000000 0.000000 0.000000
# 3 -0.002233 -0.008910 0.017388 0.000000 0.000000 0.000000
# 4 0.000000 0.000000 0.000000 0.041782 0.000000 0.000000
# 5 0.000000 0.000000 0.000000 0.000000 -4.377228 0.000000
# 6 0.000000 0.000000 0.000000 0.000000 0.000000 0.031873
#
#
# Mechanical properties :
#
#
# Convention : Reuss Voigt Hill
#
# Bulk Modulus (GPa) = 49.84813 55.62775 52.73794
# Shear Modulus (GPa) = -1.18306 23.01187 10.91441
#
# Velocity S-wave (km/s) = -0.81513 3.59499 2.47583
# Velocity P-wave (km/s) = 5.20671 6.96230 6.14750
#
# Compressibility (1/GPa) = 0.02006093
#
# Stress axis : x y z
#
# Youngs Moduli (GPa) = 69.02258 74.48065 57.50951
#
# Poissons Ratio (x) = 0.11013 0.12840
# Poissons Ratio (y) = 0.10206 0.51238
# Poissons Ratio (z) = 0.15411 0.66359
#
# Static dielectric constant tensor:
#      x y z
#    x 3.242060 0.000000 0.000000 
#    y 0.000000 3.084050 0.000000 
#    z 0.000000 0.000000 3.161020 
# 
# 
# High freq. dielectric constant tensor:
#      x y z
#    x 1.683750 0.000000 0.000000 
#    y 0.000000 1.679590 0.000000 
#    z 0.000000 0.000000 1.688060 
# 
# From -- ./inp_files/8586.got.cif
#   From: 2010.06.25/outbox.cif.g09.slc.cpg/sg58_5_cif.got.tgz:8586.got - 2010.06.26 21:38:00.
