data_PCOD8238825
_publ_section_title
;
Structure prediction by ZEFSAII (Michael W. Deem and Ramdas Pophale) SiO2 
 PCOD8238825
Probable space group: P N N M
;
_chemical_formula_sum "Si O2"
_cell_formula_units_Z 56
_cell_length_a 10.469074
_cell_length_b 13.659000
_cell_length_c 19.411735
_cell_angle_alpha 90.000000
_cell_angle_beta 90.000000
_cell_angle_gamma 90.000000
_cell_volume 2775.821457
_symmetry_space_group_name_H-M "P N N M"
_symmetry_group_IT_number 58
_symmetry_cell_setting 'orthorhombic'
loop_
_space_group_symop_operation_xyz
x,y,z
-x,-y,z
1/2+x,1/2-y,1/2-z
1/2-x,1/2+y,1/2-z
-x,-y,-z
x,y,-z
1/2-x,1/2+y,1/2+z
1/2+x,1/2-y,1/2+z
loop_
_atom_site_type_symbol
_atom_site_label
_atom_site_fract_x
_atom_site_fract_y
_atom_site_fract_z
Si Si1 0.287700 0.836018 0.226159
Si Si2 0.349645 0.503503 0.357196
Si Si3 0.692449 0.856396 0.774214
Si Si4 0.503399 0.763441 0.139187
Si Si5 0.522713 0.149272 0.000000
Si Si6 0.616947 0.574156 0.079656
Si Si7 0.285782 0.028286 0.000000
Si Si8 0.859049 0.509798 0.837440
O O1 0.213568 0.903713 0.171411
O O2 0.193176 0.760976 0.263359
O O3 0.384245 0.757616 0.191067
O O4 0.360177 0.902423 0.282008
O O5 0.500000 0.500000 0.356808
O O6 0.316928 0.594089 0.307184
O O7 0.304536 0.523718 0.434140
O O8 0.583239 0.859005 0.833775
O O9 0.660437 0.908414 0.702796
O O10 0.585241 0.663927 0.130673
O O11 0.442656 0.786249 0.065530
O O12 0.611312 0.056198 0.000000
O O13 0.370034 0.127107 0.000000
O O14 0.500000 0.500000 0.086244
O O15 0.749119 0.524415 0.105400
O O16 0.635608 0.606943 0.000000
O O17 0.000000 0.500000 0.872396
#
# Coordination Sequence:
#
# PCOD8238825 Si02
#       8
#     8   8   8   8   4   8   4   8
#     4  11  24  39  63  94 126 165 210 260 327 382
#     4  11  25  39  60  89 128 167 205 256 322 385
#     4  11  24  39  63  92 124 162 209 257 323 383
#     4  12  21  41  68  94 124 165 217 266 312 383
#     4  11  22  36  69  94 121 159 216 264 311 380
#     4  11  25  44  67  94 128 175 226 271 319 381
#     4  11  21  40  60  90 125 158 205 262 315 386
#     4  11  23  40  65  96 130 164 212 269 326 390
#
# _framework density 20.174208
#
# number of rings (size 3 to 8) (size 9 to 14) (size 15 to 20)
#    0.000    0.857    6.429    1.071    2.000    2.571 
#    0.000    0.000    0.000    0.000    0.000    0.000 
#    0.000    0.000    0.000    0.000    0.000    0.000 
#
# Total GULP energy -694134.911673 kJ/mol
# GULP energy per Si atom -12395.266280 kJ/mol
# Density = 2.012829 g / cm^3
# Si number density = 20.174208 Si / 1000 Ang^3
#
#
#
# Elastic Constant Matrix: (Units=GPa)
#
#
# Indices 1 2 3 4 5 6 
#
# 1 127.5213 19.9839 38.3026 0.0000 0.0000 0.0000
# 2 19.9839 89.5579 25.9405 0.0000 0.0000 0.0000
# 3 38.3026 25.9405 89.0807 0.0000 0.0000 0.0000
# 4 0.0000 0.0000 0.0000 29.2224 0.0000 0.0000
# 5 0.0000 0.0000 0.0000 0.0000 28.7804 0.0000
# 6 0.0000 0.0000 0.0000 0.0000 0.0000 25.2068
#
#
#
# Elastic Compliance Matrix: (Units=1/GPa)
#
#
# Indices 1 2 3 4 5 6 
#
# 1 0.009083 -0.000978 -0.003620 0.000000 0.000000 0.000000
# 2 -0.000978 0.012300 -0.003161 0.000000 0.000000 0.000000
# 3 -0.003620 -0.003161 0.013703 0.000000 0.000000 0.000000
# 4 0.000000 0.000000 0.000000 0.034220 0.000000 0.000000
# 5 0.000000 0.000000 0.000000 0.000000 0.034746 0.000000
# 6 0.000000 0.000000 0.000000 0.000000 0.000000 0.039672
#
#
# Mechanical properties :
#
#
# Convention : Reuss Voigt Hill
#
# Bulk Modulus (GPa) = 51.10899 52.73487 51.92193
# Shear Modulus (GPa) = 30.16320 31.43745 30.80032
#
# Velocity S-wave (km/s) = 3.87089 3.95181 3.91156
# Velocity P-wave (km/s) = 6.73552 6.85703 6.79655
#
# Compressibility (1/GPa) = 0.01956603
#
# Stress axis : x y z
#
# Youngs Moduli (GPa) = 110.10128 81.30187 72.97648
#
# Poissons Ratio (x) = 0.07951 0.26421
# Poissons Ratio (y) = 0.10768 0.23069
# Poissons Ratio (z) = 0.39862 0.25701
#
# Static dielectric constant tensor:
#      x y z
#    x 3.603120 0.000000 0.000000 
#    y 0.000000 3.609140 0.000000 
#    z 0.000000 0.000000 3.706850 
# 
# 
# High freq. dielectric constant tensor:
#      x y z
#    x 1.788100 0.000000 0.000000 
#    y 0.000000 1.785550 0.000000 
#    z 0.000000 0.000000 1.792580 
# 
# From -- ./inp_files/29002.got.cif
#   From: 2010.06.25/outbox.cif.g09.slc.cpg/sg58_15_cif.got.tgz:29002.got - 2010.06.26 21:38:00.
