data_PCOD8238874
_publ_section_title
;
Structure prediction by ZEFSAII (Michael W. Deem and Ramdas Pophale) SiO2 
 PCOD8238874
Probable space group: P N N M
;
_chemical_formula_sum "Si O2"
_cell_formula_units_Z 48
_cell_length_a 13.148717
_cell_length_b 9.523529
_cell_length_c 19.739968
_cell_angle_alpha 90.000000
_cell_angle_beta 90.000000
_cell_angle_gamma 90.000000
_cell_volume 2471.881977
_symmetry_space_group_name_H-M "P N N M"
_symmetry_group_IT_number 58
_symmetry_cell_setting 'orthorhombic'
loop_
_space_group_symop_operation_xyz
x,y,z
-x,-y,z
1/2+x,1/2-y,1/2-z
1/2-x,1/2+y,1/2-z
-x,-y,-z
x,y,-z
1/2-x,1/2+y,1/2+z
1/2+x,1/2-y,1/2+z
loop_
_atom_site_type_symbol
_atom_site_label
_atom_site_fract_x
_atom_site_fract_y
_atom_site_fract_z
Si Si1 0.409849 0.104742 0.223793
Si Si2 0.596390 0.582409 0.816333
Si Si3 0.130946 0.707870 0.867367
Si Si4 0.695258 0.504823 0.679151
Si Si5 0.268906 0.951648 0.424650
Si Si6 0.417302 0.701730 0.422038
O O1 0.438757 0.260283 0.199944
O O2 0.396664 0.106405 0.304625
O O3 0.307707 0.055899 0.186542
O O4 0.500000 0.000000 0.203146
O O5 0.500000 0.500000 0.845596
O O6 0.636308 0.499222 0.750449
O O7 0.681340 0.585942 0.872998
O O8 0.192045 0.611523 0.919858
O O9 0.033748 0.778273 0.901780
O O10 0.204986 0.833449 0.843765
O O11 0.632774 0.416724 0.624360
O O12 0.225747 0.928135 0.500000
O O13 0.363278 0.849847 0.410087
O O14 0.409951 0.652022 0.500000
#
# Coordination Sequence:
#
# PCOD8238874 Si02
#       6
#     8   8   8   8   8   8
#     4  11  23  39  66  93 126 162 210 265 313 371
#     4  11  24  40  65  92 123 163 214 260 312 373
#     4  11  23  36  65  96 127 163 209 260 319 381
#     4  11  23  41  63  96 127 166 206 261 321 374
#     4  11  23  40  62  90 127 168 209 261 317 375
#     4  11  23  42  65  93 133 171 212 259 323 385
#
# _framework density 19.418400999999999
#
# number of rings (size 3 to 8) (size 9 to 14) (size 15 to 20)
#    0.000    1.000    3.333    4.500    2.333    3.667 
#    0.000    0.000    0.000    1.000    0.000    0.000 
#    0.000    0.000    0.000    0.000    0.000    0.000 
#
# Total GULP energy -595452.796477 kJ/mol
# GULP energy per Si atom -12405.266593 kJ/mol
# Density = 1.937420 g / cm^3
# Si number density = 19.418401 Si / 1000 Ang^3
#
#
#
# Elastic Constant Matrix: (Units=GPa)
#
#
# Indices 1 2 3 4 5 6 
#
# 1 72.4988 22.8265 27.9177 0.0000 0.0000 0.0000
# 2 22.8265 82.4113 29.8515 0.0000 0.0000 0.0000
# 3 27.9177 29.8515 108.1009 0.0000 0.0000 0.0000
# 4 0.0000 0.0000 0.0000 184.7698 0.0000 0.0000
# 5 0.0000 0.0000 0.0000 0.0000 13.7619 0.0000
# 6 0.0000 0.0000 0.0000 0.0000 0.0000 39.0954
#
#
#
# Elastic Compliance Matrix: (Units=1/GPa)
#
#
# Indices 1 2 3 4 5 6 
#
# 1 0.016075 -0.003276 -0.003247 0.000000 0.000000 0.000000
# 2 -0.003276 0.014151 -0.003061 0.000000 0.000000 0.000000
# 3 -0.003247 -0.003061 0.010935 0.000000 0.000000 0.000000
# 4 0.000000 0.000000 0.000000 0.005412 0.000000 0.000000
# 5 0.000000 0.000000 0.000000 0.000000 0.072665 0.000000
# 6 0.000000 0.000000 0.000000 0.000000 0.000000 0.025578
#
#
# Mechanical properties :
#
#
# Convention : Reuss Voigt Hill
#
# Bulk Modulus (GPa) = 45.47307 47.13361 46.30334
# Shear Modulus (GPa) = 29.18595 59.68644 44.43619
#
# Velocity S-wave (km/s) = 3.88107 5.55012 4.78886
# Velocity P-wave (km/s) = 6.59939 8.08684 7.38068
#
# Compressibility (1/GPa) = 0.02199104
#
# Stress axis : x y z
#
# Youngs Moduli (GPa) = 62.20767 70.66765 91.45352
#
# Poissons Ratio (x) = 0.23154 0.29692
# Poissons Ratio (y) = 0.20382 0.27998
# Poissons Ratio (z) = 0.20197 0.21635
#
# Static dielectric constant tensor:
#      x y z
#    x 3.448250 0.000000 0.000000 
#    y 0.000000 3.686880 0.000000 
#    z 0.000000 0.000000 3.555850 
# 
# 
# High freq. dielectric constant tensor:
#      x y z
#    x 1.750260 0.000000 0.000000 
#    y 0.000000 1.773240 0.000000 
#    z 0.000000 0.000000 1.753200 
# 
# From -- ./inp_files/25314.got.cif
#   From: 2010.06.25/outbox.cif.g09.slc.cpg/sg58_13_cif.got.tgz:25314.got - 2010.06.26 21:38:00.
