data_PCOD8238238
_publ_section_title
;
Structure prediction by ZEFSAII (Michael W. Deem and Ramdas Pophale) SiO2 
 PCOD8238238
Probable space group: P N N M
;
_chemical_formula_sum "Si O2"
_cell_formula_units_Z 56
_cell_length_a 20.038099
_cell_length_b 8.597144
_cell_length_c 15.854911
_cell_angle_alpha 90.000000
_cell_angle_beta 90.000000
_cell_angle_gamma 90.000000
_cell_volume 2731.332218
_symmetry_space_group_name_H-M "P N N M"
_symmetry_group_IT_number 58
_symmetry_cell_setting 'orthorhombic'
loop_
_space_group_symop_operation_xyz
x,y,z
-x,-y,z
1/2+x,1/2-y,1/2-z
1/2-x,1/2+y,1/2-z
-x,-y,-z
x,y,-z
1/2-x,1/2+y,1/2+z
1/2+x,1/2-y,1/2+z
loop_
_atom_site_type_symbol
_atom_site_label
_atom_site_fract_x
_atom_site_fract_y
_atom_site_fract_z
Si Si1 0.249830 0.542841 0.906143
Si Si2 0.625436 0.369356 0.181937
Si Si3 0.431425 0.424056 0.672254
Si Si4 0.059472 0.622441 0.732055
Si Si5 0.499356 0.686260 0.905565
Si Si6 0.792678 0.105540 0.094437
Si Si7 0.808321 0.573959 0.260113
O O1 0.329317 0.548600 0.889149
O O2 0.214761 0.709653 0.899777
O O3 0.219596 0.433733 0.834366
O O4 0.238709 0.472404 0.000000
O O5 0.588059 0.493137 0.240221
O O6 0.571705 0.262197 0.133252
O O7 0.671429 0.253926 0.235588
O O8 0.500000 0.500000 0.635996
O O9 0.444944 0.241745 0.689466
O O10 0.370187 0.441533 0.607366
O O11 0.130677 0.542006 0.728769
O O12 0.000000 0.500000 0.742796
O O13 0.055682 0.723882 0.646527
O O14 0.500000 0.500000 0.899079
O O15 0.506512 0.746309 0.000000
O O16 0.746673 0.030302 0.168101
O O17 0.771487 0.049045 0.000000
#
# Coordination Sequence:
#
# PCOD8238238 Si02
#       7
#     8   8   8   8   8   8   8
#     4  10  21  38  64  93 124 165 210 261 317 377
#     4  11  20  39  61  89 124 165 203 254 315 375
#     4  12  21  39  67  88 122 166 210 254 320 371
#     4  12  22  39  61  94 122 165 205 258 315 377
#     4  11  22  37  57  88 124 161 205 249 309 386
#     4  10  23  41  63  92 126 166 213 259 316 375
#     4  11  22  38  67  91 124 165 211 258 314 375
#
# _framework density 20.502815999999999
#
# number of rings (size 3 to 8) (size 9 to 14) (size 15 to 20)
#    0.000    1.000    7.143    0.429    0.000    1.714 
#    0.000    0.714    0.000    3.429    0.000    0.000 
#    0.000    0.000    0.000    0.000    0.000    0.000 
#
# Total GULP energy -694202.864517 kJ/mol
# GULP energy per Si atom -12396.479724 kJ/mol
# Density = 2.045615 g / cm^3
# Si number density = 20.502816 Si / 1000 Ang^3
#
#
#
# Elastic Constant Matrix: (Units=GPa)
#
#
# Indices 1 2 3 4 5 6 
#
# 1 108.4946 23.0935 42.8075 0.0000 0.0000 0.0000
# 2 23.0935 61.0355 25.3443 0.0000 0.0000 0.0000
# 3 42.8075 25.3443 138.4651 0.0000 0.0000 0.0000
# 4 0.0000 0.0000 0.0000 23.6438 0.0000 0.0000
# 5 0.0000 0.0000 0.0000 0.0000 26.7209 0.0000
# 6 0.0000 0.0000 0.0000 0.0000 0.0000 30.1204
#
#
#
# Elastic Compliance Matrix: (Units=1/GPa)
#
#
# Indices 1 2 3 4 5 6 
#
# 1 0.010973 -0.002969 -0.002849 0.000000 0.000000 0.000000
# 2 -0.002969 0.018535 -0.002475 0.000000 0.000000 0.000000
# 3 -0.002849 -0.002475 0.008556 0.000000 0.000000 0.000000
# 4 0.000000 0.000000 0.000000 0.042294 0.000000 0.000000
# 5 0.000000 0.000000 0.000000 0.000000 0.037424 0.000000
# 6 0.000000 0.000000 0.000000 0.000000 0.000000 0.033200
#
#
# Mechanical properties :
#
#
# Convention : Reuss Voigt Hill
#
# Bulk Modulus (GPa) = 46.55797 54.49844 50.52821
# Shear Modulus (GPa) = 28.61614 30.54702 29.58158
#
# Velocity S-wave (km/s) = 3.73998 3.86410 3.80255
# Velocity P-wave (km/s) = 6.43485 6.82254 6.63153
#
# Compressibility (1/GPa) = 0.02147860
#
# Stress axis : x y z
#
# Youngs Moduli (GPa) = 91.13228 53.95264 116.87977
#
# Poissons Ratio (x) = 0.16017 0.33299
# Poissons Ratio (y) = 0.27055 0.28925
# Poissons Ratio (z) = 0.25964 0.13352
#
# Static dielectric constant tensor:
#      x y z
#    x 3.947200 0.000000 0.000000 
#    y 0.000000 3.594320 0.000000 
#    z 0.000000 0.000000 3.711600 
# 
# 
# High freq. dielectric constant tensor:
#      x y z
#    x 1.815060 0.000000 0.000000 
#    y 0.000000 1.788470 0.000000 
#    z 0.000000 0.000000 1.788540 
# 
# From -- ./inp_files/23228.got.cif
#   From: 2010.06.25/outbox.cif.g09.slc.cpg/sg58_12_cif.got.tgz:23228.got - 2010.06.26 21:38:00.
