data_PCOD8238135
_publ_section_title
;
Structure prediction by ZEFSAII (Michael W. Deem and Ramdas Pophale) SiO2 
 PCOD8238135
Probable space group: P N N M
;
_chemical_formula_sum "Si O2"
_cell_formula_units_Z 64
_cell_length_a 30.587082
_cell_length_b 12.261566
_cell_length_c 8.587726
_cell_angle_alpha 90.000000
_cell_angle_beta 90.000000
_cell_angle_gamma 90.000000
_cell_volume 3220.788204
_symmetry_space_group_name_H-M "P N N M"
_symmetry_group_IT_number 58
_symmetry_cell_setting 'orthorhombic'
loop_
_space_group_symop_operation_xyz
x,y,z
-x,-y,z
1/2+x,1/2-y,1/2-z
1/2-x,1/2+y,1/2-z
-x,-y,-z
x,y,-z
1/2-x,1/2+y,1/2+z
1/2+x,1/2-y,1/2+z
loop_
_atom_site_type_symbol
_atom_site_label
_atom_site_fract_x
_atom_site_fract_y
_atom_site_fract_z
Si Si1 0.209711 0.034960 0.185785
Si Si2 0.126821 0.889615 0.184220
Si Si3 0.376725 0.147818 0.816643
Si Si4 0.949270 0.504829 0.816171
Si Si5 0.453089 0.537877 0.686257
Si Si6 0.196427 0.492892 0.184061
Si Si7 0.425064 0.763541 0.325834
Si Si8 0.824671 0.740480 0.826197
O O1 0.253200 0.004305 0.275371
O O2 0.199024 0.156129 0.251374
O O3 0.171371 0.951212 0.233134
O O4 0.216216 0.034639 0.000000
O O5 0.125779 0.771343 0.259892
O O6 0.085144 0.958179 0.247360
O O7 0.124118 0.875899 0.000000
O O8 0.333629 0.085393 0.758565
O O9 0.421752 0.093010 0.758617
O O10 0.376659 0.146238 0.000000
O O11 0.932497 0.619937 0.743242
O O12 0.000000 0.500000 0.771798
O O13 0.941050 0.497136 0.000000
O O14 0.500000 0.500000 0.747304
O O15 0.450382 0.542928 0.500000
O O16 0.448477 0.660620 0.755881
O O17 0.183046 0.375322 0.257827
O O18 0.188265 0.497715 0.000000
O O19 0.444114 0.777501 0.500000
O O20 0.375071 0.729675 0.329427
O O21 0.805938 0.727961 0.000000
#
# Coordination Sequence:
#
# PCOD8238135 Si02
#       8
#     8   8   8   8   8   8   8   8
#     4  10  21  38  60  89 121 154 191 240 303 363
#     4  10  21  38  60  87 122 158 199 246 295 354
#     4  12  26  42  59  82 121 165 203 245 299 353
#     4  10  21  37  63  94 120 152 197 246 296 355
#     4   9  17  29  54  91 122 150 190 242 292 342
#     4  11  23  40  62  88 117 153 199 247 296 355
#     4   9  15  30  55  85 117 147 185 238 291 339
#     4   9  17  34  59  82 112 150 189 239 296 350
#
# _framework density 19.870912000000001
#
# number of rings (size 3 to 8) (size 9 to 14) (size 15 to 20)
#    0.000    2.000    2.500    1.500    3.500    0.750 
#    0.000    0.625    0.000    1.125    0.000    0.000 
#    0.000    0.000    0.000    0.000    0.000    0.000 
#
# Total GULP energy -793274.840042 kJ/mol
# GULP energy per Si atom -12394.919376 kJ/mol
# Density = 1.982568 g / cm^3
# Si number density = 19.870912 Si / 1000 Ang^3
#
#
#
# Elastic Constant Matrix: (Units=GPa)
#
#
# Indices 1 2 3 4 5 6 
#
# 1 124.3643 56.8344 28.2494 0.0000 0.0000 0.0000
# 2 56.8344 165.9643 33.2612 0.0000 0.0000 0.0000
# 3 28.2494 33.2612 44.2559 0.0000 0.0000 0.0000
# 4 0.0000 0.0000 0.0000 6.7796 0.0000 0.0000
# 5 0.0000 0.0000 0.0000 0.0000 20.3735 0.0000
# 6 0.0000 0.0000 0.0000 0.0000 0.0000 38.9282
#
#
#
# Elastic Compliance Matrix: (Units=1/GPa)
#
#
# Indices 1 2 3 4 5 6 
#
# 1 0.010273 -0.002595 -0.004608 0.000000 0.000000 0.000000
# 2 -0.002595 0.007749 -0.004168 0.000000 0.000000 0.000000
# 3 -0.004608 -0.004168 0.028669 0.000000 0.000000 0.000000
# 4 0.000000 0.000000 0.000000 0.147502 0.000000 0.000000
# 5 0.000000 0.000000 0.000000 0.000000 0.049083 0.000000
# 6 0.000000 0.000000 0.000000 0.000000 0.000000 0.025688
#
#
# Mechanical properties :
#
#
# Convention : Reuss Voigt Hill
#
# Bulk Modulus (GPa) = 41.75067 63.47496 52.61282
# Shear Modulus (GPa) = 16.68394 27.63222 22.15808
#
# Velocity S-wave (km/s) = 2.90076 3.73310 3.34294
# Velocity P-wave (km/s) = 5.68118 7.11297 6.43701
#
# Compressibility (1/GPa) = 0.02395171
#
# Stress axis : x y z
#
# Youngs Moduli (GPa) = 97.34009 129.04541 34.88048
#
# Poissons Ratio (x) = 0.33483 0.16071
# Poissons Ratio (y) = 0.25256 0.14538
# Poissons Ratio (z) = 0.44850 0.53784
#
# Static dielectric constant tensor:
#      x y z
#    x 3.637070 0.000000 0.000000 
#    y 0.000000 4.007260 0.000000 
#    z 0.000000 0.000000 3.130440 
# 
# 
# High freq. dielectric constant tensor:
#      x y z
#    x 1.783830 0.000000 0.000000 
#    y 0.000000 1.800900 0.000000 
#    z 0.000000 0.000000 1.721460 
# 
# From -- ./inp_files/11062.got.cif
#   From: 2010.06.25/outbox.cif.g09.slc.cpg/sg58_6_cif.got.tgz:11062.got - 2010.06.26 21:38:00.
