data_PCOD8238892
_publ_section_title
;
Structure prediction by ZEFSAII (Michael W. Deem and Ramdas Pophale) SiO2 
 PCOD8238892
Probable space group: P N N M
;
_chemical_formula_sum "Si O2"
_cell_formula_units_Z 32
_cell_length_a 12.461434
_cell_length_b 4.865703
_cell_length_c 24.512261
_cell_angle_alpha 90.000000
_cell_angle_beta 90.000000
_cell_angle_gamma 90.000000
_cell_volume 1486.267531
_symmetry_space_group_name_H-M "P N N M"
_symmetry_group_IT_number 58
_symmetry_cell_setting 'orthorhombic'
loop_
_space_group_symop_operation_xyz
x,y,z
-x,-y,z
1/2+x,1/2-y,1/2-z
1/2-x,1/2+y,1/2-z
-x,-y,-z
x,y,-z
1/2-x,1/2+y,1/2+z
1/2+x,1/2-y,1/2+z
loop_
_atom_site_type_symbol
_atom_site_label
_atom_site_fract_x
_atom_site_fract_y
_atom_site_fract_z
Si Si1 0.745942 0.527722 0.213286
Si Si2 0.875407 0.442526 0.108419
Si Si3 0.570616 0.752596 0.865036
Si Si4 0.760319 0.927453 0.062042
O O1 0.721496 0.227936 0.237419
O O2 0.842643 0.517119 0.170087
O O3 0.638230 0.631749 0.184761
O O4 0.815704 0.631203 0.064370
O O5 0.000000 0.500000 0.101447
O O6 0.837746 0.133126 0.095600
O O7 0.500000 0.500000 0.889482
O O8 0.642847 0.894827 0.911776
O O9 0.500000 0.000000 0.841035
O O10 0.747555 0.026207 0.000000
#
# Coordination Sequence:
#
# PCOD8238892 Si02
#       4
#     8   8   8   8
#     4  11  23  41  63  90 123 160 204 252 303 363
#     4  11  24  42  63  92 126 160 205 256 306 367
#     4  11  23  41  63  91 126 162 206 256 307 368
#     4  11  24  42  64  92 125 161 205 255 307 368
#
# _framework density 21.530442000000001
#
# number of rings (size 3 to 8) (size 9 to 14) (size 15 to 20)
#    0.000    1.000    0.000    9.000    0.000    7.000 
#    0.000    2.500    0.000    0.000    0.000    0.000 
#    0.000    0.000    0.000    0.000    0.000    0.000 
#
# Total GULP energy -396897.643904 kJ/mol
# GULP energy per Si atom -12403.051372 kJ/mol
# Density = 2.148144 g / cm^3
# Si number density = 21.530442 Si / 1000 Ang^3
#
#
#
# Elastic Constant Matrix: (Units=GPa)
#
#
# Indices 1 2 3 4 5 6 
#
# 1 78.4246 6.2890 40.7460 0.0000 0.0000 0.0000
# 2 6.2890 86.5376 17.0428 0.0000 0.0000 0.0000
# 3 40.7460 17.0428 101.3318 0.0000 0.0000 0.0000
# 4 0.0000 0.0000 0.0000 34.3506 0.0000 0.0000
# 5 0.0000 0.0000 0.0000 0.0000 2.4023 0.0000
# 6 0.0000 0.0000 0.0000 0.0000 0.0000 48.6654
#
#
#
# Elastic Compliance Matrix: (Units=1/GPa)
#
#
# Indices 1 2 3 4 5 6 
#
# 1 0.016120 0.000109 -0.006500 0.000000 0.000000 0.000000
# 2 0.000109 0.011952 -0.002054 0.000000 0.000000 0.000000
# 3 -0.006500 -0.002054 0.012828 0.000000 0.000000 0.000000
# 4 0.000000 0.000000 0.000000 0.029112 0.000000 0.000000
# 5 0.000000 0.000000 0.000000 0.000000 0.416266 0.000000
# 6 0.000000 0.000000 0.000000 0.000000 0.000000 0.020549
#
#
# Mechanical properties :
#
#
# Convention : Reuss Voigt Hill
#
# Bulk Modulus (GPa) = 41.65115 43.82773 42.73944
# Shear Modulus (GPa) = 9.40347 30.56474 19.98410
#
# Velocity S-wave (km/s) = 2.09213 3.77185 3.04991
# Velocity P-wave (km/s) = 5.02227 6.27451 5.68299
#
# Compressibility (1/GPa) = 0.02400894
#
# Stress axis : x y z
#
# Youngs Moduli (GPa) = 62.03666 83.66606 77.95637
#
# Poissons Ratio (x) = -0.00909 0.50672
# Poissons Ratio (y) = -0.00674 0.16012
# Poissons Ratio (z) = 0.40324 0.17184
#
# Static dielectric constant tensor:
#      x y z
#    x 3.892020 0.000000 0.000000 
#    y 0.000000 4.171570 0.000000 
#    z 0.000000 0.000000 3.651360 
# 
# 
# High freq. dielectric constant tensor:
#      x y z
#    x 1.846990 0.000000 0.000000 
#    y 0.000000 1.869160 0.000000 
#    z 0.000000 0.000000 1.835670 
# 
# From -- ./inp_files/27917.got.cif
#   From: 2010.06.25/outbox.cif.g09.slc.cpg/sg58_14_cif.got.tgz:27917.got - 2010.06.26 21:38:00.
