data_PCOD8238230
_publ_section_title
;
Structure prediction by ZEFSAII (Michael W. Deem and Ramdas Pophale) SiO2 
 PCOD8238230
Probable space group: P N N M
;
_chemical_formula_sum "Si O2"
_cell_formula_units_Z 64
_cell_length_a 17.000174
_cell_length_b 11.957510
_cell_length_c 14.592071
_cell_angle_alpha 90.000000
_cell_angle_beta 90.000000
_cell_angle_gamma 90.000000
_cell_volume 2966.272554
_symmetry_space_group_name_H-M "P N N M"
_symmetry_group_IT_number 58
_symmetry_cell_setting 'orthorhombic'
loop_
_space_group_symop_operation_xyz
x,y,z
-x,-y,z
1/2+x,1/2-y,1/2-z
1/2-x,1/2+y,1/2-z
-x,-y,-z
x,y,-z
1/2-x,1/2+y,1/2+z
1/2+x,1/2-y,1/2+z
loop_
_atom_site_type_symbol
_atom_site_label
_atom_site_fract_x
_atom_site_fract_y
_atom_site_fract_z
Si Si1 0.412837 0.999860 0.865257
Si Si2 0.912059 0.975605 0.099811
Si Si3 0.709244 0.183229 0.102641
Si Si4 0.087739 0.490349 0.842987
Si Si5 0.251154 0.565675 0.897952
Si Si6 0.827520 0.101638 0.745812
Si Si7 0.149165 0.259351 0.104435
Si Si8 0.329810 0.226278 0.101466
O O1 0.420732 0.031617 0.759773
O O2 0.359862 0.099602 0.905485
O O3 0.500000 0.000000 0.909688
O O4 0.374807 0.879123 0.888314
O O5 0.891990 0.049369 0.187994
O O6 0.903088 0.847120 0.128907
O O7 0.867069 0.996020 0.000000
O O8 0.000000 0.000000 0.076658
O O9 0.705761 0.316256 0.117474
O O10 0.761779 0.138085 0.183436
O O11 0.743111 0.160541 0.000000
O O12 0.155049 0.568771 0.889633
O O13 0.117741 0.362840 0.837312
O O14 0.000000 0.500000 0.890006
O O15 0.287115 0.483390 0.823891
O O16 0.270520 0.521360 0.000000
O O17 0.868245 0.199232 0.683518
O O18 0.238146 0.226782 0.128950
O O19 0.140716 0.297645 0.000000
O O20 0.342743 0.279718 0.000000
#
# Coordination Sequence:
#
# PCOD8238230 Si02
#       8
#     8   8   8   8   8   8   8   8
#     4  11  24  42  66  97 134 171 220 279 335 390
#     4  10  24  43  65  96 132 172 220 276 338 396
#     4  11  24  41  66  97 129 169 216 277 337 389
#     4  11  23  39  64 101 137 172 221 271 336 403
#     4  11  24  42  65  97 136 175 219 274 331 391
#     4  12  23  40  69  94 128 173 222 271 321 397
#     4  10  21  38  63  92 128 173 218 266 324 404
#     4  11  23  41  66  94 127 175 225 266 323 396
#
# _framework density 21.575901000000002
#
# number of rings (size 3 to 8) (size 9 to 14) (size 15 to 20)
#    0.000    1.125    2.500    3.000    3.500    6.000 
#    0.000    2.500    0.000    0.750    0.000    0.000 
#    0.000    0.000    0.000    0.000    0.000    0.000 
#
# Total GULP energy -792964.725637 kJ/mol
# GULP energy per Si atom -12390.073838 kJ/mol
# Density = 2.152679 g / cm^3
# Si number density = 21.575901 Si / 1000 Ang^3
#
#
#
# Elastic Constant Matrix: (Units=GPa)
#
#
# Indices 1 2 3 4 5 6 
#
# 1 85.3371 53.0875 23.0821 0.0000 0.0000 0.0000
# 2 53.0875 125.9438 42.5683 0.0000 0.0000 0.0000
# 3 23.0821 42.5683 142.2815 0.0000 0.0000 0.0000
# 4 0.0000 0.0000 0.0000 33.7813 0.0000 0.0000
# 5 0.0000 0.0000 0.0000 0.0000 26.8344 0.0000
# 6 0.0000 0.0000 0.0000 0.0000 0.0000 28.7856
#
#
#
# Elastic Compliance Matrix: (Units=1/GPa)
#
#
# Indices 1 2 3 4 5 6 
#
# 1 0.015935 -0.006501 -0.000640 0.000000 0.000000 0.000000
# 2 -0.006501 0.011485 -0.002382 0.000000 0.000000 0.000000
# 3 -0.000640 -0.002382 0.007845 0.000000 0.000000 0.000000
# 4 0.000000 0.000000 0.000000 0.029602 0.000000 0.000000
# 5 0.000000 0.000000 0.000000 0.000000 0.037266 0.000000
# 6 0.000000 0.000000 0.000000 0.000000 0.000000 0.034740
#
#
# Mechanical properties :
#
#
# Convention : Reuss Voigt Hill
#
# Bulk Modulus (GPa) = 61.65127 65.67089 63.66108
# Shear Modulus (GPa) = 30.99343 33.53521 32.26432
#
# Velocity S-wave (km/s) = 3.79421 3.94673 3.87122
# Velocity P-wave (km/s) = 6.91599 7.16045 7.03928
#
# Compressibility (1/GPa) = 0.01622027
#
# Stress axis : x y z
#
# Youngs Moduli (GPa) = 62.75329 87.06902 127.47420
#
# Poissons Ratio (x) = 0.56600 0.08162
# Poissons Ratio (y) = 0.40794 0.30359
# Poissons Ratio (z) = 0.04018 0.20736
#
# Static dielectric constant tensor:
#      x y z
#    x 3.869850 0.000000 0.000000 
#    y 0.000000 3.555080 0.000000 
#    z 0.000000 0.000000 4.277890 
# 
# 
# High freq. dielectric constant tensor:
#      x y z
#    x 1.820240 0.000000 0.000000 
#    y 0.000000 1.845550 0.000000 
#    z 0.000000 0.000000 1.874950 
# 
# From -- ./inp_files/22970.got.cif
#   From: 2010.06.25/outbox.cif.g09.slc.cpg/sg58_12_cif.got.tgz:22970.got - 2010.06.26 21:38:00.
