data_PCOD8238633
_publ_section_title
;
Structure prediction by ZEFSAII (Michael W. Deem and Ramdas Pophale) SiO2 
 PCOD8238633
Probable space group: P N N M
;
_chemical_formula_sum "Si O2"
_cell_formula_units_Z 64
_cell_length_a 11.625926
_cell_length_b 15.044229
_cell_length_c 18.454082
_cell_angle_alpha 90.000000
_cell_angle_beta 90.000000
_cell_angle_gamma 90.000000
_cell_volume 3227.676022
_symmetry_space_group_name_H-M "P N N M"
_symmetry_group_IT_number 58
_symmetry_cell_setting 'orthorhombic'
loop_
_space_group_symop_operation_xyz
x,y,z
-x,-y,z
1/2+x,1/2-y,1/2-z
1/2-x,1/2+y,1/2-z
-x,-y,-z
x,y,-z
1/2-x,1/2+y,1/2+z
1/2+x,1/2-y,1/2+z
loop_
_atom_site_type_symbol
_atom_site_label
_atom_site_fract_x
_atom_site_fract_y
_atom_site_fract_z
Si Si1 0.494596 0.322613 0.699688
Si Si2 0.147970 0.270581 0.417676
Si Si3 0.585902 0.743771 0.149289
Si Si4 0.489181 0.826971 0.582718
Si Si5 0.739660 0.096686 0.355110
Si Si6 0.750934 0.389125 0.299541
Si Si7 0.740781 0.589933 0.309556
Si Si8 0.716302 0.896739 0.364426
O O1 0.474871 0.266687 0.772792
O O2 0.488332 0.259361 0.630618
O O3 0.615974 0.370793 0.702742
O O4 0.396609 0.397136 0.690645
O O5 0.178211 0.295481 0.500000
O O6 0.200361 0.345867 0.366774
O O7 0.197960 0.173808 0.399751
O O8 0.010667 0.268221 0.408925
O O9 0.648637 0.653735 0.123473
O O10 0.681581 0.821477 0.148750
O O11 0.489786 0.795264 0.500000
O O12 0.369649 0.874337 0.599027
O O13 0.592656 0.896060 0.596635
O O14 0.710138 0.112705 0.270294
O O15 0.771030 0.994655 0.372387
O O16 0.770720 0.488486 0.329415
O O17 0.802718 0.375052 0.219822
#
# Coordination Sequence:
#
# PCOD8238633 Si02
#       8
#     8   8   8   8   8   8   8   8
#     4  11  20  40  66  92 124 158 208 267 310 370
#     4  12  25  43  63  89 130 173 211 251 312 385
#     4  11  22  40  65  90 124 166 209 259 312 372
#     4  12  23  37  61  91 126 166 204 252 319 380
#     4  10  23  40  63  94 127 157 210 268 315 372
#     4  11  21  40  69  95 121 156 214 265 310 363
#     4  10  23  40  67  97 119 162 213 263 312 368
#     4  11  22  39  64  94 122 163 208 262 318 374
#
# _framework density 19.828507999999999
#
# number of rings (size 3 to 8) (size 9 to 14) (size 15 to 20)
#    0.000    1.000    5.000    2.625    0.000    3.000 
#    0.000    2.500    0.000    1.500    0.000    0.000 
#    0.000    0.000    0.000    0.000    0.000    0.000 
#
# Total GULP energy -793890.073169 kJ/mol
# GULP energy per Si atom -12404.532393 kJ/mol
# Density = 1.978338 g / cm^3
# Si number density = 19.828508 Si / 1000 Ang^3
#
#
#
# Elastic Constant Matrix: (Units=GPa)
#
#
# Indices 1 2 3 4 5 6 
#
# 1 116.3726 39.0876 30.4259 0.0000 0.0000 0.0000
# 2 39.0876 95.1237 45.1094 0.0000 0.0000 0.0000
# 3 30.4259 45.1094 90.9715 0.0000 0.0000 0.0000
# 4 0.0000 0.0000 0.0000 16.7210 0.0000 0.0000
# 5 0.0000 0.0000 0.0000 0.0000 1.2768 0.0000
# 6 0.0000 0.0000 0.0000 0.0000 0.0000 21.0576
#
#
#
# Elastic Compliance Matrix: (Units=1/GPa)
#
#
# Indices 1 2 3 4 5 6 
#
# 1 0.010175 -0.003357 -0.001739 0.000000 0.000000 0.000000
# 2 -0.003357 0.014852 -0.006242 0.000000 0.000000 0.000000
# 3 -0.001739 -0.006242 0.014669 0.000000 0.000000 0.000000
# 4 0.000000 0.000000 0.000000 0.059805 0.000000 0.000000
# 5 0.000000 0.000000 0.000000 0.000000 0.783196 0.000000
# 6 0.000000 0.000000 0.000000 0.000000 0.000000 0.047489
#
#
# Mechanical properties :
#
#
# Convention : Reuss Voigt Hill
#
# Bulk Modulus (GPa) = 58.74832 59.07930 58.91381
# Shear Modulus (GPa) = 5.21630 20.33408 12.77519
#
# Velocity S-wave (km/s) = 1.62371 3.20581 2.54103
# Velocity P-wave (km/s) = 5.76262 6.60021 6.19558
#
# Compressibility (1/GPa) = 0.01702176
#
# Stress axis : x y z
#
# Youngs Moduli (GPa) = 98.27923 67.33145 68.17046
#
# Poissons Ratio (x) = 0.22600 0.11853
# Poissons Ratio (y) = 0.32988 0.42551
# Poissons Ratio (z) = 0.17088 0.42028
#
# Static dielectric constant tensor:
#      x y z
#    x 3.729250 0.000000 0.000000 
#    y 0.000000 3.662150 0.000000 
#    z 0.000000 0.000000 3.465060 
# 
# 
# High freq. dielectric constant tensor:
#      x y z
#    x 1.783770 0.000000 0.000000 
#    y 0.000000 1.777560 0.000000 
#    z 0.000000 0.000000 1.753190 
# 
# From -- ./inp_files/26387.got.cif
#   From: 2010.06.25/outbox.cif.g09.slc.cpg/sg58_14_cif.got.tgz:26387.got - 2010.06.26 21:38:00.
