data_PCOD8238264
_publ_section_title
;
Structure prediction by ZEFSAII (Michael W. Deem and Ramdas Pophale) SiO2 
 PCOD8238264
Probable space group: P N N M
;
_chemical_formula_sum "Si O2"
_cell_formula_units_Z 48
_cell_length_a 15.071974
_cell_length_b 20.527425
_cell_length_c 7.679101
_cell_angle_alpha 90.000000
_cell_angle_beta 90.000000
_cell_angle_gamma 90.000000
_cell_volume 2375.827965
_symmetry_space_group_name_H-M "P N N M"
_symmetry_group_IT_number 58
_symmetry_cell_setting 'orthorhombic'
loop_
_space_group_symop_operation_xyz
x,y,z
-x,-y,z
1/2+x,1/2-y,1/2-z
1/2-x,1/2+y,1/2-z
-x,-y,-z
x,y,-z
1/2-x,1/2+y,1/2+z
1/2+x,1/2-y,1/2+z
loop_
_atom_site_type_symbol
_atom_site_label
_atom_site_fract_x
_atom_site_fract_y
_atom_site_fract_z
Si Si1 0.055872 0.688090 0.695195
Si Si2 0.774496 0.240407 0.294159
Si Si3 0.956550 0.563901 0.802947
Si Si4 0.043574 0.098618 0.000000
Si Si5 0.144341 0.967612 0.000000
Si Si6 0.258728 0.907155 0.292164
Si Si7 0.412718 0.718384 0.306694
O O1 0.077409 0.665506 0.500000
O O2 0.024241 0.624252 0.796586
O O3 0.980678 0.743482 0.685822
O O4 0.141969 0.720609 0.788090
O O5 0.783866 0.245117 0.500000
O O6 0.772512 0.165119 0.237752
O O7 0.685558 0.275763 0.226105
O O8 0.860373 0.583433 0.726352
O O9 0.000000 0.500000 0.709266
O O10 0.938213 0.544287 0.000000
O O11 0.059944 0.142502 0.173544
O O12 0.943165 0.075957 0.000000
O O13 0.116415 0.042539 0.000000
O O14 0.199117 0.955805 0.822382
O O15 0.246391 0.919859 0.500000
O O16 0.412762 0.752293 0.500000
#
# Coordination Sequence:
#
# PCOD8238264 Si02
#       7
#     8   8   8   4   4   8   8
#     4  11  21  33  56  90 117 144 202 256 300 368
#     4   9  18  34  56  81 111 153 198 239 309 364
#     4  10  22  40  58  81 120 165 201 243 314 379
#     4   9  22  38  62  88 117 158 202 256 297 366
#     4  11  22  40  61  94 120 154 219 244 305 386
#     4  10  21  39  61  86 121 163 200 253 308 368
#     4   9  18  37  58  74 111 159 186 239 308 346
#
# _framework density 20.203482000000001
#
# number of rings (size 3 to 8) (size 9 to 14) (size 15 to 20)
#    0.500    1.667    1.667    1.500    1.167    1.667 
#    1.500    2.500    0.000    0.000    0.000    0.000 
#    0.000    0.000    0.000    0.000    0.000    0.000 
#
# Total GULP energy -594884.044598 kJ/mol
# GULP energy per Si atom -12393.417596 kJ/mol
# Density = 2.015750 g / cm^3
# Si number density = 20.203482 Si / 1000 Ang^3
#
#
#
# Elastic Constant Matrix: (Units=GPa)
#
#
# Indices 1 2 3 4 5 6 
#
# 1 154.1688 68.9268 12.1167 0.0000 0.0000 0.0000
# 2 68.9268 145.0765 13.0913 0.0000 0.0000 0.0000
# 3 12.1167 13.0913 44.1680 0.0000 0.0000 0.0000
# 4 0.0000 0.0000 0.0000 15.2085 0.0000 0.0000
# 5 0.0000 0.0000 0.0000 0.0000 10.1716 0.0000
# 6 0.0000 0.0000 0.0000 0.0000 0.0000 39.4004
#
#
#
# Elastic Compliance Matrix: (Units=1/GPa)
#
#
# Indices 1 2 3 4 5 6 
#
# 1 0.008291 -0.003836 -0.001137 0.000000 0.000000 0.000000
# 2 -0.003836 0.008858 -0.001573 0.000000 0.000000 0.000000
# 3 -0.001137 -0.001573 0.023419 0.000000 0.000000 0.000000
# 4 0.000000 0.000000 0.000000 0.065753 0.000000 0.000000
# 5 0.000000 0.000000 0.000000 0.000000 0.098313 0.000000
# 6 0.000000 0.000000 0.000000 0.000000 0.000000 0.025380
#
#
# Mechanical properties :
#
#
# Convention : Reuss Voigt Hill
#
# Bulk Modulus (GPa) = 36.39783 59.07587 47.73685
# Shear Modulus (GPa) = 19.82044 29.57469 24.69756
#
# Velocity S-wave (km/s) = 3.13556 3.83017 3.50014
# Velocity P-wave (km/s) = 5.58244 6.99029 6.32566
#
# Compressibility (1/GPa) = 0.02747416
#
# Stress axis : x y z
#
# Youngs Moduli (GPa) = 120.61226 112.89747 42.70028
#
# Poissons Ratio (x) = 0.43313 0.04857
# Poissons Ratio (y) = 0.46273 0.06716
# Poissons Ratio (z) = 0.13718 0.17758
#
# Static dielectric constant tensor:
#      x y z
#    x 3.913460 0.000000 0.000000 
#    y 0.000000 3.621070 0.000000 
#    z 0.000000 0.000000 3.235050 
# 
# 
# High freq. dielectric constant tensor:
#      x y z
#    x 1.802600 0.000000 0.000000 
#    y 0.000000 1.782490 0.000000 
#    z 0.000000 0.000000 1.757770 
# 
# From -- ./inp_files/6069.got.cif
#   From: 2010.06.25/outbox.cif.g09.slc.cpg/sg58_4_cif.got.tgz:6069.got - 2010.06.26 21:38:00.
