data_PCOD8238657
_publ_section_title
;
Structure prediction by ZEFSAII (Michael W. Deem and Ramdas Pophale) SiO2 
 PCOD8238657
Probable space group: P N N M
;
_chemical_formula_sum "Si O2"
_cell_formula_units_Z 48
_cell_length_a 9.506293
_cell_length_b 27.843270
_cell_length_c 8.076449
_cell_angle_alpha 90.000000
_cell_angle_beta 90.000000
_cell_angle_gamma 90.000000
_cell_volume 2137.725263
_symmetry_space_group_name_H-M "P N N M"
_symmetry_group_IT_number 58
_symmetry_cell_setting 'orthorhombic'
loop_
_space_group_symop_operation_xyz
x,y,z
-x,-y,z
1/2+x,1/2-y,1/2-z
1/2-x,1/2+y,1/2-z
-x,-y,-z
x,y,-z
1/2-x,1/2+y,1/2+z
1/2+x,1/2-y,1/2+z
loop_
_atom_site_type_symbol
_atom_site_label
_atom_site_fract_x
_atom_site_fract_y
_atom_site_fract_z
Si Si1 0.721463 0.366127 0.314653
Si Si2 0.220951 0.301186 0.190284
Si Si3 0.493023 0.557326 0.677241
Si Si4 0.461115 0.715912 0.811061
Si Si5 0.604908 0.544664 0.000000
Si Si6 0.913314 0.547134 0.000000
Si Si7 0.963310 0.615170 0.309061
O O1 0.706201 0.345705 0.500000
O O2 0.665166 0.421483 0.305388
O O3 0.623611 0.334044 0.197312
O O4 0.883617 0.363597 0.261258
O O5 0.378915 0.290124 0.255957
O O6 0.122203 0.254656 0.202880
O O7 0.153927 0.343643 0.298534
O O8 0.226767 0.318208 0.000000
O O9 0.500000 0.500000 0.681169
O O10 0.557308 0.574875 0.500000
O O11 0.581766 0.576996 0.834178
O O12 0.466038 0.733824 0.000000
O O13 0.500000 0.500000 0.000000
O O14 0.759368 0.524708 0.000000
O O15 0.934831 0.575191 0.828575
O O16 0.000000 0.500000 0.000000
O O17 0.964444 0.595183 0.500000
#
# Coordination Sequence:
#
# PCOD8238657 Si02
#       7
#     8   8   8   8   4   4   8
#     4  10  23  41  65  99 131 177 232 279 347 412
#     4  11  24  45  66  99 140 180 232 285 351 414
#     4   9  20  38  64  94 130 170 222 284 339 400
#     4  11  25  40  68 101 139 185 233 290 347 422
#     4  10  24  42  68  98 130 174 234 280 336 417
#     4  12  30  48  70 106 142 188 234 292 365 413
#     4  11  26  47  72 100 141 185 232 290 348 426
#
# _framework density 22.453773999999999
#
# number of rings (size 3 to 8) (size 9 to 14) (size 15 to 20)
#    0.000    1.500    0.833    2.000    9.333    7.667 
#    0.000    0.000    0.000    0.000    0.000    0.000 
#    0.000    0.000    0.000    0.000    0.000    0.000 
#
# Total GULP energy -594864.396325 kJ/mol
# GULP energy per Si atom -12393.008257 kJ/mol
# Density = 2.240267 g / cm^3
# Si number density = 22.453774 Si / 1000 Ang^3
#
#
#
# Elastic Constant Matrix: (Units=GPa)
#
#
# Indices 1 2 3 4 5 6 
#
# 1 184.2552 50.7115 58.1209 0.0000 0.0000 0.0000
# 2 50.7115 92.8623 29.9946 0.0000 0.0000 0.0000
# 3 58.1209 29.9946 152.8753 0.0000 0.0000 0.0000
# 4 0.0000 0.0000 0.0000 -11.7552 0.0000 0.0000
# 5 0.0000 0.0000 0.0000 0.0000 25.3150 0.0000
# 6 0.0000 0.0000 0.0000 0.0000 0.0000 38.1037
#
#
#
# Elastic Compliance Matrix: (Units=1/GPa)
#
#
# Indices 1 2 3 4 5 6 
#
# 1 0.006926 -0.003130 -0.002019 0.000000 0.000000 0.000000
# 2 -0.003130 0.012912 -0.001343 0.000000 0.000000 0.000000
# 3 -0.002019 -0.001343 0.007572 0.000000 0.000000 0.000000
# 4 0.000000 0.000000 0.000000 -0.085069 0.000000 0.000000
# 5 0.000000 0.000000 0.000000 0.000000 0.039502 0.000000
# 6 0.000000 0.000000 0.000000 0.000000 0.000000 0.026244
#
#
# Mechanical properties :
#
#
# Convention : Reuss Voigt Hill
#
# Bulk Modulus (GPa) = 69.32234 78.62743 73.97488
# Shear Modulus (GPa) = 193.19759 29.74374 111.47066
#
# Velocity S-wave (km/s) = 9.28597 3.64354 7.05353
# Velocity P-wave (km/s) = 12.07943 7.26595 9.96761
#
# Compressibility (1/GPa) = 0.01442536
#
# Stress axis : x y z
#
# Youngs Moduli (GPa) = 144.39383 77.44880 132.05840
#
# Poissons Ratio (x) = 0.24240 0.26661
# Poissons Ratio (y) = 0.45193 0.17741
# Poissons Ratio (z) = 0.29151 0.10404
#
# Static dielectric constant tensor:
#      x y z
#    x 4.206010 0.000000 0.000000 
#    y 0.000000 4.063740 0.000000 
#    z 0.000000 0.000000 7.180080 
# 
# 
# High freq. dielectric constant tensor:
#      x y z
#    x 1.890070 0.000000 0.000000 
#    y 0.000000 1.867910 0.000000 
#    z 0.000000 0.000000 1.902730 
# 
# From -- ./inp_files/3064.got.cif
#   From: 2010.06.25/outbox.cif.g09.slc.cpg/sg58_2_cif.got.tgz:3064.got - 2010.06.26 21:38:00.
