data_PCOD8238064
_publ_section_title
;
Structure prediction by ZEFSAII (Michael W. Deem and Ramdas Pophale) SiO2 
 PCOD8238064
Probable space group: P N N M
;
_chemical_formula_sum "Si O2"
_cell_formula_units_Z 48
_cell_length_a 30.743370
_cell_length_b 8.896199
_cell_length_c 9.059980
_cell_angle_alpha 90.000000
_cell_angle_beta 90.000000
_cell_angle_gamma 90.000000
_cell_volume 2477.896715
_symmetry_space_group_name_H-M "P N N M"
_symmetry_group_IT_number 58
_symmetry_cell_setting 'orthorhombic'
loop_
_space_group_symop_operation_xyz
x,y,z
-x,-y,z
1/2+x,1/2-y,1/2-z
1/2-x,1/2+y,1/2-z
-x,-y,-z
x,y,-z
1/2-x,1/2+y,1/2+z
1/2+x,1/2-y,1/2+z
loop_
_atom_site_type_symbol
_atom_site_label
_atom_site_fract_x
_atom_site_fract_y
_atom_site_fract_z
Si Si1 0.953989 0.076047 0.669960
Si Si2 0.376054 0.918346 0.672515
Si Si3 0.043939 0.576671 0.326551
Si Si4 0.795714 0.088824 0.672046
Si Si5 0.874816 0.924772 0.174375
Si Si6 0.710055 0.900981 0.329180
O O1 0.939385 0.058860 0.500000
O O2 0.957148 0.249140 0.716748
O O3 0.920018 0.994595 0.774644
O O4 0.000000 0.000000 0.698116
O O5 0.385805 0.925308 0.500000
O O6 0.372516 0.747219 0.727558
O O7 0.414880 0.000006 0.754093
O O8 0.331325 0.999319 0.714061
O O9 0.047769 0.551999 0.500000
O O10 0.000000 0.500000 0.265708
O O11 0.806626 0.092060 0.500000
O O12 0.788755 0.257093 0.726243
O O13 0.835624 0.015581 0.755630
O O14 0.752433 0.997167 0.707226
O O15 0.870890 0.938782 0.000000
O O16 0.708436 0.851906 0.500000
#
# Coordination Sequence:
#
# PCOD8238064 Si02
#       6
#     8   8   8   8   8   8
#     4  10  21  38  60  86 116 150 192 240 288 343
#     4  10  22  39  58  82 113 150 190 233 282 337
#     4  10  21  37  58  84 113 147 187 233 285 338
#     4  11  23  39  61  88 117 151 192 235 284 342
#     4  11  23  39  59  84 117 154 193 237 286 341
#     4  10  22  40  60  84 116 151 188 234 285 337
#
# _framework density 19.371268000000001
#
# number of rings (size 3 to 8) (size 9 to 14) (size 15 to 20)
#    0.000    1.667    0.000    4.000    0.000   10.000 
#    0.000    0.000    0.000    0.000    0.000    0.000 
#    0.000    0.000    0.000    0.000    0.000    0.000 
#
# Total GULP energy -595482.612096 kJ/mol
# GULP energy per Si atom -12405.887752 kJ/mol
# Density = 1.932718 g / cm^3
# Si number density = 19.371268 Si / 1000 Ang^3
#
#
#
# Elastic Constant Matrix: (Units=GPa)
#
#
# Indices 1 2 3 4 5 6 
#
# 1 124.4211 69.6679 53.5801 0.0000 0.0000 0.0000
# 2 69.6679 165.6993 65.3920 0.0000 0.0000 0.0000
# 3 53.5801 65.3920 66.7411 0.0000 0.0000 0.0000
# 4 0.0000 0.0000 0.0000 35.6439 0.0000 0.0000
# 5 0.0000 0.0000 0.0000 0.0000 42.1895 0.0000
# 6 0.0000 0.0000 0.0000 0.0000 0.0000 51.5793
#
#
#
# Elastic Compliance Matrix: (Units=1/GPa)
#
#
# Indices 1 2 3 4 5 6 
#
# 1 0.012738 -0.002152 -0.008117 0.000000 0.000000 0.000000
# 2 -0.002152 0.010203 -0.008269 0.000000 0.000000 0.000000
# 3 -0.008117 -0.008269 0.029602 0.000000 0.000000 0.000000
# 4 0.000000 0.000000 0.000000 0.028055 0.000000 0.000000
# 5 0.000000 0.000000 0.000000 0.000000 0.023703 0.000000
# 6 0.000000 0.000000 0.000000 0.000000 0.000000 0.019388
#
#
# Mechanical properties :
#
#
# Convention : Reuss Voigt Hill
#
# Bulk Modulus (GPa) = 64.65962 81.57129 73.11546
# Shear Modulus (GPa) = 30.13466 37.09731 33.61598
#
# Velocity S-wave (km/s) = 3.94844 4.38090 4.17028
# Velocity P-wave (km/s) = 7.36468 8.23350 7.81118
#
# Compressibility (1/GPa) = 0.01546560
#
# Stress axis : x y z
#
# Youngs Moduli (GPa) = 78.50555 98.00729 33.78133
#
# Poissons Ratio (x) = 0.21093 0.27422
# Poissons Ratio (y) = 0.16896 0.27935
# Poissons Ratio (z) = 0.63726 0.81045
#
# Static dielectric constant tensor:
#      x y z
#    x 3.657770 0.000000 0.000000 
#    y 0.000000 2.727590 0.000000 
#    z 0.000000 0.000000 3.567250 
# 
# 
# High freq. dielectric constant tensor:
#      x y z
#    x 1.773160 0.000000 0.000000 
#    y 0.000000 1.774230 0.000000 
#    z 0.000000 0.000000 1.751390 
# 
# From -- ./inp_files/2915.got.cif
#   From: 2010.06.25/outbox.cif.g09.slc.cpg/sg58_2_cif.got.tgz:2915.got - 2010.06.26 21:38:00.
