data_PCOD8238626
_publ_section_title
;
Structure prediction by ZEFSAII (Michael W. Deem and Ramdas Pophale) SiO2 
 PCOD8238626
Probable space group: P N N M
;
_chemical_formula_sum "Si O2"
_cell_formula_units_Z 32
_cell_length_a 8.983044
_cell_length_b 14.335534
_cell_length_c 11.421123
_cell_angle_alpha 90.000000
_cell_angle_beta 90.000000
_cell_angle_gamma 90.000000
_cell_volume 1470.774904
_symmetry_space_group_name_H-M "P N N M"
_symmetry_group_IT_number 58
_symmetry_cell_setting 'orthorhombic'
loop_
_space_group_symop_operation_xyz
x,y,z
-x,-y,z
1/2+x,1/2-y,1/2-z
1/2-x,1/2+y,1/2-z
-x,-y,-z
x,y,-z
1/2-x,1/2+y,1/2+z
1/2+x,1/2-y,1/2+z
loop_
_atom_site_type_symbol
_atom_site_label
_atom_site_fract_x
_atom_site_fract_y
_atom_site_fract_z
Si Si1 0.446882 0.148116 0.000000
Si Si2 0.923532 0.224177 0.288124
Si Si3 0.727691 0.039821 0.000000
Si Si4 0.760942 0.846300 0.361387
Si Si5 0.836705 0.029048 0.744880
O O1 0.387577 0.203664 0.889490
O O2 0.627101 0.134676 0.000000
O O3 0.379831 0.047119 0.000000
O O4 0.880032 0.279982 0.168661
O O5 0.814754 0.134135 0.303880
O O6 0.096209 0.193546 0.289909
O O7 0.828260 0.035215 0.885153
O O8 0.791765 0.846767 0.500000
O O9 0.727413 0.952597 0.315240
O O10 0.000000 0.000000 0.706190
#
# Coordination Sequence:
#
# PCOD8238626 Si02
#       5
#     4   8   4   8   8
#     4  11  22  38  69  88 128 174 217 262 330 376
#     4  11  23  42  66  97 128 176 218 267 325 388
#     4  11  21  42  64  94 128 169 218 274 316 381
#     4  11  24  44  65  96 132 174 216 272 329 387
#     4  10  23  38  66  93 129 165 218 265 329 383
#
# _framework density 21.757237
#
# number of rings (size 3 to 8) (size 9 to 14) (size 15 to 20)
#    0.000    1.250    3.750    1.875    3.500    1.500 
#    4.500    0.000    0.000    6.000    0.000    0.000 
#    0.000    0.000    0.000    0.000    0.000    0.000 
#
# Total GULP energy -396595.247977 kJ/mol
# GULP energy per Si atom -12393.601499 kJ/mol
# Density = 2.170772 g / cm^3
# Si number density = 21.757237 Si / 1000 Ang^3
#
#
#
# Elastic Constant Matrix: (Units=GPa)
#
#
# Indices 1 2 3 4 5 6 
#
# 1 35.7835 28.9877 28.4578 0.0000 0.0000 0.0000
# 2 28.9877 159.3875 56.9755 0.0000 0.0000 0.0000
# 3 28.4578 56.9755 104.0399 0.0000 0.0000 0.0000
# 4 0.0000 0.0000 0.0000 45.3770 0.0000 0.0000
# 5 0.0000 0.0000 0.0000 0.0000 34.0029 0.0000
# 6 0.0000 0.0000 0.0000 0.0000 0.0000 30.8032
#
#
#
# Elastic Compliance Matrix: (Units=1/GPa)
#
#
# Indices 1 2 3 4 5 6 
#
# 1 0.037597 -0.003931 -0.008131 0.000000 0.000000 0.000000
# 2 -0.003931 0.008212 -0.003422 0.000000 0.000000 0.000000
# 3 -0.008131 -0.003422 0.013710 0.000000 0.000000 0.000000
# 4 0.000000 0.000000 0.000000 0.022038 0.000000 0.000000
# 5 0.000000 0.000000 0.000000 0.000000 0.029409 0.000000
# 6 0.000000 0.000000 0.000000 0.000000 0.000000 0.032464
#
#
# Mechanical properties :
#
#
# Convention : Reuss Voigt Hill
#
# Bulk Modulus (GPa) = 35.02560 58.67254 46.84907
# Shear Modulus (GPa) = 27.18651 34.35596 30.77123
#
# Velocity S-wave (km/s) = 3.53872 3.97805 3.76480
# Velocity P-wave (km/s) = 5.72975 6.93724 6.36220
#
# Compressibility (1/GPa) = 0.02855055
#
# Stress axis : x y z
#
# Youngs Moduli (GPa) = 26.59802 121.76988 72.94103
#
# Poissons Ratio (x) = 0.47870 0.59308
# Poissons Ratio (y) = 0.10456 0.24960
# Poissons Ratio (z) = 0.21627 0.41669
#
# Static dielectric constant tensor:
#      x y z
#    x 3.609470 0.000000 0.000000 
#    y 0.000000 4.641850 0.000000 
#    z 0.000000 0.000000 3.739860 
# 
# 
# High freq. dielectric constant tensor:
#      x y z
#    x 1.817580 0.000000 0.000000 
#    y 0.000000 1.891020 0.000000 
#    z 0.000000 0.000000 1.842540 
# 
# From -- ./inp_files/3532.got.cif
#   From: 2010.06.25/outbox.cif.g09.slc.cpg/sg58_2_cif.got.tgz:3532.got - 2010.06.26 21:38:00.
