data_PCOD8238682
_publ_section_title
;
Structure prediction by ZEFSAII (Michael W. Deem and Ramdas Pophale) SiO2 
 PCOD8238682
Probable space group: P N N M
;
_chemical_formula_sum "Si O2"
_cell_formula_units_Z 32
_cell_length_a 5.476974
_cell_length_b 8.812782
_cell_length_c 28.407417
_cell_angle_alpha 90.000000
_cell_angle_beta 90.000000
_cell_angle_gamma 90.000000
_cell_volume 1371.151531
_symmetry_space_group_name_H-M "P N N M"
_symmetry_group_IT_number 58
_symmetry_cell_setting 'orthorhombic'
loop_
_space_group_symop_operation_xyz
x,y,z
-x,-y,z
1/2+x,1/2-y,1/2-z
1/2-x,1/2+y,1/2-z
-x,-y,-z
x,y,-z
1/2-x,1/2+y,1/2+z
1/2+x,1/2-y,1/2+z
loop_
_atom_site_type_symbol
_atom_site_label
_atom_site_fract_x
_atom_site_fract_y
_atom_site_fract_z
Si Si1 0.488422 0.820519 0.270347
Si Si2 0.000000 0.500000 0.394236
Si Si3 0.675720 0.748076 0.366481
Si Si4 0.696126 0.249136 0.445596
Si Si5 0.500000 0.500000 0.901683
O O1 0.240210 0.753935 0.248607
O O2 0.477490 0.778454 0.325863
O O3 0.500000 0.000000 0.261841
O O4 0.187004 0.413096 0.359302
O O5 0.124014 0.620002 0.428606
O O6 0.556256 0.739208 0.417802
O O7 0.867175 0.885718 0.365937
O O8 0.633804 0.269600 0.500000
O O9 0.812270 0.084993 0.435989
#
# Coordination Sequence:
#
# PCOD8238682 Si02
#       5
#     8   4   8   8   4
#     4  12  30  51  82 116 154 199 256 316 385 458
#     4  10  25  42  68  98 144 186 240 300 367 438
#     4  11  26  46  71 101 143 188 240 303 370 443
#     4  11  23  41  67 101 142 188 241 297 368 440
#     4  10  23  42  68  98 144 184 242 296 369 436
#
# _framework density 23.338049000000002
#
# number of rings (size 3 to 8) (size 9 to 14) (size 15 to 20)
#    0.000    1.000    0.000    4.500   12.250   10.000 
#    0.000    0.000    0.000    0.000    0.000    0.000 
#    0.000    0.000    0.000    0.000    0.000    0.000 
#
# Total GULP energy -396914.961160 kJ/mol
# GULP energy per Si atom -12403.592536 kJ/mol
# Density = 2.328493 g / cm^3
# Si number density = 23.338049 Si / 1000 Ang^3
#
#
#
# Elastic Constant Matrix: (Units=GPa)
#
#
# Indices 1 2 3 4 5 6 
#
# 1 115.3106 44.0965 23.4523 0.0000 0.0000 0.0000
# 2 44.0965 152.1672 25.9458 0.0000 0.0000 0.0000
# 3 23.4523 25.9458 97.8877 0.0000 0.0000 0.0000
# 4 0.0000 0.0000 0.0000 16.7995 0.0000 0.0000
# 5 0.0000 0.0000 0.0000 0.0000 35.0845 0.0000
# 6 0.0000 0.0000 0.0000 0.0000 0.0000 23.0441
#
#
#
# Elastic Compliance Matrix: (Units=1/GPa)
#
#
# Indices 1 2 3 4 5 6 
#
# 1 0.010018 -0.002612 -0.001708 0.000000 0.000000 0.000000
# 2 -0.002612 0.007564 -0.001379 0.000000 0.000000 0.000000
# 3 -0.001708 -0.001379 0.010991 0.000000 0.000000 0.000000
# 4 0.000000 0.000000 0.000000 0.059526 0.000000 0.000000
# 5 0.000000 0.000000 0.000000 0.000000 0.028503 0.000000
# 6 0.000000 0.000000 0.000000 0.000000 0.000000 0.043395
#
#
# Mechanical properties :
#
#
# Convention : Reuss Voigt Hill
#
# Bulk Modulus (GPa) = 58.22490 61.37273 59.79882
# Shear Modulus (GPa) = 28.22961 33.11035 30.66998
#
# Velocity S-wave (km/s) = 3.48170 3.77069 3.62907
# Velocity P-wave (km/s) = 6.41604 6.73141 6.57561
#
# Compressibility (1/GPa) = 0.01717478
#
# Stress axis : x y z
#
# Youngs Moduli (GPa) = 99.81560 132.20875 90.98765
#
# Poissons Ratio (x) = 0.34533 0.15540
# Poissons Ratio (y) = 0.26072 0.12548
# Poissons Ratio (z) = 0.17048 0.18232
#
# Static dielectric constant tensor:
#      x y z
#    x 4.304090 0.000000 0.000000 
#    y 0.000000 4.592470 0.000000 
#    z 0.000000 0.000000 4.013360 
# 
# 
# High freq. dielectric constant tensor:
#      x y z
#    x 1.933230 0.000000 0.000000 
#    y 0.000000 1.948480 0.000000 
#    z 0.000000 0.000000 1.912780 
# 
# From -- ./inp_files/34021.got.cif
#   From: 2010.06.25/outbox.cif.g09.slc.cpg/sg58_18_cif.got.tgz:34021.got - 2010.06.26 21:38:00.
