data_PCOD8238707
_publ_section_title
;
Structure prediction by ZEFSAII (Michael W. Deem and Ramdas Pophale) SiO2 
 PCOD8238707
Probable space group: P N N M
;
_chemical_formula_sum "Si O2"
_cell_formula_units_Z 64
_cell_length_a 16.099283
_cell_length_b 9.812154
_cell_length_c 22.312968
_cell_angle_alpha 90.000000
_cell_angle_beta 90.000000
_cell_angle_gamma 90.000000
_cell_volume 3524.749300
_symmetry_space_group_name_H-M "P N N M"
_symmetry_group_IT_number 58
_symmetry_cell_setting 'orthorhombic'
loop_
_space_group_symop_operation_xyz
x,y,z
-x,-y,z
1/2+x,1/2-y,1/2-z
1/2-x,1/2+y,1/2-z
-x,-y,-z
x,y,-z
1/2-x,1/2+y,1/2+z
1/2+x,1/2-y,1/2+z
loop_
_atom_site_type_symbol
_atom_site_label
_atom_site_fract_x
_atom_site_fract_y
_atom_site_fract_z
Si Si1 0.415201 0.723755 0.763873
Si Si2 0.218145 0.672201 0.931324
Si Si3 0.895020 0.193942 0.732945
Si Si4 0.794563 0.976056 0.670794
Si Si5 0.697512 0.581813 0.350953
Si Si6 0.160830 0.507496 0.731265
Si Si7 0.565586 0.386452 0.360781
Si Si8 0.477807 0.145487 0.431846
O O1 0.507366 0.665876 0.774966
O O2 0.348143 0.652298 0.806456
O O3 0.392636 0.685675 0.696044
O O4 0.406182 0.885803 0.771161
O O5 0.268569 0.549757 0.898524
O O6 0.237848 0.811319 0.896592
O O7 0.119905 0.657490 0.926547
O O8 0.248356 0.677396 0.000000
O O9 0.859307 0.150862 0.798198
O O10 0.887910 0.353615 0.722720
O O11 0.847759 0.113501 0.679778
O O12 0.708030 0.989759 0.705555
O O13 0.773780 0.503273 0.322108
O O14 0.642070 0.473310 0.389344
O O15 0.500000 0.500000 0.340833
O O16 0.524865 0.272836 0.402656
O O17 0.508958 0.145151 0.500000
O O18 0.500000 0.000000 0.401231
#
# Coordination Sequence:
#
# PCOD8238707 Si02
#       8
#     8   8   8   8   8   8   8   8
#     4  12  21  35  56  85 119 150 181 238 298 358
#     4  11  22  39  60  82 117 161 202 240 284 349
#     4  11  21  35  56  86 119 148 186 240 300 355
#     4  11  21  37  56  83 116 151 190 242 290 340
#     4  11  21  37  53  87 118 150 196 236 288 348
#     4  11  22  34  56  85 120 146 187 235 301 348
#     4  12  21  34  57  82 117 156 194 233 286 344
#     4  10  24  40  54  80 117 156 201 242 279 337
#
# _framework density 18.157319999999999
#
# number of rings (size 3 to 8) (size 9 to 14) (size 15 to 20)
#    0.000    0.875    7.500    1.500    1.750    0.750 
#    0.000    0.000    0.000    2.250    0.000    0.875 
#    0.000    0.000    0.000    0.000    0.000    0.000 
#
# Total GULP energy -793226.303720 kJ/mol
# GULP energy per Si atom -12394.160996 kJ/mol
# Density = 1.811599 g / cm^3
# Si number density = 18.157320 Si / 1000 Ang^3
#
#
#
# Elastic Constant Matrix: (Units=GPa)
#
#
# Indices 1 2 3 4 5 6 
#
# 1 52.3950 14.5545 25.1248 0.0000 0.0000 0.0000
# 2 14.5545 115.4499 26.2865 0.0000 0.0000 0.0000
# 3 25.1248 26.2865 89.1689 0.0000 0.0000 0.0000
# 4 0.0000 0.0000 0.0000 21.4130 0.0000 0.0000
# 5 0.0000 0.0000 0.0000 0.0000 16.3617 0.0000
# 6 0.0000 0.0000 0.0000 0.0000 0.0000 29.3317
#
#
#
# Elastic Compliance Matrix: (Units=1/GPa)
#
#
# Indices 1 2 3 4 5 6 
#
# 1 0.022301 -0.001480 -0.005847 0.000000 0.000000 0.000000
# 2 -0.001480 0.009383 -0.002349 0.000000 0.000000 0.000000
# 3 -0.005847 -0.002349 0.013555 0.000000 0.000000 0.000000
# 4 0.000000 0.000000 0.000000 0.046701 0.000000 0.000000
# 5 0.000000 0.000000 0.000000 0.000000 0.061118 0.000000
# 6 0.000000 0.000000 0.000000 0.000000 0.000000 0.034093
#
#
# Mechanical properties :
#
#
# Convention : Reuss Voigt Hill
#
# Bulk Modulus (GPa) = 38.63108 43.21617 40.92363
# Shear Modulus (GPa) = 23.24153 26.15781 24.69967
#
# Velocity S-wave (km/s) = 3.58160 3.79967 3.69225
# Velocity P-wave (km/s) = 6.19885 6.56526 6.38468
#
# Compressibility (1/GPa) = 0.02588589
#
# Stress axis : x y z
#
# Youngs Moduli (GPa) = 44.84130 106.57334 73.77491
#
# Poissons Ratio (x) = 0.15773 0.43139
# Poissons Ratio (y) = 0.06637 0.17330
# Poissons Ratio (z) = 0.26220 0.25035
#
# Static dielectric constant tensor:
#      x y z
#    x 3.366190 0.000000 0.000000 
#    y 0.000000 3.665560 0.000000 
#    z 0.000000 0.000000 3.201310 
# 
# 
# High freq. dielectric constant tensor:
#      x y z
#    x 1.703270 0.000000 0.000000 
#    y 0.000000 1.722750 0.000000 
#    z 0.000000 0.000000 1.660270 
# 
# From -- ./inp_files/30261.got.cif
#   From: 2010.06.25/outbox.cif.g09.slc.cpg/sg58_16_cif.got.tgz:30261.got - 2010.06.26 21:38:00.
