data_PCOD8238554
_publ_section_title
;
Structure prediction by ZEFSAII (Michael W. Deem and Ramdas Pophale) SiO2 
 PCOD8238554
Probable space group: P N N M
;
_chemical_formula_sum "Si O2"
_cell_formula_units_Z 48
_cell_length_a 18.509539
_cell_length_b 8.983762
_cell_length_c 13.919065
_cell_angle_alpha 90.000000
_cell_angle_beta 90.000000
_cell_angle_gamma 90.000000
_cell_volume 2314.535803
_symmetry_space_group_name_H-M "P N N M"
_symmetry_group_IT_number 58
_symmetry_cell_setting 'orthorhombic'
loop_
_space_group_symop_operation_xyz
x,y,z
-x,-y,z
1/2+x,1/2-y,1/2-z
1/2-x,1/2+y,1/2-z
-x,-y,-z
x,y,-z
1/2-x,1/2+y,1/2+z
1/2+x,1/2-y,1/2+z
loop_
_atom_site_type_symbol
_atom_site_label
_atom_site_fract_x
_atom_site_fract_y
_atom_site_fract_z
Si Si1 0.160770 0.379986 0.796547
Si Si2 0.097165 0.899846 0.788684
Si Si3 0.017547 0.830888 0.500000
Si Si4 0.291594 0.174146 0.796002
Si Si5 0.042976 0.203679 0.705197
Si Si6 0.821620 0.273427 0.500000
Si Si7 0.586185 0.496609 0.500000
Si Si8 0.838730 0.677380 0.000000
O O1 0.209275 0.229991 0.797760
O O2 0.204292 0.524605 0.764572
O O3 0.091773 0.346369 0.730571
O O4 0.134572 0.410009 0.905616
O O5 0.164419 0.811113 0.747447
O O6 0.025971 0.797989 0.775925
O O7 0.086130 0.048995 0.724193
O O8 0.112176 0.924696 0.901737
O O9 0.981290 0.764409 0.595870
O O10 0.104082 0.818406 0.500000
O O11 0.000000 0.000000 0.500000
O O12 0.318984 0.129255 0.902844
O O13 0.749406 0.172018 0.500000
O O14 0.500000 0.500000 0.500000
O O15 0.623373 0.337298 0.500000
#
# Coordination Sequence:
#
# PCOD8238554 Si02
#       8
#     8   8   4   8   8   4   4   4
#     4  11  24  42  64  93 128 173 216 267 328 385
#     4  11  21  38  64  95 125 167 213 265 317 385
#     4  12  20  37  66  96 127 169 224 267 320 399
#     4  11  24  42  65  91 131 169 219 265 324 390
#     4  11  21  38  63  95 126 165 216 264 321 378
#     4  10  22  41  62  95 124 177 208 270 331 379
#     4  12  20  37  69  98 127 168 223 259 327 398
#     4  10  22  41  67  92 132 171 213 281 327 388
#
# _framework density 20.738499999999998
#
# number of rings (size 3 to 8) (size 9 to 14) (size 15 to 20)
#    0.000    1.000    6.667    1.000    2.333    3.333 
#    0.000    2.500    0.000    3.000    0.000    0.000 
#    0.000    0.000    0.000    0.000    0.000    0.000 
#
# Total GULP energy -594924.317501 kJ/mol
# GULP energy per Si atom -12394.256615 kJ/mol
# Density = 2.069130 g / cm^3
# Si number density = 20.738500 Si / 1000 Ang^3
#
#
#
# Elastic Constant Matrix: (Units=GPa)
#
#
# Indices 1 2 3 4 5 6 
#
# 1 79.4982 11.4163 28.3322 0.0000 0.0000 0.0000
# 2 11.4163 31.0704 30.1635 0.0000 0.0000 0.0000
# 3 28.3322 30.1635 182.2432 0.0000 0.0000 0.0000
# 4 0.0000 0.0000 0.0000 16.5278 0.0000 0.0000
# 5 0.0000 0.0000 0.0000 0.0000 30.1808 0.0000
# 6 0.0000 0.0000 0.0000 0.0000 0.0000 37.7452
#
#
#
# Elastic Compliance Matrix: (Units=1/GPa)
#
#
# Indices 1 2 3 4 5 6 
#
# 1 0.013632 -0.003516 -0.001537 0.000000 0.000000 0.000000
# 2 -0.003516 0.039254 -0.005950 0.000000 0.000000 0.000000
# 3 -0.001537 -0.005950 0.006711 0.000000 0.000000 0.000000
# 4 0.000000 0.000000 0.000000 0.060504 0.000000 0.000000
# 5 0.000000 0.000000 0.000000 0.000000 0.033134 0.000000
# 6 0.000000 0.000000 0.000000 0.000000 0.000000 0.026493
#
#
# Mechanical properties :
#
#
# Convention : Reuss Voigt Hill
#
# Bulk Modulus (GPa) = 26.60390 48.07066 37.33728
# Shear Modulus (GPa) = 23.33561 31.75075 27.54318
#
# Velocity S-wave (km/s) = 3.35809 3.91705 3.64829
# Velocity P-wave (km/s) = 5.28127 6.60965 5.98244
#
# Compressibility (1/GPa) = 0.03758848
#
# Stress axis : x y z
#
# Youngs Moduli (GPa) = 73.35831 25.47541 149.00917
#
# Poissons Ratio (x) = 0.08958 0.22906
# Poissons Ratio (y) = 0.25796 0.88664
# Poissons Ratio (z) = 0.11277 0.15159
#
# Static dielectric constant tensor:
#      x y z
#    x 3.747450 0.000000 0.000000 
#    y 0.000000 3.261530 0.000000 
#    z 0.000000 0.000000 3.911410 
# 
# 
# High freq. dielectric constant tensor:
#      x y z
#    x 1.820760 0.000000 0.000000 
#    y 0.000000 1.771530 0.000000 
#    z 0.000000 0.000000 1.834190 
# 
# From -- ./inp_files/22825.got.cif
#   From: 2010.06.25/outbox.cif.g09.slc.cpg/sg58_12_cif.got.tgz:22825.got - 2010.06.26 21:38:00.
