data_PCOD8238763
_publ_section_title
;
Structure prediction by ZEFSAII (Michael W. Deem and Ramdas Pophale) SiO2 
 PCOD8238763
Probable space group: P N N M
;
_chemical_formula_sum "Si O2"
_cell_formula_units_Z 64
_cell_length_a 24.294772
_cell_length_b 14.646973
_cell_length_c 8.874690
_cell_angle_alpha 90.000000
_cell_angle_beta 90.000000
_cell_angle_gamma 90.000000
_cell_volume 3158.012905
_symmetry_space_group_name_H-M "P N N M"
_symmetry_group_IT_number 58
_symmetry_cell_setting 'orthorhombic'
loop_
_space_group_symop_operation_xyz
x,y,z
-x,-y,z
1/2+x,1/2-y,1/2-z
1/2-x,1/2+y,1/2-z
-x,-y,-z
x,y,-z
1/2-x,1/2+y,1/2+z
1/2+x,1/2-y,1/2+z
loop_
_atom_site_type_symbol
_atom_site_label
_atom_site_fract_x
_atom_site_fract_y
_atom_site_fract_z
Si Si1 0.666411 0.486608 0.327372
Si Si2 0.249483 0.637113 0.826927
Si Si3 0.955108 0.570076 0.825062
Si Si4 0.944181 0.949876 0.678482
Si Si5 0.587227 0.758771 0.175458
Si Si6 0.809324 0.184484 0.171538
Si Si7 0.869215 0.428947 0.173849
Si Si8 0.476984 0.729184 0.678434
O O1 0.650950 0.469815 0.500000
O O2 0.700015 0.398864 0.270984
O O3 0.609782 0.502944 0.236936
O O4 0.704914 0.577434 0.307858
O O5 0.241371 0.745998 0.795281
O O6 0.194529 0.580659 0.779852
O O7 0.264086 0.618442 0.000000
O O8 0.893119 0.530797 0.799911
O O9 0.958206 0.671737 0.755777
O O10 0.000000 0.500000 0.753593
O O11 0.969645 0.580477 0.000000
O O12 0.942583 0.945691 0.500000
O O13 0.939466 0.848133 0.746026
O O14 0.000000 0.000000 0.734416
O O15 0.643073 0.706218 0.210873
O O16 0.592680 0.863663 0.225555
O O17 0.539206 0.710259 0.269486
O O18 0.573365 0.751518 0.000000
O O19 0.829532 0.203759 0.000000
O O20 0.876452 0.399088 0.000000
O O21 0.471174 0.721839 0.500000
#
# Coordination Sequence:
#
# PCOD8238763 Si02
#       8
#     8   8   8   8   8   8   8   8
#     4  11  23  41  65  91 119 153 199 248 296 359
#     4   9  19  37  61  86 117 153 192 242 299 353
#     4   9  16  30  55  84 116 156 200 241 288 352
#     4  11  25  44  64  88 120 155 194 246 308 367
#     4  11  20  30  51  84 118 150 195 246 289 340
#     4   9  20  39  62  85 112 152 197 241 296 352
#     4   9  17  34  56  79 112 157 201 240 289 346
#     4  11  21  35  57  84 118 158 198 240 292 354
#
# _framework density 20.265908
#
# number of rings (size 3 to 8) (size 9 to 14) (size 15 to 20)
#    0.000    2.000    1.250    3.750    0.000    6.000 
#    2.250    1.875    0.000    0.000    0.000    0.000 
#    0.000    0.000    0.000    0.000    0.000    0.000 
#
# Total GULP energy -793391.724373 kJ/mol
# GULP energy per Si atom -12396.745693 kJ/mol
# Density = 2.021978 g / cm^3
# Si number density = 20.265908 Si / 1000 Ang^3
#
#
#
# Elastic Constant Matrix: (Units=GPa)
#
#
# Indices 1 2 3 4 5 6 
#
# 1 80.6341 37.6242 29.6803 0.0000 0.0000 0.0000
# 2 37.6242 125.3745 34.9643 0.0000 0.0000 0.0000
# 3 29.6803 34.9643 71.3590 0.0000 0.0000 0.0000
# 4 0.0000 0.0000 0.0000 19.0698 0.0000 0.0000
# 5 0.0000 0.0000 0.0000 0.0000 25.2337 0.0000
# 6 0.0000 0.0000 0.0000 0.0000 0.0000 30.5017
#
#
#
# Elastic Compliance Matrix: (Units=1/GPa)
#
#
# Indices 1 2 3 4 5 6 
#
# 1 0.015781 -0.003365 -0.004915 0.000000 0.000000 0.000000
# 2 -0.003365 0.009956 -0.003479 0.000000 0.000000 0.000000
# 3 -0.004915 -0.003479 0.017762 0.000000 0.000000 0.000000
# 4 0.000000 0.000000 0.000000 0.052439 0.000000 0.000000
# 5 0.000000 0.000000 0.000000 0.000000 0.039630 0.000000
# 6 0.000000 0.000000 0.000000 0.000000 0.000000 0.032785
#
#
# Mechanical properties :
#
#
# Convention : Reuss Voigt Hill
#
# Bulk Modulus (GPa) = 50.04477 53.54500 51.79489
# Shear Modulus (GPa) = 25.18498 26.63429 25.90964
#
# Velocity S-wave (km/s) = 3.52906 3.62918 3.57947
# Velocity P-wave (km/s) = 6.43066 6.63625 6.53426
#
# Compressibility (1/GPa) = 0.01998211
#
# Stress axis : x y z
#
# Youngs Moduli (GPa) = 63.36730 100.44130 56.29885
#
# Poissons Ratio (x) = 0.33800 0.27671
# Poissons Ratio (y) = 0.21324 0.19584
# Poissons Ratio (z) = 0.31145 0.34939
#
# Static dielectric constant tensor:
#      x y z
#    x 3.459490 0.000000 0.000000 
#    y 0.000000 3.894070 0.000000 
#    z 0.000000 0.000000 3.430030 
# 
# 
# High freq. dielectric constant tensor:
#      x y z
#    x 1.770160 0.000000 0.000000 
#    y 0.000000 1.798090 0.000000 
#    z 0.000000 0.000000 1.773350 
# 
# From -- ./inp_files/9947.got.cif
#   From: 2010.06.25/outbox.cif.g09.slc.cpg/sg58_5_cif.got.tgz:9947.got - 2010.06.26 21:38:00.
