data_PCOD8238245
_publ_section_title
;
Structure prediction by ZEFSAII (Michael W. Deem and Ramdas Pophale) SiO2 
 PCOD8238245
Probable space group: P N N M
;
_chemical_formula_sum "Si O2"
_cell_formula_units_Z 64
_cell_length_a 21.068645
_cell_length_b 10.034336
_cell_length_c 14.128451
_cell_angle_alpha 90.000000
_cell_angle_beta 90.000000
_cell_angle_gamma 90.000000
_cell_volume 2986.893890
_symmetry_space_group_name_H-M "P N N M"
_symmetry_group_IT_number 58
_symmetry_cell_setting 'orthorhombic'
loop_
_space_group_symop_operation_xyz
x,y,z
-x,-y,z
1/2+x,1/2-y,1/2-z
1/2-x,1/2+y,1/2-z
-x,-y,-z
x,y,-z
1/2-x,1/2+y,1/2+z
1/2+x,1/2-y,1/2+z
loop_
_atom_site_type_symbol
_atom_site_label
_atom_site_fract_x
_atom_site_fract_y
_atom_site_fract_z
Si Si1 0.491144 0.655675 0.235985
Si Si2 0.626075 0.723254 0.745756
Si Si3 0.839371 0.004045 0.106616
Si Si4 0.874796 0.832025 0.605305
Si Si5 0.089702 0.257419 0.109086
Si Si6 0.693559 0.066099 0.895196
Si Si7 0.207294 0.913850 0.388451
Si Si8 0.658258 0.000766 0.304273
O O1 0.500000 0.500000 0.220242
O O2 0.555824 0.733666 0.208045
O O3 0.433105 0.707672 0.171817
O O4 0.473066 0.694641 0.343572
O O5 0.620872 0.592098 0.679746
O O6 0.679902 0.711189 0.828461
O O7 0.641608 0.846704 0.675205
O O8 0.766467 0.036185 0.124370
O O9 0.852123 0.846909 0.125510
O O10 0.860101 0.040219 0.000000
O O11 0.902928 0.840188 0.500000
O O12 0.818377 0.724218 0.611581
O O13 0.843338 0.971201 0.633417
O O14 0.105832 0.400256 0.154229
O O15 0.074324 0.279718 0.000000
O O16 0.654482 0.999812 0.810498
O O17 0.673187 0.012808 0.000000
O O18 0.213080 0.878744 0.500000
O O19 0.275105 0.957661 0.349284
#
# Coordination Sequence:
#
# PCOD8238245 Si02
#       8
#     8   8   8   8   8   8   8   8
#     4  12  23  43  69  94 130 174 234 275 325 390
#     4  12  26  41  67 101 133 175 220 278 327 396
#     4  10  21  39  67  98 128 166 216 268 326 391
#     4  10  21  41  68  98 133 175 220 274 333 395
#     4  11  25  45  69  97 134 179 221 272 332 396
#     4  10  21  38  66  98 130 168 213 266 332 400
#     4  11  24  41  67 102 136 172 218 273 337 402
#     4  12  26  42  67  96 141 173 214 274 345 400
#
# _framework density 21.426942
#
# number of rings (size 3 to 8) (size 9 to 14) (size 15 to 20)
#    0.000    1.000    5.000    1.125    1.750    4.500 
#    0.000    0.625    0.000    1.500    0.000    0.000 
#    0.000    0.000    0.000    0.000    0.000    0.000 
#
# Total GULP energy -793550.013401 kJ/mol
# GULP energy per Si atom -12399.218959 kJ/mol
# Density = 2.137817 g / cm^3
# Si number density = 21.426942 Si / 1000 Ang^3
#
#
#
# Elastic Constant Matrix: (Units=GPa)
#
#
# Indices 1 2 3 4 5 6 
#
# 1 74.7060 14.3589 0.2521 0.0000 0.0000 0.0000
# 2 14.3589 86.8954 17.9209 0.0000 0.0000 0.0000
# 3 0.2521 17.9209 81.9281 0.0000 0.0000 0.0000
# 4 0.0000 0.0000 0.0000 28.3459 0.0000 0.0000
# 5 0.0000 0.0000 0.0000 0.0000 20.9818 0.0000
# 6 0.0000 0.0000 0.0000 0.0000 0.0000 15.2915
#
#
#
# Elastic Compliance Matrix: (Units=1/GPa)
#
#
# Indices 1 2 3 4 5 6 
#
# 1 0.013843 -0.002386 0.000479 0.000000 0.000000 0.000000
# 2 -0.002386 0.012463 -0.002719 0.000000 0.000000 0.000000
# 3 0.000479 -0.002719 0.012799 0.000000 0.000000 0.000000
# 4 0.000000 0.000000 0.000000 0.035278 0.000000 0.000000
# 5 0.000000 0.000000 0.000000 0.000000 0.047660 0.000000
# 6 0.000000 0.000000 0.000000 0.000000 0.000000 0.065396
#
#
# Mechanical properties :
#
#
# Convention : Reuss Voigt Hill
#
# Bulk Modulus (GPa) = 33.49689 34.28816 33.89252
# Shear Modulus (GPa) = 24.19639 26.99034 25.59337
#
# Velocity S-wave (km/s) = 3.36408 3.55300 3.45983
# Velocity P-wave (km/s) = 5.54584 5.73313 5.64027
#
# Compressibility (1/GPa) = 0.02985352
#
# Stress axis : x y z
#
# Youngs Moduli (GPa) = 72.23947 80.23662 78.13074
#
# Poissons Ratio (x) = 0.19147 -0.03745
# Poissons Ratio (y) = 0.17239 0.21242
# Poissons Ratio (z) = -0.03463 0.21815
#
# Static dielectric constant tensor:
#      x y z
#    x 3.738140 0.000000 0.000000 
#    y 0.000000 3.891460 0.000000 
#    z 0.000000 0.000000 4.121310 
# 
# 
# High freq. dielectric constant tensor:
#      x y z
#    x 1.826580 0.000000 0.000000 
#    y 0.000000 1.836340 0.000000 
#    z 0.000000 0.000000 1.852480 
# 
# From -- ./inp_files/23566.got.cif
#   From: 2010.06.25/outbox.cif.g09.slc.cpg/sg58_12_cif.got.tgz:23566.got - 2010.06.26 21:38:00.
