data_PCOD8238945
_publ_section_title
;
Structure prediction by ZEFSAII (Michael W. Deem and Ramdas Pophale) SiO2 
 PCOD8238945
Probable space group: P N N M
;
_chemical_formula_sum "Si O2"
_cell_formula_units_Z 48
_cell_length_a 8.280487
_cell_length_b 9.124622
_cell_length_c 29.123551
_cell_angle_alpha 90.000000
_cell_angle_beta 90.000000
_cell_angle_gamma 90.000000
_cell_volume 2200.468160
_symmetry_space_group_name_H-M "P N N M"
_symmetry_group_IT_number 58
_symmetry_cell_setting 'orthorhombic'
loop_
_space_group_symop_operation_xyz
x,y,z
-x,-y,z
1/2+x,1/2-y,1/2-z
1/2-x,1/2+y,1/2-z
-x,-y,-z
x,y,-z
1/2-x,1/2+y,1/2+z
1/2+x,1/2-y,1/2+z
loop_
_atom_site_type_symbol
_atom_site_label
_atom_site_fract_x
_atom_site_fract_y
_atom_site_fract_z
Si Si1 0.620584 0.387604 0.213929
Si Si2 0.660626 0.411718 0.640800
Si Si3 0.337780 0.082126 0.051041
Si Si4 0.330589 0.935318 0.357597
Si Si5 0.107498 0.623972 0.716025
Si Si6 0.835541 0.077805 0.449163
O O1 0.500000 0.500000 0.240535
O O2 0.693292 0.479942 0.171266
O O3 0.757170 0.322832 0.247655
O O4 0.506633 0.254191 0.197499
O O5 0.500000 0.500000 0.654549
O O6 0.698049 0.452431 0.587900
O O7 0.653445 0.237957 0.651807
O O8 0.808121 0.460790 0.673274
O O9 0.378069 0.252201 0.052025
O O10 0.500000 0.000000 0.065364
O O11 0.279196 0.032917 0.000000
O O12 0.298281 0.964170 0.411599
O O13 0.500000 0.000000 0.343217
O O14 0.000000 0.500000 0.741124
O O15 0.773463 0.030493 0.500000
O O16 0.000000 0.000000 0.435800
#
# Coordination Sequence:
#
# PCOD8238945 Si02
#       6
#     8   8   8   8   8   8
#     4  12  25  47  70  96 131 169 222 271 338 403
#     4  11  25  43  64  97 136 172 219 272 325 389
#     4   9  19  38  65  95 130 172 218 266 323 385
#     4  11  25  41  67  95 132 178 216 269 330 391
#     4  12  27  43  70  98 127 169 217 279 330 397
#     4   9  19  37  63  96 130 169 218 269 322 384
#
# _framework density 21.81354
#
# number of rings (size 3 to 8) (size 9 to 14) (size 15 to 20)
#    0.000    1.333    1.667    3.000    7.000    2.000 
#    0.000    0.000    0.000    0.000    0.000    0.000 
#    0.000    0.000    0.000    0.000    0.000    0.000 
#
# Total GULP energy -594956.786320 kJ/mol
# GULP energy per Si atom -12394.933048 kJ/mol
# Density = 2.176389 g / cm^3
# Si number density = 21.813540 Si / 1000 Ang^3
#
#
#
# Elastic Constant Matrix: (Units=GPa)
#
#
# Indices 1 2 3 4 5 6 
#
# 1 133.3477 61.7487 54.4010 0.0000 0.0000 0.0000
# 2 61.7487 82.0079 38.0352 0.0000 0.0000 0.0000
# 3 54.4010 38.0352 110.3407 0.0000 0.0000 0.0000
# 4 0.0000 0.0000 0.0000 26.3943 0.0000 0.0000
# 5 0.0000 0.0000 0.0000 0.0000 27.2093 0.0000
# 6 0.0000 0.0000 0.0000 0.0000 0.0000 51.2598
#
#
#
# Elastic Compliance Matrix: (Units=1/GPa)
#
#
# Indices 1 2 3 4 5 6 
#
# 1 0.012548 -0.007831 -0.003487 0.000000 0.000000 0.000000
# 2 -0.007831 0.019401 -0.002827 0.000000 0.000000 0.000000
# 3 -0.003487 -0.002827 0.011757 0.000000 0.000000 0.000000
# 4 0.000000 0.000000 0.000000 0.037887 0.000000 0.000000
# 5 0.000000 0.000000 0.000000 0.000000 0.036752 0.000000
# 6 0.000000 0.000000 0.000000 0.000000 0.000000 0.019508
#
#
# Mechanical properties :
#
#
# Convention : Reuss Voigt Hill
#
# Bulk Modulus (GPa) = 64.86745 70.45178 67.65962
# Shear Modulus (GPa) = 29.19159 32.40679 30.79919
#
# Velocity S-wave (km/s) = 3.66216 3.85856 3.76164
# Velocity P-wave (km/s) = 6.90533 7.22625 7.06762
#
# Compressibility (1/GPa) = 0.01541605
#
# Stress axis : x y z
#
# Youngs Moduli (GPa) = 79.69388 51.54265 85.05867
#
# Poissons Ratio (x) = 0.40362 0.29661
# Poissons Ratio (y) = 0.62407 0.24046
# Poissons Ratio (z) = 0.27791 0.14571
#
# Static dielectric constant tensor:
#      x y z
#    x 3.969020 0.000000 0.000000 
#    y 0.000000 3.898160 0.000000 
#    z 0.000000 0.000000 4.116540 
# 
# 
# High freq. dielectric constant tensor:
#      x y z
#    x 1.855650 0.000000 0.000000 
#    y 0.000000 1.856670 0.000000 
#    z 0.000000 0.000000 1.864550 
# 
# From -- ./inp_files/34565.got.cif
#   From: 2010.06.25/outbox.cif.g09.slc.cpg/sg58_18_cif.got.tgz:34565.got - 2010.06.26 21:38:00.
