data_PCOD8238998
_publ_section_title
;
Structure prediction by ZEFSAII (Michael W. Deem and Ramdas Pophale) SiO2 
 PCOD8238998
Probable space group: P N N M
;
_chemical_formula_sum "Si O2"
_cell_formula_units_Z 40
_cell_length_a 13.660334
_cell_length_b 17.738472
_cell_length_c 9.484292
_cell_angle_alpha 90.000000
_cell_angle_beta 90.000000
_cell_angle_gamma 90.000000
_cell_volume 2298.171536
_symmetry_space_group_name_H-M "P N N M"
_symmetry_group_IT_number 58
_symmetry_cell_setting 'orthorhombic'
loop_
_space_group_symop_operation_xyz
x,y,z
-x,-y,z
1/2+x,1/2-y,1/2-z
1/2-x,1/2+y,1/2-z
-x,-y,-z
x,y,-z
1/2-x,1/2+y,1/2+z
1/2+x,1/2-y,1/2+z
loop_
_atom_site_type_symbol
_atom_site_label
_atom_site_fract_x
_atom_site_fract_y
_atom_site_fract_z
Si Si1 0.108060 0.978146 0.163533
Si Si2 0.918849 0.335510 0.833042
Si Si3 0.686616 0.684764 0.336153
Si Si4 0.864572 0.634634 0.836142
Si Si5 0.714770 0.970676 0.663683
O O1 0.123415 0.889795 0.193899
O O2 0.183979 0.028054 0.251505
O O3 0.123514 0.997603 0.000000
O O4 0.000000 0.000000 0.214545
O O5 0.877579 0.255127 0.783350
O O6 0.849198 0.401836 0.775308
O O7 0.028616 0.345487 0.774431
O O8 0.923548 0.342416 0.000000
O O9 0.713818 0.692472 0.500000
O O10 0.786979 0.684363 0.249323
O O11 0.847096 0.546260 0.810866
O O12 0.854274 0.655904 0.000000
O O13 0.740641 0.959703 0.500000
#
# Coordination Sequence:
#
# PCOD8238998 Si02
#       5
#     8   8   8   8   8
#     4   9  18  32  48  66  92 126 157 184 221 271
#     4   9  17  30  49  70  92 121 153 186 229 275
#     4   9  18  32  47  66  94 123 151 186 227 269
#     4   9  17  31  50  69  91 119 151 188 228 270
#     4   9  17  30  49  71  91 115 153 194 227 266
#
# _framework density 17.405142000000001
#
# number of rings (size 3 to 8) (size 9 to 14) (size 15 to 20)
#    0.000    3.000    0.000    0.600    0.000    4.400 
#    0.000    5.000    0.000    4.800    0.000    0.000 
#    0.000    0.000    0.000    0.000    0.000    0.000 
#
# Total GULP energy -496053.120010 kJ/mol
# GULP energy per Si atom -12401.328000 kJ/mol
# Density = 1.736553 g / cm^3
# Si number density = 17.405142 Si / 1000 Ang^3
#
#
#
# Elastic Constant Matrix: (Units=GPa)
#
#
# Indices 1 2 3 4 5 6 
#
# 1 192.4592 84.4843 57.9896 0.0000 0.0000 0.0000
# 2 84.4843 92.9183 33.6385 0.0000 0.0000 0.0000
# 3 57.9896 33.6385 42.6394 0.0000 0.0000 0.0000
# 4 0.0000 0.0000 0.0000 19.2716 0.0000 0.0000
# 5 0.0000 0.0000 0.0000 0.0000 30.7254 0.0000
# 6 0.0000 0.0000 0.0000 0.0000 0.0000 27.7172
#
#
#
# Elastic Compliance Matrix: (Units=1/GPa)
#
#
# Indices 1 2 3 4 5 6 
#
# 1 0.010990 -0.006413 -0.009887 0.000000 0.000000 0.000000
# 2 -0.006413 0.018807 -0.006115 0.000000 0.000000 0.000000
# 3 -0.009887 -0.006115 0.041723 0.000000 0.000000 0.000000
# 4 0.000000 0.000000 0.000000 0.051890 0.000000 0.000000
# 5 0.000000 0.000000 0.000000 0.000000 0.032546 0.000000
# 6 0.000000 0.000000 0.000000 0.000000 0.000000 0.036079
#
#
# Mechanical properties :
#
#
# Convention : Reuss Voigt Hill
#
# Bulk Modulus (GPa) = 37.46778 75.58242 56.52510
# Shear Modulus (GPa) = 20.34479 25.66980 23.00729
#
# Velocity S-wave (km/s) = 3.42262 3.84453 3.63969
# Velocity P-wave (km/s) = 6.09858 7.95153 7.08588
#
# Compressibility (1/GPa) = 0.02668960
#
# Stress axis : x y z
#
# Youngs Moduli (GPa) = 90.98932 53.17155 23.96744
#
# Poissons Ratio (x) = 0.34101 0.23697
# Poissons Ratio (y) = 0.58354 0.14656
# Poissons Ratio (z) = 0.89964 0.32514
#
# Static dielectric constant tensor:
#      x y z
#    x 3.369770 0.000000 0.000000 
#    y 0.000000 3.270090 0.000000 
#    z 0.000000 0.000000 3.022120 
# 
# 
# High freq. dielectric constant tensor:
#      x y z
#    x 1.679620 0.000000 0.000000 
#    y 0.000000 1.672460 0.000000 
#    z 0.000000 0.000000 1.645950 
# 
# From -- ./inp_files/3787.got.cif
#   From: 2010.06.25/outbox.cif.g09.slc.cpg/sg58_2_cif.got.tgz:3787.got - 2010.06.26 21:38:00.
