data_PCOD8238374
_publ_section_title
;
Structure prediction by ZEFSAII (Michael W. Deem and Ramdas Pophale) SiO2 
 PCOD8238374
Probable space group: P N N M
;
_chemical_formula_sum "Si O2"
_cell_formula_units_Z 48
_cell_length_a 8.482311
_cell_length_b 9.329288
_cell_length_c 27.440208
_cell_angle_alpha 90.000000
_cell_angle_beta 90.000000
_cell_angle_gamma 90.000000
_cell_volume 2171.451286
_symmetry_space_group_name_H-M "P N N M"
_symmetry_group_IT_number 58
_symmetry_cell_setting 'orthorhombic'
loop_
_space_group_symop_operation_xyz
x,y,z
-x,-y,z
1/2+x,1/2-y,1/2-z
1/2-x,1/2+y,1/2-z
-x,-y,-z
x,y,-z
1/2-x,1/2+y,1/2+z
1/2+x,1/2-y,1/2+z
loop_
_atom_site_type_symbol
_atom_site_label
_atom_site_fract_x
_atom_site_fract_y
_atom_site_fract_z
Si Si1 0.888157 0.381057 0.287049
Si Si2 0.096249 0.786151 0.862966
Si Si3 0.706027 0.672251 0.945414
Si Si4 0.500000 0.000000 0.414664
Si Si5 0.500000 0.500000 0.872659
Si Si6 0.282758 0.575197 0.618266
Si Si7 0.161079 0.173740 0.295128
O O1 0.859670 0.420647 0.343434
O O2 0.727702 0.383853 0.255849
O O3 0.000000 0.500000 0.262808
O O4 0.986468 0.233982 0.285266
O O5 0.205722 0.784894 0.814611
O O6 0.085958 0.625855 0.884254
O O7 0.921915 0.843465 0.851710
O O8 0.175486 0.910876 0.897322
O O9 0.862322 0.573046 0.946306
O O10 0.573723 0.620921 0.907475
O O11 0.747275 0.835911 0.930790
O O12 0.636029 0.672967 0.000000
O O13 0.359484 0.556943 0.838059
#
# Coordination Sequence:
#
# PCOD8238374 Si02
#       7
#     8   8   8   4   4   8   8
#     4  12  26  41  64  93 134 177 227 275 341 408
#     4  10  21  41  68  93 133 175 222 271 344 400
#     4  11  23  43  70 100 134 179 228 287 350 411
#     4  10  21  40  68 102 130 174 220 280 345 414
#     4  12  25  42  68  98 138 176 231 290 344 410
#     4  10  22  43  66  96 134 180 219 285 334 412
#     4  12  26  41  65  96 132 181 227 280 335 412
#
# _framework density 22.105029999999999
#
# number of rings (size 3 to 8) (size 9 to 14) (size 15 to 20)
#    0.000    1.000    5.000    1.500    3.500    1.333 
#    0.000    7.500    0.000    1.500    0.000    0.000 
#    0.000    0.000    0.000    0.000    0.000    0.000 
#
# Total GULP energy -594801.619905 kJ/mol
# GULP energy per Si atom -12391.700415 kJ/mol
# Density = 2.205472 g / cm^3
# Si number density = 22.105030 Si / 1000 Ang^3
#
#
#
# Elastic Constant Matrix: (Units=GPa)
#
#
# Indices 1 2 3 4 5 6 
#
# 1 78.9917 23.4961 35.0362 0.0000 0.0000 0.0000
# 2 23.4961 138.0301 46.8625 0.0000 0.0000 0.0000
# 3 35.0362 46.8625 115.8003 0.0000 0.0000 0.0000
# 4 0.0000 0.0000 0.0000 18.1124 0.0000 0.0000
# 5 0.0000 0.0000 0.0000 0.0000 27.3258 0.0000
# 6 0.0000 0.0000 0.0000 0.0000 0.0000 37.6914
#
#
#
# Elastic Compliance Matrix: (Units=1/GPa)
#
#
# Indices 1 2 3 4 5 6 
#
# 1 0.014779 -0.001157 -0.004004 0.000000 0.000000 0.000000
# 2 -0.001157 0.008489 -0.003086 0.000000 0.000000 0.000000
# 3 -0.004004 -0.003086 0.011096 0.000000 0.000000 0.000000
# 4 0.000000 0.000000 0.000000 0.055211 0.000000 0.000000
# 5 0.000000 0.000000 0.000000 0.000000 0.036595 0.000000
# 6 0.000000 0.000000 0.000000 0.000000 0.000000 0.026531
#
#
# Mechanical properties :
#
#
# Convention : Reuss Voigt Hill
#
# Bulk Modulus (GPa) = 55.95094 60.40131 58.17613
# Shear Modulus (GPa) = 28.54690 31.78775 30.16732
#
# Velocity S-wave (km/s) = 3.59753 3.79625 3.69823
# Velocity P-wave (km/s) = 6.52860 6.82638 6.67915
#
# Compressibility (1/GPa) = 0.01787280
#
# Stress axis : x y z
#
# Youngs Moduli (GPa) = 67.66205 117.79626 90.12643
#
# Poissons Ratio (x) = 0.13624 0.36083
# Poissons Ratio (y) = 0.07826 0.27809
# Poissons Ratio (z) = 0.27089 0.36346
#
# Static dielectric constant tensor:
#      x y z
#    x 4.080600 0.000000 0.000000 
#    y 0.000000 4.129750 0.000000 
#    z 0.000000 0.000000 3.488160 
# 
# 
# High freq. dielectric constant tensor:
#      x y z
#    x 1.882130 0.000000 0.000000 
#    y 0.000000 1.876130 0.000000 
#    z 0.000000 0.000000 1.831890 
# 
# From -- ./inp_files/34648.got.cif
#   From: 2010.06.25/outbox.cif.g09.slc.cpg/sg58_18_cif.got.tgz:34648.got - 2010.06.26 21:38:00.
