data_PCOD8238159
_publ_section_title
;
Structure prediction by ZEFSAII (Michael W. Deem and Ramdas Pophale) SiO2 
 PCOD8238159
Probable space group: P N N M
;
_chemical_formula_sum "Si O2"
_cell_formula_units_Z 64
_cell_length_a 14.581719
_cell_length_b 24.298259
_cell_length_c 9.132296
_cell_angle_alpha 90.000000
_cell_angle_beta 90.000000
_cell_angle_gamma 90.000000
_cell_volume 3235.667311
_symmetry_space_group_name_H-M "P N N M"
_symmetry_group_IT_number 58
_symmetry_cell_setting 'orthorhombic'
loop_
_space_group_symop_operation_xyz
x,y,z
-x,-y,z
1/2+x,1/2-y,1/2-z
1/2-x,1/2+y,1/2-z
-x,-y,-z
x,y,-z
1/2-x,1/2+y,1/2+z
1/2+x,1/2-y,1/2+z
loop_
_atom_site_type_symbol
_atom_site_label
_atom_site_fract_x
_atom_site_fract_y
_atom_site_fract_z
Si Si1 0.484689 0.829021 0.828537
Si Si2 0.603599 0.513464 0.334347
Si Si3 0.247756 0.554126 0.831988
Si Si4 0.340242 0.759728 0.328186
Si Si5 0.451790 0.369348 0.333533
Si Si6 0.378296 0.649528 0.831671
Si Si7 0.127127 0.766042 0.669520
Si Si8 0.557510 0.947162 0.827312
O O1 0.392788 0.811768 0.741873
O O2 0.570756 0.789257 0.791785
O O3 0.509488 0.890651 0.775383
O O4 0.461857 0.827909 0.000000
O O5 0.500000 0.500000 0.287172
O O6 0.621609 0.491847 0.500000
O O7 0.675237 0.487532 0.223309
O O8 0.618176 0.579454 0.326242
O O9 0.283152 0.616885 0.814620
O O10 0.157029 0.547019 0.740203
O O11 0.227343 0.540158 0.000000
O O12 0.358869 0.759544 0.500000
O O13 0.382805 0.705900 0.256388
O O14 0.233194 0.758404 0.290816
O O15 0.481557 0.357494 0.500000
O O16 0.541157 0.386979 0.239538
O O17 0.406125 0.315415 0.268777
O O18 0.400509 0.662534 0.000000
O O19 0.114122 0.781664 0.500000
O O20 0.500000 0.000000 0.774554
O O21 0.570236 0.946725 0.000000
#
# Coordination Sequence:
#
# PCOD8238159 Si02
#       8
#     8   8   8   8   8   8   8   8
#     4  10  21  40  64  89 121 162 204 253 307 360
#     4  10  21  38  59  86 122 161 203 248 297 359
#     4  11  24  39  62  93 123 162 207 256 311 365
#     4  11  23  38  61  91 121 161 206 248 300 363
#     4  11  22  36  59  88 118 158 202 247 298 358
#     4  11  22  37  58  87 123 159 198 248 306 361
#     4  10  22  39  58  86 125 162 197 246 306 361
#     4  10  23  44  68  91 120 162 209 257 307 363
#
# _framework density 19.779536
#
# number of rings (size 3 to 8) (size 9 to 14) (size 15 to 20)
#    0.000    1.500    2.500    2.250    0.000    6.500 
#    0.000    3.750    0.000    0.000    0.000    0.000 
#    0.000    0.000    0.000    0.000    0.000    0.000 
#
# Total GULP energy -793730.445632 kJ/mol
# GULP energy per Si atom -12402.038213 kJ/mol
# Density = 1.973452 g / cm^3
# Si number density = 19.779536 Si / 1000 Ang^3
#
#
#
# Elastic Constant Matrix: (Units=GPa)
#
#
# Indices 1 2 3 4 5 6 
#
# 1 90.7762 40.2491 35.0627 0.0000 0.0000 0.0000
# 2 40.2491 124.9064 38.4656 0.0000 0.0000 0.0000
# 3 35.0627 38.4656 53.7000 0.0000 0.0000 0.0000
# 4 0.0000 0.0000 0.0000 21.7950 0.0000 0.0000
# 5 0.0000 0.0000 0.0000 0.0000 34.3688 0.0000
# 6 0.0000 0.0000 0.0000 0.0000 0.0000 27.4467
#
#
#
# Elastic Compliance Matrix: (Units=1/GPa)
#
#
# Indices 1 2 3 4 5 6 
#
# 1 0.015260 -0.002372 -0.008265 0.000000 0.000000 0.000000
# 2 -0.002372 0.010641 -0.006073 0.000000 0.000000 0.000000
# 3 -0.008265 -0.006073 0.028368 0.000000 0.000000 0.000000
# 4 0.000000 0.000000 0.000000 0.045882 0.000000 0.000000
# 5 0.000000 0.000000 0.000000 0.000000 0.029096 0.000000
# 6 0.000000 0.000000 0.000000 0.000000 0.000000 0.036434
#
#
# Mechanical properties :
#
#
# Convention : Reuss Voigt Hill
#
# Bulk Modulus (GPa) = 47.96309 55.21525 51.58917
# Shear Modulus (GPa) = 24.26579 27.09578 25.68079
#
# Velocity S-wave (km/s) = 3.50639 3.70522 3.60717
# Velocity P-wave (km/s) = 6.37922 6.80300 6.59452
#
# Compressibility (1/GPa) = 0.02084936
#
# Stress axis : x y z
#
# Youngs Moduli (GPa) = 65.53009 93.97948 35.25047
#
# Poissons Ratio (x) = 0.22294 0.29133
# Poissons Ratio (y) = 0.15545 0.21408
# Poissons Ratio (z) = 0.54159 0.57074
#
# Static dielectric constant tensor:
#      x y z
#    x 3.664260 0.000000 0.000000 
#    y 0.000000 3.754560 0.000000 
#    z 0.000000 0.000000 3.591090 
# 
# 
# High freq. dielectric constant tensor:
#      x y z
#    x 1.769160 0.000000 0.000000 
#    y 0.000000 1.778280 0.000000 
#    z 0.000000 0.000000 1.773030 
# 
# From -- ./inp_files/6934.got.cif
#   From: 2010.06.25/outbox.cif.g09.slc.cpg/sg58_4_cif.got.tgz:6934.got - 2010.06.26 21:38:00.
