data_PCOD8238268
_publ_section_title
;
Structure prediction by ZEFSAII (Michael W. Deem and Ramdas Pophale) SiO2 
 PCOD8238268
Probable space group: P N N M
;
_chemical_formula_sum "Si O2"
_cell_formula_units_Z 40
_cell_length_a 14.789241
_cell_length_b 7.611827
_cell_length_c 17.579364
_cell_angle_alpha 90.000000
_cell_angle_beta 90.000000
_cell_angle_gamma 90.000000
_cell_volume 1978.964274
_symmetry_space_group_name_H-M "P N N M"
_symmetry_group_IT_number 58
_symmetry_cell_setting 'orthorhombic'
loop_
_space_group_symop_operation_xyz
x,y,z
-x,-y,z
1/2+x,1/2-y,1/2-z
1/2-x,1/2+y,1/2-z
-x,-y,-z
x,y,-z
1/2-x,1/2+y,1/2+z
1/2+x,1/2-y,1/2+z
loop_
_atom_site_type_symbol
_atom_site_label
_atom_site_fract_x
_atom_site_fract_y
_atom_site_fract_z
Si Si1 0.924407 0.854087 0.415994
Si Si2 0.008167 0.298276 0.265849
Si Si3 0.822433 0.808757 0.818894
Si Si4 0.724899 0.985603 0.587338
Si Si5 0.175254 0.796797 0.200016
O O1 0.918645 0.763256 0.500000
O O2 0.829568 0.945158 0.395492
O O3 0.952639 0.715522 0.351518
O O4 0.000000 0.000000 0.417568
O O5 0.911548 0.202055 0.255921
O O6 0.000000 0.500000 0.245519
O O7 0.073406 0.211280 0.204006
O O8 0.796872 0.686845 0.890362
O O9 0.763438 0.749858 0.747466
O O10 0.807260 0.013524 0.838752
O O11 0.699521 0.961092 0.500000
O O12 0.662837 0.849338 0.634510
#
# Coordination Sequence:
#
# PCOD8238268 Si02
#       5
#     8   8   8   8   8
#     4  10  21  39  61  92 133 168 206 267 332 383
#     4  12  22  38  65  95 124 166 220 267 315 387
#     4  12  22  41  65  93 125 171 217 263 323 384
#     4  11  24  43  65  96 134 170 214 273 327 381
#     4  12  23  40  66  95 129 169 218 268 320 386
#
# _framework density 20.212592999999998
#
# number of rings (size 3 to 8) (size 9 to 14) (size 15 to 20)
#    0.000    0.600    6.000    3.000    0.000    1.200 
#    0.000    2.000    0.000    2.400    0.000    0.000 
#    0.000    0.000    0.000    0.000    0.000    0.000 
#
# Total GULP energy -496076.038806 kJ/mol
# GULP energy per Si atom -12401.900970 kJ/mol
# Density = 2.016659 g / cm^3
# Si number density = 20.212593 Si / 1000 Ang^3
#
#
#
# Elastic Constant Matrix: (Units=GPa)
#
#
# Indices 1 2 3 4 5 6 
#
# 1 85.0781 17.8840 24.7801 0.0000 0.0000 0.0000
# 2 17.8840 124.7957 27.0522 0.0000 0.0000 0.0000
# 3 24.7801 27.0522 95.1836 0.0000 0.0000 0.0000
# 4 0.0000 0.0000 0.0000 29.2179 0.0000 0.0000
# 5 0.0000 0.0000 0.0000 0.0000 27.5002 0.0000
# 6 0.0000 0.0000 0.0000 0.0000 0.0000 28.2415
#
#
#
# Elastic Compliance Matrix: (Units=1/GPa)
#
#
# Indices 1 2 3 4 5 6 
#
# 1 0.012883 -0.001193 -0.003015 0.000000 0.000000 0.000000
# 2 -0.001193 0.008650 -0.002148 0.000000 0.000000 0.000000
# 3 -0.003015 -0.002148 0.011901 0.000000 0.000000 0.000000
# 4 0.000000 0.000000 0.000000 0.034226 0.000000 0.000000
# 5 0.000000 0.000000 0.000000 0.000000 0.036363 0.000000
# 6 0.000000 0.000000 0.000000 0.000000 0.000000 0.035409
#
#
# Mechanical properties :
#
#
# Convention : Reuss Voigt Hill
#
# Bulk Modulus (GPa) = 48.25572 49.38778 48.82175
# Shear Modulus (GPa) = 31.43667 32.68133 32.05900
#
# Velocity S-wave (km/s) = 3.94801 4.02541 3.98690
# Velocity P-wave (km/s) = 6.68643 6.78914 6.73798
#
# Compressibility (1/GPa) = 0.02072293
#
# Stress axis : x y z
#
# Youngs Moduli (GPa) = 77.62325 115.61232 84.02402
#
# Poissons Ratio (x) = 0.13788 0.25333
# Poissons Ratio (y) = 0.09258 0.18047
# Poissons Ratio (z) = 0.23403 0.24831
#
# Static dielectric constant tensor:
#      x y z
#    x 3.865330 0.000000 0.000000 
#    y 0.000000 3.792580 0.000000 
#    z 0.000000 0.000000 3.914870 
# 
# 
# High freq. dielectric constant tensor:
#      x y z
#    x 1.800640 0.000000 0.000000 
#    y 0.000000 1.788500 0.000000 
#    z 0.000000 0.000000 1.775490 
# 
# From -- ./inp_files/26655.got.cif
#   From: 2010.06.25/outbox.cif.g09.slc.cpg/sg58_14_cif.got.tgz:26655.got - 2010.06.26 21:38:00.
