data_PCOD8238423
_publ_section_title
;
Structure prediction by ZEFSAII (Michael W. Deem and Ramdas Pophale) SiO2 
 PCOD8238423
Probable space group: P N N M
;
_chemical_formula_sum "Si O2"
_cell_formula_units_Z 36
_cell_length_a 15.146320
_cell_length_b 8.256040
_cell_length_c 13.573559
_cell_angle_alpha 90.000000
_cell_angle_beta 90.000000
_cell_angle_gamma 90.000000
_cell_volume 1697.354873
_symmetry_space_group_name_H-M "P N N M"
_symmetry_group_IT_number 58
_symmetry_cell_setting 'orthorhombic'
loop_
_space_group_symop_operation_xyz
x,y,z
-x,-y,z
1/2+x,1/2-y,1/2-z
1/2-x,1/2+y,1/2-z
-x,-y,-z
x,y,-z
1/2-x,1/2+y,1/2+z
1/2+x,1/2-y,1/2+z
loop_
_atom_site_type_symbol
_atom_site_label
_atom_site_fract_x
_atom_site_fract_y
_atom_site_fract_z
Si Si1 0.430188 0.734394 0.500000
Si Si2 0.452990 0.237408 0.000000
Si Si3 0.359774 0.884270 0.299688
Si Si4 0.735891 0.798494 0.339709
Si Si5 0.124583 0.865254 0.000000
Si Si6 0.000000 0.500000 0.339963
Si Si7 0.135352 0.073009 0.500000
O O1 0.389319 0.820019 0.405262
O O2 0.536907 0.748264 0.500000
O O3 0.402766 0.549531 0.500000
O O4 0.440078 0.120443 0.905933
O O5 0.549218 0.317143 0.000000
O O6 0.381341 0.379971 0.000000
O O7 0.278323 0.781569 0.256914
O O8 0.335132 0.071644 0.305794
O O9 0.441147 0.878215 0.224550
O O10 0.683790 0.665282 0.403531
O O11 0.810633 0.888367 0.402286
#
# Coordination Sequence:
#
# PCOD8238423 Si02
#       7
#     4   4   8   8   4   4   4
#     4  11  24  47  67  95 134 187 220 268 332 403
#     4  10  22  43  66  95 126 173 207 276 322 396
#     4  12  25  43  66 100 133 178 222 270 330 394
#     4  11  24  42  66 100 131 171 221 280 325 391
#     4  10  23  46  70  93 134 175 224 279 331 399
#     4  11  24  43  68  96 132 171 220 267 324 402
#     4  10  21  44  65  93 130 164 216 265 335 381
#
# _framework density 21.20947
#
# number of rings (size 3 to 8) (size 9 to 14) (size 15 to 20)
#    0.000    1.111    2.222    4.000    3.111    1.333 
#   12.000    0.000    0.000    0.000    0.000    0.000 
#    0.000    0.000    0.000    0.000    0.000    0.000 
#
# Total GULP energy -446555.054793 kJ/mol
# GULP energy per Si atom -12404.307078 kJ/mol
# Density = 2.116120 g / cm^3
# Si number density = 21.209470 Si / 1000 Ang^3
#
#
#
# Elastic Constant Matrix: (Units=GPa)
#
#
# Indices 1 2 3 4 5 6 
#
# 1 93.6432 28.3221 51.2509 0.0000 0.0000 0.0000
# 2 28.3221 93.4330 46.7760 0.0000 0.0000 0.0000
# 3 51.2509 46.7760 154.8759 0.0000 0.0000 0.0000
# 4 0.0000 0.0000 0.0000 18.8144 0.0000 0.0000
# 5 0.0000 0.0000 0.0000 0.0000 27.0566 0.0000
# 6 0.0000 0.0000 0.0000 0.0000 0.0000 46.2789
#
#
#
# Elastic Compliance Matrix: (Units=1/GPa)
#
#
# Indices 1 2 3 4 5 6 
#
# 1 0.013404 -0.002171 -0.003780 0.000000 0.000000 0.000000
# 2 -0.002171 0.012961 -0.003196 0.000000 0.000000 0.000000
# 3 -0.003780 -0.003196 0.008673 0.000000 0.000000 0.000000
# 4 0.000000 0.000000 0.000000 0.053151 0.000000 0.000000
# 5 0.000000 0.000000 0.000000 0.000000 0.036960 0.000000
# 6 0.000000 0.000000 0.000000 0.000000 0.000000 0.021608
#
#
# Mechanical properties :
#
#
# Convention : Reuss Voigt Hill
#
# Bulk Modulus (GPa) = 59.72208 66.07224 62.89716
# Shear Modulus (GPa) = 29.30286 32.80353 31.05319
#
# Velocity S-wave (km/s) = 3.72101 3.93701 3.83053
# Velocity P-wave (km/s) = 6.83232 7.20323 7.02023
#
# Compressibility (1/GPa) = 0.01674423
#
# Stress axis : x y z
#
# Youngs Moduli (GPa) = 74.60353 77.15460 115.30059
#
# Poissons Ratio (x) = 0.16748 0.43584
# Poissons Ratio (y) = 0.16194 0.36852
# Poissons Ratio (z) = 0.28201 0.24660
#
# Static dielectric constant tensor:
#      x y z
#    x 3.927220 0.000000 0.000000 
#    y 0.000000 3.834010 0.000000 
#    z 0.000000 0.000000 3.940670 
# 
# 
# High freq. dielectric constant tensor:
#      x y z
#    x 1.836490 0.000000 0.000000 
#    y 0.000000 1.838500 0.000000 
#    z 0.000000 0.000000 1.841830 
# 
# From -- ./inp_files/21862.got.cif
#   From: 2010.06.25/outbox.cif.g09.slc.cpg/sg58_11_cif.got.tgz:21862.got - 2010.06.26 21:38:00.
