data_PCOD8238077
_publ_section_title
;
Structure prediction by ZEFSAII (Michael W. Deem and Ramdas Pophale) SiO2 
 PCOD8238077
Probable space group: P N N M
;
_chemical_formula_sum "Si O2"
_cell_formula_units_Z 48
_cell_length_a 9.388724
_cell_length_b 8.732293
_cell_length_c 26.386928
_cell_angle_alpha 90.000000
_cell_angle_beta 90.000000
_cell_angle_gamma 90.000000
_cell_volume 2163.334637
_symmetry_space_group_name_H-M "P N N M"
_symmetry_group_IT_number 58
_symmetry_cell_setting 'orthorhombic'
loop_
_space_group_symop_operation_xyz
x,y,z
-x,-y,z
1/2+x,1/2-y,1/2-z
1/2-x,1/2+y,1/2-z
-x,-y,-z
x,y,-z
1/2-x,1/2+y,1/2+z
1/2+x,1/2-y,1/2+z
loop_
_atom_site_type_symbol
_atom_site_label
_atom_site_fract_x
_atom_site_fract_y
_atom_site_fract_z
Si Si1 0.570489 0.843165 0.273852
Si Si2 0.602255 0.365420 0.789706
Si Si3 0.192329 0.156295 0.597466
Si Si4 0.456857 0.325381 0.624021
Si Si5 0.450671 0.157822 0.942413
Si Si6 0.314344 0.841094 0.560203
O O1 0.485812 0.789525 0.223361
O O2 0.740207 0.863820 0.263670
O O3 0.535093 0.718333 0.316977
O O4 0.500000 0.000000 0.292614
O O5 0.500000 0.500000 0.768646
O O6 0.620425 0.387254 0.849366
O O7 0.295730 0.301263 0.605469
O O8 0.070337 0.210842 0.559434
O O9 0.275546 0.014422 0.573831
O O10 0.500000 0.500000 0.615117
O O11 0.546071 0.208494 0.589758
O O12 0.307623 0.227094 0.918536
O O13 0.500000 0.000000 0.914561
O O14 0.415422 0.118204 0.000000
O O15 0.338706 0.828728 0.500000
#
# Coordination Sequence:
#
# PCOD8238077 Si02
#       6
#     8   8   8   8   8   8
#     4  11  24  42  65  93 126 169 217 271 337 403
#     4  11  23  41  64  93 127 165 213 267 326 395
#     4  11  23  40  63  92 124 167 216 266 324 389
#     4  11  24  42  63  90 128 168 213 272 333 396
#     4  10  21  37  58  87 123 162 208 263 321 381
#     4  11  23  40  65  95 130 175 223 274 332 395
#
# _framework density 22.187967
#
# number of rings (size 3 to 8) (size 9 to 14) (size 15 to 20)
#    0.000    1.167    0.000    7.000    0.000    7.000 
#    0.000    0.000    0.000    0.000    0.000    0.000 
#    0.000    0.000    0.000    0.000    0.000    0.000 
#
# Total GULP energy -595130.783470 kJ/mol
# GULP energy per Si atom -12398.557989 kJ/mol
# Density = 2.213747 g / cm^3
# Si number density = 22.187967 Si / 1000 Ang^3
#
#
#
# Elastic Constant Matrix: (Units=GPa)
#
#
# Indices 1 2 3 4 5 6 
#
# 1 136.8287 38.8081 29.4034 0.0000 0.0000 0.0000
# 2 38.8081 92.9238 10.2792 0.0000 0.0000 0.0000
# 3 29.4034 10.2792 51.4129 0.0000 0.0000 0.0000
# 4 0.0000 0.0000 0.0000 29.5694 0.0000 0.0000
# 5 0.0000 0.0000 0.0000 0.0000 29.4397 0.0000
# 6 0.0000 0.0000 0.0000 0.0000 0.0000 50.1384
#
#
#
# Elastic Compliance Matrix: (Units=1/GPa)
#
#
# Indices 1 2 3 4 5 6 
#
# 1 0.009252 -0.003353 -0.004621 0.000000 0.000000 0.000000
# 2 -0.003353 0.012220 -0.000526 0.000000 0.000000 0.000000
# 3 -0.004621 -0.000526 0.022198 0.000000 0.000000 0.000000
# 4 0.000000 0.000000 0.000000 0.033819 0.000000 0.000000
# 5 0.000000 0.000000 0.000000 0.000000 0.033968 0.000000
# 6 0.000000 0.000000 0.000000 0.000000 0.000000 0.019945
#
#
# Mechanical properties :
#
#
# Convention : Reuss Voigt Hill
#
# Bulk Modulus (GPa) = 37.49352 48.68297 43.08824
# Shear Modulus (GPa) = 31.78806 35.34117 33.56462
#
# Velocity S-wave (km/s) = 3.78917 3.99533 3.89361
# Velocity P-wave (km/s) = 6.00654 6.57817 6.29885
#
# Compressibility (1/GPa) = 0.02667128
#
# Stress axis : x y z
#
# Youngs Moduli (GPa) = 108.07971 81.83344 45.04845
#
# Poissons Ratio (x) = 0.27438 0.20818
# Poissons Ratio (y) = 0.36238 0.02368
# Poissons Ratio (z) = 0.49945 0.04301
#
# Static dielectric constant tensor:
#      x y z
#    x 4.237780 0.000000 0.000000 
#    y 0.000000 4.061660 0.000000 
#    z 0.000000 0.000000 3.711760 
# 
# 
# High freq. dielectric constant tensor:
#      x y z
#    x 1.892040 0.000000 0.000000 
#    y 0.000000 1.881310 0.000000 
#    z 0.000000 0.000000 1.856540 
# 
# From -- ./inp_files/34556.got.cif
#   From: 2010.06.25/outbox.cif.g09.slc.cpg/sg58_18_cif.got.tgz:34556.got - 2010.06.26 21:38:00.
