data_PCOD8238394
_publ_section_title
;
Structure prediction by ZEFSAII (Michael W. Deem and Ramdas Pophale) SiO2 
 PCOD8238394
Probable space group: P N N M
;
_chemical_formula_sum "Si O2"
_cell_formula_units_Z 48
_cell_length_a 16.065858
_cell_length_b 9.041972
_cell_length_c 15.468768
_cell_angle_alpha 90.000000
_cell_angle_beta 90.000000
_cell_angle_gamma 90.000000
_cell_volume 2247.102112
_symmetry_space_group_name_H-M "P N N M"
_symmetry_group_IT_number 58
_symmetry_cell_setting 'orthorhombic'
loop_
_space_group_symop_operation_xyz
x,y,z
-x,-y,z
1/2+x,1/2-y,1/2-z
1/2-x,1/2+y,1/2-z
-x,-y,-z
x,y,-z
1/2-x,1/2+y,1/2+z
1/2+x,1/2-y,1/2+z
loop_
_atom_site_type_symbol
_atom_site_label
_atom_site_fract_x
_atom_site_fract_y
_atom_site_fract_z
Si Si1 0.155170 0.073771 0.663582
Si Si2 0.840478 0.748789 0.171173
Si Si3 0.921204 0.228948 0.000000
Si Si4 0.071244 0.621964 0.500000
Si Si5 0.892585 0.894292 0.000000
Si Si6 0.559036 0.365079 0.000000
Si Si7 0.852209 0.260458 0.668264
Si Si8 0.145636 0.583722 0.839728
O O1 0.121603 0.157106 0.749252
O O2 0.118001 0.159315 0.582160
O O3 0.254568 0.083251 0.653087
O O4 0.115331 0.908278 0.660130
O O5 0.846724 0.840216 0.084382
O O6 0.743711 0.733539 0.188121
O O7 0.883953 0.587927 0.161493
O O8 0.897060 0.327208 0.917481
O O9 0.016715 0.178758 0.000000
O O10 0.876794 0.070427 0.000000
O O11 0.129572 0.633393 0.585733
O O12 0.000000 0.500000 0.500000
O O13 0.016050 0.759615 0.500000
O O14 0.500000 0.500000 0.000000
O O15 0.889167 0.341477 0.752405
#
# Coordination Sequence:
#
# PCOD8238394 Si02
#       8
#     8   8   4   4   4   4   8   8
#     4  10  21  41  65  93 123 164 212 249 310 378
#     4  10  22  40  68  93 119 162 211 261 307 370
#     4  11  24  42  60  88 125 163 201 257 315 371
#     4  12  27  41  59  92 133 168 205 259 318 370
#     4  11  24  42  60  88 121 165 209 246 318 376
#     4  12  23  41  63  90 125 174 207 247 314 383
#     4  10  21  43  63  90 128 164 205 258 310 366
#     4  10  22  40  66  94 123 159 208 266 309 361
#
# _framework density 21.360845000000001
#
# number of rings (size 3 to 8) (size 9 to 14) (size 15 to 20)
#    0.000    1.500    1.667    2.500    2.333    6.667 
#    6.000    0.000    0.000    0.000    0.000    0.000 
#    0.000    0.000    0.000    0.000    0.000    0.000 
#
# Total GULP energy -594664.352641 kJ/mol
# GULP energy per Si atom -12388.840680 kJ/mol
# Density = 2.131223 g / cm^3
# Si number density = 21.360845 Si / 1000 Ang^3
#
#
#
# Elastic Constant Matrix: (Units=GPa)
#
#
# Indices 1 2 3 4 5 6 
#
# 1 19.4342 6.1938 9.3237 0.0000 0.0000 0.0000
# 2 6.1938 108.5026 40.7071 0.0000 0.0000 0.0000
# 3 9.3237 40.7071 184.6053 0.0000 0.0000 0.0000
# 4 0.0000 0.0000 0.0000 41.8436 0.0000 0.0000
# 5 0.0000 0.0000 0.0000 0.0000 20.9999 0.0000
# 6 0.0000 0.0000 0.0000 0.0000 0.0000 34.5748
#
#
#
# Elastic Compliance Matrix: (Units=1/GPa)
#
#
# Indices 1 2 3 4 5 6 
#
# 1 0.053216 -0.002212 -0.002200 0.000000 0.000000 0.000000
# 2 -0.002212 0.010140 -0.002124 0.000000 0.000000 0.000000
# 3 -0.002200 -0.002124 0.005996 0.000000 0.000000 0.000000
# 4 0.000000 0.000000 0.000000 0.023899 0.000000 0.000000
# 5 0.000000 0.000000 0.000000 0.000000 0.047619 0.000000
# 6 0.000000 0.000000 0.000000 0.000000 0.000000 0.028923
#
#
# Mechanical properties :
#
#
# Convention : Reuss Voigt Hill
#
# Bulk Modulus (GPa) = 17.76853 47.22128 32.49490
# Shear Modulus (GPa) = 24.79843 36.57149 30.68496
#
# Velocity S-wave (km/s) = 3.41094 4.14222 3.79424
# Velocity P-wave (km/s) = 4.88354 6.71057 5.86859
#
# Compressibility (1/GPa) = 0.05627928
#
# Stress axis : x y z
#
# Youngs Moduli (GPa) = 18.79126 98.62344 166.76513
#
# Poissons Ratio (x) = 0.21820 0.36686
# Poissons Ratio (y) = 0.04158 0.35423
# Poissons Ratio (z) = 0.04134 0.20949
#
# Static dielectric constant tensor:
#      x y z
#    x 3.758990 0.000000 0.000000 
#    y 0.000000 4.131590 0.000000 
#    z 0.000000 0.000000 4.401520 
# 
# 
# High freq. dielectric constant tensor:
#      x y z
#    x 1.824940 0.000000 0.000000 
#    y 0.000000 1.851570 0.000000 
#    z 0.000000 0.000000 1.852400 
# 
# From -- ./inp_files/22817.got.cif
#   From: 2010.06.25/outbox.cif.g09.slc.cpg/sg58_12_cif.got.tgz:22817.got - 2010.06.26 21:38:00.
