data_PCOD8238654
_publ_section_title
;
Structure prediction by ZEFSAII (Michael W. Deem and Ramdas Pophale) SiO2 
 PCOD8238654
Probable space group: P N N M
;
_chemical_formula_sum "Si O2"
_cell_formula_units_Z 64
_cell_length_a 23.591630
_cell_length_b 15.234136
_cell_length_c 8.537507
_cell_angle_alpha 90.000000
_cell_angle_beta 90.000000
_cell_angle_gamma 90.000000
_cell_volume 3068.363794
_symmetry_space_group_name_H-M "P N N M"
_symmetry_group_IT_number 58
_symmetry_cell_setting 'orthorhombic'
loop_
_space_group_symop_operation_xyz
x,y,z
-x,-y,z
1/2+x,1/2-y,1/2-z
1/2-x,1/2+y,1/2-z
-x,-y,-z
x,y,-z
1/2-x,1/2+y,1/2+z
1/2+x,1/2-y,1/2+z
loop_
_atom_site_type_symbol
_atom_site_label
_atom_site_fract_x
_atom_site_fract_y
_atom_site_fract_z
Si Si1 0.749101 0.150557 0.182405
Si Si2 0.639262 0.078624 0.681101
Si Si3 0.749725 0.337190 0.681537
Si Si4 0.642645 0.413200 0.182488
Si Si5 0.373250 0.405963 0.315576
Si Si6 0.046934 0.747460 0.182405
Si Si7 0.374966 0.102584 0.818598
Si Si8 0.575160 0.240877 0.818572
O O1 0.705071 0.090513 0.275679
O O2 0.736502 0.252389 0.213943
O O3 0.811937 0.127910 0.241350
O O4 0.740743 0.131083 0.000000
O O5 0.634060 0.055188 0.500000
O O6 0.604239 0.165989 0.716396
O O7 0.612493 0.998677 0.779349
O O8 0.747112 0.310888 0.500000
O O9 0.701548 0.408445 0.721496
O O10 0.810149 0.377277 0.726474
O O11 0.611505 0.503424 0.229437
O O12 0.601352 0.334089 0.231405
O O13 0.656478 0.411818 0.000000
O O14 0.373886 0.421105 0.500000
O O15 0.419119 0.334036 0.264569
O O16 0.084887 0.662283 0.212910
O O17 0.991312 0.742869 0.286890
O O18 0.030887 0.750893 0.000000
O O19 0.387685 0.121011 0.000000
O O20 0.586615 0.220495 0.000000
#
# Coordination Sequence:
#
# PCOD8238654 Si02
#       8
#     8   8   8   8   8   8   8   8
#     4  11  21  38  63  93 130 168 203 252 314 374
#     4  12  25  41  65  96 127 166 211 259 309 374
#     4  11  22  37  63  95 128 166 206 252 312 375
#     4  11  24  40  64  93 127 167 209 258 311 371
#     4  10  23  41  64  93 129 166 205 256 312 370
#     4  11  24  44  67  93 123 164 213 264 313 370
#     4  11  24  42  65  95 130 167 205 257 315 376
#     4  11  25  45  65  90 124 166 211 265 318 368
#
# _framework density 20.858021999999998
#
# number of rings (size 3 to 8) (size 9 to 14) (size 15 to 20)
#    0.000    1.000    2.500    4.125    0.000    9.000 
#    0.000    5.000    0.000    0.000    0.000    0.000 
#    0.000    0.000    0.000    0.000    0.000    0.000 
#
# Total GULP energy -794156.456919 kJ/mol
# GULP energy per Si atom -12408.694639 kJ/mol
# Density = 2.081055 g / cm^3
# Si number density = 20.858022 Si / 1000 Ang^3
#
#
#
# Elastic Constant Matrix: (Units=GPa)
#
#
# Indices 1 2 3 4 5 6 
#
# 1 96.5743 19.8415 25.7567 0.0000 0.0000 0.0000
# 2 19.8415 109.3954 19.4452 0.0000 0.0000 0.0000
# 3 25.7567 19.4452 54.1800 0.0000 0.0000 0.0000
# 4 0.0000 0.0000 0.0000 36.4483 0.0000 0.0000
# 5 0.0000 0.0000 0.0000 0.0000 30.4518 0.0000
# 6 0.0000 0.0000 0.0000 0.0000 0.0000 10.9894
#
#
#
# Elastic Compliance Matrix: (Units=1/GPa)
#
#
# Indices 1 2 3 4 5 6 
#
# 1 0.012014 -0.001243 -0.005265 0.000000 0.000000 0.000000
# 2 -0.001243 0.009893 -0.002959 0.000000 0.000000 0.000000
# 3 -0.005265 -0.002959 0.022022 0.000000 0.000000 0.000000
# 4 0.000000 0.000000 0.000000 0.027436 0.000000 0.000000
# 5 0.000000 0.000000 0.000000 0.000000 0.032839 0.000000
# 6 0.000000 0.000000 0.000000 0.000000 0.000000 0.090997
#
#
# Mechanical properties :
#
#
# Convention : Reuss Voigt Hill
#
# Bulk Modulus (GPa) = 40.01072 43.35961 41.68517
# Shear Modulus (GPa) = 22.47509 28.58498 25.53003
#
# Velocity S-wave (km/s) = 3.28613 3.70598 3.50235
# Velocity P-wave (km/s) = 5.79847 6.25664 6.03191
#
# Compressibility (1/GPa) = 0.02499330
#
# Stress axis : x y z
#
# Youngs Moduli (GPa) = 83.23315 101.08473 45.40851
#
# Poissons Ratio (x) = 0.12567 0.23909
# Poissons Ratio (y) = 0.10347 0.13439
# Poissons Ratio (z) = 0.43826 0.29916
#
# Static dielectric constant tensor:
#      x y z
#    x 3.741980 0.000000 0.000000 
#    y 0.000000 3.846400 0.000000 
#    z 0.000000 0.000000 3.655060 
# 
# 
# High freq. dielectric constant tensor:
#      x y z
#    x 1.813240 0.000000 0.000000 
#    y 0.000000 1.828700 0.000000 
#    z 0.000000 0.000000 1.819950 
# 
# From -- ./inp_files/10006.got.cif
#   From: 2010.06.25/outbox.cif.g09.slc.cpg/sg58_6_cif.got.tgz:10006.got - 2010.06.26 21:38:00.
