data_PCOD8238647
_publ_section_title
;
Structure prediction by ZEFSAII (Michael W. Deem and Ramdas Pophale) SiO2 
 PCOD8238647
Probable space group: P N N M
;
_chemical_formula_sum "Si O2"
_cell_formula_units_Z 48
_cell_length_a 10.289952
_cell_length_b 26.531466
_cell_length_c 8.194941
_cell_angle_alpha 90.000000
_cell_angle_beta 90.000000
_cell_angle_gamma 90.000000
_cell_volume 2237.280450
_symmetry_space_group_name_H-M "P N N M"
_symmetry_group_IT_number 58
_symmetry_cell_setting 'orthorhombic'
loop_
_space_group_symop_operation_xyz
x,y,z
-x,-y,z
1/2+x,1/2-y,1/2-z
1/2-x,1/2+y,1/2-z
-x,-y,-z
x,y,-z
1/2-x,1/2+y,1/2+z
1/2+x,1/2-y,1/2+z
loop_
_atom_site_type_symbol
_atom_site_label
_atom_site_fract_x
_atom_site_fract_y
_atom_site_fract_z
Si Si1 0.128135 0.797701 0.191087
Si Si2 0.371043 0.860492 0.810617
Si Si3 0.374052 0.971128 0.687810
Si Si4 0.865113 0.312920 0.310585
Si Si5 0.390092 0.639217 0.188964
Si Si6 0.130483 0.027594 0.189356
O O1 0.249082 0.829885 0.262872
O O2 0.119535 0.746683 0.293089
O O3 0.997518 0.828478 0.219250
O O4 0.143357 0.785666 0.000000
O O5 0.352185 0.919590 0.783588
O O6 0.506551 0.840197 0.737318
O O7 0.372944 0.848840 0.000000
O O8 0.396979 0.957595 0.500000
O O9 0.500000 0.000000 0.759072
O O10 0.249599 0.006574 0.706178
O O11 0.842724 0.326784 0.500000
O O12 0.746275 0.332309 0.202907
O O13 0.383326 0.586356 0.279921
O O14 0.426103 0.631877 0.000000
O O15 0.158117 0.016870 0.000000
O O16 0.000000 0.000000 0.248012
#
# Coordination Sequence:
#
# PCOD8238647 Si02
#       6
#     8   8   8   8   8   8
#     4  11  23  41  64  92 125 160 203 254 307 365
#     4  10  23  41  62  89 121 158 201 249 303 364
#     4  11  24  40  61  91 123 157 200 248 301 364
#     4  11  23  41  65  93 124 161 205 253 309 366
#     4  12  25  41  62  91 126 164 207 252 302 364
#     4  11  24  42  64  90 121 159 204 254 308 363
#
# _framework density 21.454618
#
# number of rings (size 3 to 8) (size 9 to 14) (size 15 to 20)
#    0.000    1.000    0.000    6.500    0.000   13.333 
#    0.000    0.000    0.000    0.000    0.000    0.000 
#    0.000    0.000    0.000    0.000    0.000    0.000 
#
# Total GULP energy -595579.317223 kJ/mol
# GULP energy per Si atom -12407.902442 kJ/mol
# Density = 2.140579 g / cm^3
# Si number density = 21.454618 Si / 1000 Ang^3
#
#
#
# Elastic Constant Matrix: (Units=GPa)
#
#
# Indices 1 2 3 4 5 6 
#
# 1 153.2307 52.5411 10.9551 0.0000 0.0000 0.0000
# 2 52.5411 135.0796 -6.8220 0.0000 0.0000 0.0000
# 3 10.9551 -6.8220 47.2113 0.0000 0.0000 0.0000
# 4 0.0000 0.0000 0.0000 31.6735 0.0000 0.0000
# 5 0.0000 0.0000 0.0000 0.0000 73.6301 0.0000
# 6 0.0000 0.0000 0.0000 0.0000 0.0000 52.8365
#
#
#
# Elastic Compliance Matrix: (Units=1/GPa)
#
#
# Indices 1 2 3 4 5 6 
#
# 1 0.007761 -0.003133 -0.002254 0.000000 0.000000 0.000000
# 2 -0.003133 0.008722 0.001987 0.000000 0.000000 0.000000
# 3 -0.002254 0.001987 0.021991 0.000000 0.000000 0.000000
# 4 0.000000 0.000000 0.000000 0.031572 0.000000 0.000000
# 5 0.000000 0.000000 0.000000 0.000000 0.013581 0.000000
# 6 0.000000 0.000000 0.000000 0.000000 0.000000 0.018926
#
#
# Mechanical properties :
#
#
# Convention : Reuss Voigt Hill
#
# Bulk Modulus (GPa) = 31.56914 49.87446 40.72180
# Shear Modulus (GPa) = 41.69732 50.21784 45.95758
#
# Velocity S-wave (km/s) = 4.41331 4.84328 4.63329
# Velocity P-wave (km/s) = 6.38092 7.38738 6.90252
#
# Compressibility (1/GPa) = 0.03167650
#
# Stress axis : x y z
#
# Youngs Moduli (GPa) = 128.84257 114.65354 45.47217
#
# Poissons Ratio (x) = 0.35918 0.10248
# Poissons Ratio (y) = 0.40363 -0.09036
# Poissons Ratio (z) = 0.29037 -0.22785
#
# Static dielectric constant tensor:
#      x y z
#    x 4.155160 0.000000 0.000000 
#    y 0.000000 3.833490 0.000000 
#    z 0.000000 0.000000 3.663410 
# 
# 
# High freq. dielectric constant tensor:
#      x y z
#    x 1.861160 0.000000 0.000000 
#    y 0.000000 1.855330 0.000000 
#    z 0.000000 0.000000 1.837050 
# 
# From -- ./inp_files/4185.got.cif
#   From: 2010.06.25/outbox.cif.g09.slc.cpg/sg58_3_cif.got.tgz:4185.got - 2010.06.26 21:38:00.
