data_PCOD8238285
_publ_section_title
;
Structure prediction by ZEFSAII (Michael W. Deem and Ramdas Pophale) SiO2 
 PCOD8238285
Probable space group: P N N M
;
_chemical_formula_sum "Si O2"
_cell_formula_units_Z 40
_cell_length_a 8.705353
_cell_length_b 24.962008
_cell_length_c 8.930901
_cell_angle_alpha 90.000000
_cell_angle_beta 90.000000
_cell_angle_gamma 90.000000
_cell_volume 1940.712395
_symmetry_space_group_name_H-M "P N N M"
_symmetry_group_IT_number 58
_symmetry_cell_setting 'orthorhombic'
loop_
_space_group_symop_operation_xyz
x,y,z
-x,-y,z
1/2+x,1/2-y,1/2-z
1/2-x,1/2+y,1/2-z
-x,-y,-z
x,y,-z
1/2-x,1/2+y,1/2+z
1/2+x,1/2-y,1/2+z
loop_
_atom_site_type_symbol
_atom_site_label
_atom_site_fract_x
_atom_site_fract_y
_atom_site_fract_z
Si Si1 0.854177 0.887320 0.171544
Si Si2 0.326483 0.007108 0.827178
Si Si3 0.668127 0.782347 0.174588
Si Si4 0.330794 0.411691 0.823682
Si Si5 0.327154 0.814561 0.175969
O O1 0.722040 0.931434 0.195704
O O2 0.783964 0.830105 0.214480
O O3 0.996158 0.897767 0.279071
O O4 0.911930 0.888082 0.000000
O O5 0.500000 0.000000 0.768085
O O6 0.210245 0.970976 0.732185
O O7 0.314832 0.989466 0.000000
O O8 0.498255 0.799058 0.223638
O O9 0.709045 0.730475 0.270207
O O10 0.674898 0.767637 0.000000
O O11 0.210502 0.370688 0.752430
O O12 0.316301 0.408996 0.000000
O O13 0.310253 0.822053 0.000000
#
# Coordination Sequence:
#
# PCOD8238285 Si02
#       5
#     8   8   8   8   8
#     4  10  21  39  63  88 118 156 195 238 290 348
#     4  10  21  40  65  90 117 153 197 241 290 351
#     4  10  22  40  62  90 119 150 194 244 293 347
#     4  12  25  39  58  87 122 157 197 244 291 343
#     4  11  23  40  62  87 118 156 197 241 292 351
#
# _framework density 20.610987999999999
#
# number of rings (size 3 to 8) (size 9 to 14) (size 15 to 20)
#    0.000    1.400    0.000    5.400    0.000   12.400 
#    0.000    2.000    0.000    0.000    0.000    0.000 
#    0.000    0.000    0.000    0.000    0.000    0.000 
#
# Total GULP energy -496323.677507 kJ/mol
# GULP energy per Si atom -12408.091938 kJ/mol
# Density = 2.056408 g / cm^3
# Si number density = 20.610988 Si / 1000 Ang^3
#
#
#
# Elastic Constant Matrix: (Units=GPa)
#
#
# Indices 1 2 3 4 5 6 
#
# 1 80.4079 -9.9241 22.4944 0.0000 0.0000 0.0000
# 2 -9.9241 64.5975 14.9401 0.0000 0.0000 0.0000
# 3 22.4944 14.9401 76.5637 0.0000 0.0000 0.0000
# 4 0.0000 0.0000 0.0000 28.2218 0.0000 0.0000
# 5 0.0000 0.0000 0.0000 0.0000 28.6783 0.0000
# 6 0.0000 0.0000 0.0000 0.0000 0.0000 38.1194
#
#
#
# Elastic Compliance Matrix: (Units=1/GPa)
#
#
# Indices 1 2 3 4 5 6 
#
# 1 0.014189 0.003293 -0.004811 0.000000 0.000000 0.000000
# 2 0.003293 0.016976 -0.004280 0.000000 0.000000 0.000000
# 3 -0.004811 -0.004280 0.015310 0.000000 0.000000 0.000000
# 4 0.000000 0.000000 0.000000 0.035434 0.000000 0.000000
# 5 0.000000 0.000000 0.000000 0.000000 0.034870 0.000000
# 6 0.000000 0.000000 0.000000 0.000000 0.000000 0.026233
#
#
# Mechanical properties :
#
#
# Convention : Reuss Voigt Hill
#
# Bulk Modulus (GPa) = 28.67168 30.73222 29.70195
# Shear Modulus (GPa) = 30.07801 31.94115 31.00958
#
# Velocity S-wave (km/s) = 3.82425 3.94091 3.88302
# Velocity P-wave (km/s) = 5.78281 5.97082 5.87757
#
# Compressibility (1/GPa) = 0.03487762
#
# Stress axis : x y z
#
# Youngs Moduli (GPa) = 70.47760 58.90605 65.31797
#
# Poissons Ratio (x) = -0.19395 0.31426
# Poissons Ratio (y) = -0.23205 0.27956
# Poissons Ratio (z) = 0.33908 0.25212
#
# Static dielectric constant tensor:
#      x y z
#    x 3.807510 0.000000 0.000000 
#    y 0.000000 3.838150 0.000000 
#    z 0.000000 0.000000 3.617730 
# 
# 
# High freq. dielectric constant tensor:
#      x y z
#    x 1.819110 0.000000 0.000000 
#    y 0.000000 1.821190 0.000000 
#    z 0.000000 0.000000 1.795890 
# 
# From -- ./inp_files/2404.got.cif
#   From: 2010.06.25/outbox.cif.g09.slc.cpg/sg58_2_cif.got.tgz:2404.got - 2010.06.26 21:38:00.
