data_PCOD8238572
_publ_section_title
;
Structure prediction by ZEFSAII (Michael W. Deem and Ramdas Pophale) SiO2 
 PCOD8238572
Probable space group: P N N M
;
_chemical_formula_sum "Si O2"
_cell_formula_units_Z 48
_cell_length_a 8.699440
_cell_length_b 14.908503
_cell_length_c 17.183833
_cell_angle_alpha 90.000000
_cell_angle_beta 90.000000
_cell_angle_gamma 90.000000
_cell_volume 2228.668001
_symmetry_space_group_name_H-M "P N N M"
_symmetry_group_IT_number 58
_symmetry_cell_setting 'orthorhombic'
loop_
_space_group_symop_operation_xyz
x,y,z
-x,-y,z
1/2+x,1/2-y,1/2-z
1/2-x,1/2+y,1/2-z
-x,-y,-z
x,y,-z
1/2-x,1/2+y,1/2+z
1/2+x,1/2-y,1/2+z
loop_
_atom_site_type_symbol
_atom_site_label
_atom_site_fract_x
_atom_site_fract_y
_atom_site_fract_z
Si Si1 0.845442 0.648011 0.910338
Si Si2 0.154559 0.351989 0.589662
Si Si3 0.325405 0.512971 0.159820
Si Si4 0.325405 0.512971 0.340180
Si Si5 0.664559 0.803100 0.160611
Si Si6 0.164559 0.696900 0.160611
O O1 0.785068 0.548982 0.891306
O O2 0.711813 0.719464 0.892478
O O3 0.991880 0.668417 0.857647
O O4 0.892907 0.652501 0.000000
O O5 0.107093 0.347499 0.500000
O O6 0.214932 0.451018 0.608694
O O7 0.288187 0.280536 0.607522
O O8 0.008120 0.331583 0.642353
O O9 0.500000 0.500000 0.132325
O O10 0.304822 0.486672 0.250000
O O11 0.280592 0.615483 0.144102
O O12 0.500000 0.500000 0.367675
O O13 0.280592 0.615483 0.355898
O O14 0.672124 0.772585 0.250000
#
# Coordination Sequence:
#
# PCOD8238572 Si02
#       6
#     8   8   8   8   8   8
#     4  12  25  40  62  93 128 161 200 256 316 366
#     4  12  25  40  62  93 128 161 200 256 316 366
#     4  10  22  41  65  91 120 161 211 256 301 361
#     4  10  22  41  65  91 120 161 211 256 301 361
#     4  11  23  41  65  90 122 165 211 253 299 366
#     4  11  23  41  65  90 122 165 211 253 299 366
#
# _framework density 21.537528999999999
#
# number of rings (size 3 to 8) (size 9 to 14) (size 15 to 20)
#    0.000    1.000    0.000    7.000    0.000   10.000 
#    0.000    0.000    0.000    0.000    0.000    0.000 
#    0.000    0.000    0.000    0.000    0.000    0.000 
#
# Total GULP energy -595704.474501 kJ/mol
# GULP energy per Si atom -12410.509885 kJ/mol
# Density = 2.148851 g / cm^3
# Si number density = 21.537529 Si / 1000 Ang^3
#
#
#
# Elastic Constant Matrix: (Units=GPa)
#
#
# Indices 1 2 3 4 5 6 
#
# 1 77.4136 -9.3222 5.1578 0.0000 0.0000 0.0000
# 2 -9.3222 53.1173 31.5824 0.0000 0.0000 0.0000
# 3 5.1578 31.5824 78.2214 0.0000 0.0000 0.0000
# 4 0.0000 0.0000 0.0000 32.4110 0.0000 0.0000
# 5 0.0000 0.0000 0.0000 0.0000 28.2515 0.0000
# 6 0.0000 0.0000 0.0000 0.0000 0.0000 39.3440
#
#
#
# Elastic Compliance Matrix: (Units=1/GPa)
#
#
# Indices 1 2 3 4 5 6 
#
# 1 0.013541 0.003826 -0.002438 0.000000 0.000000 0.000000
# 2 0.003826 0.025854 -0.010691 0.000000 0.000000 0.000000
# 3 -0.002438 -0.010691 0.017262 0.000000 0.000000 0.000000
# 4 0.000000 0.000000 0.000000 0.030854 0.000000 0.000000
# 5 0.000000 0.000000 0.000000 0.000000 0.035396 0.000000
# 6 0.000000 0.000000 0.000000 0.000000 0.000000 0.025417
#
#
# Mechanical properties :
#
#
# Convention : Reuss Voigt Hill
#
# Bulk Modulus (GPa) = 26.28064 29.28759 27.78411
# Shear Modulus (GPa) = 27.83760 32.09025 29.96393
#
# Velocity S-wave (km/s) = 3.59906 3.86420 3.73398
# Velocity P-wave (km/s) = 5.43136 5.79114 5.61413
#
# Compressibility (1/GPa) = 0.03805082
#
# Stress axis : x y z
#
# Youngs Moduli (GPa) = 73.85128 38.67812 57.93213
#
# Poissons Ratio (x) = -0.14797 0.14121
# Poissons Ratio (y) = -0.28253 0.61936
# Poissons Ratio (z) = 0.18001 0.41351
#
# Static dielectric constant tensor:
#      x y z
#    x 3.886020 0.000000 0.000000 
#    y 0.000000 3.954630 0.000000 
#    z 0.000000 0.000000 3.746200 
# 
# 
# High freq. dielectric constant tensor:
#      x y z
#    x 1.857780 0.000000 0.000000 
#    y 0.000000 1.857270 0.000000 
#    z 0.000000 0.000000 1.838900 
# 
# From -- ./inp_files/25312.got.cif
#   From: 2010.06.25/outbox.cif.g09.slc.cpg/sg58_13_cif.got.tgz:25312.got - 2010.06.26 21:38:00.
