data_PCOD8238024
_publ_section_title
;
Structure prediction by ZEFSAII (Michael W. Deem and Ramdas Pophale) SiO2 
 PCOD8238024
Probable space group: P N N M
;
_chemical_formula_sum "Si O2"
_cell_formula_units_Z 48
_cell_length_a 32.782092
_cell_length_b 7.502163
_cell_length_c 10.790330
_cell_angle_alpha 90.000000
_cell_angle_beta 90.000000
_cell_angle_gamma 90.000000
_cell_volume 2653.737048
_symmetry_space_group_name_H-M "P N N M"
_symmetry_group_IT_number 58
_symmetry_cell_setting 'orthorhombic'
loop_
_space_group_symop_operation_xyz
x,y,z
-x,-y,z
1/2+x,1/2-y,1/2-z
1/2-x,1/2+y,1/2-z
-x,-y,-z
x,y,-z
1/2-x,1/2+y,1/2+z
1/2+x,1/2-y,1/2+z
loop_
_atom_site_type_symbol
_atom_site_label
_atom_site_fract_x
_atom_site_fract_y
_atom_site_fract_z
Si Si1 0.806665 0.166979 0.252065
Si Si2 0.268473 0.987913 0.138215
Si Si3 0.544892 0.006900 0.643875
Si Si4 0.168335 0.184021 0.359150
Si Si5 0.396499 0.679025 0.358498
Si Si6 0.893132 0.222964 0.140846
O O1 0.779331 0.059093 0.152731
O O2 0.780252 0.336773 0.287327
O O3 0.848875 0.240936 0.200296
O O4 0.816276 0.021550 0.358943
O O5 0.295129 0.816651 0.175299
O O6 0.277413 0.044216 0.000000
O O7 0.539975 0.958313 0.500000
O O8 0.563689 0.202006 0.664460
O O9 0.500000 0.000000 0.706854
O O10 0.574929 0.859023 0.705450
O O11 0.151642 0.220236 0.500000
O O12 0.135713 0.220093 0.250001
O O13 0.379106 0.712347 0.500000
O O14 0.411017 0.475406 0.346658
O O15 0.887249 0.282732 0.000000
#
# Coordination Sequence:
#
# PCOD8238024 Si02
#       6
#     8   8   8   8   8   8
#     4  11  20  36  52  74 102 141 181 223 268 319
#     4  11  22  35  51  74 104 139 182 224 267 317
#     4   9  17  30  50  79 110 136 169 216 269 323
#     4  10  21  37  54  77 107 141 180 223 267 314
#     4   9  18  33  53  78 104 137 175 213 263 318
#     4   9  18  31  49  73 103 137 175 217 264 316
#
# _framework density 18.087699000000001
#
# number of rings (size 3 to 8) (size 9 to 14) (size 15 to 20)
#    0.000    2.167    1.667    2.000    0.000    1.333 
#    0.000    4.167    0.000    0.500    0.000    4.667 
#    0.000    0.000    0.000    0.000    0.000    0.000 
#
# Total GULP energy -594747.925251 kJ/mol
# GULP energy per Si atom -12390.581776 kJ/mol
# Density = 1.804653 g / cm^3
# Si number density = 18.087699 Si / 1000 Ang^3
#
#
#
# Elastic Constant Matrix: (Units=GPa)
#
#
# Indices 1 2 3 4 5 6 
#
# 1 131.9730 64.1176 35.2890 0.0000 0.0000 0.0000
# 2 64.1176 100.0276 25.2074 0.0000 0.0000 0.0000
# 3 35.2890 25.2074 63.2277 0.0000 0.0000 0.0000
# 4 0.0000 0.0000 0.0000 18.6277 0.0000 0.0000
# 5 0.0000 0.0000 0.0000 0.0000 16.8675 0.0000
# 6 0.0000 0.0000 0.0000 0.0000 0.0000 32.4059
#
#
#
# Elastic Compliance Matrix: (Units=1/GPa)
#
#
# Indices 1 2 3 4 5 6 
#
# 1 0.011843 -0.006587 -0.003984 0.000000 0.000000 0.000000
# 2 -0.006587 0.014778 -0.002215 0.000000 0.000000 0.000000
# 3 -0.003984 -0.002215 0.018922 0.000000 0.000000 0.000000
# 4 0.000000 0.000000 0.000000 0.053684 0.000000 0.000000
# 5 0.000000 0.000000 0.000000 0.000000 0.059286 0.000000
# 6 0.000000 0.000000 0.000000 0.000000 0.000000 0.030859
#
#
# Mechanical properties :
#
#
# Convention : Reuss Voigt Hill
#
# Bulk Modulus (GPa) = 50.07237 60.49514 55.28376
# Shear Modulus (GPa) = 22.56318 24.95451 23.75885
#
# Velocity S-wave (km/s) = 3.53573 3.71838 3.62821
# Velocity P-wave (km/s) = 6.66421 7.20786 6.94136
#
# Compressibility (1/GPa) = 0.01997109
#
# Stress axis : x y z
#
# Youngs Moduli (GPa) = 84.43858 67.66832 52.84781
#
# Poissons Ratio (x) = 0.44576 0.21052
# Poissons Ratio (y) = 0.55623 0.11706
# Poissons Ratio (z) = 0.33637 0.14989
#
# Static dielectric constant tensor:
#      x y z
#    x 3.385660 0.000000 0.000000 
#    y 0.000000 3.524200 0.000000 
#    z 0.000000 0.000000 3.095230 
# 
# 
# High freq. dielectric constant tensor:
#      x y z
#    x 1.691080 0.000000 0.000000 
#    y 0.000000 1.720060 0.000000 
#    z 0.000000 0.000000 1.666430 
# 
# From -- ./inp_files/17910.got.cif
#   From: 2010.06.25/outbox.cif.g09.slc.cpg/sg58_9_cif.got.tgz:17910.got - 2010.06.26 21:38:00.
