data_PCOD8238902
_publ_section_title
;
Structure prediction by ZEFSAII (Michael W. Deem and Ramdas Pophale) SiO2 
 PCOD8238902
Probable space group: P N N M
;
_chemical_formula_sum "Si O2"
_cell_formula_units_Z 40
_cell_length_a 18.607188
_cell_length_b 13.433002
_cell_length_c 7.749708
_cell_angle_alpha 90.000000
_cell_angle_beta 90.000000
_cell_angle_gamma 90.000000
_cell_volume 1937.042565
_symmetry_space_group_name_H-M "P N N M"
_symmetry_group_IT_number 58
_symmetry_cell_setting 'orthorhombic'
loop_
_space_group_symop_operation_xyz
x,y,z
-x,-y,z
1/2+x,1/2-y,1/2-z
1/2-x,1/2+y,1/2-z
-x,-y,-z
x,y,-z
1/2-x,1/2+y,1/2+z
1/2+x,1/2-y,1/2+z
loop_
_atom_site_type_symbol
_atom_site_label
_atom_site_fract_x
_atom_site_fract_y
_atom_site_fract_z
Si Si1 0.968972 0.196452 0.693760
Si Si2 0.158166 0.945874 0.700576
Si Si3 0.697841 0.142416 0.805867
Si Si4 0.612931 0.047968 0.500000
Si Si5 0.461678 0.154515 0.500000
Si Si6 0.373755 0.661135 0.697183
O O1 0.952769 0.235596 0.500000
O O2 0.051373 0.161964 0.701026
O O3 0.919905 0.100975 0.735922
O O4 0.950171 0.282993 0.826770
O O5 0.174837 0.958427 0.500000
O O6 0.217110 0.873539 0.784892
O O7 0.162677 0.053594 0.788921
O O8 0.656181 0.071710 0.673516
O O9 0.681287 0.258298 0.773049
O O10 0.673909 0.114289 0.000000
O O11 0.541212 0.111810 0.500000
O O12 0.597840 0.931002 0.500000
O O13 0.390287 0.688917 0.500000
#
# Coordination Sequence:
#
# PCOD8238902 Si02
#       6
#     8   8   8   4   4   8
#     4  11  23  42  67 100 134 170 221 274 329 394
#     4  11  25  42  65 101 135 170 226 275 323 401
#     4  12  24  44  68  93 135 178 219 272 334 392
#     4  11  24  46  65  98 132 174 228 270 332 404
#     4  11  24  42  72  95 132 177 217 282 332 387
#     4  12  23  42  69  96 133 178 216 269 337 391
#
# _framework density 20.650037000000001
#
# number of rings (size 3 to 8) (size 9 to 14) (size 15 to 20)
#    0.000    0.600    5.000    3.000    2.800    4.800 
#    0.000    4.000    0.000    0.000    0.000    0.000 
#    0.000    0.000    0.000    0.000    0.000    0.000 
#
# Total GULP energy -496262.120345 kJ/mol
# GULP energy per Si atom -12406.553009 kJ/mol
# Density = 2.060304 g / cm^3
# Si number density = 20.650037 Si / 1000 Ang^3
#
#
#
# Elastic Constant Matrix: (Units=GPa)
#
#
# Indices 1 2 3 4 5 6 
#
# 1 108.2631 70.3437 33.6429 0.0000 0.0000 0.0000
# 2 70.3437 139.4552 50.2955 0.0000 0.0000 0.0000
# 3 33.6429 50.2955 150.6115 0.0000 0.0000 0.0000
# 4 0.0000 0.0000 0.0000 7.4220 0.0000 0.0000
# 5 0.0000 0.0000 0.0000 0.0000 4.6562 0.0000
# 6 0.0000 0.0000 0.0000 0.0000 0.0000 32.9597
#
#
#
# Elastic Compliance Matrix: (Units=1/GPa)
#
#
# Indices 1 2 3 4 5 6 
#
# 1 0.013838 -0.006669 -0.000864 0.000000 0.000000 0.000000
# 2 -0.006669 0.011366 -0.002306 0.000000 0.000000 0.000000
# 3 -0.000864 -0.002306 0.007603 0.000000 0.000000 0.000000
# 4 0.000000 0.000000 0.000000 0.134735 0.000000 0.000000
# 5 0.000000 0.000000 0.000000 0.000000 0.214765 0.000000
# 6 0.000000 0.000000 0.000000 0.000000 0.000000 0.030340
#
#
# Mechanical properties :
#
#
# Convention : Reuss Voigt Hill
#
# Bulk Modulus (GPa) = 76.16442 78.54377 77.35410
# Shear Modulus (GPa) = 11.44948 25.27744 18.36346
#
# Velocity S-wave (km/s) = 2.35724 3.50249 2.98530
# Velocity P-wave (km/s) = 6.66125 7.38071 7.03019
#
# Compressibility (1/GPa) = 0.01312949
#
# Stress axis : x y z
#
# Youngs Moduli (GPa) = 72.26387 87.98031 131.53167
#
# Poissons Ratio (x) = 0.58670 0.11367
# Poissons Ratio (y) = 0.48189 0.30332
# Poissons Ratio (z) = 0.06245 0.20289
#
# Static dielectric constant tensor:
#      x y z
#    x 3.773160 0.000000 0.000000 
#    y 0.000000 3.722160 0.000000 
#    z 0.000000 0.000000 3.990780 
# 
# 
# High freq. dielectric constant tensor:
#      x y z
#    x 1.808500 0.000000 0.000000 
#    y 0.000000 1.806500 0.000000 
#    z 0.000000 0.000000 1.826400 
# 
# From -- ./inp_files/7460.got.cif
#   From: 2010.06.25/outbox.cif.g09.slc.cpg/sg58_4_cif.got.tgz:7460.got - 2010.06.26 21:38:00.
