data_PCOD8239649
_publ_section_title
;
Structure prediction by ZEFSAII (Michael W. Deem and Ramdas Pophale) SiO2 
 PCOD8239649
Probable space group: P M M N
;
_chemical_formula_sum "Si O2"
_cell_formula_units_Z 64
_cell_length_a 29.761416
_cell_length_b 9.190630
_cell_length_c 15.038873
_cell_angle_alpha 90.000000
_cell_angle_beta 90.000000
_cell_angle_gamma 90.000000
_cell_volume 4113.525224
_symmetry_space_group_name_H-M "P M M N"
_symmetry_group_IT_number 59
_space_group.IT_coordinate_system_code '2'
_symmetry_cell_setting 'orthorhombic'
loop_
_space_group_symop_operation_xyz
x,y,z
1/2-x,1/2-y,z
1/2+x,-y,-z
-x,1/2+y,-z
-x,-y,-z
1/2+x,1/2+y,-z
1/2-x,y,z
x,1/2-y,z
loop_
_atom_site_type_symbol
_atom_site_label
_atom_site_fract_x
_atom_site_fract_y
_atom_site_fract_z
Si Si1 0.438156 0.582680 0.958696
Si Si2 0.611293 0.082182 0.212066
Si Si3 0.965030 0.577086 0.678972
Si Si4 0.555915 0.576448 0.360222
Si Si5 0.466103 0.419335 0.119453
Si Si6 0.299516 0.914902 0.696125
Si Si7 0.106141 0.078116 0.462914
Si Si8 0.299252 0.422335 0.515941
O O1 0.439534 0.750000 0.985795
O O2 0.397520 0.546025 0.891497
O O3 0.483375 0.536955 0.906727
O O4 0.431913 0.495102 0.050433
O O5 0.597405 0.250000 0.231607
O O6 0.663996 0.053389 0.227739
O O7 0.581723 0.978423 0.273390
O O8 0.973756 0.750000 0.673019
O O9 0.957121 0.526606 0.780385
O O10 0.920969 0.527009 0.624043
O O11 0.006845 0.494275 0.635882
O O12 0.551526 0.750000 0.356753
O O13 0.582527 0.520153 0.447294
O O14 0.457183 0.250000 0.112040
O O15 0.250000 0.940444 0.737609
O O16 0.304363 0.750000 0.660381
O O17 0.307981 0.022253 0.614956
O O18 0.105935 0.250000 0.467964
O O19 0.158335 0.022868 0.456560
O O20 0.250000 0.477528 0.480421
O O21 0.299045 0.250000 0.520695
#
# Coordination Sequence:
#
# PCOD8239649 Si02
#       8
#     8   8   8   8   8   8   8   8
#     4   9  17  29  44  62  83 109 142 176 215 257
#     4  10  18  30  46  64  89 121 148 173 215 264
#     4  10  19  33  47  59  86 121 152 182 218 260
#     4  11  20  29  42  65  92 117 152 183 208 249
#     4   9  17  29  44  62  81 109 145 179 216 253
#     4   9  17  28  44  66  89 114 145 179 213 254
#     4   9  18  30  44  64  88 118 151 181 212 255
#     4   9  16  28  45  64  88 115 144 179 218 255
#
# _framework density 15.558431000000001
#
# number of rings (size 3 to 8) (size 9 to 14) (size 15 to 20)
#    0.000    2.500    2.500    0.750    0.000    1.000 
#    0.000    1.250    0.000    0.000    0.000    0.875 
#    0.000    1.000    0.000    0.000    0.000    0.000 
#
# Total GULP energy -793247.867093 kJ/mol
# GULP energy per Si atom -12394.497923 kJ/mol
# Density = 1.552302 g / cm^3
# Si number density = 15.558431 Si / 1000 Ang^3
#
#
#
# Elastic Constant Matrix: (Units=GPa)
#
#
# Indices 1 2 3 4 5 6 
#
# 1 128.8533 26.9857 60.5522 0.0000 0.0000 0.0000
# 2 26.9857 26.5220 24.0056 0.0000 0.0000 0.0000
# 3 60.5522 24.0056 93.9920 0.0000 0.0000 0.0000
# 4 0.0000 0.0000 0.0000 19.7487 0.0000 0.0000
# 5 0.0000 0.0000 0.0000 0.0000 21.7582 0.0000
# 6 0.0000 0.0000 0.0000 0.0000 0.0000 15.3145
#
#
#
# Elastic Compliance Matrix: (Units=1/GPa)
#
#
# Indices 1 2 3 4 5 6 
#
# 1 0.012000 -0.006780 -0.005999 0.000000 0.000000 0.000000
# 2 -0.006780 0.052872 -0.009136 0.000000 0.000000 0.000000
# 3 -0.005999 -0.009136 0.016837 0.000000 0.000000 0.000000
# 4 0.000000 0.000000 0.000000 0.050636 0.000000 0.000000
# 5 0.000000 0.000000 0.000000 0.000000 0.045960 0.000000
# 6 0.000000 0.000000 0.000000 0.000000 0.000000 0.065297
#
#
# Mechanical properties :
#
#
# Convention : Reuss Voigt Hill
#
# Bulk Modulus (GPa) = 26.39935 52.49493 39.44714
# Shear Modulus (GPa) = 16.66345 20.55255 18.60800
#
# Velocity S-wave (km/s) = 3.27620 3.63849 3.46209
# Velocity P-wave (km/s) = 5.59607 7.17392 6.43355
#
# Compressibility (1/GPa) = 0.03787973
#
# Stress axis : x y z
#
# Youngs Moduli (GPa) = 83.33488 18.91363 59.39214
#
# Poissons Ratio (x) = 0.12823 0.35630
# Poissons Ratio (y) = 0.56499 0.54260
# Poissons Ratio (z) = 0.49993 0.17279
#
# Static dielectric constant tensor:
#      x y z
#    x 3.316370 0.000000 0.000000 
#    y 0.000000 2.894770 0.000000 
#    z 0.000000 0.000000 2.960920 
# 
# 
# High freq. dielectric constant tensor:
#      x y z
#    x 1.589410 0.000000 0.000000 
#    y 0.000000 1.587560 0.000000 
#    z 0.000000 0.000000 1.575930 
# 
# From -- ./inp_files/21913.got.cif
#   From: 2010.03.12/outbox.cif.g09.slc.cpg/sg59_11_cif.got.tgz:21913.got - 2010.04.16 16:29:54.
