data_PCOD8239428
_publ_section_title
;
Structure prediction by ZEFSAII (Michael W. Deem and Ramdas Pophale) SiO2 
 PCOD8239428
Probable space group: P M M N
;
_chemical_formula_sum "Si O2"
_cell_formula_units_Z 64
_cell_length_a 21.465770
_cell_length_b 8.810190
_cell_length_c 19.256989
_cell_angle_alpha 90.000000
_cell_angle_beta 90.000000
_cell_angle_gamma 90.000000
_cell_volume 3641.833852
_symmetry_space_group_name_H-M "P M M N"
_symmetry_group_IT_number 59
_space_group.IT_coordinate_system_code '2'
_symmetry_cell_setting 'orthorhombic'
loop_
_space_group_symop_operation_xyz
x,y,z
1/2-x,1/2-y,z
1/2+x,-y,-z
-x,1/2+y,-z
-x,-y,-z
1/2+x,1/2+y,-z
1/2-x,y,z
x,1/2-y,z
loop_
_atom_site_type_symbol
_atom_site_label
_atom_site_fract_x
_atom_site_fract_y
_atom_site_fract_z
Si Si1 0.511921 0.427570 0.672745
Si Si2 0.679247 0.581261 0.214291
Si Si3 0.179105 0.925142 0.524081
Si Si4 0.884963 0.422574 0.335953
Si Si5 0.441382 0.429146 0.458513
Si Si6 0.995053 0.071387 0.830292
Si Si7 0.616511 0.071929 0.101594
Si Si8 0.940782 0.074294 0.967065
O O1 0.524061 0.250000 0.663538
O O2 0.442161 0.466305 0.647738
O O3 0.558029 0.518202 0.621889
O O4 0.523600 0.480386 0.752582
O O5 0.750000 0.585408 0.237302
O O6 0.650196 0.750000 0.221170
O O7 0.642724 0.463695 0.261788
O O8 0.673609 0.520173 0.135389
O O9 0.250000 0.980944 0.507433
O O10 0.171398 0.750000 0.501838
O O11 0.168254 0.944183 0.606390
O O12 0.126627 0.022679 0.485586
O O13 0.909635 0.250000 0.334319
O O14 0.500000 0.500000 0.500000
O O15 0.448272 0.250000 0.464233
O O16 0.011188 0.250000 0.829992
O O17 0.937219 0.035434 0.884333
O O18 0.054605 0.979771 0.856986
O O19 0.626047 0.250000 0.112416
O O20 0.616178 0.028681 0.018602
O O21 0.952347 0.250000 0.976320
O O22 0.000000 0.000000 0.000000
#
# Coordination Sequence:
#
# PCOD8239428 Si02
#       8
#     8   8   8   8   8   8   8   8
#     4  11  21  33  53  79 108 143 176 213 263 318
#     4  11  23  35  46  64  96 138 180 217 255 306
#     4  10  22  40  60  81 106 138 177 222 273 327
#     4  11  21  34  54  77 104 138 175 217 261 312
#     4  12  24  38  57  80 109 144 182 225 271 321
#     4   9  17  30  48  69  99 131 162 199 248 308
#     4  10  18  28  46  68  94 126 164 209 253 296
#     4   8  15  27  43  67  93 122 156 194 240 292
#
# _framework density 17.573564000000001
#
# number of rings (size 3 to 8) (size 9 to 14) (size 15 to 20)
#    0.000    1.750    2.500    3.000    0.000    3.250 
#    0.000    0.000    0.000    0.000    0.000    0.875 
#    0.000    3.000    0.000    0.000    0.000    0.000 
#
# Total GULP energy -792944.551618 kJ/mol
# GULP energy per Si atom -12389.758619 kJ/mol
# Density = 1.753357 g / cm^3
# Si number density = 17.573564 Si / 1000 Ang^3
#
#
#
# Elastic Constant Matrix: (Units=GPa)
#
#
# Indices 1 2 3 4 5 6 
#
# 1 70.6517 29.7807 42.0094 0.0000 0.0000 0.0000
# 2 29.7807 72.3567 40.3855 0.0000 0.0000 0.0000
# 3 42.0094 40.3855 109.0108 0.0000 0.0000 0.0000
# 4 0.0000 0.0000 0.0000 23.5586 0.0000 0.0000
# 5 0.0000 0.0000 0.0000 0.0000 23.5819 0.0000
# 6 0.0000 0.0000 0.0000 0.0000 0.0000 22.5292
#
#
#
# Elastic Compliance Matrix: (Units=1/GPa)
#
#
# Indices 1 2 3 4 5 6 
#
# 1 0.019631 -0.004863 -0.005764 0.000000 0.000000 0.000000
# 2 -0.004863 0.018628 -0.005027 0.000000 0.000000 0.000000
# 3 -0.005764 -0.005027 0.013257 0.000000 0.000000 0.000000
# 4 0.000000 0.000000 0.000000 0.042447 0.000000 0.000000
# 5 0.000000 0.000000 0.000000 0.000000 0.042405 0.000000
# 6 0.000000 0.000000 0.000000 0.000000 0.000000 0.044387
#
#
# Mechanical properties :
#
#
# Convention : Reuss Voigt Hill
#
# Bulk Modulus (GPa) = 49.48416 52.93004 51.20710
# Shear Modulus (GPa) = 22.85216 23.25684 23.05450
#
# Velocity S-wave (km/s) = 3.60998 3.64180 3.62592
# Velocity P-wave (km/s) = 6.75243 6.91868 6.83606
#
# Compressibility (1/GPa) = 0.02020849
#
# Stress axis : x y z
#
# Youngs Moduli (GPa) = 50.94073 53.68358 75.43241
#
# Poissons Ratio (x) = 0.26105 0.43476
# Poissons Ratio (y) = 0.24771 0.37921
# Poissons Ratio (z) = 0.29360 0.26987
#
# Static dielectric constant tensor:
#      x y z
#    x 3.135860 0.000000 0.000000 
#    y 0.000000 3.327440 0.000000 
#    z 0.000000 0.000000 3.819230 
# 
# 
# High freq. dielectric constant tensor:
#      x y z
#    x 1.633520 0.000000 0.000000 
#    y 0.000000 1.687900 0.000000 
#    z 0.000000 0.000000 1.687860 
# 
# From -- ./inp_files/30951.got.cif
#   From: 2010.03.12/outbox.cif.g09.slc.cpg/sg59_16_cif.got.tgz:30951.got - 2010.04.16 16:29:54.
