data_PCOD8239340
_publ_section_title
;
Structure prediction by ZEFSAII (Michael W. Deem and Ramdas Pophale) SiO2 
 PCOD8239340
Probable space group: P M M N
;
_chemical_formula_sum "Si O2"
_cell_formula_units_Z 64
_cell_length_a 24.669058
_cell_length_b 9.205908
_cell_length_c 18.299492
_cell_angle_alpha 90.000000
_cell_angle_beta 90.000000
_cell_angle_gamma 90.000000
_cell_volume 4155.834367
_symmetry_space_group_name_H-M "P M M N"
_symmetry_group_IT_number 59
_space_group.IT_coordinate_system_code '2'
_symmetry_cell_setting 'orthorhombic'
loop_
_space_group_symop_operation_xyz
x,y,z
1/2-x,1/2-y,z
1/2+x,-y,-z
-x,1/2+y,-z
-x,-y,-z
1/2+x,1/2+y,-z
1/2-x,y,z
x,1/2-y,z
loop_
_atom_site_type_symbol
_atom_site_label
_atom_site_fract_x
_atom_site_fract_y
_atom_site_fract_z
Si Si1 0.424172 0.588823 0.030956
Si Si2 0.998661 0.416757 0.393400
Si Si3 0.084502 0.579832 0.482004
Si Si4 0.811227 0.919456 0.554790
Si Si5 0.456340 0.086868 0.902070
Si Si6 0.498669 0.580739 0.772953
Si Si7 0.312379 0.088383 0.276275
Si Si8 0.606201 0.079954 0.814785
O O1 0.411950 0.750000 0.001560
O O2 0.484029 0.581867 0.064664
O O3 0.385033 0.547226 0.098611
O O4 0.415903 0.481336 0.962579
O O5 0.016181 0.250000 0.404898
O O6 0.050992 0.512668 0.414191
O O7 0.980360 0.445750 0.310370
O O8 0.947172 0.456714 0.443300
O O9 0.090543 0.750000 0.468097
O O10 0.144290 0.510822 0.489861
O O11 0.750000 0.965382 0.531520
O O12 0.819789 0.750000 0.538794
O O13 0.820254 0.954452 0.639705
O O14 0.437084 0.250000 0.885364
O O15 0.455317 0.996190 0.826676
O O16 0.500953 0.750000 0.793229
O O17 0.557705 0.513060 0.781615
O O18 0.250000 0.088216 0.254755
O O19 0.336666 0.250000 0.262208
O O20 0.339839 0.967004 0.226429
O O21 0.593752 0.250000 0.802823
#
# Coordination Sequence:
#
# PCOD8239340 Si02
#       8
#     8   8   8   8   8   8   8   8
#     4   8  15  26  37  52  77 107 133 157 193 236
#     4   9  19  32  43  59  85 117 146 171 209 260
#     4  10  19  30  45  64  85 109 142 182 215 247
#     4   9  18  32  47  62  83 112 143 174 212 258
#     4   9  16  25  38  57  79 101 131 169 198 225
#     4  10  18  28  42  57  79 112 142 166 200 249
#     4   9  18  31  44  58  79 108 139 169 203 245
#     4  10  19  28  40  60  83 106 137 175 206 236
#
# _framework density 15.400036
#
# number of rings (size 3 to 8) (size 9 to 14) (size 15 to 20)
#    0.000    2.750    0.000    3.750    0.000    9.000 
#    0.000    1.250    0.000    0.000    0.000    0.000 
#    0.000    1.000    0.000    9.500    0.000    5.750 
#
# Total GULP energy -793421.902505 kJ/mol
# GULP energy per Si atom -12397.217227 kJ/mol
# Density = 1.536499 g / cm^3
# Si number density = 15.400036 Si / 1000 Ang^3
#
#
#
# Elastic Constant Matrix: (Units=GPa)
#
#
# Indices 1 2 3 4 5 6 
#
# 1 64.4229 38.8670 31.3848 0.0000 0.0000 0.0000
# 2 38.8670 97.1992 51.1678 0.0000 0.0000 0.0000
# 3 31.3848 51.1678 83.6040 0.0000 0.0000 0.0000
# 4 0.0000 0.0000 0.0000 26.4294 0.0000 0.0000
# 5 0.0000 0.0000 0.0000 0.0000 18.1964 0.0000
# 6 0.0000 0.0000 0.0000 0.0000 0.0000 22.8940
#
#
#
# Elastic Compliance Matrix: (Units=1/GPa)
#
#
# Indices 1 2 3 4 5 6 
#
# 1 0.021379 -0.006379 -0.004121 0.000000 0.000000 0.000000
# 2 -0.006379 0.017082 -0.008060 0.000000 0.000000 0.000000
# 3 -0.004121 -0.008060 0.018441 0.000000 0.000000 0.000000
# 4 0.000000 0.000000 0.000000 0.037837 0.000000 0.000000
# 5 0.000000 0.000000 0.000000 0.000000 0.054956 0.000000
# 6 0.000000 0.000000 0.000000 0.000000 0.000000 0.043679
#
#
# Mechanical properties :
#
#
# Convention : Reuss Voigt Hill
#
# Bulk Modulus (GPa) = 50.55323 54.22948 52.39135
# Shear Modulus (GPa) = 21.08920 21.75774 21.42347
#
# Velocity S-wave (km/s) = 3.70459 3.76285 3.73383
# Velocity P-wave (km/s) = 7.15518 7.35996 7.25829
#
# Compressibility (1/GPa) = 0.01978113
#
# Stress axis : x y z
#
# Youngs Moduli (GPa) = 46.77522 58.54173 54.22672
#
# Poissons Ratio (x) = 0.37345 0.22349
# Poissons Ratio (y) = 0.29839 0.43706
# Poissons Ratio (z) = 0.19278 0.47183
#
# Static dielectric constant tensor:
#      x y z
#    x 2.666350 0.000000 0.000000 
#    y 0.000000 3.077400 0.000000 
#    z 0.000000 0.000000 3.026220 
# 
# 
# High freq. dielectric constant tensor:
#      x y z
#    x 1.545390 0.000000 0.000000 
#    y 0.000000 1.602930 0.000000 
#    z 0.000000 0.000000 1.582820 
# 
# From -- ./inp_files/26486.got.cif
#   From: 2010.03.12/outbox.cif.g09.slc.cpg/sg59_14_cif.got.tgz:26486.got - 2010.04.16 16:29:54.
