data_PCOD8239079
_publ_section_title
;
Structure prediction by ZEFSAII (Michael W. Deem and Ramdas Pophale) SiO2 
 PCOD8239079
Probable space group: P M M N
;
_chemical_formula_sum "Si O2"
_cell_formula_units_Z 64
_cell_length_a 8.797703
_cell_length_b 26.834383
_cell_length_c 17.110051
_cell_angle_alpha 90.000000
_cell_angle_beta 90.000000
_cell_angle_gamma 90.000000
_cell_volume 4039.356784
_symmetry_space_group_name_H-M "P M M N"
_symmetry_group_IT_number 59
_space_group.IT_coordinate_system_code '2'
_symmetry_cell_setting 'orthorhombic'
loop_
_space_group_symop_operation_xyz
x,y,z
1/2-x,1/2-y,z
1/2+x,-y,-z
-x,1/2+y,-z
-x,-y,-z
1/2+x,1/2+y,-z
1/2-x,y,z
x,1/2-y,z
loop_
_atom_site_type_symbol
_atom_site_label
_atom_site_fract_x
_atom_site_fract_y
_atom_site_fract_z
Si Si1 0.920578 0.376171 0.721226
Si Si2 0.576524 0.040800 0.595797
Si Si3 0.069922 0.558872 0.655398
Si Si4 0.427118 0.428681 0.852079
Si Si5 0.070863 0.807677 0.416481
Si Si6 0.429010 0.034756 0.184647
Si Si7 0.925029 0.948615 0.981855
Si Si8 0.070140 0.114439 0.475600
O O1 0.750000 0.363323 0.748004
O O2 0.926252 0.428194 0.675491
O O3 0.984084 0.332137 0.665404
O O4 0.023160 0.381897 0.798658
O O5 0.750000 0.032699 0.567530
O O6 0.483107 0.068863 0.529411
O O7 0.496534 0.988833 0.611206
O O8 0.250000 0.558107 0.651917
O O9 0.016683 0.561063 0.744891
O O10 0.004624 0.607247 0.610032
O O11 0.250000 0.439885 0.838922
O O12 0.519815 0.477726 0.827422
O O13 0.460806 0.412882 0.943444
O O14 0.250000 0.817625 0.426438
O O15 0.027925 0.750000 0.415419
O O16 0.985973 0.833101 0.489079
O O17 0.250000 0.034839 0.203494
O O18 0.471483 0.067843 0.106457
O O19 0.750000 0.960884 0.978504
O O20 0.000000 0.000000 0.000000
O O21 0.250000 0.114973 0.468345
#
# Coordination Sequence:
#
# PCOD8239079 Si02
#       8
#     8   8   8   8   8   8   8   8
#     4   9  17  28  45  67  90 117 150 185 226 271
#     4  10  19  32  46  62  89 121 154 188 226 266
#     4  12  22  31  44  63  89 120 156 192 228 269
#     4  10  17  26  41  62  88 118 154 189 221 263
#     4   9  19  37  56  70  89 117 149 187 231 275
#     4  10  18  29  42  58  85 121 157 192 229 264
#     4   8  16  27  39  56  81 116 154 188 221 258
#     4  11  22  34  48  67  90 116 149 186 227 275
#
# _framework density 15.844106
#
# number of rings (size 3 to 8) (size 9 to 14) (size 15 to 20)
#    0.000    2.125    1.250    4.500    0.000    3.250 
#    0.000    0.000    0.000    0.000    0.000    0.000 
#    0.000    1.000    0.000    8.000    0.000    2.625 
#
# Total GULP energy -793117.318843 kJ/mol
# GULP energy per Si atom -12392.458107 kJ/mol
# Density = 1.580804 g / cm^3
# Si number density = 15.844106 Si / 1000 Ang^3
#
#
#
# Elastic Constant Matrix: (Units=GPa)
#
#
# Indices 1 2 3 4 5 6 
#
# 1 20.8801 30.5599 -19.7955 0.0000 0.0000 0.0000
# 2 30.5599 64.2369 46.1829 0.0000 0.0000 0.0000
# 3 -19.7955 46.1829 57.7047 0.0000 0.0000 0.0000
# 4 0.0000 0.0000 0.0000 11.7557 0.0000 0.0000
# 5 0.0000 0.0000 0.0000 0.0000 24.9197 0.0000
# 6 0.0000 0.0000 0.0000 0.0000 0.0000 16.6127
#
#
#
# Elastic Compliance Matrix: (Units=1/GPa)
#
#
# Indices 1 2 3 4 5 6 
#
# 1 -0.015419 0.026232 -0.026284 0.000000 0.000000 0.000000
# 2 0.026232 -0.007965 0.015373 0.000000 0.000000 0.000000
# 3 -0.026284 0.015373 -0.003991 0.000000 0.000000 0.000000
# 4 0.000000 0.000000 0.000000 0.085065 0.000000 0.000000
# 5 0.000000 0.000000 0.000000 0.000000 0.040129 0.000000
# 6 0.000000 0.000000 0.000000 0.000000 0.000000 0.060195
#
#
# Mechanical properties :
#
#
# Convention : Reuss Voigt Hill
#
# Bulk Modulus (GPa) = 305.93907 28.52405 167.23156
# Shear Modulus (GPa) = 38.92237 16.38257 27.65247
#
# Velocity S-wave (km/s) = 4.96177 3.21905 4.18219
# Velocity P-wave (km/s) = 15.04453 5.64433 11.36214
#
# Compressibility (1/GPa) = 0.00326862
#
# Stress axis : x y z
#
# Youngs Moduli (GPa) = -64.85535 -125.55268 -250.57867
#
# Poissons Ratio (x) = 3.29350 -6.58615
# Poissons Ratio (y) = 1.70129 3.85223
# Poissons Ratio (z) = -1.70464 1.93016
#
# Static dielectric constant tensor:
#      x y z
#    x 3.032180 0.000000 0.000000 
#    y 0.000000 2.626090 0.000000 
#    z 0.000000 0.000000 3.621780 
# 
# 
# High freq. dielectric constant tensor:
#      x y z
#    x 1.621520 0.000000 0.000000 
#    y 0.000000 1.543500 0.000000 
#    z 0.000000 0.000000 1.621770 
# 
# From -- ./inp_files/26598.got.cif
#   From: 2010.03.12/outbox.cif.g09.slc.cpg/sg59_14_cif.got.tgz:26598.got - 2010.04.16 16:29:54.
