data_PCOD8239839
_publ_section_title
;
Structure prediction by ZEFSAII (Michael W. Deem and Ramdas Pophale) SiO2 
 PCOD8239839
Probable space group: P M M N
;
_chemical_formula_sum "Si O2"
_cell_formula_units_Z 48
_cell_length_a 19.164220
_cell_length_b 8.561826
_cell_length_c 15.887213
_cell_angle_alpha 90.000000
_cell_angle_beta 90.000000
_cell_angle_gamma 90.000000
_cell_volume 2606.785301
_symmetry_space_group_name_H-M "P M M N"
_symmetry_group_IT_number 59
_space_group.IT_coordinate_system_code '2'
_symmetry_cell_setting 'orthorhombic'
loop_
_space_group_symop_operation_xyz
x,y,z
1/2-x,1/2-y,z
1/2+x,-y,-z
-x,1/2+y,-z
-x,-y,-z
1/2+x,1/2+y,-z
1/2-x,y,z
x,1/2-y,z
loop_
_atom_site_type_symbol
_atom_site_label
_atom_site_fract_x
_atom_site_fract_y
_atom_site_fract_z
Si Si1 0.750000 0.069749 0.917113
Si Si2 0.025639 0.931232 0.869848
Si Si3 0.621541 0.567425 0.623598
Si Si4 0.605864 0.567080 0.979042
Si Si5 0.250000 0.929315 0.281428
Si Si6 0.928150 0.065726 0.463895
Si Si7 0.519669 0.932037 0.307701
O O1 0.750000 0.250000 0.944734
O O2 0.750000 0.051727 0.817829
O O3 0.817511 0.984819 0.953401
O O4 0.031031 0.750000 0.846765
O O5 0.084325 0.973322 0.937778
O O6 0.041841 0.032322 0.787319
O O7 0.948638 0.973928 0.904616
O O8 0.625501 0.750000 0.608299
O O9 0.682455 0.513959 0.684049
O O10 0.630283 0.485010 0.531801
O O11 0.550027 0.526216 0.670308
O O12 0.603991 0.750000 0.999275
O O13 0.250000 0.750000 0.309545
O O14 0.929832 0.250000 0.454214
O O15 0.918465 0.988258 0.371398
O O16 0.000000 0.000000 0.500000
O O17 0.505113 0.750000 0.319886
#
# Coordination Sequence:
#
# PCOD8239839 Si02
#       7
#     4   8   8   8   4   8   8
#     4  11  23  37  55  78 107 142 179 219 263 317
#     4  10  20  35  55  80 108 139 178 223 271 320
#     4  11  21  34  51  75 106 139 174 213 259 308
#     4  10  21  36  55  78 107 141 177 220 270 322
#     4  11  23  37  53  76 105 140 177 211 253 307
#     4  10  18  31  50  73 101 133 168 208 253 298
#     4  11  20  32  52  78 106 136 173 216 260 308
#
# _framework density 18.413485000000001
#
# number of rings (size 3 to 8) (size 9 to 14) (size 15 to 20)
#    0.000    1.500    0.000    9.000    0.000    6.000 
#    0.000    0.000    0.000    1.000    0.000    7.000 
#    0.000    0.000    0.000    0.000    0.000    0.000 
#
# Total GULP energy -595265.233146 kJ/mol
# GULP energy per Si atom -12401.359024 kJ/mol
# Density = 1.837158 g / cm^3
# Si number density = 18.413485 Si / 1000 Ang^3
#
#
#
# Elastic Constant Matrix: (Units=GPa)
#
#
# Indices 1 2 3 4 5 6 
#
# 1 61.9713 19.4189 22.4844 0.0000 0.0000 0.0000
# 2 19.4189 107.8914 37.0410 0.0000 0.0000 0.0000
# 3 22.4844 37.0410 105.2579 0.0000 0.0000 0.0000
# 4 0.0000 0.0000 0.0000 35.7128 0.0000 0.0000
# 5 0.0000 0.0000 0.0000 0.0000 59.2890 0.0000
# 6 0.0000 0.0000 0.0000 0.0000 0.0000 32.3801
#
#
#
# Elastic Compliance Matrix: (Units=1/GPa)
#
#
# Indices 1 2 3 4 5 6 
#
# 1 0.017930 -0.002175 -0.003065 0.000000 0.000000 0.000000
# 2 -0.002175 0.010806 -0.003338 0.000000 0.000000 0.000000
# 3 -0.003065 -0.003338 0.011330 0.000000 0.000000 0.000000
# 4 0.000000 0.000000 0.000000 0.028001 0.000000 0.000000
# 5 0.000000 0.000000 0.000000 0.000000 0.016867 0.000000
# 6 0.000000 0.000000 0.000000 0.000000 0.000000 0.030883
#
#
# Mechanical properties :
#
#
# Convention : Reuss Voigt Hill
#
# Bulk Modulus (GPa) = 43.64847 48.11215 45.88031
# Shear Modulus (GPa) = 35.55959 38.55482 37.05720
#
# Velocity S-wave (km/s) = 4.39928 4.58081 4.49096
# Velocity P-wave (km/s) = 7.03995 7.35961 7.20156
#
# Compressibility (1/GPa) = 0.02291031
#
# Stress axis : x y z
#
# Youngs Moduli (GPa) = 55.77253 92.54045 88.26255
#
# Poissons Ratio (x) = 0.20127 0.27050
# Poissons Ratio (y) = 0.12130 0.29463
# Poissons Ratio (z) = 0.17092 0.30891
#
# Static dielectric constant tensor:
#      x y z
#    x 3.197130 0.000000 0.000000 
#    y 0.000000 3.543570 0.000000 
#    z 0.000000 0.000000 3.854550 
# 
# 
# High freq. dielectric constant tensor:
#      x y z
#    x 1.676700 0.000000 0.000000 
#    y 0.000000 1.736790 0.000000 
#    z 0.000000 0.000000 1.726700 
# 
# From -- ./inp_files/23747.got.cif
#   From: 2010.03.12/outbox.cif.g09.slc.cpg/sg59_12_cif.got.tgz:23747.got - 2010.04.16 16:29:54.
