data_PCOD8239444
_publ_section_title
;
Structure prediction by ZEFSAII (Michael W. Deem and Ramdas Pophale) SiO2 
 PCOD8239444
Probable space group: P M M N
;
_chemical_formula_sum "Si O2"
_cell_formula_units_Z 48
_cell_length_a 19.219927
_cell_length_b 8.813194
_cell_length_c 16.089635
_cell_angle_alpha 90.000000
_cell_angle_beta 90.000000
_cell_angle_gamma 90.000000
_cell_volume 2725.406303
_symmetry_space_group_name_H-M "P M M N"
_symmetry_group_IT_number 59
_space_group.IT_coordinate_system_code '2'
_symmetry_cell_setting 'orthorhombic'
loop_
_space_group_symop_operation_xyz
x,y,z
1/2-x,1/2-y,z
1/2+x,-y,-z
-x,1/2+y,-z
-x,-y,-z
1/2+x,1/2+y,-z
1/2-x,y,z
x,1/2-y,z
loop_
_atom_site_type_symbol
_atom_site_label
_atom_site_fract_x
_atom_site_fract_y
_atom_site_fract_z
Si Si1 0.527534 0.427141 0.379538
Si Si2 0.522641 0.572344 0.205151
Si Si3 0.250000 0.571472 0.412448
Si Si4 0.385937 0.073607 0.135228
Si Si5 0.932727 0.924107 0.035244
Si Si6 0.890426 0.927362 0.524573
Si Si7 0.750000 0.926909 0.765165
O O1 0.542277 0.250000 0.391649
O O2 0.541582 0.474418 0.285236
O O3 0.581336 0.519445 0.435739
O O4 0.447892 0.466342 0.404808
O O5 0.525462 0.750000 0.228238
O O6 0.445947 0.531489 0.172523
O O7 0.578929 0.525872 0.131852
O O8 0.250000 0.750000 0.420055
O O9 0.181221 0.510673 0.456876
O O10 0.250000 0.524684 0.317097
O O11 0.405103 0.250000 0.151384
O O12 0.315879 0.027060 0.180482
O O13 0.373493 0.045841 0.034933
O O14 0.951725 0.750000 0.041359
O O15 0.000000 0.000000 0.000000
O O16 0.875032 0.750000 0.521560
O O17 0.750000 0.750000 0.740913
#
# Coordination Sequence:
#
# PCOD8239444 Si02
#       7
#     8   8   4   8   8   8   4
#     4  10  20  34  53  77 102 130 166 209 256 302
#     4  10  18  28  46  71  97 125 159 200 245 294
#     4  12  24  36  52  75 104 135 166 201 246 303
#     4   9  17  30  46  66  94 126 161 200 241 286
#     4   8  15  27  43  64  90 120 154 193 235 277
#     4  10  21  37  55  74 100 132 167 208 253 301
#     4  10  20  32  48  69  94 127 162 195 234 283
#
# _framework density 17.612053
#
# number of rings (size 3 to 8) (size 9 to 14) (size 15 to 20)
#    0.000    2.333    0.000    3.250    0.000    7.333 
#    0.000    0.000    0.000    1.000    0.000    3.500 
#    0.000    0.000    0.000    0.000    0.000    0.000 
#
# Total GULP energy -594773.998035 kJ/mol
# GULP energy per Si atom -12391.124959 kJ/mol
# Density = 1.757197 g / cm^3
# Si number density = 17.612053 Si / 1000 Ang^3
#
#
#
# Elastic Constant Matrix: (Units=GPa)
#
#
# Indices 1 2 3 4 5 6 
#
# 1 87.0969 38.4440 49.3151 0.0000 0.0000 0.0000
# 2 38.4440 65.4545 40.6613 0.0000 0.0000 0.0000
# 3 49.3151 40.6613 140.5124 0.0000 0.0000 0.0000
# 4 0.0000 0.0000 0.0000 28.2992 0.0000 0.0000
# 5 0.0000 0.0000 0.0000 0.0000 51.6479 0.0000
# 6 0.0000 0.0000 0.0000 0.0000 0.0000 23.2264
#
#
#
# Elastic Compliance Matrix: (Units=1/GPa)
#
#
# Indices 1 2 3 4 5 6 
#
# 1 0.016977 -0.007644 -0.003746 0.000000 0.000000 0.000000
# 2 -0.007644 0.022068 -0.003703 0.000000 0.000000 0.000000
# 3 -0.003746 -0.003703 0.009503 0.000000 0.000000 0.000000
# 4 0.000000 0.000000 0.000000 0.035337 0.000000 0.000000
# 5 0.000000 0.000000 0.000000 0.000000 0.019362 0.000000
# 6 0.000000 0.000000 0.000000 0.000000 0.000000 0.043054
#
#
# Mechanical properties :
#
#
# Convention : Reuss Voigt Hill
#
# Bulk Modulus (GPa) = 54.46307 61.10050 57.78178
# Shear Modulus (GPa) = 27.38115 31.61094 29.49604
#
# Velocity S-wave (km/s) = 3.94722 4.24116 4.09683
# Velocity P-wave (km/s) = 7.19479 7.66492 7.43357
#
# Compressibility (1/GPa) = 0.01836107
#
# Stress axis : x y z
#
# Youngs Moduli (GPa) = 58.90485 45.31493 105.22705
#
# Poissons Ratio (x) = 0.34638 0.39421
# Poissons Ratio (y) = 0.45025 0.38968
# Poissons Ratio (z) = 0.22067 0.16781
#
# Static dielectric constant tensor:
#      x y z
#    x 3.144160 0.000000 0.000000 
#    y 0.000000 3.410040 0.000000 
#    z 0.000000 0.000000 3.745410 
# 
# 
# High freq. dielectric constant tensor:
#      x y z
#    x 1.642830 0.000000 0.000000 
#    y 0.000000 1.688710 0.000000 
#    z 0.000000 0.000000 1.699350 
# 
# From -- ./inp_files/23757.got.cif
#   From: 2010.03.12/outbox.cif.g09.slc.cpg/sg59_12_cif.got.tgz:23757.got - 2010.04.16 16:29:54.
