data_PCOD8239745
_publ_section_title
;
Structure prediction by ZEFSAII (Michael W. Deem and Ramdas Pophale) SiO2 
 PCOD8239745
Probable space group: P M M N
;
_chemical_formula_sum "Si O2"
_cell_formula_units_Z 56
_cell_length_a 8.823464
_cell_length_b 18.483764
_cell_length_c 19.304449
_cell_angle_alpha 90.000000
_cell_angle_beta 90.000000
_cell_angle_gamma 90.000000
_cell_volume 3148.378537
_symmetry_space_group_name_H-M "P M M N"
_symmetry_group_IT_number 59
_space_group.IT_coordinate_system_code '2'
_symmetry_cell_setting 'orthorhombic'
loop_
_space_group_symop_operation_xyz
x,y,z
1/2-x,1/2-y,z
1/2+x,-y,-z
-x,1/2+y,-z
-x,-y,-z
1/2+x,1/2+y,-z
1/2-x,y,z
x,1/2-y,z
loop_
_atom_site_type_symbol
_atom_site_label
_atom_site_fract_x
_atom_site_fract_y
_atom_site_fract_z
Si Si1 0.074903 0.410103 0.271977
Si Si2 0.424919 0.433504 0.421746
Si Si3 0.069867 0.330070 0.701943
Si Si4 0.071744 0.328905 0.139092
Si Si5 0.929753 0.975447 0.928525
Si Si6 0.071998 0.413290 0.571312
Si Si7 0.071846 0.041316 0.798045
O O1 0.250000 0.432515 0.259336
O O2 0.048223 0.385723 0.352057
O O3 0.031433 0.345388 0.219633
O O4 0.971132 0.479227 0.256475
O O5 0.250000 0.456032 0.428498
O O6 0.518901 0.506111 0.413448
O O7 0.473715 0.390667 0.492024
O O8 0.250000 0.327478 0.697518
O O9 0.003413 0.250000 0.715804
O O10 0.002208 0.358722 0.628326
O O11 0.021230 0.382191 0.765010
O O12 0.250000 0.324199 0.129117
O O13 0.000132 0.250000 0.119892
O O14 0.010479 0.394192 0.090631
O O15 0.750000 0.977012 0.933673
O O16 0.982642 0.031440 0.869817
O O17 0.000000 0.000000 0.000000
O O18 0.250000 0.412353 0.581152
O O19 0.250000 0.038636 0.813156
#
# Coordination Sequence:
#
# PCOD8239745 Si02
#       7
#     8   8   8   8   8   8   8
#     4   9  16  27  45  69  96 124 156 200 243 284
#     4   9  16  25  41  65  92 119 155 203 251 290
#     4   9  17  29  45  66  94 128 168 212 251 287
#     4   8  15  29  49  72  97 125 155 187 229 280
#     4  10  20  35  56  79 102 127 155 192 231 276
#     4   9  16  27  42  62  88 122 163 204 246 289
#     4  10  18  30  50  72  94 124 162 198 235 283
#
# _framework density 17.786933000000001
#
# number of rings (size 3 to 8) (size 9 to 14) (size 15 to 20)
#    0.000    2.857    1.429    1.714    0.000    0.000 
#    0.000    1.429    0.000   23.143    0.000    0.000 
#    0.000    5.714    0.000    0.000    0.000    0.000 
#
# Total GULP energy -693805.154893 kJ/mol
# GULP energy per Si atom -12389.377766 kJ/mol
# Density = 1.774645 g / cm^3
# Si number density = 17.786933 Si / 1000 Ang^3
#
#
#
# Elastic Constant Matrix: (Units=GPa)
#
#
# Indices 1 2 3 4 5 6 
#
# 1 27.9247 18.7832 27.2047 0.0000 0.0000 0.0000
# 2 18.7832 127.4111 74.3964 0.0000 0.0000 0.0000
# 3 27.2047 74.3964 163.5909 0.0000 0.0000 0.0000
# 4 0.0000 0.0000 0.0000 21.5149 0.0000 0.0000
# 5 0.0000 0.0000 0.0000 0.0000 22.9494 0.0000
# 6 0.0000 0.0000 0.0000 0.0000 0.0000 15.7906
#
#
#
# Elastic Compliance Matrix: (Units=1/GPa)
#
#
# Indices 1 2 3 4 5 6 
#
# 1 0.043551 -0.002984 -0.005886 0.000000 0.000000 0.000000
# 2 -0.002984 0.010891 -0.004457 0.000000 0.000000 0.000000
# 3 -0.005886 -0.004457 0.009118 0.000000 0.000000 0.000000
# 4 0.000000 0.000000 0.000000 0.046479 0.000000 0.000000
# 5 0.000000 0.000000 0.000000 0.000000 0.043574 0.000000
# 6 0.000000 0.000000 0.000000 0.000000 0.000000 0.063329
#
#
# Mechanical properties :
#
#
# Convention : Reuss Voigt Hill
#
# Bulk Modulus (GPa) = 27.09403 62.18836 44.64119
# Shear Modulus (GPa) = 19.53907 25.28713 22.41310
#
# Velocity S-wave (km/s) = 3.31797 3.77459 3.55362
# Velocity P-wave (km/s) = 5.47213 7.35089 6.47996
#
# Compressibility (1/GPa) = 0.03690850
#
# Stress axis : x y z
#
# Youngs Moduli (GPa) = 22.96141 91.82122 109.66978
#
# Poissons Ratio (x) = 0.27398 0.64546
# Poissons Ratio (y) = 0.06851 0.48875
# Poissons Ratio (z) = 0.13514 0.40921
#
# Static dielectric constant tensor:
#      x y z
#    x 3.059860 0.000000 0.000000 
#    y 0.000000 3.475200 0.000000 
#    z 0.000000 0.000000 3.568390 
# 
# 
# High freq. dielectric constant tensor:
#      x y z
#    x 1.660660 0.000000 0.000000 
#    y 0.000000 1.660140 0.000000 
#    z 0.000000 0.000000 1.698740 
# 
# From -- ./inp_files/29315.got.cif
#   From: 2010.03.12/outbox.cif.g09.slc.cpg/sg59_15_cif.got.tgz:29315.got - 2010.04.16 16:29:54.
