data_PCOD8239065
_publ_section_title
;
Structure prediction by ZEFSAII (Michael W. Deem and Ramdas Pophale) SiO2 
 PCOD8239065
Probable space group: P M M N
;
_chemical_formula_sum "Si O2"
_cell_formula_units_Z 64
_cell_length_a 9.113229
_cell_length_b 22.345230
_cell_length_c 20.276465
_cell_angle_alpha 90.000000
_cell_angle_beta 90.000000
_cell_angle_gamma 90.000000
_cell_volume 4129.042519
_symmetry_space_group_name_H-M "P M M N"
_symmetry_group_IT_number 59
_space_group.IT_coordinate_system_code '2'
_symmetry_cell_setting 'orthorhombic'
loop_
_space_group_symop_operation_xyz
x,y,z
1/2-x,1/2-y,z
1/2+x,-y,-z
-x,1/2+y,-z
-x,-y,-z
1/2+x,1/2+y,-z
1/2-x,y,z
x,1/2-y,z
loop_
_atom_site_type_symbol
_atom_site_label
_atom_site_fract_x
_atom_site_fract_y
_atom_site_fract_z
Si Si1 0.081158 0.420090 0.540530
Si Si2 0.921254 0.605860 0.247183
Si Si3 0.082506 0.052656 0.143586
Si Si4 0.423338 0.316318 0.633028
Si Si5 0.580522 0.967894 0.598094
Si Si6 0.422664 0.968467 0.728300
Si Si7 0.923087 0.438488 0.017427
Si Si8 0.412962 0.588697 0.122677
O O1 0.250000 0.435812 0.559527
O O2 0.037460 0.354625 0.567738
O O3 0.059971 0.420632 0.461639
O O4 0.977007 0.467783 0.575246
O O5 0.750000 0.614152 0.242133
O O6 0.987654 0.650647 0.301993
O O7 0.962639 0.538630 0.268154
O O8 0.982663 0.621986 0.174669
O O9 0.250000 0.075206 0.147552
O O10 0.999446 0.067166 0.211862
O O11 0.998699 0.087394 0.083844
O O12 0.072884 0.982409 0.130043
O O13 0.250000 0.311253 0.640508
O O14 0.493144 0.250000 0.626568
O O15 0.750000 0.974383 0.618397
O O16 0.488499 0.943316 0.660031
O O17 0.250000 0.956668 0.731207
O O18 0.750000 0.448995 0.029328
O O19 0.949161 0.394844 0.953935
O O20 0.000000 0.500000 0.000000
O O21 0.250000 0.609816 0.140325
#
# Coordination Sequence:
#
# PCOD8239065 Si02
#       8
#     8   8   8   8   8   8   8   8
#     4   9  17  30  43  59  79 101 133 167 205 251
#     4   9  16  25  38  55  72  95 130 167 199 237
#     4   9  16  24  34  51  74  99 130 162 197 236
#     4   9  16  28  45  61  78 102 134 173 210 245
#     4  10  18  26  41  60  80 104 130 167 207 245
#     4  10  17  26  39  55  78 104 133 166 199 240
#     4   9  15  23  33  47  68  98 133 164 195 228
#     4   8  15  24  34  48  69  97 127 161 194 227
#
# _framework density 15.499962
#
# number of rings (size 3 to 8) (size 9 to 14) (size 15 to 20)
#    0.000    2.875    1.250    2.250    0.000    4.500 
#    0.000    0.000    0.000    1.500    0.000    0.000 
#    0.000    0.000    0.000    1.125    0.000   22.125 
#
# Total GULP energy -793125.641065 kJ/mol
# GULP energy per Si atom -12392.588142 kJ/mol
# Density = 1.546468 g / cm^3
# Si number density = 15.499962 Si / 1000 Ang^3
#
#
#
# Elastic Constant Matrix: (Units=GPa)
#
#
# Indices 1 2 3 4 5 6 
#
# 1 72.1172 14.4991 57.2529 0.0000 0.0000 0.0000
# 2 14.4991 40.2068 33.2296 0.0000 0.0000 0.0000
# 3 57.2529 33.2296 148.4100 0.0000 0.0000 0.0000
# 4 0.0000 0.0000 0.0000 11.2875 0.0000 0.0000
# 5 0.0000 0.0000 0.0000 0.0000 32.3892 0.0000
# 6 0.0000 0.0000 0.0000 0.0000 0.0000 6.9290
#
#
#
# Elastic Compliance Matrix: (Units=1/GPa)
#
#
# Indices 1 2 3 4 5 6 
#
# 1 0.020022 -0.001027 -0.007494 0.000000 0.000000 0.000000
# 2 -0.001027 0.030572 -0.006449 0.000000 0.000000 0.000000
# 3 -0.007494 -0.006449 0.011073 0.000000 0.000000 0.000000
# 4 0.000000 0.000000 0.000000 0.088593 0.000000 0.000000
# 5 0.000000 0.000000 0.000000 0.000000 0.030874 0.000000
# 6 0.000000 0.000000 0.000000 0.000000 0.000000 0.144321
#
#
# Mechanical properties :
#
#
# Convention : Reuss Voigt Hill
#
# Bulk Modulus (GPa) = 31.51863 52.29969 41.90916
# Shear Modulus (GPa) = 13.66229 20.50465 17.08347
#
# Velocity S-wave (km/s) = 2.97213 3.64109 3.32348
# Velocity P-wave (km/s) = 5.67070 7.17578 6.46717
#
# Compressibility (1/GPa) = 0.03172727
#
# Stress axis : x y z
#
# Youngs Moduli (GPa) = 49.94426 32.71015 90.30837
#
# Poissons Ratio (x) = 0.03358 0.67680
# Poissons Ratio (y) = 0.05127 0.58241
# Poissons Ratio (z) = 0.37430 0.21095
#
# Static dielectric constant tensor:
#      x y z
#    x 2.978930 0.000000 0.000000 
#    y 0.000000 2.483790 0.000000 
#    z 0.000000 0.000000 3.546220 
# 
# 
# High freq. dielectric constant tensor:
#      x y z
#    x 1.595660 0.000000 0.000000 
#    y 0.000000 1.507470 0.000000 
#    z 0.000000 0.000000 1.616570 
# 
# From -- ./inp_files/29841.got.cif
#   From: 2010.03.12/outbox.cif.g09.slc.cpg/sg59_15_cif.got.tgz:29841.got - 2010.04.16 16:29:54.
