data_PCOD8239606
_publ_section_title
;
Structure prediction by ZEFSAII (Michael W. Deem and Ramdas Pophale) SiO2 
 PCOD8239606
Probable space group: P M M N
;
_chemical_formula_sum "Si O2"
_cell_formula_units_Z 64
_cell_length_a 8.760939
_cell_length_b 29.618177
_cell_length_c 14.779627
_cell_angle_alpha 90.000000
_cell_angle_beta 90.000000
_cell_angle_gamma 90.000000
_cell_volume 3835.062573
_symmetry_space_group_name_H-M "P M M N"
_symmetry_group_IT_number 59
_space_group.IT_coordinate_system_code '2'
_symmetry_cell_setting 'orthorhombic'
loop_
_space_group_symop_operation_xyz
x,y,z
1/2-x,1/2-y,z
1/2+x,-y,-z
-x,1/2+y,-z
-x,-y,-z
1/2+x,1/2+y,-z
1/2-x,y,z
x,1/2-y,z
loop_
_atom_site_type_symbol
_atom_site_label
_atom_site_fract_x
_atom_site_fract_y
_atom_site_fract_z
Si Si1 0.930895 0.798929 0.796337
Si Si2 0.571148 0.885716 0.698291
Si Si3 0.070818 0.564138 0.543269
Si Si4 0.570227 0.969774 0.374352
Si Si5 0.069344 0.891524 0.037604
Si Si6 0.568538 0.962620 0.168486
Si Si7 0.070255 0.199356 0.998510
Si Si8 0.929704 0.556239 0.871168
O O1 0.750000 0.803206 0.799424
O O2 0.980947 0.750000 0.757378
O O3 0.997850 0.838238 0.733381
O O4 0.989377 0.804055 0.898574
O O5 0.750000 0.882723 0.680228
O O6 0.488769 0.894616 0.603447
O O7 0.533353 0.923978 0.772275
O O8 0.250000 0.566462 0.535763
O O9 0.013084 0.518825 0.593332
O O10 0.002567 0.567167 0.442018
O O11 0.750000 0.965686 0.380817
O O12 0.513670 0.961559 0.272559
O O13 0.250000 0.895745 0.030738
O O14 0.008503 0.919817 0.122259
O O15 0.020478 0.839442 0.055718
O O16 0.993534 0.909548 0.945650
O O17 0.750000 0.960199 0.159089
O O18 0.511289 0.008026 0.119384
O O19 0.250000 0.189732 0.991298
O O20 0.033767 0.250000 0.961011
O O21 0.750000 0.550451 0.887233
#
# Coordination Sequence:
#
# PCOD8239606 Si02
#       8
#     8   8   8   8   8   8   8   8
#     4   8  14  27  48  72  96 125 163 203 242 287
#     4  10  18  29  49  73  99 131 166 202 242 293
#     4  10  19  31  49  72  98 126 159 198 244 293
#     4   9  19  34  50  70  94 124 162 204 246 289
#     4  12  24  35  49  72 103 137 172 208 251 302
#     4  11  22  37  53  70  98 133 173 214 253 296
#     4   9  17  33  55  75  97 128 168 210 252 297
#     4  11  21  34  50  71 100 136 176 209 246 292
#
# _framework density 16.688123000000001
#
# number of rings (size 3 to 8) (size 9 to 14) (size 15 to 20)
#    0.000    2.000    2.500    3.375    0.000    2.250 
#    0.000    0.000    0.000    0.375    0.000    0.875 
#    0.000    3.000    0.000    0.000    0.000    0.000 
#
# Total GULP energy -793543.410937 kJ/mol
# GULP energy per Si atom -12399.115796 kJ/mol
# Density = 1.665014 g / cm^3
# Si number density = 16.688123 Si / 1000 Ang^3
#
#
#
# Elastic Constant Matrix: (Units=GPa)
#
#
# Indices 1 2 3 4 5 6 
#
# 1 33.6642 18.2152 21.5265 0.0000 0.0000 0.0000
# 2 18.2152 107.6632 30.8818 0.0000 0.0000 0.0000
# 3 21.5265 30.8818 65.8378 0.0000 0.0000 0.0000
# 4 0.0000 0.0000 0.0000 22.5238 0.0000 0.0000
# 5 0.0000 0.0000 0.0000 0.0000 22.6548 0.0000
# 6 0.0000 0.0000 0.0000 0.0000 0.0000 23.2619
#
#
#
# Elastic Compliance Matrix: (Units=1/GPa)
#
#
# Indices 1 2 3 4 5 6 
#
# 1 0.038582 -0.003361 -0.011038 0.000000 0.000000 0.000000
# 2 -0.003361 0.011025 -0.004072 0.000000 0.000000 0.000000
# 3 -0.011038 -0.004072 0.020708 0.000000 0.000000 0.000000
# 4 0.000000 0.000000 0.000000 0.044398 0.000000 0.000000
# 5 0.000000 0.000000 0.000000 0.000000 0.044141 0.000000
# 6 0.000000 0.000000 0.000000 0.000000 0.000000 0.042989
#
#
# Mechanical properties :
#
#
# Convention : Reuss Voigt Hill
#
# Bulk Modulus (GPa) = 29.96576 38.71248 34.33912
# Shear Modulus (GPa) = 20.00716 22.79087 21.39901
#
# Velocity S-wave (km/s) = 3.46625 3.69954 3.58479
# Velocity P-wave (km/s) = 5.83225 6.44180 6.14459
#
# Compressibility (1/GPa) = 0.03337142
#
# Stress axis : x y z
#
# Youngs Moduli (GPa) = 25.91856 90.70267 48.29031
#
# Poissons Ratio (x) = 0.30489 0.53304
# Poissons Ratio (y) = 0.08712 0.19665
# Poissons Ratio (z) = 0.28610 0.36937
#
# Static dielectric constant tensor:
#      x y z
#    x 2.978400 0.000000 0.000000 
#    y 0.000000 3.290330 0.000000 
#    z 0.000000 0.000000 3.094820 
# 
# 
# High freq. dielectric constant tensor:
#      x y z
#    x 1.637530 0.000000 0.000000 
#    y 0.000000 1.633520 0.000000 
#    z 0.000000 0.000000 1.622610 
# 
# From -- ./inp_files/21937.got.cif
#   From: 2010.03.12/outbox.cif.g09.slc.cpg/sg59_11_cif.got.tgz:21937.got - 2010.04.16 16:29:54.
