data_PCOD8239201
_publ_section_title
;
Structure prediction by ZEFSAII (Michael W. Deem and Ramdas Pophale) SiO2 
 PCOD8239201
Probable space group: P M M N
;
_chemical_formula_sum "Si O2"
_cell_formula_units_Z 64
_cell_length_a 14.597088
_cell_length_b 18.429032
_cell_length_c 12.390915
_cell_angle_alpha 90.000000
_cell_angle_beta 90.000000
_cell_angle_gamma 90.000000
_cell_volume 3333.282545
_symmetry_space_group_name_H-M "P M M N"
_symmetry_group_IT_number 59
_space_group.IT_coordinate_system_code '2'
_symmetry_cell_setting 'orthorhombic'
loop_
_space_group_symop_operation_xyz
x,y,z
1/2-x,1/2-y,z
1/2+x,-y,-z
-x,1/2+y,-z
-x,-y,-z
1/2+x,1/2+y,-z
1/2-x,y,z
x,1/2-y,z
loop_
_atom_site_type_symbol
_atom_site_label
_atom_site_fract_x
_atom_site_fract_y
_atom_site_fract_z
Si Si1 0.151940 0.102749 0.430088
Si Si2 0.647840 0.081982 0.338081
Si Si3 0.042196 0.334951 0.857124
Si Si4 0.603892 0.061279 0.582376
Si Si5 0.598249 0.575839 0.344213
Si Si6 0.350595 0.833190 0.228063
Si Si7 0.645374 0.836383 0.931189
Si Si8 0.978615 0.665529 0.734491
O O1 0.250000 0.131268 0.386383
O O2 0.153182 0.114332 0.559351
O O3 0.071555 0.150192 0.378403
O O4 0.146573 0.017745 0.400944
O O5 0.750000 0.112254 0.315914
O O6 0.623694 0.092225 0.463831
O O7 0.576476 0.125644 0.263227
O O8 0.646488 0.997568 0.304217
O O9 0.059353 0.250000 0.849912
O O10 0.091382 0.369483 0.754386
O O11 0.932851 0.353734 0.855203
O O12 0.090445 0.365959 0.964321
O O13 0.496744 0.052317 0.601353
O O14 0.647135 0.117347 0.666374
O O15 0.250000 0.843059 0.172599
O O16 0.364419 0.750000 0.265622
O O17 0.750000 0.866736 0.929457
O O18 0.647998 0.750000 0.930527
O O19 0.588041 0.865059 0.828480
O O20 0.998019 0.750000 0.749533
#
# Coordination Sequence:
#
# PCOD8239201 Si02
#       8
#     8   8   8   8   8   8   8   8
#     4  11  20  33  55  81 109 145 180 217 275 331
#     4  11  21  36  56  79 111 152 188 218 267 329
#     4   9  19  34  57  84 108 139 180 224 274 331
#     4  10  17  33  54  78 112 154 187 213 255 327
#     4  10  18  34  56  82 116 149 175 220 275 325
#     4   9  17  29  49  81 115 143 176 221 267 311
#     4   9  19  38  60  78 102 142 186 225 273 332
#     4  11  23  39  56  78 108 140 185 236 274 317
#
# _framework density 19.200292000000001
#
# number of rings (size 3 to 8) (size 9 to 14) (size 15 to 20)
#    0.000    2.000    2.500    3.375    0.000    3.000 
#    0.000    1.250    0.000    2.250    0.000    0.000 
#    0.000    0.000    0.000    0.000    0.000    0.000 
#
# Total GULP energy -793399.010165 kJ/mol
# GULP energy per Si atom -12396.859534 kJ/mol
# Density = 1.915659 g / cm^3
# Si number density = 19.200292 Si / 1000 Ang^3
#
#
#
# Elastic Constant Matrix: (Units=GPa)
#
#
# Indices 1 2 3 4 5 6 
#
# 1 155.0514 23.6827 55.9618 0.0000 0.0000 0.0000
# 2 23.6827 32.5126 34.3064 0.0000 0.0000 0.0000
# 3 55.9618 34.3064 91.2650 0.0000 0.0000 0.0000
# 4 0.0000 0.0000 0.0000 11.3941 0.0000 0.0000
# 5 0.0000 0.0000 0.0000 0.0000 25.0111 0.0000
# 6 0.0000 0.0000 0.0000 0.0000 0.0000 20.4636
#
#
#
# Elastic Compliance Matrix: (Units=1/GPa)
#
#
# Indices 1 2 3 4 5 6 
#
# 1 0.008307 -0.001121 -0.004672 0.000000 0.000000 0.000000
# 2 -0.001121 0.051128 -0.018532 0.000000 0.000000 0.000000
# 3 -0.004672 -0.018532 0.020788 0.000000 0.000000 0.000000
# 4 0.000000 0.000000 0.000000 0.087765 0.000000 0.000000
# 5 0.000000 0.000000 0.000000 0.000000 0.039982 0.000000
# 6 0.000000 0.000000 0.000000 0.000000 0.000000 0.048867
#
#
# Mechanical properties :
#
#
# Convention : Reuss Voigt Hill
#
# Bulk Modulus (GPa) = 31.67227 56.30343 43.98785
# Shear Modulus (GPa) = 15.82220 22.36562 19.09391
#
# Velocity S-wave (km/s) = 2.87376 3.41670 3.15693
# Velocity P-wave (km/s) = 5.24813 6.70471 6.02063
#
# Compressibility (1/GPa) = 0.03157336
#
# Stress axis : x y z
#
# Youngs Moduli (GPa) = 120.37959 19.55878 48.10422
#
# Poissons Ratio (x) = 0.02192 0.22476
# Poissons Ratio (y) = 0.13492 0.89145
# Poissons Ratio (z) = 0.56246 0.36246
#
# Static dielectric constant tensor:
#      x y z
#    x 3.854740 0.000000 0.000000 
#    y 0.000000 3.252280 0.000000 
#    z 0.000000 0.000000 3.383920 
# 
# 
# High freq. dielectric constant tensor:
#      x y z
#    x 1.768830 0.000000 0.000000 
#    y 0.000000 1.722410 0.000000 
#    z 0.000000 0.000000 1.721360 
# 
# From -- ./inp_files/17265.got.cif
#   From: 2010.03.12/outbox.cif.g09.slc.cpg/sg59_9_cif.got.tgz:17265.got - 2010.04.16 16:29:54.
