data_PCOD8239820
_publ_section_title
;
Structure prediction by ZEFSAII (Michael W. Deem and Ramdas Pophale) SiO2 
 PCOD8239820
Probable space group: P M M N
;
_chemical_formula_sum "Si O2"
_cell_formula_units_Z 64
_cell_length_a 9.060111
_cell_length_b 29.923760
_cell_length_c 14.924874
_cell_angle_alpha 90.000000
_cell_angle_beta 90.000000
_cell_angle_gamma 90.000000
_cell_volume 4046.321203
_symmetry_space_group_name_H-M "P M M N"
_symmetry_group_IT_number 59
_space_group.IT_coordinate_system_code '2'
_symmetry_cell_setting 'orthorhombic'
loop_
_space_group_symop_operation_xyz
x,y,z
1/2-x,1/2-y,z
1/2+x,-y,-z
-x,1/2+y,-z
-x,-y,-z
1/2+x,1/2+y,-z
1/2-x,y,z
x,1/2-y,z
loop_
_atom_site_type_symbol
_atom_site_label
_atom_site_fract_x
_atom_site_fract_y
_atom_site_fract_z
Si Si1 0.924535 0.797810 0.793469
Si Si2 0.577440 0.884389 0.709298
Si Si3 0.920224 0.555897 0.555371
Si Si4 0.579333 0.971653 0.365763
Si Si5 0.076759 0.889519 0.034683
Si Si6 0.421601 0.960815 0.182811
Si Si7 0.077188 0.199352 0.000231
Si Si8 0.924069 0.557499 0.874483
O O1 0.750000 0.795254 0.782512
O O2 0.993381 0.750000 0.764707
O O3 0.996832 0.836534 0.732040
O O4 0.962512 0.807951 0.896199
O O5 0.750000 0.878164 0.723495
O O6 0.539985 0.898218 0.607352
O O7 0.524976 0.922034 0.779330
O O8 0.750000 0.542231 0.573440
O O9 0.948195 0.562524 0.449276
O O10 0.022479 0.518993 0.600024
O O11 0.750000 0.976225 0.342082
O O12 0.499079 0.953768 0.278085
O O13 0.250000 0.885646 0.017086
O O14 0.041574 0.917583 0.123964
O O15 0.011137 0.839767 0.051176
O O16 0.005839 0.915943 0.952305
O O17 0.250000 0.965971 0.203536
O O18 0.474219 0.005539 0.129983
O O19 0.250000 0.192710 0.982105
O O20 0.030504 0.250000 0.970294
O O21 0.750000 0.562361 0.891953
#
# Coordination Sequence:
#
# PCOD8239820 Si02
#       8
#     8   8   8   8   8   8   8   8
#     4   8  13  22  40  66  88 108 143 183 212 253
#     4   9  14  24  45  65  86 121 152 175 216 272
#     4   9  17  30  46  65  91 119 147 182 231 282
#     4  10  19  29  45  68  89 114 152 196 232 267
#     4  11  22  32  45  68  95 123 156 197 238 275
#     4  10  21  35  47  61  90 130 163 193 233 277
#     4   9  17  31  50  69  90 119 156 192 227 276
#     4  10  18  31  48  63  88 129 164 187 221 272
#
# _framework density 15.816836
#
# number of rings (size 3 to 8) (size 9 to 14) (size 15 to 20)
#    0.000    2.500    2.500    1.875    0.000    2.250 
#    0.000    0.000    0.000    0.000    0.000    0.875 
#    0.000    3.000    0.000    0.000    0.000    0.000 
#
# Total GULP energy -793094.748971 kJ/mol
# GULP energy per Si atom -12392.105453 kJ/mol
# Density = 1.578084 g / cm^3
# Si number density = 15.816836 Si / 1000 Ang^3
#
#
#
# Elastic Constant Matrix: (Units=GPa)
#
#
# Indices 1 2 3 4 5 6 
#
# 1 42.8039 39.9841 37.6185 0.0000 0.0000 0.0000
# 2 39.9841 134.0446 56.7007 0.0000 0.0000 0.0000
# 3 37.6185 56.7007 89.1951 0.0000 0.0000 0.0000
# 4 0.0000 0.0000 0.0000 22.5079 0.0000 0.0000
# 5 0.0000 0.0000 0.0000 0.0000 22.8618 0.0000
# 6 0.0000 0.0000 0.0000 0.0000 0.0000 19.4802
#
#
#
# Elastic Compliance Matrix: (Units=1/GPa)
#
#
# Indices 1 2 3 4 5 6 
#
# 1 0.041147 -0.006747 -0.013065 0.000000 0.000000 0.000000
# 2 -0.006747 0.011310 -0.004344 0.000000 0.000000 0.000000
# 3 -0.013065 -0.004344 0.019483 0.000000 0.000000 0.000000
# 4 0.000000 0.000000 0.000000 0.044429 0.000000 0.000000
# 5 0.000000 0.000000 0.000000 0.000000 0.043741 0.000000
# 6 0.000000 0.000000 0.000000 0.000000 0.000000 0.051334
#
#
# Mechanical properties :
#
#
# Convention : Reuss Voigt Hill
#
# Bulk Modulus (GPa) = 42.32262 59.40556 50.86409
# Shear Modulus (GPa) = 18.68223 21.75268 20.21745
#
# Velocity S-wave (km/s) = 3.44053 3.71251 3.57910
# Velocity P-wave (km/s) = 6.52679 7.48445 7.02196
#
# Compressibility (1/GPa) = 0.02362803
#
# Stress axis : x y z
#
# Youngs Moduli (GPa) = 24.30289 88.41348 51.32636
#
# Poissons Ratio (x) = 0.59656 0.67057
# Poissons Ratio (y) = 0.16398 0.22297
# Poissons Ratio (z) = 0.31751 0.38409
#
# Static dielectric constant tensor:
#      x y z
#    x 2.832440 0.000000 0.000000 
#    y 0.000000 3.331740 0.000000 
#    z 0.000000 0.000000 3.005520 
# 
# 
# High freq. dielectric constant tensor:
#      x y z
#    x 1.587830 0.000000 0.000000 
#    y 0.000000 1.602090 0.000000 
#    z 0.000000 0.000000 1.589140 
# 
# From -- ./inp_files/21939.got.cif
#   From: 2010.03.12/outbox.cif.g09.slc.cpg/sg59_11_cif.got.tgz:21939.got - 2010.04.16 16:29:54.
