data_PCOD8239385
_publ_section_title
;
Structure prediction by ZEFSAII (Michael W. Deem and Ramdas Pophale) SiO2 
 PCOD8239385
Probable space group: P M M N
;
_chemical_formula_sum "Si O2"
_cell_formula_units_Z 64
_cell_length_a 19.669545
_cell_length_b 9.686249
_cell_length_c 21.829831
_cell_angle_alpha 90.000000
_cell_angle_beta 90.000000
_cell_angle_gamma 90.000000
_cell_volume 4159.109136
_symmetry_space_group_name_H-M "P M M N"
_symmetry_group_IT_number 59
_space_group.IT_coordinate_system_code '2'
_symmetry_cell_setting 'orthorhombic'
loop_
_space_group_symop_operation_xyz
x,y,z
1/2-x,1/2-y,z
1/2+x,-y,-z
-x,1/2+y,-z
-x,-y,-z
1/2+x,1/2+y,-z
1/2-x,y,z
x,1/2-y,z
loop_
_atom_site_type_symbol
_atom_site_label
_atom_site_fract_x
_atom_site_fract_y
_atom_site_fract_z
Si Si1 0.545783 0.086946 0.693741
Si Si2 0.825089 0.414573 0.624086
Si Si3 0.941537 0.088674 0.830424
Si Si4 0.672350 0.907985 0.881896
Si Si5 0.038295 0.096687 0.583393
Si Si6 0.823158 0.587256 0.020056
Si Si7 0.531949 0.912626 0.054738
Si Si8 0.901114 0.402894 0.506759
O O1 0.548480 0.250000 0.683847
O O2 0.619869 0.027491 0.673247
O O3 0.529007 0.047777 0.763815
O O4 0.485676 0.032286 0.649072
O O5 0.750000 0.474194 0.639417
O O6 0.824310 0.250000 0.626352
O O7 0.846254 0.461334 0.555407
O O8 0.923446 0.250000 0.833712
O O9 0.997191 0.047563 0.881243
O O10 0.872539 0.004252 0.838808
O O11 0.750000 0.920348 0.860016
O O12 0.646982 0.750000 0.877004
O O13 0.664117 0.965302 0.950980
O O14 0.069378 0.250000 0.591761
O O15 0.973494 0.104278 0.539647
O O16 0.095958 0.000641 0.553002
O O17 0.750000 0.527508 0.044749
O O18 0.815908 0.750000 0.016732
O O19 0.888057 0.545609 0.061333
O O20 0.523788 0.750000 0.039671
O O21 0.500000 0.000000 0.000000
O O22 0.880322 0.250000 0.484222
#
# Coordination Sequence:
#
# PCOD8239385 Si02
#       8
#     8   8   8   8   8   8   8   8
#     4   8  15  26  37  54  82 111 138 164 196 243
#     4   8  13  22  37  56  79 109 139 163 190 229
#     4  10  19  28  41  64  87 107 138 182 221 249
#     4   9  17  29  43  57  78 112 146 170 200 252
#     4   8  13  23  38  53  73 102 128 153 194 239
#     4   8  14  26  43  59  76 103 136 164 198 252
#     4  10  18  28  44  64  84 105 133 174 221 258
#     4   8  13  21  36  58  76  90 122 168 196 217
#
# _framework density 15.38791
#
# number of rings (size 3 to 8) (size 9 to 14) (size 15 to 20)
#    0.000    3.375    1.250    2.250    0.000    0.750 
#    0.000    1.875    0.000    1.500    0.000    0.875 
#    0.000    3.000    0.000    0.000    0.000    0.000 
#
# Total GULP energy -792913.361265 kJ/mol
# GULP energy per Si atom -12389.271270 kJ/mol
# Density = 1.535289 g / cm^3
# Si number density = 15.387910 Si / 1000 Ang^3
#
#
#
# Elastic Constant Matrix: (Units=GPa)
#
#
# Indices 1 2 3 4 5 6 
#
# 1 64.5022 20.2399 47.2907 0.0000 0.0000 0.0000
# 2 20.2399 33.8083 31.6068 0.0000 0.0000 0.0000
# 3 47.2907 31.6068 109.3087 0.0000 0.0000 0.0000
# 4 0.0000 0.0000 0.0000 16.8600 0.0000 0.0000
# 5 0.0000 0.0000 0.0000 0.0000 17.6588 0.0000
# 6 0.0000 0.0000 0.0000 0.0000 0.0000 16.0279
#
#
#
# Elastic Compliance Matrix: (Units=1/GPa)
#
#
# Indices 1 2 3 4 5 6 
#
# 1 0.023643 -0.006293 -0.008409 0.000000 0.000000 0.000000
# 2 -0.006293 0.042211 -0.009483 0.000000 0.000000 0.000000
# 3 -0.008409 -0.009483 0.015529 0.000000 0.000000 0.000000
# 4 0.000000 0.000000 0.000000 0.059312 0.000000 0.000000
# 5 0.000000 0.000000 0.000000 0.000000 0.056629 0.000000
# 6 0.000000 0.000000 0.000000 0.000000 0.000000 0.062391
#
#
# Mechanical properties :
#
#
# Convention : Reuss Voigt Hill
#
# Bulk Modulus (GPa) = 30.29106 45.09935 37.69520
# Shear Modulus (GPa) = 15.66957 17.34147 16.50552
#
# Velocity S-wave (km/s) = 3.19455 3.36066 3.27865
# Velocity P-wave (km/s) = 5.77361 6.66563 6.23559
#
# Compressibility (1/GPa) = 0.03301304
#
# Stress axis : x y z
#
# Youngs Moduli (GPa) = 42.29514 23.69035 64.39711
#
# Poissons Ratio (x) = 0.14908 0.54154
# Poissons Ratio (y) = 0.26615 0.61068
# Poissons Ratio (z) = 0.35568 0.22466
#
# Static dielectric constant tensor:
#      x y z
#    x 3.177620 0.000000 0.000000 
#    y 0.000000 2.767130 0.000000 
#    z 0.000000 0.000000 2.984750 
# 
# 
# High freq. dielectric constant tensor:
#      x y z
#    x 1.573600 0.000000 0.000000 
#    y 0.000000 1.555700 0.000000 
#    z 0.000000 0.000000 1.572560 
# 
# From -- ./inp_files/30861.got.cif
#   From: 2010.03.12/outbox.cif.g09.slc.cpg/sg59_16_cif.got.tgz:30861.got - 2010.04.16 16:29:54.
