data_PCOD8239813
_publ_section_title
;
Structure prediction by ZEFSAII (Michael W. Deem and Ramdas Pophale) SiO2 
 PCOD8239813
Probable space group: P M M N
;
_chemical_formula_sum "Si O2"
_cell_formula_units_Z 40
_cell_length_a 25.870794
_cell_length_b 8.824545
_cell_length_c 9.103209
_cell_angle_alpha 90.000000
_cell_angle_beta 90.000000
_cell_angle_gamma 90.000000
_cell_volume 2078.244279
_symmetry_space_group_name_H-M "P M M N"
_symmetry_group_IT_number 59
_space_group.IT_coordinate_system_code '2'
_symmetry_cell_setting 'orthorhombic'
loop_
_space_group_symop_operation_xyz
x,y,z
1/2-x,1/2-y,z
1/2+x,-y,-z
-x,1/2+y,-z
-x,-y,-z
1/2+x,1/2+y,-z
1/2-x,y,z
x,1/2-y,z
loop_
_atom_site_type_symbol
_atom_site_label
_atom_site_fract_x
_atom_site_fract_y
_atom_site_fract_z
Si Si1 0.750000 0.077623 0.388528
Si Si2 0.355437 0.573673 0.922898
Si Si3 0.361949 0.920521 0.576514
Si Si4 0.048417 0.070532 0.081083
Si Si5 0.952797 0.572906 0.584666
Si Si6 0.750000 0.927358 0.087443
O O1 0.750000 0.250000 0.319126
O O2 0.802712 0.057540 0.482499
O O3 0.750000 0.952630 0.261943
O O4 0.358145 0.750000 0.962847
O O5 0.362938 0.546036 0.749783
O O6 0.301057 0.505912 0.979511
O O7 0.399447 0.484557 0.007125
O O8 0.381364 0.750000 0.545312
O O9 0.398527 0.035440 0.491931
O O10 0.044841 0.250000 0.070328
O O11 0.047788 0.013539 0.248891
O O12 0.000000 0.000000 0.000000
O O13 0.961308 0.750000 0.580110
O O14 0.000000 0.500000 0.500000
O O15 0.750000 0.750000 0.050615
#
# Coordination Sequence:
#
# PCOD8239813 Si02
#       6
#     4   8   8   8   8   4
#     4   8  16  32  53  80 113 146 182 224 264 314
#     4  10  20  36  58  84 113 147 186 228 271 322
#     4   9  18  34  57  83 111 143 182 224 267 317
#     4  11  24  40  57  81 110 143 184 231 279 330
#     4  11  24  39  56  80 110 142 180 225 275 329
#     4  10  18  30  53  84 115 148 184 224 270 322
#
# _framework density 19.247017
#
# number of rings (size 3 to 8) (size 9 to 14) (size 15 to 20)
#    0.000    2.000    0.000    5.100    0.000   12.000 
#    0.000    1.000    0.000    4.800    0.000    0.000 
#    0.000    0.000    0.000    0.000    0.000    0.000 
#
# Total GULP energy -495982.316592 kJ/mol
# GULP energy per Si atom -12399.557915 kJ/mol
# Density = 1.920321 g / cm^3
# Si number density = 19.247017 Si / 1000 Ang^3
#
#
#
# Elastic Constant Matrix: (Units=GPa)
#
#
# Indices 1 2 3 4 5 6 
#
# 1 171.2713 39.5085 61.2046 0.0000 0.0000 0.0000
# 2 39.5085 67.6670 33.3227 0.0000 0.0000 0.0000
# 3 61.2046 33.3227 80.8666 0.0000 0.0000 0.0000
# 4 0.0000 0.0000 0.0000 27.6583 0.0000 0.0000
# 5 0.0000 0.0000 0.0000 0.0000 27.6457 0.0000
# 6 0.0000 0.0000 0.0000 0.0000 0.0000 41.2318
#
#
#
# Elastic Compliance Matrix: (Units=1/GPa)
#
#
# Indices 1 2 3 4 5 6 
#
# 1 0.008253 -0.002186 -0.005346 0.000000 0.000000 0.000000
# 2 -0.002186 0.019120 -0.006224 0.000000 0.000000 0.000000
# 3 -0.005346 -0.006224 0.018977 0.000000 0.000000 0.000000
# 4 0.000000 0.000000 0.000000 0.036156 0.000000 0.000000
# 5 0.000000 0.000000 0.000000 0.000000 0.036172 0.000000
# 6 0.000000 0.000000 0.000000 0.000000 0.000000 0.024253
#
#
# Mechanical properties :
#
#
# Convention : Reuss Voigt Hill
#
# Bulk Modulus (GPa) = 53.08462 65.31962 59.20212
# Shear Modulus (GPa) = 28.29307 31.69175 29.99241
#
# Velocity S-wave (km/s) = 3.83821 4.06221 3.95180
# Velocity P-wave (km/s) = 6.87627 7.48420 7.18667
#
# Compressibility (1/GPa) = 0.01883785
#
# Stress axis : x y z
#
# Youngs Moduli (GPa) = 121.16310 52.30187 52.69626
#
# Poissons Ratio (x) = 0.11435 0.28170
# Poissons Ratio (y) = 0.26491 0.32798
# Poissons Ratio (z) = 0.64770 0.32552
#
# Static dielectric constant tensor:
#      x y z
#    x 3.856110 0.000000 0.000000 
#    y 0.000000 3.542190 0.000000 
#    z 0.000000 0.000000 3.412290 
# 
# 
# High freq. dielectric constant tensor:
#      x y z
#    x 1.775000 0.000000 0.000000 
#    y 0.000000 1.755270 0.000000 
#    z 0.000000 0.000000 1.717740 
# 
# From -- ./inp_files/12391.got.cif
#   From: 2010.03.12/outbox.cif.g09.slc.cpg/sg59_7_cif.got.tgz:12391.got - 2010.04.16 16:29:54.
