data_PCOD8239900
_publ_section_title
;
Structure prediction by ZEFSAII (Michael W. Deem and Ramdas Pophale) SiO2 
 PCOD8239900
Probable space group: P M M N
;
_chemical_formula_sum "Si O2"
_cell_formula_units_Z 64
_cell_length_a 8.912734
_cell_length_b 14.593796
_cell_length_c 24.929079
_cell_angle_alpha 90.000000
_cell_angle_beta 90.000000
_cell_angle_gamma 90.000000
_cell_volume 3242.540806
_symmetry_space_group_name_H-M "P M M N"
_symmetry_group_IT_number 59
_space_group.IT_coordinate_system_code '2'
_symmetry_cell_setting 'orthorhombic'
loop_
_space_group_symop_operation_xyz
x,y,z
1/2-x,1/2-y,z
1/2+x,-y,-z
-x,1/2+y,-z
-x,-y,-z
1/2+x,1/2+y,-z
1/2-x,y,z
x,1/2-y,z
loop_
_atom_site_type_symbol
_atom_site_label
_atom_site_fract_x
_atom_site_fract_y
_atom_site_fract_z
Si Si1 0.581506 0.649313 0.904567
Si Si2 0.927967 0.849738 0.132629
Si Si3 0.421871 0.144582 0.467194
Si Si4 0.572242 0.849834 0.411680
Si Si5 0.078126 0.409064 0.981606
Si Si6 0.072502 0.145156 0.275107
Si Si7 0.424858 0.963364 0.820620
Si Si8 0.926623 0.042356 0.373624
O O1 0.750000 0.612870 0.892139
O O2 0.560409 0.750000 0.879077
O O3 0.460219 0.581703 0.878278
O O4 0.558325 0.659966 0.968495
O O5 0.750000 0.846945 0.128121
O O6 0.987952 0.750000 0.152480
O O7 0.994524 0.868566 0.072923
O O8 0.973503 0.929486 0.174789
O O9 0.250000 0.110318 0.461335
O O10 0.432251 0.250000 0.448912
O O11 0.483518 0.132933 0.527639
O O12 0.531554 0.084641 0.430786
O O13 0.750000 0.844962 0.414333
O O14 0.511442 0.750000 0.390743
O O15 0.523293 0.934546 0.373635
O O16 0.250000 0.431828 0.969680
O O17 0.000000 0.500000 0.000000
O O18 0.250000 0.144630 0.276876
O O19 0.012708 0.250000 0.272157
O O20 0.019959 0.087491 0.224173
O O21 0.013148 0.096221 0.327932
O O22 0.250000 0.953233 0.807093
O O23 0.750000 0.051764 0.363600
#
# Coordination Sequence:
#
# PCOD8239900 Si02
#       8
#     8   8   8   8   8   8   8   8
#     4  10  20  33  52  78 109 146 180 210 257 322
#     4   9  18  34  56  81 110 144 180 216 260 318
#     4   9  17  31  52  78 113 156 191 218 261 325
#     4   8  16  32  53  79 113 152 189 221 260 318
#     4  10  18  31  52  78 110 146 181 216 256 309
#     4  11  25  44  62  78 103 142 180 216 270 338
#     4  11  22  37  59  84 106 133 175 229 276 311
#     4  11  21  33  55  85 112 141 182 234 279 312
#
# _framework density 19.737607000000001
#
# number of rings (size 3 to 8) (size 9 to 14) (size 15 to 20)
#    0.000    2.125    1.250    3.375    0.000    6.000 
#    0.000    1.250    0.000   10.875    0.000    0.000 
#    0.000    0.000    0.000    0.000    0.000    0.000 
#
# Total GULP energy -793222.263269 kJ/mol
# GULP energy per Si atom -12394.097864 kJ/mol
# Density = 1.969268 g / cm^3
# Si number density = 19.737607 Si / 1000 Ang^3
#
#
#
# Elastic Constant Matrix: (Units=GPa)
#
#
# Indices 1 2 3 4 5 6 
#
# 1 43.4019 37.3415 23.4308 0.0000 0.0000 0.0000
# 2 37.3415 171.3909 65.1574 0.0000 0.0000 0.0000
# 3 23.4308 65.1574 79.9745 0.0000 0.0000 0.0000
# 4 0.0000 0.0000 0.0000 28.8273 0.0000 0.0000
# 5 0.0000 0.0000 0.0000 0.0000 22.1193 0.0000
# 6 0.0000 0.0000 0.0000 0.0000 0.0000 21.5949
#
#
#
# Elastic Compliance Matrix: (Units=1/GPa)
#
#
# Indices 1 2 3 4 5 6 
#
# 1 0.029655 -0.004575 -0.004961 0.000000 0.000000 0.000000
# 2 -0.004575 0.009159 -0.006121 0.000000 0.000000 0.000000
# 3 -0.004961 -0.006121 0.018945 0.000000 0.000000 0.000000
# 4 0.000000 0.000000 0.000000 0.034689 0.000000 0.000000
# 5 0.000000 0.000000 0.000000 0.000000 0.045209 0.000000
# 6 0.000000 0.000000 0.000000 0.000000 0.000000 0.046307
#
#
# Mechanical properties :
#
#
# Convention : Reuss Voigt Hill
#
# Bulk Modulus (GPa) = 37.81632 60.73629 49.27631
# Shear Modulus (GPa) = 22.31219 25.76413 24.03816
#
# Velocity S-wave (km/s) = 3.36585 3.61686 3.49361
# Velocity P-wave (km/s) = 5.85717 6.94844 6.42601
#
# Compressibility (1/GPa) = 0.02644361
#
# Stress axis : x y z
#
# Youngs Moduli (GPa) = 33.72138 109.18792 52.78553
#
# Poissons Ratio (x) = 0.49954 0.26186
# Poissons Ratio (y) = 0.15428 0.32312
# Poissons Ratio (z) = 0.16728 0.66837
#
# Static dielectric constant tensor:
#      x y z
#    x 3.302740 0.000000 0.000000 
#    y 0.000000 4.495960 0.000000 
#    z 0.000000 0.000000 3.704530 
# 
# 
# High freq. dielectric constant tensor:
#      x y z
#    x 1.738480 0.000000 0.000000 
#    y 0.000000 1.785940 0.000000 
#    z 0.000000 0.000000 1.754310 
# 
# From -- ./inp_files/31399.got.cif
#   From: 2010.03.12/outbox.cif.g09.slc.cpg/sg59_16_cif.got.tgz:31399.got - 2010.04.16 16:29:54.
