data_PCOD8239579
_publ_section_title
;
Structure prediction by ZEFSAII (Michael W. Deem and Ramdas Pophale) SiO2 
 PCOD8239579
Probable space group: P M M N
;
_chemical_formula_sum "Si O2"
_cell_formula_units_Z 56
_cell_length_a 9.323379
_cell_length_b 14.365191
_cell_length_c 23.000743
_cell_angle_alpha 90.000000
_cell_angle_beta 90.000000
_cell_angle_gamma 90.000000
_cell_volume 3080.538274
_symmetry_space_group_name_H-M "P M M N"
_symmetry_group_IT_number 59
_space_group.IT_coordinate_system_code '2'
_symmetry_cell_setting 'orthorhombic'
loop_
_space_group_symop_operation_xyz
x,y,z
1/2-x,1/2-y,z
1/2+x,-y,-z
-x,1/2+y,-z
-x,-y,-z
1/2+x,1/2+y,-z
1/2-x,y,z
x,1/2-y,z
loop_
_atom_site_type_symbol
_atom_site_label
_atom_site_fract_x
_atom_site_fract_y
_atom_site_fract_z
Si Si1 0.920194 0.647467 0.532335
Si Si2 0.419785 0.648885 0.093072
Si Si3 0.920588 0.855462 0.747802
Si Si4 0.419946 0.043201 0.137244
Si Si5 0.579664 0.975018 0.638195
Si Si6 0.417565 0.356976 0.598569
Si Si7 0.911915 0.141853 0.037176
O O1 0.750000 0.650907 0.534517
O O2 0.979763 0.750000 0.548579
O O3 0.977668 0.574104 0.579338
O O4 0.969715 0.621185 0.467309
O O5 0.250000 0.657055 0.089447
O O6 0.481681 0.750000 0.113777
O O7 0.465164 0.566408 0.137194
O O8 0.473128 0.625304 0.027846
O O9 0.750000 0.852693 0.748795
O O10 0.981401 0.750000 0.745639
O O11 0.980876 0.907903 0.804830
O O12 0.974042 0.912560 0.691881
O O13 0.250000 0.054363 0.134168
O O14 0.483259 0.089900 0.080474
O O15 0.750000 0.987581 0.639134
O O16 0.506756 0.076534 0.641707
O O17 0.250000 0.377953 0.605768
O O18 0.451166 0.250000 0.614657
O O19 0.750000 0.102870 0.043684
O O20 0.914502 0.250000 0.052833
#
# Coordination Sequence:
#
# PCOD8239579 Si02
#       7
#     8   8   8   8   8   8   8
#     4   8  14  26  46  70  93 120 153 185 225 279
#     4   8  15  28  45  66  92 120 150 185 227 273
#     4   9  18  31  46  68  97 122 146 182 226 268
#     4  10  18  29  48  70  91 120 156 189 221 261
#     4  10  18  29  48  70  91 120 157 192 223 260
#     4   9  18  32  48  67  93 122 150 185 232 280
#     4   9  17  29  45  66  93 122 149 183 231 278
#
# _framework density 18.178640999999999
#
# number of rings (size 3 to 8) (size 9 to 14) (size 15 to 20)
#    0.000    3.000    0.000    3.429    0.000    2.857 
#    0.000    1.429    0.000    7.286    0.000    0.000 
#    0.000    0.000    0.000    0.000    0.000    0.000 
#
# Total GULP energy -694073.473982 kJ/mol
# GULP energy per Si atom -12394.169178 kJ/mol
# Density = 1.813727 g / cm^3
# Si number density = 18.178641 Si / 1000 Ang^3
#
#
#
# Elastic Constant Matrix: (Units=GPa)
#
#
# Indices 1 2 3 4 5 6 
#
# 1 21.5888 32.1712 19.1345 0.0000 0.0000 0.0000
# 2 32.1712 153.7221 84.5302 0.0000 0.0000 0.0000
# 3 19.1345 84.5302 85.4717 0.0000 0.0000 0.0000
# 4 0.0000 0.0000 0.0000 32.7695 0.0000 0.0000
# 5 0.0000 0.0000 0.0000 0.0000 16.6967 0.0000
# 6 0.0000 0.0000 0.0000 0.0000 0.0000 23.1710
#
#
#
# Elastic Compliance Matrix: (Units=1/GPa)
#
#
# Indices 1 2 3 4 5 6 
#
# 1 0.067556 -0.012763 -0.002502 0.000000 0.000000 0.000000
# 2 -0.012763 0.016672 -0.013631 0.000000 0.000000 0.000000
# 3 -0.002502 -0.013631 0.025741 0.000000 0.000000 0.000000
# 4 0.000000 0.000000 0.000000 0.030516 0.000000 0.000000
# 5 0.000000 0.000000 0.000000 0.000000 0.059892 0.000000
# 6 0.000000 0.000000 0.000000 0.000000 0.000000 0.043157
#
#
# Mechanical properties :
#
#
# Convention : Reuss Voigt Hill
#
# Bulk Modulus (GPa) = 19.16517 59.16160 39.16338
# Shear Modulus (GPa) = 15.68788 22.85723 19.27256
#
# Velocity S-wave (km/s) = 2.94085 3.54978 3.25957
# Velocity P-wave (km/s) = 4.70075 7.02969 5.97970
#
# Compressibility (1/GPa) = 0.05217798
#
# Stress axis : x y z
#
# Youngs Moduli (GPa) = 14.80248 59.98192 38.84911
#
# Poissons Ratio (x) = 0.76552 0.09720
# Poissons Ratio (y) = 0.18892 0.52955
# Poissons Ratio (z) = 0.03703 0.81761
#
# Static dielectric constant tensor:
#      x y z
#    x 2.832900 0.000000 0.000000 
#    y 0.000000 3.728530 0.000000 
#    z 0.000000 0.000000 3.355400 
# 
# 
# High freq. dielectric constant tensor:
#      x y z
#    x 1.651280 0.000000 0.000000 
#    y 0.000000 1.721250 0.000000 
#    z 0.000000 0.000000 1.689710 
# 
# From -- ./inp_files/30092.got.cif
#   From: 2010.03.12/outbox.cif.g09.slc.cpg/sg59_16_cif.got.tgz:30092.got - 2010.04.16 16:29:54.
