data_PCOD8239643
_publ_section_title
;
Structure prediction by ZEFSAII (Michael W. Deem and Ramdas Pophale) SiO2 
 PCOD8239643
Probable space group: P M M N
;
_chemical_formula_sum "Si O2"
_cell_formula_units_Z 56
_cell_length_a 28.451225
_cell_length_b 8.617173
_cell_length_c 13.719226
_cell_angle_alpha 90.000000
_cell_angle_beta 90.000000
_cell_angle_gamma 90.000000
_cell_volume 3363.530674
_symmetry_space_group_name_H-M "P M M N"
_symmetry_group_IT_number 59
_space_group.IT_coordinate_system_code '2'
_symmetry_cell_setting 'orthorhombic'
loop_
_space_group_symop_operation_xyz
x,y,z
1/2-x,1/2-y,z
1/2+x,-y,-z
-x,1/2+y,-z
-x,-y,-z
1/2+x,1/2+y,-z
1/2-x,y,z
x,1/2-y,z
loop_
_atom_site_type_symbol
_atom_site_label
_atom_site_fract_x
_atom_site_fract_y
_atom_site_fract_z
Si Si1 0.302296 0.070349 0.016693
Si Si2 0.032362 0.931960 0.789165
Si Si3 0.103956 0.069343 0.919209
Si Si4 0.104487 0.575916 0.298366
Si Si5 0.948145 0.074114 0.902186
Si Si6 0.801309 0.065803 0.773594
Si Si7 0.486839 0.935284 0.395928
O O1 0.250000 0.037553 0.973880
O O2 0.308530 0.250000 0.044367
O O3 0.310544 0.974847 0.114601
O O4 0.341497 0.021536 0.937227
O O5 0.024790 0.750000 0.779560
O O6 0.084928 0.972995 0.826059
O O7 0.997835 0.002471 0.870559
O O8 0.024484 0.007774 0.683359
O O9 0.099242 0.250000 0.895193
O O10 0.073672 0.031547 0.014545
O O11 0.110180 0.750000 0.337144
O O12 0.086882 0.573779 0.188114
O O13 0.156650 0.496444 0.295424
O O14 0.065165 0.496221 0.367525
O O15 0.955963 0.250000 0.940217
O O16 0.750000 0.002284 0.739439
O O17 0.802924 0.250000 0.765993
O O18 0.486651 0.750000 0.395172
O O19 0.500000 0.000000 0.500000
#
# Coordination Sequence:
#
# PCOD8239643 Si02
#       7
#     8   8   8   8   8   8   8
#     4   9  18  30  43  63  93 128 164 200 235 272
#     4  11  22  34  48  68  93 122 158 196 236 285
#     4  11  20  30  45  66  94 129 164 197 235 280
#     4   8  15  27  44  67  94 123 152 188 231 273
#     4  10  18  30  45  64  95 129 161 195 232 274
#     4   9  15  25  43  66  92 124 160 191 224 271
#     4  10  20  36  54  72  95 121 153 196 243 294
#
# _framework density 16.649172
#
# number of rings (size 3 to 8) (size 9 to 14) (size 15 to 20)
#    0.000    2.286    1.429    3.857    0.000    0.571 
#    0.000    0.714    0.000    0.000    0.000    1.000 
#    0.000    3.429    0.000    0.000    0.000    0.000 
#
# Total GULP energy -693952.544476 kJ/mol
# GULP energy per Si atom -12392.009723 kJ/mol
# Density = 1.661128 g / cm^3
# Si number density = 16.649172 Si / 1000 Ang^3
#
#
#
# Elastic Constant Matrix: (Units=GPa)
#
#
# Indices 1 2 3 4 5 6 
#
# 1 135.3700 25.8695 63.0767 0.0000 0.0000 0.0000
# 2 25.8695 48.3747 15.2054 0.0000 0.0000 0.0000
# 3 63.0767 15.2054 74.5771 0.0000 0.0000 0.0000
# 4 0.0000 0.0000 0.0000 22.6908 0.0000 0.0000
# 5 0.0000 0.0000 0.0000 0.0000 17.1098 0.0000
# 6 0.0000 0.0000 0.0000 0.0000 0.0000 17.5395
#
#
#
# Elastic Compliance Matrix: (Units=1/GPa)
#
#
# Indices 1 2 3 4 5 6 
#
# 1 0.012774 -0.003670 -0.010056 0.000000 0.000000 0.000000
# 2 -0.003670 0.023142 -0.001614 0.000000 0.000000 0.000000
# 3 -0.010056 -0.001614 0.022243 0.000000 0.000000 0.000000
# 4 0.000000 0.000000 0.000000 0.044071 0.000000 0.000000
# 5 0.000000 0.000000 0.000000 0.000000 0.058446 0.000000
# 6 0.000000 0.000000 0.000000 0.000000 0.000000 0.057014
#
#
# Mechanical properties :
#
#
# Convention : Reuss Voigt Hill
#
# Bulk Modulus (GPa) = 36.39167 51.84724 44.11946
# Shear Modulus (GPa) = 19.41514 21.74604 20.58059
#
# Velocity S-wave (km/s) = 3.41857 3.61797 3.51968
# Velocity P-wave (km/s) = 6.12271 6.97578 6.56312
#
# Compressibility (1/GPa) = 0.02747882
#
# Stress axis : x y z
#
# Youngs Moduli (GPa) = 78.28233 43.21125 44.95734
#
# Poissons Ratio (x) = 0.15861 0.45209
# Poissons Ratio (y) = 0.28733 0.07256
# Poissons Ratio (z) = 0.78721 0.06974
#
# Static dielectric constant tensor:
#      x y z
#    x 3.542400 0.000000 0.000000 
#    y 0.000000 3.088670 0.000000 
#    z 0.000000 0.000000 2.755690 
# 
# 
# High freq. dielectric constant tensor:
#      x y z
#    x 1.651940 0.000000 0.000000 
#    y 0.000000 1.637090 0.000000 
#    z 0.000000 0.000000 1.592670 
# 
# From -- ./inp_files/24940.got.cif
#   From: 2010.03.12/outbox.cif.g09.slc.cpg/sg59_13_cif.got.tgz:24940.got - 2010.04.16 16:29:54.
