data_PCOD8239475
_publ_section_title
;
Structure prediction by ZEFSAII (Michael W. Deem and Ramdas Pophale) SiO2 
 PCOD8239475
Probable space group: P M M N
;
_chemical_formula_sum "Si O2"
_cell_formula_units_Z 40
_cell_length_a 9.659608
_cell_length_b 16.119001
_cell_length_c 13.426653
_cell_angle_alpha 90.000000
_cell_angle_beta 90.000000
_cell_angle_gamma 90.000000
_cell_volume 2090.573254
_symmetry_space_group_name_H-M "P M M N"
_symmetry_group_IT_number 59
_space_group.IT_coordinate_system_code '2'
_symmetry_cell_setting 'orthorhombic'
loop_
_space_group_symop_operation_xyz
x,y,z
1/2-x,1/2-y,z
1/2+x,-y,-z
-x,1/2+y,-z
-x,-y,-z
1/2+x,1/2+y,-z
1/2-x,y,z
x,1/2-y,z
loop_
_atom_site_type_symbol
_atom_site_label
_atom_site_fract_x
_atom_site_fract_y
_atom_site_fract_z
Si Si1 0.911229 0.750000 0.093112
Si Si2 0.590699 0.995347 0.279939
Si Si3 0.087044 0.434807 0.935957
Si Si4 0.910887 0.160192 0.365329
Si Si5 0.099628 0.750000 0.279942
Si Si6 0.907340 0.402312 0.574591
O O1 0.750000 0.750000 0.116198
O O2 0.948744 0.837599 0.036846
O O3 0.980965 0.750000 0.199328
O O4 0.750000 0.973302 0.300631
O O5 0.567345 0.095497 0.274100
O O6 0.542117 0.951536 0.178330
O O7 0.504406 0.971975 0.377742
O O8 0.250000 0.452913 0.951952
O O9 0.000000 0.500000 0.000000
O O10 0.750000 0.173227 0.386752
O O11 0.977617 0.250000 0.337522
O O12 0.972594 0.125582 0.469207
O O13 0.250000 0.750000 0.226218
O O14 0.084421 0.828155 0.348923
O O15 0.750000 0.435710 0.563660
#
# Coordination Sequence:
#
# PCOD8239475 Si02
#       6
#     4   8   8   8   4   8
#     4  10  20  38  60  79 108 142 174 219 282 329
#     4  10  20  34  54  79 105 137 177 220 268 312
#     4  10  22  39  58  82 108 139 178 225 277 329
#     4   9  17  31  50  74 108 146 180 213 253 308
#     4  10  18  28  50  81 106 138 180 215 250 299
#     4  10  18  30  51  78 108 142 177 213 255 303
#
# _framework density 19.133510000000001
#
# number of rings (size 3 to 8) (size 9 to 14) (size 15 to 20)
#    0.000    2.200    3.000    0.600    0.000    1.600 
#    1.800    0.000    0.000    1.800    0.000    0.000 
#    0.000    0.000    0.000    0.000    0.000    0.000 
#
# Total GULP energy -495545.891737 kJ/mol
# GULP energy per Si atom -12388.647293 kJ/mol
# Density = 1.908996 g / cm^3
# Si number density = 19.133510 Si / 1000 Ang^3
#
#
#
# Elastic Constant Matrix: (Units=GPa)
#
#
# Indices 1 2 3 4 5 6 
#
# 1 38.5989 37.9615 16.4863 0.0000 0.0000 0.0000
# 2 37.9615 152.3002 42.8221 0.0000 0.0000 0.0000
# 3 16.4863 42.8221 38.1383 0.0000 0.0000 0.0000
# 4 0.0000 0.0000 0.0000 -5.7262 0.0000 0.0000
# 5 0.0000 0.0000 0.0000 0.0000 18.9053 0.0000
# 6 0.0000 0.0000 0.0000 0.0000 0.0000 25.2318
#
#
#
# Elastic Compliance Matrix: (Units=1/GPa)
#
#
# Indices 1 2 3 4 5 6 
#
# 1 0.035917 -0.006703 -0.008000 0.000000 0.000000 0.000000
# 2 -0.006703 0.010846 -0.009281 0.000000 0.000000 0.000000
# 3 -0.008000 -0.009281 0.040099 0.000000 0.000000 0.000000
# 4 0.000000 0.000000 0.000000 -0.174636 0.000000 0.000000
# 5 0.000000 0.000000 0.000000 0.000000 0.052895 0.000000
# 6 0.000000 0.000000 0.000000 0.000000 0.000000 0.039633
#
#
# Mechanical properties :
#
#
# Convention : Reuss Voigt Hill
#
# Bulk Modulus (GPa) = 25.71027 47.06413 36.38720
# Shear Modulus (GPa) = 76.12134 16.46669 46.29401
#
# Velocity S-wave (km/s) = 6.31432 2.93682 4.92420
# Velocity P-wave (km/s) = 8.16256 6.01257 7.16862
#
# Compressibility (1/GPa) = 0.03889497
#
# Stress axis : x y z
#
# Youngs Moduli (GPa) = 27.84223 92.19836 24.93846
#
# Poissons Ratio (x) = 0.61802 0.19950
# Poissons Ratio (y) = 0.18663 0.23144
# Poissons Ratio (z) = 0.22273 0.85565
#
# Static dielectric constant tensor:
#      x y z
#    x 3.376710 0.000000 0.000000 
#    y 0.000000 3.856190 0.000000 
#    z 0.000000 0.000000 3.243980 
# 
# 
# High freq. dielectric constant tensor:
#      x y z
#    x 1.716510 0.000000 0.000000 
#    y 0.000000 1.767550 0.000000 
#    z 0.000000 0.000000 1.716540 
# 
# From -- ./inp_files/19923.got.cif
#   From: 2010.03.12/outbox.cif.g09.slc.cpg/sg59_10_cif.got.tgz:19923.got - 2010.04.16 16:29:54.
