data_PCOD8239163
_publ_section_title
;
Structure prediction by ZEFSAII (Michael W. Deem and Ramdas Pophale) SiO2 
 PCOD8239163
Probable space group: P M M N
;
_chemical_formula_sum "Si O2"
_cell_formula_units_Z 64
_cell_length_a 9.004030
_cell_length_b 29.715232
_cell_length_c 12.685655
_cell_angle_alpha 90.000000
_cell_angle_beta 90.000000
_cell_angle_gamma 90.000000
_cell_volume 3394.133770
_symmetry_space_group_name_H-M "P M M N"
_symmetry_group_IT_number 59
_space_group.IT_coordinate_system_code '2'
_symmetry_cell_setting 'orthorhombic'
loop_
_space_group_symop_operation_xyz
x,y,z
1/2-x,1/2-y,z
1/2+x,-y,-z
-x,1/2+y,-z
-x,-y,-z
1/2+x,1/2+y,-z
1/2-x,y,z
x,1/2-y,z
loop_
_atom_site_type_symbol
_atom_site_label
_atom_site_fract_x
_atom_site_fract_y
_atom_site_fract_z
Si Si1 0.925947 0.082153 0.114100
Si Si2 0.576944 0.701544 0.609051
Si Si3 0.078961 0.701087 0.040646
Si Si4 0.577542 0.827489 0.839657
Si Si5 0.076880 0.036698 0.293596
Si Si6 0.575653 0.435030 0.670133
Si Si7 0.072889 0.392975 0.469746
Si Si8 0.575336 0.393718 0.884714
O O1 0.750000 0.080234 0.119620
O O2 0.984223 0.126983 0.170061
O O3 0.993552 0.040958 0.181025
O O4 0.982256 0.082137 0.992114
O O5 0.750000 0.700933 0.583947
O O6 0.510279 0.750000 0.569073
O O7 0.549966 0.700216 0.733858
O O8 0.508617 0.657366 0.552474
O O9 0.250000 0.693539 0.006489
O O10 0.059100 0.750000 0.097372
O O11 0.030376 0.659487 0.115299
O O12 0.978944 0.702348 0.936511
O O13 0.750000 0.839751 0.854585
O O14 0.250000 0.042785 0.270524
O O15 0.018386 0.073446 0.377388
O O16 0.041489 0.987781 0.340822
O O17 0.750000 0.424916 0.660358
O O18 0.490983 0.408528 0.580124
O O19 0.508376 0.417292 0.781384
O O20 0.250000 0.393731 0.474113
O O21 0.750000 0.399543 0.880208
#
# Coordination Sequence:
#
# PCOD8239163 Si02
#       8
#     8   8   8   8   8   8   8   8
#     4  10  19  32  53  79 108 139 170 208 260 320
#     4   9  17  30  50  74 102 137 168 201 257 318
#     4   9  17  30  49  73 102 137 175 213 256 307
#     4  10  17  29  49  75 108 139 169 209 259 316
#     4  10  20  35  55  80 106 135 172 220 272 318
#     4  10  21  37  56  75 101 139 183 222 262 313
#     4  10  20  36  54  75 106 135 173 220 265 315
#     4   8  17  34  51  72 104 139 172 211 260 310
#
# _framework density 18.856064
#
# number of rings (size 3 to 8) (size 9 to 14) (size 15 to 20)
#    0.000    2.500    1.250    2.250    0.000    2.250 
#    0.000    3.750    0.000    2.625    0.000    0.000 
#    0.000    0.000    0.000    0.000    0.000    0.000 
#
# Total GULP energy -793181.839166 kJ/mol
# GULP energy per Si atom -12393.466237 kJ/mol
# Density = 1.881315 g / cm^3
# Si number density = 18.856064 Si / 1000 Ang^3
#
#
#
# Elastic Constant Matrix: (Units=GPa)
#
#
# Indices 1 2 3 4 5 6 
#
# 1 32.7993 25.4942 26.8971 0.0000 0.0000 0.0000
# 2 25.4942 136.3569 70.3862 0.0000 0.0000 0.0000
# 3 26.8971 70.3862 117.4938 0.0000 0.0000 0.0000
# 4 0.0000 0.0000 0.0000 19.1210 0.0000 0.0000
# 5 0.0000 0.0000 0.0000 0.0000 24.3714 0.0000
# 6 0.0000 0.0000 0.0000 0.0000 0.0000 16.8926
#
#
#
# Elastic Compliance Matrix: (Units=1/GPa)
#
#
# Indices 1 2 3 4 5 6 
#
# 1 0.038899 -0.003874 -0.006584 0.000000 0.000000 0.000000
# 2 -0.003874 0.011003 -0.005704 0.000000 0.000000 0.000000
# 3 -0.006584 -0.005704 0.013436 0.000000 0.000000 0.000000
# 4 0.000000 0.000000 0.000000 0.052298 0.000000 0.000000
# 5 0.000000 0.000000 0.000000 0.000000 0.041032 0.000000
# 6 0.000000 0.000000 0.000000 0.000000 0.000000 0.059197
#
#
# Mechanical properties :
#
#
# Convention : Reuss Voigt Hill
#
# Bulk Modulus (GPa) = 32.24552 59.13388 45.68970
# Shear Modulus (GPa) = 19.34032 23.00184 21.17108
#
# Velocity S-wave (km/s) = 3.20610 3.49644 3.35442
# Velocity P-wave (km/s) = 5.55369 6.90861 6.26787
#
# Compressibility (1/GPa) = 0.03101206
#
# Stress axis : x y z
#
# Youngs Moduli (GPa) = 25.70759 90.88781 74.42928
#
# Poissons Ratio (x) = 0.35212 0.49004
# Poissons Ratio (y) = 0.09960 0.42457
# Poissons Ratio (z) = 0.16926 0.51845
#
# Static dielectric constant tensor:
#      x y z
#    x 3.208860 0.000000 0.000000 
#    y 0.000000 3.765900 0.000000 
#    z 0.000000 0.000000 3.479320 
# 
# 
# High freq. dielectric constant tensor:
#      x y z
#    x 1.702180 0.000000 0.000000 
#    y 0.000000 1.744590 0.000000 
#    z 0.000000 0.000000 1.715290 
# 
# From -- ./inp_files/15060.got.cif
#   From: 2010.03.12/outbox.cif.g09.slc.cpg/sg59_8_cif.got.tgz:15060.got - 2010.04.16 16:29:54.
