data_PCOD8239607
_publ_section_title
;
Structure prediction by ZEFSAII (Michael W. Deem and Ramdas Pophale) SiO2 
 PCOD8239607
Probable space group: P M M N
;
_chemical_formula_sum "Si O2"
_cell_formula_units_Z 64
_cell_length_a 8.971332
_cell_length_b 19.979364
_cell_length_c 19.708945
_cell_angle_alpha 90.000000
_cell_angle_beta 90.000000
_cell_angle_gamma 90.000000
_cell_volume 3532.661015
_symmetry_space_group_name_H-M "P M M N"
_symmetry_group_IT_number 59
_space_group.IT_coordinate_system_code '2'
_symmetry_cell_setting 'orthorhombic'
loop_
_space_group_symop_operation_xyz
x,y,z
1/2-x,1/2-y,z
1/2+x,-y,-z
-x,1/2+y,-z
-x,-y,-z
1/2+x,1/2+y,-z
1/2-x,y,z
x,1/2-y,z
loop_
_atom_site_type_symbol
_atom_site_label
_atom_site_fract_x
_atom_site_fract_y
_atom_site_fract_z
Si Si1 0.923538 0.448343 0.900246
Si Si2 0.917296 0.920141 0.745124
Si Si3 0.917940 0.325319 0.162718
Si Si4 0.918736 0.075597 0.048768
Si Si5 0.424859 0.673407 0.492231
Si Si6 0.074929 0.576978 0.372784
Si Si7 0.074616 0.055620 0.765504
Si Si8 0.582451 0.930069 0.590392
O O1 0.750000 0.445328 0.882875
O O2 0.971936 0.525011 0.912403
O O3 0.010119 0.414871 0.836400
O O4 0.963912 0.410230 0.970452
O O5 0.750000 0.942765 0.765627
O O6 0.922941 0.902354 0.666272
O O7 0.964609 0.854367 0.784492
O O8 0.033870 0.977553 0.764583
O O9 0.750000 0.334616 0.191076
O O10 0.964770 0.250000 0.153649
O O11 0.931707 0.355007 0.087541
O O12 0.750000 0.046157 0.051177
O O13 0.250000 0.676577 0.503826
O O14 0.489804 0.750000 0.496406
O O15 0.462223 0.641149 0.419005
O O16 0.486897 0.622402 0.547807
O O17 0.250000 0.568427 0.358149
O O18 0.020193 0.507303 0.409086
O O19 0.995321 0.590643 0.300956
O O20 0.250000 0.066230 0.763822
O O21 0.750000 0.929728 0.560907
#
# Coordination Sequence:
#
# PCOD8239607 Si02
#       8
#     8   8   8   8   8   8   8   8
#     4  10  18  29  49  74 101 131 162 208 259 302
#     4  10  20  34  50  72 101 134 172 210 252 302
#     4  10  20  33  49  70 100 137 173 210 249 296
#     4   9  18  31  47  71 100 131 169 208 248 296
#     4  10  21  36  55  79 106 136 172 215 262 314
#     4   9  19  36  55  77 106 137 172 215 262 313
#     4  11  20  31  51  78 104 129 164 211 262 311
#     4   9  19  34  53  76 103 136 173 214 257 305
#
# _framework density 18.116654
#
# number of rings (size 3 to 8) (size 9 to 14) (size 15 to 20)
#    0.000    2.250    1.250    3.000    0.000    4.500 
#    0.000    2.500    0.000    0.750    0.000    3.500 
#    0.000    0.000    0.000    0.000    0.000    0.000 
#
# Total GULP energy -793289.368441 kJ/mol
# GULP energy per Si atom -12395.146382 kJ/mol
# Density = 1.807542 g / cm^3
# Si number density = 18.116654 Si / 1000 Ang^3
#
#
#
# Elastic Constant Matrix: (Units=GPa)
#
#
# Indices 1 2 3 4 5 6 
#
# 1 64.0063 17.4574 40.3646 0.0000 0.0000 0.0000
# 2 17.4574 69.8462 31.5652 0.0000 0.0000 0.0000
# 3 40.3646 31.5652 95.7546 0.0000 0.0000 0.0000
# 4 0.0000 0.0000 0.0000 20.6147 0.0000 0.0000
# 5 0.0000 0.0000 0.0000 0.0000 32.1869 0.0000
# 6 0.0000 0.0000 0.0000 0.0000 0.0000 19.4788
#
#
#
# Elastic Compliance Matrix: (Units=1/GPa)
#
#
# Indices 1 2 3 4 5 6 
#
# 1 0.021413 -0.001495 -0.008533 0.000000 0.000000 0.000000
# 2 -0.001495 0.016928 -0.004950 0.000000 0.000000 0.000000
# 3 -0.008533 -0.004950 0.015672 0.000000 0.000000 0.000000
# 4 0.000000 0.000000 0.000000 0.048509 0.000000 0.000000
# 5 0.000000 0.000000 0.000000 0.000000 0.031069 0.000000
# 6 0.000000 0.000000 0.000000 0.000000 0.000000 0.051338
#
#
# Mechanical properties :
#
#
# Convention : Reuss Voigt Hill
#
# Bulk Modulus (GPa) = 41.57048 45.37571 43.47310
# Shear Modulus (GPa) = 22.43115 23.80408 23.11762
#
# Velocity S-wave (km/s) = 3.52255 3.62875 3.57605
# Velocity P-wave (km/s) = 6.28811 6.53130 6.41086
#
# Compressibility (1/GPa) = 0.02405553
#
# Stress axis : x y z
#
# Youngs Moduli (GPa) = 46.70103 59.07407 63.80699
#
# Poissons Ratio (x) = 0.08834 0.54449
# Poissons Ratio (y) = 0.06984 0.31583
# Poissons Ratio (z) = 0.39852 0.29241
#
# Static dielectric constant tensor:
#      x y z
#    x 3.347970 0.000000 0.000000 
#    y 0.000000 3.121890 0.000000 
#    z 0.000000 0.000000 3.581420 
# 
# 
# High freq. dielectric constant tensor:
#      x y z
#    x 1.700940 0.000000 0.000000 
#    y 0.000000 1.661660 0.000000 
#    z 0.000000 0.000000 1.717240 
# 
# From -- ./inp_files/28467.got.cif
#   From: 2010.03.12/outbox.cif.g09.slc.cpg/sg59_15_cif.got.tgz:28467.got - 2010.04.16 16:29:54.
