data_PCOD8239628
_publ_section_title
;
Structure prediction by ZEFSAII (Michael W. Deem and Ramdas Pophale) SiO2 
 PCOD8239628
Probable space group: P M M N
;
_chemical_formula_sum "Si O2"
_cell_formula_units_Z 56
_cell_length_a 8.708912
_cell_length_b 19.745736
_cell_length_c 16.090418
_cell_angle_alpha 90.000000
_cell_angle_beta 90.000000
_cell_angle_gamma 90.000000
_cell_volume 2766.970665
_symmetry_space_group_name_H-M "P M M N"
_symmetry_group_IT_number 59
_space_group.IT_coordinate_system_code '2'
_symmetry_cell_setting 'orthorhombic'
loop_
_space_group_symop_operation_xyz
x,y,z
1/2-x,1/2-y,z
1/2+x,-y,-z
-x,1/2+y,-z
-x,-y,-z
1/2+x,1/2+y,-z
1/2-x,y,z
x,1/2-y,z
loop_
_atom_site_type_symbol
_atom_site_label
_atom_site_fract_x
_atom_site_fract_y
_atom_site_fract_z
Si Si1 0.567573 0.824849 0.338555
Si Si2 0.931772 0.542860 0.248543
Si Si3 0.568527 0.675660 0.815943
Si Si4 0.930056 0.044715 0.926808
Si Si5 0.932358 0.674561 0.524273
Si Si6 0.933200 0.919708 0.670772
Si Si7 0.570467 0.672222 0.003141
O O1 0.750000 0.825027 0.341541
O O2 0.509411 0.750000 0.310234
O O3 0.509888 0.881956 0.274479
O O4 0.506259 0.841307 0.431536
O O5 0.750000 0.540301 0.239437
O O6 0.008014 0.520212 0.162166
O O7 0.987260 0.492731 0.321862
O O8 0.750000 0.680835 0.808081
O O9 0.498028 0.750000 0.798086
O O10 0.504277 0.623004 0.749465
O O11 0.525033 0.652643 0.908955
O O12 0.750000 0.033991 0.927923
O O13 0.974046 0.123590 0.937048
O O14 0.000000 0.000000 0.000000
O O15 0.750000 0.672876 0.526445
O O16 0.987305 0.750000 0.551511
O O17 0.994593 0.617802 0.587906
O O18 0.750000 0.927519 0.671141
O O19 0.750000 0.659788 0.019437
O O20 0.527748 0.750000 0.022639
#
# Coordination Sequence:
#
# PCOD8239628 Si02
#       7
#     8   8   8   8   8   8   8
#     4   8  16  33  55  78 106 142 186 232 271 312
#     4  11  23  37  54  78 107 142 183 227 279 335
#     4   8  14  26  47  75 104 135 172 212 253 303
#     4  12  25  41  60  81 109 144 185 234 286 340
#     4   8  14  27  51  82 111 142 184 228 265 308
#     4  10  18  29  50  80 112 143 178 222 269 319
#     4   9  18  34  56  81 110 145 184 224 270 330
#
# _framework density 20.238741000000001
#
# number of rings (size 3 to 8) (size 9 to 14) (size 15 to 20)
#    0.000    2.571    0.000    4.714    0.000    4.286 
#    0.000    1.429    0.000    4.714    0.000    4.000 
#    0.000    0.000    0.000    0.000    0.000    0.000 
#
# Total GULP energy -694198.608868 kJ/mol
# GULP energy per Si atom -12396.403730 kJ/mol
# Density = 2.019268 g / cm^3
# Si number density = 20.238741 Si / 1000 Ang^3
#
#
#
# Elastic Constant Matrix: (Units=GPa)
#
#
# Indices 1 2 3 4 5 6 
#
# 1 59.1756 34.1226 28.6903 0.0000 0.0000 0.0000
# 2 34.1226 119.2859 56.0004 0.0000 0.0000 0.0000
# 3 28.6903 56.0004 96.4350 0.0000 0.0000 0.0000
# 4 0.0000 0.0000 0.0000 36.7732 0.0000 0.0000
# 5 0.0000 0.0000 0.0000 0.0000 16.5998 0.0000
# 6 0.0000 0.0000 0.0000 0.0000 0.0000 26.1485
#
#
#
# Elastic Compliance Matrix: (Units=1/GPa)
#
#
# Indices 1 2 3 4 5 6 
#
# 1 0.021220 -0.004271 -0.003833 0.000000 0.000000 0.000000
# 2 -0.004271 0.012385 -0.005921 0.000000 0.000000 0.000000
# 3 -0.003833 -0.005921 0.014949 0.000000 0.000000 0.000000
# 4 0.000000 0.000000 0.000000 0.027194 0.000000 0.000000
# 5 0.000000 0.000000 0.000000 0.000000 0.060242 0.000000
# 6 0.000000 0.000000 0.000000 0.000000 0.000000 0.038243
#
#
# Mechanical properties :
#
#
# Convention : Reuss Voigt Hill
#
# Bulk Modulus (GPa) = 48.77318 56.94700 52.86009
# Shear Modulus (GPa) = 23.91016 26.30985 25.11001
#
# Velocity S-wave (km/s) = 3.44089 3.60943 3.52616
# Velocity P-wave (km/s) = 6.31961 6.75051 6.53861
#
# Compressibility (1/GPa) = 0.02050307
#
# Stress axis : x y z
#
# Youngs Moduli (GPa) = 47.12568 80.74486 66.89577
#
# Poissons Ratio (x) = 0.34483 0.25642
# Poissons Ratio (y) = 0.20125 0.39611
# Poissons Ratio (z) = 0.18064 0.47812
#
# Static dielectric constant tensor:
#      x y z
#    x 3.107670 0.000000 0.000000 
#    y 0.000000 4.054600 0.000000 
#    z 0.000000 0.000000 3.880460 
# 
# 
# High freq. dielectric constant tensor:
#      x y z
#    x 1.734970 0.000000 0.000000 
#    y 0.000000 1.804080 0.000000 
#    z 0.000000 0.000000 1.790550 
# 
# From -- ./inp_files/20979.got.cif
#   From: 2010.03.12/outbox.cif.g09.slc.cpg/sg59_11_cif.got.tgz:20979.got - 2010.04.16 16:29:54.
