data_PCOD8239151
_publ_section_title
;
Structure prediction by ZEFSAII (Michael W. Deem and Ramdas Pophale) SiO2 
 PCOD8239151
Probable space group: P M M N
;
_chemical_formula_sum "Si O2"
_cell_formula_units_Z 64
_cell_length_a 8.918278
_cell_length_b 28.732558
_cell_length_c 15.725802
_cell_angle_alpha 90.000000
_cell_angle_beta 90.000000
_cell_angle_gamma 90.000000
_cell_volume 4029.657188
_symmetry_space_group_name_H-M "P M M N"
_symmetry_group_IT_number 59
_space_group.IT_coordinate_system_code '2'
_symmetry_cell_setting 'orthorhombic'
loop_
_space_group_symop_operation_xyz
x,y,z
1/2-x,1/2-y,z
1/2+x,-y,-z
-x,1/2+y,-z
-x,-y,-z
1/2+x,1/2+y,-z
1/2-x,y,z
x,1/2-y,z
loop_
_atom_site_type_symbol
_atom_site_label
_atom_site_fract_x
_atom_site_fract_y
_atom_site_fract_z
Si Si1 0.927511 0.800293 0.908323
Si Si2 0.074878 0.448276 0.323645
Si Si3 0.928724 0.603692 0.840160
Si Si4 0.927952 0.446402 0.675377
Si Si5 0.926962 0.391484 0.840369
Si Si6 0.425788 0.450207 0.508805
Si Si7 0.071619 0.550372 0.995768
Si Si8 0.574612 0.802490 0.099814
O O1 0.750000 0.797895 0.913595
O O2 0.988312 0.750000 0.874711
O O3 0.978675 0.842150 0.846921
O O4 0.987252 0.809141 0.003827
O O5 0.250000 0.452842 0.307963
O O6 0.009995 0.414620 0.250567
O O7 0.010101 0.500720 0.314638
O O8 0.042665 0.425690 0.416991
O O9 0.750000 0.598089 0.851110
O O10 0.010994 0.574953 0.912250
O O11 0.750000 0.445050 0.666640
O O12 0.985736 0.417106 0.755662
O O13 0.998377 0.423972 0.588911
O O14 0.750000 0.388135 0.839173
O O15 0.991932 0.339375 0.840090
O O16 0.982168 0.420479 0.922117
O O17 0.500000 0.500000 0.500000
O O18 0.250000 0.455294 0.525358
O O19 0.250000 0.546081 0.992485
O O20 0.000000 0.500000 0.000000
O O21 0.750000 0.812821 0.104067
O O22 0.539390 0.750000 0.131477
#
# Coordination Sequence:
#
# PCOD8239151 Si02
#       8
#     8   8   8   8   8   8   8   8
#     4   8  14  25  43  66  88 111 143 182 218 255
#     4   8  15  27  44  64  87 115 145 178 221 263
#     4  10  17  29  48  65  86 119 150 178 216 262
#     4   9  17  30  44  61  87 116 148 186 222 262
#     4  10  20  32  46  65  91 120 152 188 225 264
#     4   9  16  28  44  63  86 112 145 185 226 268
#     4  11  22  33  43  60  89 122 153 182 214 256
#     4   9  17  30  47  67  90 115 148 190 228 262
#
# _framework density 15.882244999999999
#
# number of rings (size 3 to 8) (size 9 to 14) (size 15 to 20)
#    0.000    2.750    1.250    3.000    0.000    3.250 
#    0.000    5.625    0.000    0.375    0.000    0.875 
#    0.000    3.000    0.000    0.000    0.000    0.000 
#
# Total GULP energy -793091.247084 kJ/mol
# GULP energy per Si atom -12392.050736 kJ/mol
# Density = 1.584610 g / cm^3
# Si number density = 15.882245 Si / 1000 Ang^3
#
#
#
# Elastic Constant Matrix: (Units=GPa)
#
#
# Indices 1 2 3 4 5 6 
#
# 1 28.9637 21.9874 28.9588 0.0000 0.0000 0.0000
# 2 21.9874 110.8363 65.7071 0.0000 0.0000 0.0000
# 3 28.9588 65.7071 140.6454 0.0000 0.0000 0.0000
# 4 0.0000 0.0000 0.0000 10.3892 0.0000 0.0000
# 5 0.0000 0.0000 0.0000 0.0000 22.2943 0.0000
# 6 0.0000 0.0000 0.0000 0.0000 0.0000 19.8220
#
#
#
# Elastic Compliance Matrix: (Units=1/GPa)
#
#
# Indices 1 2 3 4 5 6 
#
# 1 0.045232 -0.004774 -0.007083 0.000000 0.000000 0.000000
# 2 -0.004774 0.012982 -0.005082 0.000000 0.000000 0.000000
# 3 -0.007083 -0.005082 0.010943 0.000000 0.000000 0.000000
# 4 0.000000 0.000000 0.000000 0.096254 0.000000 0.000000
# 5 0.000000 0.000000 0.000000 0.000000 0.044854 0.000000
# 6 0.000000 0.000000 0.000000 0.000000 0.000000 0.050449
#
#
# Mechanical properties :
#
#
# Convention : Reuss Voigt Hill
#
# Bulk Modulus (GPa) = 28.34574 57.08356 42.71465
# Shear Modulus (GPa) = 16.32115 21.42059 18.87087
#
# Velocity S-wave (km/s) = 3.20915 3.67647 3.45073
# Velocity P-wave (km/s) = 5.62296 7.35130 6.54444
#
# Compressibility (1/GPa) = 0.03527867
#
# Stress axis : x y z
#
# Youngs Moduli (GPa) = 22.10841 77.02867 91.38530
#
# Poissons Ratio (x) = 0.36774 0.64726
# Poissons Ratio (y) = 0.10555 0.46443
# Poissons Ratio (z) = 0.15659 0.39147
#
# Static dielectric constant tensor:
#      x y z
#    x 2.845670 0.000000 0.000000 
#    y 0.000000 2.922260 0.000000 
#    z 0.000000 0.000000 3.714340 
# 
# 
# High freq. dielectric constant tensor:
#      x y z
#    x 1.591060 0.000000 0.000000 
#    y 0.000000 1.591540 0.000000 
#    z 0.000000 0.000000 1.604940 
# 
# From -- ./inp_files/21802.got.cif
#   From: 2010.03.12/outbox.cif.g09.slc.cpg/sg59_11_cif.got.tgz:21802.got - 2010.04.16 16:29:54.
