data_PCOD8239490
_publ_section_title
;
Structure prediction by ZEFSAII (Michael W. Deem and Ramdas Pophale) SiO2 
 PCOD8239490
Probable space group: P M M N
;
_chemical_formula_sum "Si O2"
_cell_formula_units_Z 64
_cell_length_a 9.362995
_cell_length_b 23.490062
_cell_length_c 18.993314
_cell_angle_alpha 90.000000
_cell_angle_beta 90.000000
_cell_angle_gamma 90.000000
_cell_volume 4177.338827
_symmetry_space_group_name_H-M "P M M N"
_symmetry_group_IT_number 59
_space_group.IT_coordinate_system_code '2'
_symmetry_cell_setting 'orthorhombic'
loop_
_space_group_symop_operation_xyz
x,y,z
1/2-x,1/2-y,z
1/2+x,-y,-z
-x,1/2+y,-z
-x,-y,-z
1/2+x,1/2+y,-z
1/2-x,y,z
x,1/2-y,z
loop_
_atom_site_type_symbol
_atom_site_label
_atom_site_fract_x
_atom_site_fract_y
_atom_site_fract_z
Si Si1 0.584711 0.984478 0.103274
Si Si2 0.418254 0.812523 0.608130
Si Si3 0.084647 0.999640 0.742214
Si Si4 0.581933 0.367543 0.247412
Si Si5 0.585161 0.080294 0.472801
Si Si6 0.584283 0.814393 0.881597
Si Si7 0.914732 0.581169 0.969971
Si Si8 0.084071 0.985475 0.391511
O O1 0.750000 0.001021 0.096959
O O2 0.549721 0.968371 0.184095
O O3 0.501017 0.040961 0.082317
O O4 0.544301 0.931758 0.051655
O O5 0.250000 0.806427 0.614039
O O6 0.486884 0.750000 0.594996
O O7 0.475455 0.838859 0.680977
O O8 0.457789 0.854327 0.543152
O O9 0.250000 0.005792 0.721161
O O10 0.990177 0.029879 0.682301
O O11 0.041067 0.933783 0.750177
O O12 0.750000 0.359325 0.237200
O O13 0.505327 0.336184 0.183886
O O14 0.750000 0.068611 0.451102
O O15 0.561173 0.067620 0.555311
O O16 0.487279 0.041163 0.424302
O O17 0.750000 0.818248 0.860770
O O18 0.539919 0.750000 0.900910
O O19 0.551507 0.853326 0.950433
O O20 0.750000 0.566700 0.957157
O O21 0.250000 0.998042 0.378921
#
# Coordination Sequence:
#
# PCOD8239490 Si02
#       8
#     8   8   8   8   8   8   8   8
#     4   9  17  29  45  63  83 110 143 178 218 256
#     4   9  16  27  44  62  81 110 146 178 206 239
#     4  10  18  29  45  64  88 115 142 177 216 256
#     4  10  18  29  44  62  86 117 151 180 202 241
#     4   9  17  31  45  62  87 113 144 181 214 251
#     4  10  20  31  42  60  89 120 145 176 217 255
#     4   9  17  29  44  62  84 111 144 179 213 255
#     4  10  19  28  44  65  87 114 143 176 217 260
#
# _framework density 15.320758
#
# number of rings (size 3 to 8) (size 9 to 14) (size 15 to 20)
#    0.000    2.500    2.500    0.750    0.000    2.250 
#    0.000    0.000    0.000    0.375    0.000    0.875 
#    0.000    1.000    0.000    0.000    0.000    0.000 
#
# Total GULP energy -793327.892576 kJ/mol
# GULP energy per Si atom -12395.748322 kJ/mol
# Density = 1.528589 g / cm^3
# Si number density = 15.320758 Si / 1000 Ang^3
#
#
#
# Elastic Constant Matrix: (Units=GPa)
#
#
# Indices 1 2 3 4 5 6 
#
# 1 44.7411 27.2029 45.2724 0.0000 0.0000 0.0000
# 2 27.2029 90.9255 64.2844 0.0000 0.0000 0.0000
# 3 45.2724 64.2844 125.4380 0.0000 0.0000 0.0000
# 4 0.0000 0.0000 0.0000 22.0125 0.0000 0.0000
# 5 0.0000 0.0000 0.0000 0.0000 24.8717 0.0000
# 6 0.0000 0.0000 0.0000 0.0000 0.0000 13.2230
#
#
#
# Elastic Compliance Matrix: (Units=1/GPa)
#
#
# Indices 1 2 3 4 5 6 
#
# 1 0.035555 -0.002454 -0.011575 0.000000 0.000000 0.000000
# 2 -0.002454 0.017416 -0.008040 0.000000 0.000000 0.000000
# 3 -0.011575 -0.008040 0.016270 0.000000 0.000000 0.000000
# 4 0.000000 0.000000 0.000000 0.045429 0.000000 0.000000
# 5 0.000000 0.000000 0.000000 0.000000 0.040206 0.000000
# 6 0.000000 0.000000 0.000000 0.000000 0.000000 0.075626
#
#
# Mechanical properties :
#
#
# Convention : Reuss Voigt Hill
#
# Bulk Modulus (GPa) = 39.83408 59.40265 49.61837
# Shear Modulus (GPa) = 17.66742 20.31112 18.98927
#
# Velocity S-wave (km/s) = 3.39952 3.64500 3.52440
# Velocity P-wave (km/s) = 6.43937 7.52141 7.00132
#
# Compressibility (1/GPa) = 0.02510413
#
# Stress axis : x y z
#
# Youngs Moduli (GPa) = 28.12549 57.41724 61.46346
#
# Poissons Ratio (x) = 0.14090 0.71142
# Poissons Ratio (y) = 0.06902 0.49416
# Poissons Ratio (z) = 0.32554 0.46163
#
# Static dielectric constant tensor:
#      x y z
#    x 2.893480 0.000000 0.000000 
#    y 0.000000 3.015790 0.000000 
#    z 0.000000 0.000000 3.118230 
# 
# 
# High freq. dielectric constant tensor:
#      x y z
#    x 1.579980 0.000000 0.000000 
#    y 0.000000 1.561920 0.000000 
#    z 0.000000 0.000000 1.585520 
# 
# From -- ./inp_files/29653.got.cif
#   From: 2010.03.12/outbox.cif.g09.slc.cpg/sg59_15_cif.got.tgz:29653.got - 2010.04.16 16:29:54.
