data_PCOD8239326
_publ_section_title
;
Structure prediction by ZEFSAII (Michael W. Deem and Ramdas Pophale) SiO2 
 PCOD8239326
Probable space group: P M M N
;
_chemical_formula_sum "Si O2"
_cell_formula_units_Z 48
_cell_length_a 9.183022
_cell_length_b 21.430757
_cell_length_c 14.922730
_cell_angle_alpha 90.000000
_cell_angle_beta 90.000000
_cell_angle_gamma 90.000000
_cell_volume 2936.780028
_symmetry_space_group_name_H-M "P M M N"
_symmetry_group_IT_number 59
_space_group.IT_coordinate_system_code '2'
_symmetry_cell_setting 'orthorhombic'
loop_
_space_group_symop_operation_xyz
x,y,z
1/2-x,1/2-y,z
1/2+x,-y,-z
-x,1/2+y,-z
-x,-y,-z
1/2+x,1/2+y,-z
1/2-x,y,z
x,1/2-y,z
loop_
_atom_site_type_symbol
_atom_site_label
_atom_site_fract_x
_atom_site_fract_y
_atom_site_fract_z
Si Si1 0.915548 0.536109 0.707001
Si Si2 0.581564 0.913173 0.047623
Si Si3 0.582336 0.822633 0.204304
Si Si4 0.921354 0.103479 0.647917
Si Si5 0.581224 0.564345 0.513161
Si Si6 0.080596 0.950950 0.881125
O O1 0.750000 0.536419 0.741522
O O2 0.961855 0.464964 0.685160
O O3 0.932363 0.580305 0.619018
O O4 0.016254 0.565074 0.783862
O O5 0.750000 0.910786 0.021082
O O6 0.536314 0.856995 0.112811
O O7 0.542741 0.977351 0.097807
O O8 0.490159 0.906627 0.956392
O O9 0.750000 0.838436 0.228035
O O10 0.557595 0.750000 0.188100
O O11 0.479993 0.844383 0.284889
O O12 0.750000 0.111827 0.633892
O O13 0.001771 0.114222 0.551770
O O14 0.500000 0.500000 0.500000
O O15 0.750000 0.557806 0.485586
O O16 0.250000 0.936919 0.879325
#
# Coordination Sequence:
#
# PCOD8239326 Si02
#       6
#     8   8   8   8   8   8
#     4   9  17  28  43  66  94 124 152 185 228 278
#     4   9  18  31  44  64  92 122 154 193 237 282
#     4  10  20  34  51  69  91 124 163 199 236 279
#     4  10  19  30  45  66  94 126 157 192 234 278
#     4   9  17  28  43  65  93 124 155 186 227 274
#     4  10  18  27  45  68  91 123 155 189 236 285
#
# _framework density 16.344431
#
# number of rings (size 3 to 8) (size 9 to 14) (size 15 to 20)
#    0.000    2.500    1.667    2.500    0.000    5.000 
#    0.000    0.000    0.000    0.000    0.000    1.167 
#    0.000    4.000    0.000    0.000    0.000    0.000 
#
# Total GULP energy -595115.944192 kJ/mol
# GULP energy per Si atom -12398.248837 kJ/mol
# Density = 1.630723 g / cm^3
# Si number density = 16.344431 Si / 1000 Ang^3
#
#
#
# Elastic Constant Matrix: (Units=GPa)
#
#
# Indices 1 2 3 4 5 6 
#
# 1 97.7262 29.1446 73.9658 0.0000 0.0000 0.0000
# 2 29.1446 52.0039 40.6577 0.0000 0.0000 0.0000
# 3 73.9658 40.6577 135.9939 0.0000 0.0000 0.0000
# 4 0.0000 0.0000 0.0000 17.9448 0.0000 0.0000
# 5 0.0000 0.0000 0.0000 0.0000 34.0901 0.0000
# 6 0.0000 0.0000 0.0000 0.0000 0.0000 16.0177
#
#
#
# Elastic Compliance Matrix: (Units=1/GPa)
#
#
# Indices 1 2 3 4 5 6 
#
# 1 0.017776 -0.003137 -0.008730 0.000000 0.000000 0.000000
# 2 -0.003137 0.025648 -0.005962 0.000000 0.000000 0.000000
# 3 -0.008730 -0.005962 0.013884 0.000000 0.000000 0.000000
# 4 0.000000 0.000000 0.000000 0.055727 0.000000 0.000000
# 5 0.000000 0.000000 0.000000 0.000000 0.029334 0.000000
# 6 0.000000 0.000000 0.000000 0.000000 0.000000 0.062431
#
#
# Mechanical properties :
#
#
# Convention : Reuss Voigt Hill
#
# Bulk Modulus (GPa) = 46.18869 63.69556 54.94213
# Shear Modulus (GPa) = 20.18780 23.07426 21.63103
#
# Velocity S-wave (km/s) = 3.51828 3.76140 3.64187
# Velocity P-wave (km/s) = 6.69517 7.61049 7.16746
#
# Compressibility (1/GPa) = 0.02165032
#
# Stress axis : x y z
#
# Youngs Moduli (GPa) = 56.25625 38.98879 72.02479
#
# Poissons Ratio (x) = 0.12229 0.62880
# Poissons Ratio (y) = 0.17645 0.42942
# Poissons Ratio (z) = 0.49114 0.23245
#
# Static dielectric constant tensor:
#      x y z
#    x 3.182420 0.000000 0.000000 
#    y 0.000000 2.662850 0.000000 
#    z 0.000000 0.000000 3.554070 
# 
# 
# High freq. dielectric constant tensor:
#      x y z
#    x 1.640680 0.000000 0.000000 
#    y 0.000000 1.564470 0.000000 
#    z 0.000000 0.000000 1.641030 
# 
# From -- ./inp_files/20687.got.cif
#   From: 2010.03.12/outbox.cif.g09.slc.cpg/sg59_11_cif.got.tgz:20687.got - 2010.04.16 16:29:54.
