data_PCOD8239768
_publ_section_title
;
Structure prediction by ZEFSAII (Michael W. Deem and Ramdas Pophale) SiO2 
 PCOD8239768
Probable space group: P M M N
;
_chemical_formula_sum "Si O2"
_cell_formula_units_Z 56
_cell_length_a 9.262499
_cell_length_b 21.323242
_cell_length_c 14.709173
_cell_angle_alpha 90.000000
_cell_angle_beta 90.000000
_cell_angle_gamma 90.000000
_cell_volume 2905.157390
_symmetry_space_group_name_H-M "P M M N"
_symmetry_group_IT_number 59
_space_group.IT_coordinate_system_code '2'
_symmetry_cell_setting 'orthorhombic'
loop_
_space_group_symop_operation_xyz
x,y,z
1/2-x,1/2-y,z
1/2+x,-y,-z
-x,1/2+y,-z
-x,-y,-z
1/2+x,1/2+y,-z
1/2-x,y,z
x,1/2-y,z
loop_
_atom_site_type_symbol
_atom_site_label
_atom_site_fract_x
_atom_site_fract_y
_atom_site_fract_z
Si Si1 0.420633 0.250000 0.256576
Si Si2 0.416100 0.950017 0.784006
Si Si3 0.583377 0.176456 0.724149
Si Si4 0.418074 0.086951 0.855185
Si Si5 0.084420 0.887479 0.970703
Si Si6 0.580671 0.626724 0.646572
Si Si7 0.584238 0.822471 0.454913
Si Si8 0.588727 0.250000 0.077462
O O1 0.250000 0.250000 0.263912
O O2 0.482963 0.188714 0.305639
O O3 0.467182 0.250000 0.153039
O O4 0.250000 0.935652 0.764469
O O5 0.468233 0.909032 0.870707
O O6 0.503619 0.932573 0.692926
O O7 0.443797 0.022961 0.801213
O O8 0.750000 0.156350 0.725806
O O9 0.563362 0.250000 0.739919
O O10 0.500115 0.142605 0.804824
O O11 0.517176 0.156444 0.627453
O O12 0.250000 0.103614 0.863116
O O13 0.483282 0.078972 0.955837
O O14 0.250000 0.909192 0.985781
O O15 0.069077 0.812304 0.983096
O O16 0.750000 0.619704 0.662995
O O17 0.545962 0.632338 0.539459
O O18 0.750000 0.831782 0.424765
O O19 0.558163 0.750000 0.483208
O O20 0.750000 0.250000 0.121170
#
# Coordination Sequence:
#
# PCOD8239768 Si02
#       8
#     4   8   8   8   8   8   8   4
#     4  10  18  30  50  81 118 149 182 225 268 324
#     4  10  22  39  57  81 114 151 190 229 270 327
#     4  10  22  40  61  85 111 141 183 234 284 335
#     4  11  24  40  59  82 108 145 192 235 278 328
#     4  10  21  37  57  82 114 149 185 228 279 329
#     4  10  19  32  55  86 118 151 185 222 273 330
#     4   9  17  33  57  85 117 148 180 225 280 332
#     4  10  20  34  54  81 114 149 180 223 282 330
#
# _framework density 19.276063000000001
#
# number of rings (size 3 to 8) (size 9 to 14) (size 15 to 20)
#    0.000    2.000    2.143    1.286    1.000    3.714 
#    0.000    0.714    0.000    0.000    0.000    0.000 
#    0.000    0.000    0.000    0.000    0.000    0.000 
#
# Total GULP energy -694538.296648 kJ/mol
# GULP energy per Si atom -12402.469583 kJ/mol
# Density = 1.923219 g / cm^3
# Si number density = 19.276063 Si / 1000 Ang^3
#
#
#
# Elastic Constant Matrix: (Units=GPa)
#
#
# Indices 1 2 3 4 5 6 
#
# 1 81.2808 31.6321 47.7252 0.0000 0.0000 0.0000
# 2 31.6321 48.2688 23.9245 0.0000 0.0000 0.0000
# 3 47.7252 23.9245 88.3032 0.0000 0.0000 0.0000
# 4 0.0000 0.0000 0.0000 25.1251 0.0000 0.0000
# 5 0.0000 0.0000 0.0000 0.0000 36.2324 0.0000
# 6 0.0000 0.0000 0.0000 0.0000 0.0000 26.3491
#
#
#
# Elastic Compliance Matrix: (Units=1/GPa)
#
#
# Indices 1 2 3 4 5 6 
#
# 1 0.021224 -0.009499 -0.008897 0.000000 0.000000 0.000000
# 2 -0.009499 0.028182 -0.002502 0.000000 0.000000 0.000000
# 3 -0.008897 -0.002502 0.016811 0.000000 0.000000 0.000000
# 4 0.000000 0.000000 0.000000 0.039801 0.000000 0.000000
# 5 0.000000 0.000000 0.000000 0.000000 0.027600 0.000000
# 6 0.000000 0.000000 0.000000 0.000000 0.000000 0.037952
#
#
# Mechanical properties :
#
#
# Convention : Reuss Voigt Hill
#
# Bulk Modulus (GPa) = 40.94744 47.15738 44.05241
# Shear Modulus (GPa) = 22.57281 25.17940 23.87610
#
# Velocity S-wave (km/s) = 3.42574 3.61813 3.52325
# Velocity P-wave (km/s) = 6.07753 6.47857 6.28125
#
# Compressibility (1/GPa) = 0.02442155
#
# Stress axis : x y z
#
# Youngs Moduli (GPa) = 47.11700 35.48348 59.48432
#
# Poissons Ratio (x) = 0.33705 0.52925
# Poissons Ratio (y) = 0.44755 0.14882
# Poissons Ratio (z) = 0.41921 0.08877
#
# Static dielectric constant tensor:
#      x y z
#    x 3.463980 0.000000 0.000000 
#    y 0.000000 3.444090 0.000000 
#    z 0.000000 0.000000 3.410850 
# 
# 
# High freq. dielectric constant tensor:
#      x y z
#    x 1.746000 0.000000 0.000000 
#    y 0.000000 1.741880 0.000000 
#    z 0.000000 0.000000 1.747190 
# 
# From -- ./inp_files/21163.got.cif
#   From: 2010.03.12/outbox.cif.g09.slc.cpg/sg59_11_cif.got.tgz:21163.got - 2010.04.16 16:29:54.
