data_PCOD8239264
_publ_section_title
;
Structure prediction by ZEFSAII (Michael W. Deem and Ramdas Pophale) SiO2 
 PCOD8239264
Probable space group: P M M N
;
_chemical_formula_sum "Si O2"
_cell_formula_units_Z 64
_cell_length_a 9.196581
_cell_length_b 26.262201
_cell_length_c 18.164710
_cell_angle_alpha 90.000000
_cell_angle_beta 90.000000
_cell_angle_gamma 90.000000
_cell_volume 4387.185421
_symmetry_space_group_name_H-M "P M M N"
_symmetry_group_IT_number 59
_space_group.IT_coordinate_system_code '2'
_symmetry_cell_setting 'orthorhombic'
loop_
_space_group_symop_operation_xyz
x,y,z
1/2-x,1/2-y,z
1/2+x,-y,-z
-x,1/2+y,-z
-x,-y,-z
1/2+x,1/2+y,-z
1/2-x,y,z
x,1/2-y,z
loop_
_atom_site_type_symbol
_atom_site_label
_atom_site_fract_x
_atom_site_fract_y
_atom_site_fract_z
Si Si1 0.082627 0.308442 0.167663
Si Si2 0.917935 0.547606 0.467045
Si Si3 0.415421 0.956295 0.038825
Si Si4 0.579678 0.393913 0.421623
Si Si5 0.585184 0.007572 0.324797
Si Si6 0.083118 0.191033 0.337190
Si Si7 0.920216 0.511291 0.822862
Si Si8 0.920197 0.396761 0.095566
O O1 0.250000 0.321234 0.151382
O O2 0.048731 0.250000 0.149429
O O3 0.045870 0.320341 0.252386
O O4 0.981296 0.341627 0.115081
O O5 0.750000 0.547101 0.491769
O O6 0.930158 0.541637 0.378570
O O7 0.000000 0.500000 0.500000
O O8 0.996910 0.597618 0.500081
O O9 0.250000 0.970860 0.026315
O O10 0.449886 0.960362 0.126407
O O11 0.449339 0.904440 0.993152
O O12 0.500000 0.000000 0.000000
O O13 0.750000 0.390063 0.437619
O O14 0.542663 0.440292 0.366588
O O15 0.524127 0.341439 0.387500
O O16 0.750000 0.011856 0.295585
O O17 0.477703 0.998252 0.257580
O O18 0.250000 0.176254 0.353565
O O19 0.056045 0.250000 0.355476
O O20 0.750000 0.524135 0.817849
O O21 0.000446 0.560475 0.855755
O O22 0.750000 0.398913 0.114413
#
# Coordination Sequence:
#
# PCOD8239264 Si02
#       8
#     8   8   8   8   8   8   8   8
#     4   9  18  31  44  59  80 105 136 172 203 234
#     4   9  17  29  43  58  79 106 135 167 200 238
#     4   8  16  28  39  55  78 104 134 166 198 234
#     4  10  19  29  42  60  82 108 137 168 202 239
#     4   9  18  29  40  59  84 107 134 168 203 238
#     4   9  18  31  44  58  79 108 139 170 203 236
#     4  10  18  27  41  59  80 108 139 167 198 238
#     4  10  18  28  42  58  80 108 137 169 202 237
#
# _framework density 14.58794
#
# number of rings (size 3 to 8) (size 9 to 14) (size 15 to 20)
#    0.000    2.750    0.000    3.750    0.000    7.000 
#    0.000    1.250    0.000    0.000    0.000    0.000 
#    0.000    1.000    0.000    6.500    0.000    4.875 
#
# Total GULP energy -792990.082628 kJ/mol
# GULP energy per Si atom -12390.470041 kJ/mol
# Density = 1.455474 g / cm^3
# Si number density = 14.587940 Si / 1000 Ang^3
#
#
#
# Elastic Constant Matrix: (Units=GPa)
#
#
# Indices 1 2 3 4 5 6 
#
# 1 88.6161 43.2524 52.5041 0.0000 0.0000 0.0000
# 2 43.2524 66.5227 46.4522 0.0000 0.0000 0.0000
# 3 52.5041 46.4522 81.8375 0.0000 0.0000 0.0000
# 4 0.0000 0.0000 0.0000 26.2142 0.0000 0.0000
# 5 0.0000 0.0000 0.0000 0.0000 23.9729 0.0000
# 6 0.0000 0.0000 0.0000 0.0000 0.0000 24.1386
#
#
#
# Elastic Compliance Matrix: (Units=1/GPa)
#
#
# Indices 1 2 3 4 5 6 
#
# 1 0.019831 -0.006642 -0.008953 0.000000 0.000000 0.000000
# 2 -0.006642 0.027128 -0.011137 0.000000 0.000000 0.000000
# 3 -0.008953 -0.011137 0.024284 0.000000 0.000000 0.000000
# 4 0.000000 0.000000 0.000000 0.038147 0.000000 0.000000
# 5 0.000000 0.000000 0.000000 0.000000 0.041714 0.000000
# 6 0.000000 0.000000 0.000000 0.000000 0.000000 0.041428
#
#
# Mechanical properties :
#
#
# Convention : Reuss Voigt Hill
#
# Bulk Modulus (GPa) = 56.24306 57.93264 57.08785
# Shear Modulus (GPa) = 19.84742 21.18296 20.51519
#
# Velocity S-wave (km/s) = 3.69255 3.81476 3.75415
# Velocity P-wave (km/s) = 7.53778 7.69429 7.61643
#
# Compressibility (1/GPa) = 0.01777997
#
# Stress axis : x y z
#
# Youngs Moduli (GPa) = 50.42603 36.86233 41.17886
#
# Poissons Ratio (x) = 0.24486 0.36866
# Poissons Ratio (y) = 0.33495 0.45860
# Poissons Ratio (z) = 0.45144 0.41052
#
# Static dielectric constant tensor:
#      x y z
#    x 2.935290 0.000000 0.000000 
#    y 0.000000 2.758140 0.000000 
#    z 0.000000 0.000000 3.222330 
# 
# 
# High freq. dielectric constant tensor:
#      x y z
#    x 1.573830 0.000000 0.000000 
#    y 0.000000 1.523020 0.000000 
#    z 0.000000 0.000000 1.546570 
# 
# From -- ./inp_files/26448.got.cif
#   From: 2010.03.12/outbox.cif.g09.slc.cpg/sg59_14_cif.got.tgz:26448.got - 2010.04.16 16:29:54.
