data_PCOD8239976
_publ_section_title
;
Structure prediction by ZEFSAII (Michael W. Deem and Ramdas Pophale) SiO2 
 PCOD8239976
Probable space group: P M M N
;
_chemical_formula_sum "Si O2"
_cell_formula_units_Z 52
_cell_length_a 9.299821
_cell_length_b 14.148839
_cell_length_c 22.145079
_cell_angle_alpha 90.000000
_cell_angle_beta 90.000000
_cell_angle_gamma 90.000000
_cell_volume 2913.886478
_symmetry_space_group_name_H-M "P M M N"
_symmetry_group_IT_number 59
_space_group.IT_coordinate_system_code '2'
_symmetry_cell_setting 'orthorhombic'
loop_
_space_group_symop_operation_xyz
x,y,z
1/2-x,1/2-y,z
1/2+x,-y,-z
-x,1/2+y,-z
-x,-y,-z
1/2+x,1/2+y,-z
1/2-x,y,z
x,1/2-y,z
loop_
_atom_site_type_symbol
_atom_site_label
_atom_site_fract_x
_atom_site_fract_y
_atom_site_fract_z
Si Si1 0.085240 0.750000 0.000055
Si Si2 0.093375 0.250000 0.743644
Si Si3 0.418418 0.856908 0.493762
Si Si4 0.583315 0.509581 0.410410
Si Si5 0.411070 0.961814 0.160938
Si Si6 0.523266 0.250000 0.866830
Si Si7 0.081551 0.949304 0.947109
Si Si8 0.579726 0.952474 0.277120
O O1 0.250000 0.750000 0.024404
O O2 0.985856 0.750000 0.061239
O O3 0.055509 0.838126 0.956747
O O4 0.250000 0.250000 0.715724
O O5 0.105890 0.250000 0.817772
O O6 0.020411 0.155571 0.717760
O O7 0.250000 0.861491 0.481057
O O8 0.471926 0.750000 0.502863
O O9 0.459703 0.913957 0.554562
O O10 0.496066 0.901682 0.436065
O O11 0.750000 0.534031 0.419066
O O12 0.547187 0.494171 0.339792
O O13 0.250000 0.003239 0.158785
O O14 0.396084 0.848889 0.148302
O O15 0.483813 0.994966 0.223733
O O16 0.511636 0.015225 0.113947
O O17 0.250000 0.975104 0.947691
O O18 0.000000 0.000000 0.000000
O O19 0.750000 0.956099 0.260521
#
# Coordination Sequence:
#
# PCOD8239976 Si02
#       8
#     4   4   8   8   8   4   8   8
#     4  10  20  36  54  73 101 133 168 208 252 310
#     4   8  16  28  42  68  99 129 164 206 254 302
#     4   9  18  32  50  75 107 137 169 212 256 302
#     4   9  18  32  52  76 102 136 176 212 251 300
#     4  11  21  35  54  77 105 138 171 209 257 309
#     4  10  18  32  50  73 105 136 167 200 247 312
#     4  11  22  37  56  78 103 134 172 214 259 307
#     4   9  18  32  50  72 101 134 170 212 254 302
#
# _framework density 17.845580000000002
#
# number of rings (size 3 to 8) (size 9 to 14) (size 15 to 20)
#    0.000    2.308    1.538    1.615    1.077    1.538 
#    0.000    1.538    1.692    0.000    0.000    0.000 
#    0.000    0.000    0.000    0.000    0.000    0.000 
#
# Total GULP energy -644241.796488 kJ/mol
# GULP energy per Si atom -12389.265317 kJ/mol
# Density = 1.780496 g / cm^3
# Si number density = 17.845580 Si / 1000 Ang^3
#
#
#
# Elastic Constant Matrix: (Units=GPa)
#
#
# Indices 1 2 3 4 5 6 
#
# 1 81.8836 40.1267 50.5918 0.0000 0.0000 0.0000
# 2 40.1267 98.3747 48.4167 0.0000 0.0000 0.0000
# 3 50.5918 48.4167 129.7900 0.0000 0.0000 0.0000
# 4 0.0000 0.0000 0.0000 21.8800 0.0000 0.0000
# 5 0.0000 0.0000 0.0000 0.0000 29.7633 0.0000
# 6 0.0000 0.0000 0.0000 0.0000 0.0000 15.9730
#
#
#
# Elastic Compliance Matrix: (Units=1/GPa)
#
#
# Indices 1 2 3 4 5 6 
#
# 1 0.017687 -0.004681 -0.005148 0.000000 0.000000 0.000000
# 2 -0.004681 0.013690 -0.003282 0.000000 0.000000 0.000000
# 3 -0.005148 -0.003282 0.010936 0.000000 0.000000 0.000000
# 4 0.000000 0.000000 0.000000 0.045704 0.000000 0.000000
# 5 0.000000 0.000000 0.000000 0.000000 0.033598 0.000000
# 6 0.000000 0.000000 0.000000 0.000000 0.000000 0.062605
#
#
# Mechanical properties :
#
#
# Convention : Reuss Voigt Hill
#
# Bulk Modulus (GPa) = 62.14919 65.36877 63.75898
# Shear Modulus (GPa) = 23.16885 24.91746 24.04315
#
# Velocity S-wave (km/s) = 3.60710 3.74074 3.67453
# Velocity P-wave (km/s) = 7.22841 7.44092 7.33543
#
# Compressibility (1/GPa) = 0.01609031
#
# Stress axis : x y z
#
# Youngs Moduli (GPa) = 56.53838 73.04648 91.44113
#
# Poissons Ratio (x) = 0.34191 0.47077
# Poissons Ratio (y) = 0.26464 0.30014
# Poissons Ratio (z) = 0.29108 0.23976
#
# Static dielectric constant tensor:
#      x y z
#    x 3.190650 0.000000 0.000000 
#    y 0.000000 3.224820 0.000000 
#    z 0.000000 0.000000 8.137660 
# 
# 
# High freq. dielectric constant tensor:
#      x y z
#    x 1.679620 0.000000 0.000000 
#    y 0.000000 1.674480 0.000000 
#    z 0.000000 0.000000 1.691510 
# 
# From -- ./inp_files/28943.got.cif
#   From: 2010.03.12/outbox.cif.g09.slc.cpg/sg59_15_cif.got.tgz:28943.got - 2010.04.16 16:29:54.
