data_PCOD8239723
_publ_section_title
;
Structure prediction by ZEFSAII (Michael W. Deem and Ramdas Pophale) SiO2 
 PCOD8239723
Probable space group: P M M N
;
_chemical_formula_sum "Si O2"
_cell_formula_units_Z 64
_cell_length_a 20.101496
_cell_length_b 8.761037
_cell_length_c 20.242201
_cell_angle_alpha 90.000000
_cell_angle_beta 90.000000
_cell_angle_gamma 90.000000
_cell_volume 3564.853010
_symmetry_space_group_name_H-M "P M M N"
_symmetry_group_IT_number 59
_space_group.IT_coordinate_system_code '2'
_symmetry_cell_setting 'orthorhombic'
loop_
_space_group_symop_operation_xyz
x,y,z
1/2-x,1/2-y,z
1/2+x,-y,-z
-x,1/2+y,-z
-x,-y,-z
1/2+x,1/2+y,-z
1/2-x,y,z
x,1/2-y,z
loop_
_atom_site_type_symbol
_atom_site_label
_atom_site_fract_x
_atom_site_fract_y
_atom_site_fract_z
Si Si1 0.940829 0.569683 0.837434
Si Si2 0.587608 0.428871 0.704226
Si Si3 0.431269 0.569339 0.025255
Si Si4 0.676019 0.431747 0.080911
Si Si5 0.952208 0.072251 0.335062
Si Si6 0.430447 0.571924 0.519050
Si Si7 0.823934 0.069217 0.583369
Si Si8 0.911917 0.429228 0.196446
O O1 0.935254 0.750000 0.845946
O O2 0.899890 0.517684 0.772785
O O3 0.911751 0.488581 0.902083
O O4 0.016523 0.511828 0.828504
O O5 0.586541 0.250000 0.718985
O O6 0.519156 0.474489 0.668418
O O7 0.647017 0.475070 0.654893
O O8 0.438470 0.750000 0.024219
O O9 0.500000 0.500000 0.000000
O O10 0.371426 0.513461 0.978240
O O11 0.750000 0.500256 0.071372
O O12 0.679512 0.250000 0.082597
O O13 0.646292 0.497656 0.150335
O O14 0.972686 0.250000 0.328518
O O15 0.914593 0.039060 0.403754
O O16 0.903265 0.027025 0.273973
O O17 0.500000 0.500000 0.500000
O O18 0.436900 0.750000 0.504607
O O19 0.370831 0.501754 0.474992
O O20 0.750000 0.998515 0.576564
O O21 0.820651 0.250000 0.575901
O O22 0.910862 0.250000 0.186635
#
# Coordination Sequence:
#
# PCOD8239723 Si02
#       8
#     8   8   8   8   8   8   8   8
#     4  10  19  33  52  75 103 131 163 213 262 302
#     4  10  18  30  50  75  98 128 170 212 255 307
#     4  11  20  32  52  79 105 135 175 215 259 305
#     4   9  17  30  49  73 102 134 169 209 251 301
#     4   9  17  28  47  73 103 130 160 208 258 300
#     4  10  18  30  49  74 102 134 172 214 260 304
#     4   9  18  32  49  71 103 140 176 216 261 311
#     4   8  14  27  45  69  97 126 159 198 248 296
#
# _framework density 17.953054999999999
#
# number of rings (size 3 to 8) (size 9 to 14) (size 15 to 20)
#    0.000    2.500    2.500    1.875    0.000    0.000 
#    0.000    1.250    0.000   12.375    0.000    0.000 
#    0.000    1.250    0.000    0.000    0.000    0.000 
#
# Total GULP energy -793293.156500 kJ/mol
# GULP energy per Si atom -12395.205570 kJ/mol
# Density = 1.791219 g / cm^3
# Si number density = 17.953055 Si / 1000 Ang^3
#
#
#
# Elastic Constant Matrix: (Units=GPa)
#
#
# Indices 1 2 3 4 5 6 
#
# 1 133.3156 20.0010 87.3773 0.0000 0.0000 0.0000
# 2 20.0010 35.2866 28.2565 0.0000 0.0000 0.0000
# 3 87.3773 28.2565 168.8842 0.0000 0.0000 0.0000
# 4 0.0000 0.0000 0.0000 24.1865 0.0000 0.0000
# 5 0.0000 0.0000 0.0000 0.0000 28.0186 0.0000
# 6 0.0000 0.0000 0.0000 0.0000 0.0000 16.1607
#
#
#
# Elastic Compliance Matrix: (Units=1/GPa)
#
#
# Indices 1 2 3 4 5 6 
#
# 1 0.011473 -0.002021 -0.005598 0.000000 0.000000 0.000000
# 2 -0.002021 0.033080 -0.004489 0.000000 0.000000 0.000000
# 3 -0.005598 -0.004489 0.009569 0.000000 0.000000 0.000000
# 4 0.000000 0.000000 0.000000 0.041345 0.000000 0.000000
# 5 0.000000 0.000000 0.000000 0.000000 0.035691 0.000000
# 6 0.000000 0.000000 0.000000 0.000000 0.000000 0.061878
#
#
# Mechanical properties :
#
#
# Convention : Reuss Voigt Hill
#
# Bulk Modulus (GPa) = 33.43826 67.63954 50.53890
# Shear Modulus (GPa) = 22.00516 27.12993 24.56754
#
# Velocity S-wave (km/s) = 3.50481 3.89158 3.70325
# Velocity P-wave (km/s) = 5.91980 7.61250 6.81888
#
# Compressibility (1/GPa) = 0.02990586
#
# Stress axis : x y z
#
# Youngs Moduli (GPa) = 87.16056 30.23020 104.50891
#
# Poissons Ratio (x) = 0.06108 0.58503
# Poissons Ratio (y) = 0.17611 0.46917
# Poissons Ratio (z) = 0.48791 0.13571
#
# Static dielectric constant tensor:
#      x y z
#    x 3.372920 0.000000 0.000000 
#    y 0.000000 3.037980 0.000000 
#    z 0.000000 0.000000 3.821350 
# 
# 
# High freq. dielectric constant tensor:
#      x y z
#    x 1.665220 0.000000 0.000000 
#    y 0.000000 1.663560 0.000000 
#    z 0.000000 0.000000 1.716710 
# 
# From -- ./inp_files/30986.got.cif
#   From: 2010.03.12/outbox.cif.g09.slc.cpg/sg59_16_cif.got.tgz:30986.got - 2010.04.16 16:29:54.
