data_PCOD8239460
_publ_section_title
;
Structure prediction by ZEFSAII (Michael W. Deem and Ramdas Pophale) SiO2 
 PCOD8239460
Probable space group: P M M N
;
_chemical_formula_sum "Si O2"
_cell_formula_units_Z 40
_cell_length_a 18.300509
_cell_length_b 9.141630
_cell_length_c 13.804777
_cell_angle_alpha 90.000000
_cell_angle_beta 90.000000
_cell_angle_gamma 90.000000
_cell_volume 2309.490628
_symmetry_space_group_name_H-M "P M M N"
_symmetry_group_IT_number 59
_space_group.IT_coordinate_system_code '2'
_symmetry_cell_setting 'orthorhombic'
loop_
_space_group_symop_operation_xyz
x,y,z
1/2-x,1/2-y,z
1/2+x,-y,-z
-x,1/2+y,-z
-x,-y,-z
1/2+x,1/2+y,-z
1/2-x,y,z
x,1/2-y,z
loop_
_atom_site_type_symbol
_atom_site_label
_atom_site_fract_x
_atom_site_fract_y
_atom_site_fract_z
Si Si1 0.331576 0.081650 0.200389
Si Si2 0.974471 0.581142 0.905436
Si Si3 0.964971 0.422138 0.298646
Si Si4 0.169089 0.577105 0.578719
Si Si5 0.897101 0.423871 0.623696
O O1 0.250000 0.057224 0.158975
O O2 0.344423 0.250000 0.232107
O O3 0.390030 0.040380 0.117318
O O4 0.342525 0.979965 0.293363
O O5 0.983745 0.750000 0.928174
O O6 0.024671 0.534983 0.813863
O O7 0.000000 0.500000 0.000000
O O8 0.978674 0.250000 0.314166
O O9 0.883927 0.469388 0.332727
O O10 0.022945 0.507117 0.364671
O O11 0.250000 0.508920 0.595425
O O12 0.175642 0.750000 0.573897
O O13 0.135478 0.520806 0.477956
O O14 0.903252 0.250000 0.629534
#
# Coordination Sequence:
#
# PCOD8239460 Si02
#       5
#     8   8   8   8   8
#     4   9  18  33  51  71  96 125 156 191 234 284
#     4   9  18  32  50  70  90 117 154 193 234 278
#     4   9  18  33  50  67  91 126 164 194 228 282
#     4   9  17  29  46  69  97 127 157 191 230 272
#     4  10  18  28  47  74 100 124 153 191 233 274
#
# _framework density 17.319837
#
# number of rings (size 3 to 8) (size 9 to 14) (size 15 to 20)
#    0.000    2.800    0.000    3.000    0.000    4.400 
#    0.000    2.000    0.000    4.200    0.000    0.000 
#    0.000    0.000    0.000    0.000    0.000    0.000 
#
# Total GULP energy -495865.916649 kJ/mol
# GULP energy per Si atom -12396.647916 kJ/mol
# Density = 1.728042 g / cm^3
# Si number density = 17.319837 Si / 1000 Ang^3
#
#
#
# Elastic Constant Matrix: (Units=GPa)
#
#
# Indices 1 2 3 4 5 6 
#
# 1 167.1763 38.4509 97.2913 0.0000 0.0000 0.0000
# 2 38.4509 41.3216 37.4645 0.0000 0.0000 0.0000
# 3 97.2913 37.4645 130.9168 0.0000 0.0000 0.0000
# 4 0.0000 0.0000 0.0000 24.3716 0.0000 0.0000
# 5 0.0000 0.0000 0.0000 0.0000 21.6770 0.0000
# 6 0.0000 0.0000 0.0000 0.0000 0.0000 22.2228
#
#
#
# Elastic Compliance Matrix: (Units=1/GPa)
#
#
# Indices 1 2 3 4 5 6 
#
# 1 0.010965 -0.003802 -0.007061 0.000000 0.000000 0.000000
# 2 -0.003802 0.033997 -0.006904 0.000000 0.000000 0.000000
# 3 -0.007061 -0.006904 0.014862 0.000000 0.000000 0.000000
# 4 0.000000 0.000000 0.000000 0.041031 0.000000 0.000000
# 5 0.000000 0.000000 0.000000 0.000000 0.046132 0.000000
# 6 0.000000 0.000000 0.000000 0.000000 0.000000 0.044999
#
#
# Mechanical properties :
#
#
# Convention : Reuss Voigt Hill
#
# Bulk Modulus (GPa) = 41.16706 76.20311 58.68509
# Shear Modulus (GPa) = 21.22092 24.73482 22.97787
#
# Velocity S-wave (km/s) = 3.50414 3.78315 3.64631
# Velocity P-wave (km/s) = 6.33974 7.94834 7.18917
#
# Compressibility (1/GPa) = 0.02429126
#
# Stress axis : x y z
#
# Youngs Moduli (GPa) = 91.19577 29.41402 67.28763
#
# Poissons Ratio (x) = 0.11182 0.47512
# Poissons Ratio (y) = 0.34670 0.46454
# Poissons Ratio (z) = 0.64394 0.20307
#
# Static dielectric constant tensor:
#      x y z
#    x 3.633100 0.000000 0.000000 
#    y 0.000000 3.038860 0.000000 
#    z 0.000000 0.000000 3.101270 
# 
# 
# High freq. dielectric constant tensor:
#      x y z
#    x 1.677850 0.000000 0.000000 
#    y 0.000000 1.649850 0.000000 
#    z 0.000000 0.000000 1.653220 
# 
# From -- ./inp_files/14065.got.cif
#   From: 2010.03.12/outbox.cif.g09.slc.cpg/sg59_8_cif.got.tgz:14065.got - 2010.04.16 16:29:54.
