data_PCOD8239310
_publ_section_title
;
Structure prediction by ZEFSAII (Michael W. Deem and Ramdas Pophale) SiO2 
 PCOD8239310
Probable space group: P M M N
;
_chemical_formula_sum "Si O2"
_cell_formula_units_Z 64
_cell_length_a 9.696702
_cell_length_b 29.452488
_cell_length_c 14.991317
_cell_angle_alpha 90.000000
_cell_angle_beta 90.000000
_cell_angle_gamma 90.000000
_cell_volume 4281.400194
_symmetry_space_group_name_H-M "P M M N"
_symmetry_group_IT_number 59
_space_group.IT_coordinate_system_code '2'
_symmetry_cell_setting 'orthorhombic'
loop_
_space_group_symop_operation_xyz
x,y,z
1/2-x,1/2-y,z
1/2+x,-y,-z
-x,1/2+y,-z
-x,-y,-z
1/2+x,1/2+y,-z
1/2-x,y,z
x,1/2-y,z
loop_
_atom_site_type_symbol
_atom_site_label
_atom_site_fract_x
_atom_site_fract_y
_atom_site_fract_z
Si Si1 0.589946 0.441905 0.637591
Si Si2 0.590954 0.526781 0.873770
Si Si3 0.907397 0.889436 0.222818
Si Si4 0.093928 0.054184 0.938043
Si Si5 0.408103 0.200160 0.688658
Si Si6 0.909863 0.545059 0.675788
Si Si7 0.090582 0.603586 0.548852
Si Si8 0.092261 0.699468 0.481657
O O1 0.750000 0.432654 0.657936
O O2 0.503451 0.421092 0.717837
O O3 0.559253 0.495632 0.634051
O O4 0.544963 0.418554 0.545138
O O5 0.750000 0.512006 0.865949
O O6 0.506404 0.481994 0.894352
O O7 0.544803 0.547940 0.779720
O O8 0.565532 0.561974 0.956153
O O9 0.750000 0.899432 0.251853
O O10 0.928691 0.899470 0.117459
O O11 0.944106 0.836517 0.235617
O O12 0.250000 0.036073 0.925967
O O13 0.250000 0.196525 0.657548
O O14 0.440530 0.250000 0.728312
O O15 0.499203 0.189877 0.603189
O O16 0.750000 0.557708 0.663932
O O17 0.999321 0.582803 0.626715
O O18 0.250000 0.592250 0.567778
O O19 0.064376 0.658230 0.550321
O O20 0.250000 0.696963 0.449076
O O21 0.061002 0.750000 0.522769
#
# Coordination Sequence:
#
# PCOD8239310 Si02
#       8
#     8   8   8   8   8   8   8   8
#     4  10  19  31  43  61  89 119 151 179 209 252
#     4   9  17  30  45  62  85 112 143 180 218 254
#     4  10  18  27  43  66  89 115 145 176 213 257
#     4   9  17  28  44  65  86 110 142 177 215 256
#     4   9  17  28  42  62  88 115 142 174 212 256
#     4  10  20  31  44  61  86 120 152 182 217 254
#     4  10  20  31  44  63  87 116 148 182 215 256
#     4   9  17  30  47  65  85 110 142 181 222 259
#
# _framework density 14.948380999999999
#
# number of rings (size 3 to 8) (size 9 to 14) (size 15 to 20)
#    0.000    2.500    2.500    0.375    0.000    2.000 
#    0.000    0.000    0.000    0.000    0.000    0.875 
#    0.000    3.000    0.000    0.000    0.000    0.000 
#
# Total GULP energy -793194.309912 kJ/mol
# GULP energy per Si atom -12393.661092 kJ/mol
# Density = 1.491436 g / cm^3
# Si number density = 14.948381 Si / 1000 Ang^3
#
#
#
# Elastic Constant Matrix: (Units=GPa)
#
#
# Indices 1 2 3 4 5 6 
#
# 1 42.4169 36.8305 36.8457 0.0000 0.0000 0.0000
# 2 36.8305 101.4303 57.9445 0.0000 0.0000 0.0000
# 3 36.8457 57.9445 99.4057 0.0000 0.0000 0.0000
# 4 0.0000 0.0000 0.0000 19.8585 0.0000 0.0000
# 5 0.0000 0.0000 0.0000 0.0000 18.8699 0.0000
# 6 0.0000 0.0000 0.0000 0.0000 0.0000 18.4012
#
#
#
# Elastic Compliance Matrix: (Units=1/GPa)
#
#
# Indices 1 2 3 4 5 6 
#
# 1 0.039564 -0.008978 -0.009431 0.000000 0.000000 0.000000
# 2 -0.008978 0.016819 -0.006476 0.000000 0.000000 0.000000
# 3 -0.009431 -0.006476 0.017330 0.000000 0.000000 0.000000
# 4 0.000000 0.000000 0.000000 0.050356 0.000000 0.000000
# 5 0.000000 0.000000 0.000000 0.000000 0.052994 0.000000
# 6 0.000000 0.000000 0.000000 0.000000 0.000000 0.054344
#
#
# Mechanical properties :
#
#
# Convention : Reuss Voigt Hill
#
# Bulk Modulus (GPa) = 41.76734 56.27715 49.02224
# Shear Modulus (GPa) = 17.29153 18.86806 18.07980
#
# Velocity S-wave (km/s) = 3.40479 3.55662 3.48153
# Velocity P-wave (km/s) = 6.59231 7.38887 7.00193
#
# Compressibility (1/GPa) = 0.02394215
#
# Stress axis : x y z
#
# Youngs Moduli (GPa) = 25.27569 59.45815 57.70214
#
# Poissons Ratio (x) = 0.53383 0.54420
# Poissons Ratio (y) = 0.22693 0.37367
# Poissons Ratio (z) = 0.23838 0.38504
#
# Static dielectric constant tensor:
#      x y z
#    x 2.970970 0.000000 0.000000 
#    y 0.000000 2.997880 0.000000 
#    z 0.000000 0.000000 2.899270 
# 
# 
# High freq. dielectric constant tensor:
#      x y z
#    x 1.580510 0.000000 0.000000 
#    y 0.000000 1.559700 0.000000 
#    z 0.000000 0.000000 1.552680 
# 
# From -- ./inp_files/21823.got.cif
#   From: 2010.03.12/outbox.cif.g09.slc.cpg/sg59_11_cif.got.tgz:21823.got - 2010.04.16 16:29:54.
