data_PCOD8239888
_publ_section_title
;
Structure prediction by ZEFSAII (Michael W. Deem and Ramdas Pophale) SiO2 
 PCOD8239888
Probable space group: P M M N
;
_chemical_formula_sum "Si O2"
_cell_formula_units_Z 64
_cell_length_a 8.809295
_cell_length_b 20.650570
_cell_length_c 19.764211
_cell_angle_alpha 90.000000
_cell_angle_beta 90.000000
_cell_angle_gamma 90.000000
_cell_volume 3595.445242
_symmetry_space_group_name_H-M "P M M N"
_symmetry_group_IT_number 59
_space_group.IT_coordinate_system_code '2'
_symmetry_cell_setting 'orthorhombic'
loop_
_space_group_symop_operation_xyz
x,y,z
1/2-x,1/2-y,z
1/2+x,-y,-z
-x,1/2+y,-z
-x,-y,-z
1/2+x,1/2+y,-z
1/2-x,y,z
x,1/2-y,z
loop_
_atom_site_type_symbol
_atom_site_label
_atom_site_fract_x
_atom_site_fract_y
_atom_site_fract_z
Si Si1 0.570886 0.872201 0.176826
Si Si2 0.430539 0.439262 0.462003
Si Si3 0.428861 0.629883 0.316687
Si Si4 0.071595 0.483137 0.321712
Si Si5 0.924764 0.176795 0.954143
Si Si6 0.425995 0.490527 0.174647
Si Si7 0.075157 0.322125 0.552283
Si Si8 0.426457 0.437105 0.033219
O O1 0.750000 0.867483 0.179867
O O2 0.503483 0.845686 0.247127
O O3 0.509791 0.827030 0.117228
O O4 0.522772 0.945578 0.160098
O O5 0.500000 0.500000 0.500000
O O6 0.250000 0.445142 0.464845
O O7 0.492122 0.439937 0.383928
O O8 0.487008 0.372812 0.496585
O O9 0.250000 0.634944 0.308453
O O10 0.485211 0.556779 0.330898
O O11 0.481770 0.674011 0.378481
O O12 0.250000 0.481599 0.327833
O O13 0.022179 0.458395 0.246642
O O14 0.750000 0.157334 0.943645
O O15 0.941229 0.250000 0.981791
O O16 0.996652 0.128679 0.008910
O O17 0.250000 0.512270 0.179703
O O18 0.450617 0.439646 0.114378
O O19 0.250000 0.336865 0.569113
O O20 0.054124 0.250000 0.522274
O O21 0.250000 0.436045 0.013546
O O22 0.500000 0.500000 0.000000
#
# Coordination Sequence:
#
# PCOD8239888 Si02
#       8
#     8   8   8   8   8   8   8   8
#     4  11  21  33  53  79 108 141 177 219 264 318
#     4  10  18  31  52  75 101 133 173 217 259 307
#     4  10  19  33  52  73 102 139 178 216 256 311
#     4   8  15  29  50  75 100 130 168 211 258 304
#     4  11  24  40  56  76 107 146 186 227 271 321
#     4   9  18  33  53  78 109 140 173 216 266 320
#     4  10  21  34  48  72 106 139 171 214 265 313
#     4  11  21  34  57  83 110 143 179 225 272 321
#
# _framework density 17.800298999999999
#
# number of rings (size 3 to 8) (size 9 to 14) (size 15 to 20)
#    0.000    2.000    2.500    3.000    0.000    2.250 
#    0.000    0.000    0.000    0.750    0.000    3.500 
#    0.000    0.000    0.000    0.000    0.000    0.000 
#
# Total GULP energy -793422.862118 kJ/mol
# GULP energy per Si atom -12397.232221 kJ/mol
# Density = 1.775978 g / cm^3
# Si number density = 17.800299 Si / 1000 Ang^3
#
#
#
# Elastic Constant Matrix: (Units=GPa)
#
#
# Indices 1 2 3 4 5 6 
#
# 1 83.1991 37.9328 36.8724 0.0000 0.0000 0.0000
# 2 37.9328 98.1208 63.0062 0.0000 0.0000 0.0000
# 3 36.8724 63.0062 131.3451 0.0000 0.0000 0.0000
# 4 0.0000 0.0000 0.0000 25.0173 0.0000 0.0000
# 5 0.0000 0.0000 0.0000 0.0000 22.9958 0.0000
# 6 0.0000 0.0000 0.0000 0.0000 0.0000 21.7676
#
#
#
# Elastic Compliance Matrix: (Units=1/GPa)
#
#
# Indices 1 2 3 4 5 6 
#
# 1 0.014968 -0.004463 -0.002061 0.000000 0.000000 0.000000
# 2 -0.004463 0.016059 -0.006451 0.000000 0.000000 0.000000
# 3 -0.002061 -0.006451 0.011286 0.000000 0.000000 0.000000
# 4 0.000000 0.000000 0.000000 0.039972 0.000000 0.000000
# 5 0.000000 0.000000 0.000000 0.000000 0.043486 0.000000
# 6 0.000000 0.000000 0.000000 0.000000 0.000000 0.045940
#
#
# Mechanical properties :
#
#
# Convention : Reuss Voigt Hill
#
# Bulk Modulus (GPa) = 61.10992 65.36532 63.23762
# Shear Modulus (GPa) = 24.61661 25.61305 25.11483
#
# Velocity S-wave (km/s) = 3.72281 3.79741 3.76030
# Velocity P-wave (km/s) = 7.27217 7.48521 7.37946
#
# Compressibility (1/GPa) = 0.01636396
#
# Stress axis : x y z
#
# Youngs Moduli (GPa) = 66.81133 62.27040 88.60177
#
# Poissons Ratio (x) = 0.27791 0.18260
# Poissons Ratio (y) = 0.29818 0.57154
# Poissons Ratio (z) = 0.13769 0.40168
#
# Static dielectric constant tensor:
#      x y z
#    x 3.246320 0.000000 0.000000 
#    y 0.000000 3.125470 0.000000 
#    z 0.000000 0.000000 3.764800 
# 
# 
# High freq. dielectric constant tensor:
#      x y z
#    x 1.684330 0.000000 0.000000 
#    y 0.000000 1.658980 0.000000 
#    z 0.000000 0.000000 1.698500 
# 
# From -- ./inp_files/26566.got.cif
#   From: 2010.03.12/outbox.cif.g09.slc.cpg/sg59_14_cif.got.tgz:26566.got - 2010.04.16 16:29:54.
