data_PCOD8239246
_publ_section_title
;
Structure prediction by ZEFSAII (Michael W. Deem and Ramdas Pophale) SiO2 
 PCOD8239246
Probable space group: P M M N
;
_chemical_formula_sum "Si O2"
_cell_formula_units_Z 64
_cell_length_a 8.849425
_cell_length_b 18.558437
_cell_length_c 26.431601
_cell_angle_alpha 90.000000
_cell_angle_beta 90.000000
_cell_angle_gamma 90.000000
_cell_volume 4340.901383
_symmetry_space_group_name_H-M "P M M N"
_symmetry_group_IT_number 59
_space_group.IT_coordinate_system_code '2'
_symmetry_cell_setting 'orthorhombic'
loop_
_space_group_symop_operation_xyz
x,y,z
1/2-x,1/2-y,z
1/2+x,-y,-z
-x,1/2+y,-z
-x,-y,-z
1/2+x,1/2+y,-z
1/2-x,y,z
x,1/2-y,z
loop_
_atom_site_type_symbol
_atom_site_label
_atom_site_fract_x
_atom_site_fract_y
_atom_site_fract_z
Si Si1 0.927643 0.093260 0.606548
Si Si2 0.927717 0.670571 0.006268
Si Si3 0.925334 0.832666 0.299986
Si Si4 0.073443 0.168671 0.511160
Si Si5 0.573288 0.167067 0.805329
Si Si6 0.572336 0.534736 0.951038
Si Si7 0.423783 0.036591 0.453434
Si Si8 0.071227 0.084419 0.895981
O O1 0.750000 0.105135 0.616519
O O2 0.021552 0.116369 0.655057
O O3 0.975824 0.140508 0.558175
O O4 0.969977 0.007757 0.597284
O O5 0.750000 0.678330 0.013017
O O6 0.001161 0.750000 0.998784
O O7 0.962646 0.620667 0.956828
O O8 0.990149 0.634374 0.057972
O O9 0.750000 0.846099 0.288466
O O10 0.955573 0.750000 0.315681
O O11 0.020547 0.853590 0.250702
O O12 0.250000 0.163474 0.526226
O O13 0.025371 0.250000 0.498579
O O14 0.041056 0.122293 0.459161
O O15 0.750000 0.152182 0.810370
O O16 0.532785 0.250000 0.817206
O O17 0.484026 0.116563 0.843551
O O18 0.750000 0.520106 0.949982
O O19 0.496121 0.496893 0.902302
O O20 0.500000 0.500000 0.000000
O O21 0.250000 0.021372 0.461184
O O22 0.500000 0.000000 0.500000
O O23 0.250000 0.078691 0.895891
#
# Coordination Sequence:
#
# PCOD8239246 Si02
#       8
#     8   8   8   8   8   8   8   8
#     4  10  18  27  40  57  79 106 134 165 200 236
#     4   8  14  24  39  59  81 107 139 171 202 237
#     4  10  20  32  44  58  78 105 136 167 198 235
#     4   9  16  26  40  57  78 105 136 166 195 232
#     4  10  20  32  45  62  83 105 133 171 208 239
#     4   9  16  26  40  58  81 108 139 175 210 245
#     4   8  15  26  38  54  76 102 131 162 196 232
#     4  10  18  28  43  60  82 113 143 169 201 245
#
# _framework density 14.743482
#
# number of rings (size 3 to 8) (size 9 to 14) (size 15 to 20)
#    0.000    2.750    0.000    3.375    0.000    4.250 
#    0.000    0.000    0.000    7.500    0.000    0.000 
#    0.000    1.000    0.000    8.500    0.000    2.375 
#
# Total GULP energy -792838.328856 kJ/mol
# GULP energy per Si atom -12388.098888 kJ/mol
# Density = 1.470992 g / cm^3
# Si number density = 14.743482 Si / 1000 Ang^3
#
#
#
# Elastic Constant Matrix: (Units=GPa)
#
#
# Indices 1 2 3 4 5 6 
#
# 1 47.4569 25.0748 22.6467 0.0000 0.0000 0.0000
# 2 25.0748 100.0299 47.2578 0.0000 0.0000 0.0000
# 3 22.6467 47.2578 66.2534 0.0000 0.0000 0.0000
# 4 0.0000 0.0000 0.0000 27.4148 0.0000 0.0000
# 5 0.0000 0.0000 0.0000 0.0000 23.0193 0.0000
# 6 0.0000 0.0000 0.0000 0.0000 0.0000 17.6550
#
#
#
# Elastic Compliance Matrix: (Units=1/GPa)
#
#
# Indices 1 2 3 4 5 6 
#
# 1 0.025963 -0.003492 -0.006384 0.000000 0.000000 0.000000
# 2 -0.003492 0.015548 -0.009896 0.000000 0.000000 0.000000
# 3 -0.006384 -0.009896 0.024335 0.000000 0.000000 0.000000
# 4 0.000000 0.000000 0.000000 0.036477 0.000000 0.000000
# 5 0.000000 0.000000 0.000000 0.000000 0.043442 0.000000
# 6 0.000000 0.000000 0.000000 0.000000 0.000000 0.056641
#
#
# Mechanical properties :
#
#
# Convention : Reuss Voigt Hill
#
# Bulk Modulus (GPa) = 38.02149 44.85543 41.43846
# Shear Modulus (GPa) = 19.94278 21.53521 20.73900
#
# Velocity S-wave (km/s) = 3.68183 3.82600 3.75461
# Velocity P-wave (km/s) = 6.62715 7.07161 6.85299
#
# Compressibility (1/GPa) = 0.02630092
#
# Stress axis : x y z
#
# Youngs Moduli (GPa) = 38.51579 64.31752 41.09375
#
# Poissons Ratio (x) = 0.22462 0.26233
# Poissons Ratio (y) = 0.13451 0.40668
# Poissons Ratio (z) = 0.24587 0.63651
#
# Static dielectric constant tensor:
#      x y z
#    x 2.929990 0.000000 0.000000 
#    y 0.000000 3.454640 0.000000 
#    z 0.000000 0.000000 2.724230 
# 
# 
# High freq. dielectric constant tensor:
#      x y z
#    x 1.570890 0.000000 0.000000 
#    y 0.000000 1.558460 0.000000 
#    z 0.000000 0.000000 1.528970 
# 
# From -- ./inp_files/31711.got.cif
#   From: 2010.03.12/outbox.cif.g09.slc.cpg/sg59_16_cif.got.tgz:31711.got - 2010.04.16 16:29:54.
