data_PCOD8239412
_publ_section_title
;
Structure prediction by ZEFSAII (Michael W. Deem and Ramdas Pophale) SiO2 
 PCOD8239412
Probable space group: P M M N
;
_chemical_formula_sum "Si O2"
_cell_formula_units_Z 56
_cell_length_a 18.704792
_cell_length_b 8.751438
_cell_length_c 19.226501
_cell_angle_alpha 90.000000
_cell_angle_beta 90.000000
_cell_angle_gamma 90.000000
_cell_volume 3147.259538
_symmetry_space_group_name_H-M "P M M N"
_symmetry_group_IT_number 59
_space_group.IT_coordinate_system_code '2'
_symmetry_cell_setting 'orthorhombic'
loop_
_space_group_symop_operation_xyz
x,y,z
1/2-x,1/2-y,z
1/2+x,-y,-z
-x,1/2+y,-z
-x,-y,-z
1/2+x,1/2+y,-z
1/2-x,y,z
x,1/2-y,z
loop_
_atom_site_type_symbol
_atom_site_label
_atom_site_fract_x
_atom_site_fract_y
_atom_site_fract_z
Si Si1 0.330043 0.431284 0.533907
Si Si2 0.968243 0.432391 0.930512
Si Si3 0.137039 0.581470 0.260490
Si Si4 0.523368 0.916106 0.210368
Si Si5 0.408100 0.068719 0.395083
Si Si6 0.170914 0.425294 0.122900
Si Si7 0.942929 0.566887 0.355106
O O1 0.250000 0.500795 0.536943
O O2 0.325973 0.250000 0.531819
O O3 0.371458 0.490039 0.465866
O O4 0.373237 0.485513 0.602329
O O5 0.971584 0.250000 0.931057
O O6 0.015868 0.498977 0.865065
O O7 0.885628 0.480869 0.923283
O O8 0.000000 0.500000 0.000000
O O9 0.172006 0.750000 0.268093
O O10 0.055568 0.602221 0.239768
O O11 0.142309 0.490998 0.332915
O O12 0.177309 0.486409 0.201379
O O13 0.558098 0.750000 0.196810
O O14 0.565977 0.996600 0.274585
O O15 0.413029 0.250000 0.391104
O O16 0.487680 0.001301 0.392516
O O17 0.250000 0.441635 0.089005
O O18 0.145878 0.250000 0.124518
O O19 0.951597 0.750000 0.353271
#
# Coordination Sequence:
#
# PCOD8239412 Si02
#       7
#     8   8   8   8   8   8   8
#     4   9  18  30  44  65  92 122 158 202 252 300
#     4  10  19  32  51  75 104 135 167 204 247 296
#     4   9  17  30  47  68  95 126 161 197 235 286
#     4   7  13  26  45  68  89 112 146 191 236 277
#     4  10  18  28  45  69  96 124 157 200 247 294
#     4  10  20  33  50  74 104 136 168 203 248 302
#     4   9  16  30  51  68  87 120 162 204 243 290
#
# _framework density 17.793257000000001
#
# number of rings (size 3 to 8) (size 9 to 14) (size 15 to 20)
#    0.000    2.857    0.000    3.857    0.000    1.714 
#    0.000    2.857    0.000    4.286    0.000    4.000 
#    0.000    0.000    0.000    0.000    0.000    0.000 
#
# Total GULP energy -693759.182102 kJ/mol
# GULP energy per Si atom -12388.556823 kJ/mol
# Density = 1.775276 g / cm^3
# Si number density = 17.793257 Si / 1000 Ang^3
#
#
#
# Elastic Constant Matrix: (Units=GPa)
#
#
# Indices 1 2 3 4 5 6 
#
# 1 91.3403 24.9385 70.5153 0.0000 0.0000 0.0000
# 2 24.9385 61.7511 33.6025 0.0000 0.0000 0.0000
# 3 70.5153 33.6025 164.3785 0.0000 0.0000 0.0000
# 4 0.0000 0.0000 0.0000 22.5127 0.0000 0.0000
# 5 0.0000 0.0000 0.0000 0.0000 15.5634 0.0000
# 6 0.0000 0.0000 0.0000 0.0000 0.0000 17.7268
#
#
#
# Elastic Compliance Matrix: (Units=1/GPa)
#
#
# Indices 1 2 3 4 5 6 
#
# 1 0.016928 -0.003246 -0.006598 0.000000 0.000000 0.000000
# 2 -0.003246 0.018843 -0.002459 0.000000 0.000000 0.000000
# 3 -0.006598 -0.002459 0.009417 0.000000 0.000000 0.000000
# 4 0.000000 0.000000 0.000000 0.044419 0.000000 0.000000
# 5 0.000000 0.000000 0.000000 0.000000 0.064253 0.000000
# 6 0.000000 0.000000 0.000000 0.000000 0.000000 0.056412
#
#
# Mechanical properties :
#
#
# Convention : Reuss Voigt Hill
#
# Bulk Modulus (GPa) = 48.58913 63.95360 56.27136
# Shear Modulus (GPa) = 20.68330 23.72150 22.20240
#
# Velocity S-wave (km/s) = 3.41313 3.65523 3.53625
# Velocity P-wave (km/s) = 6.54977 7.33723 6.95465
#
# Compressibility (1/GPa) = 0.02058074
#
# Stress axis : x y z
#
# Youngs Moduli (GPa) = 59.07261 53.06924 106.19237
#
# Poissons Ratio (x) = 0.17226 0.70070
# Poissons Ratio (y) = 0.19175 0.26118
# Poissons Ratio (z) = 0.38978 0.13052
#
# Static dielectric constant tensor:
#      x y z
#    x 3.214780 0.000000 0.000000 
#    y 0.000000 3.161040 0.000000 
#    z 0.000000 0.000000 3.726090 
# 
# 
# High freq. dielectric constant tensor:
#      x y z
#    x 1.660910 0.000000 0.000000 
#    y 0.000000 1.669880 0.000000 
#    z 0.000000 0.000000 1.690050 
# 
# From -- ./inp_files/28053.got.cif
#   From: 2010.03.12/outbox.cif.g09.slc.cpg/sg59_15_cif.got.tgz:28053.got - 2010.04.16 16:29:54.
