data_PCOD8239402
_publ_section_title
;
Structure prediction by ZEFSAII (Michael W. Deem and Ramdas Pophale) SiO2 
 PCOD8239402
Probable space group: P M M N
;
_chemical_formula_sum "Si O2"
_cell_formula_units_Z 48
_cell_length_a 13.774602
_cell_length_b 9.402042
_cell_length_c 21.313141
_cell_angle_alpha 90.000000
_cell_angle_beta 90.000000
_cell_angle_gamma 90.000000
_cell_volume 2760.251816
_symmetry_space_group_name_H-M "P M M N"
_symmetry_group_IT_number 59
_space_group.IT_coordinate_system_code '2'
_symmetry_cell_setting 'orthorhombic'
loop_
_space_group_symop_operation_xyz
x,y,z
1/2-x,1/2-y,z
1/2+x,-y,-z
-x,1/2+y,-z
-x,-y,-z
1/2+x,1/2+y,-z
1/2-x,y,z
x,1/2-y,z
loop_
_atom_site_type_symbol
_atom_site_label
_atom_site_fract_x
_atom_site_fract_y
_atom_site_fract_z
Si Si1 0.864443 0.907318 0.456292
Si Si2 0.547580 0.418408 0.345949
Si Si3 0.359012 0.414131 0.021684
Si Si4 0.360005 0.919059 0.781889
Si Si5 0.356068 0.081640 0.406276
Si Si6 0.948951 0.083517 0.089030
O O1 0.750000 0.892653 0.457412
O O2 0.909981 0.750000 0.443793
O O3 0.895231 0.968271 0.525110
O O4 0.892549 0.016690 0.402719
O O5 0.561556 0.250000 0.349294
O O6 0.587057 0.479465 0.280096
O O7 0.434277 0.462824 0.353404
O O8 0.250000 0.447362 0.046456
O O9 0.369149 0.250000 0.002105
O O10 0.379705 0.506356 0.960378
O O11 0.437334 0.451190 0.076028
O O12 0.250000 0.978138 0.785018
O O13 0.358875 0.750000 0.779907
O O14 0.421001 0.972728 0.841962
O O15 0.250000 0.015344 0.389662
O O16 0.345850 0.250000 0.409514
O O17 0.927258 0.250000 0.082788
#
# Coordination Sequence:
#
# PCOD8239402 Si02
#       6
#     8   8   8   8   8   8
#     4   9  17  29  44  62  86 114 141 174 220 266
#     4  10  18  28  45  66  86 111 145 182 214 248
#     4   9  17  29  46  69  93 112 139 185 224 243
#     4   9  17  28  42  63  90 115 141 176 214 252
#     4   8  15  28  44  62  85 112 142 178 220 261
#     4   9  17  30  47  65  88 121 151 170 205 263
#
# _framework density 17.389717999999998
#
# number of rings (size 3 to 8) (size 9 to 14) (size 15 to 20)
#    0.000    3.000    0.000    2.500    0.000    2.000 
#    0.000    1.667    0.000    9.500    0.000    0.000 
#    0.000    2.667    0.000    0.000    0.000    0.000 
#
# Total GULP energy -594882.595338 kJ/mol
# GULP energy per Si atom -12393.387403 kJ/mol
# Density = 1.735014 g / cm^3
# Si number density = 17.389718 Si / 1000 Ang^3
#
#
#
# Elastic Constant Matrix: (Units=GPa)
#
#
# Indices 1 2 3 4 5 6 
#
# 1 119.6284 20.2959 87.1262 0.0000 0.0000 0.0000
# 2 20.2959 22.3739 23.2423 0.0000 0.0000 0.0000
# 3 87.1262 23.2423 139.5119 0.0000 0.0000 0.0000
# 4 0.0000 0.0000 0.0000 19.3852 0.0000 0.0000
# 5 0.0000 0.0000 0.0000 0.0000 27.4422 0.0000
# 6 0.0000 0.0000 0.0000 0.0000 0.0000 15.9215
#
#
#
# Elastic Compliance Matrix: (Units=1/GPa)
#
#
# Indices 1 2 3 4 5 6 
#
# 1 0.015770 -0.004927 -0.009028 0.000000 0.000000 0.000000
# 2 -0.004927 0.055588 -0.006184 0.000000 0.000000 0.000000
# 3 -0.009028 -0.006184 0.013836 0.000000 0.000000 0.000000
# 4 0.000000 0.000000 0.000000 0.051586 0.000000 0.000000
# 5 0.000000 0.000000 0.000000 0.000000 0.036440 0.000000
# 6 0.000000 0.000000 0.000000 0.000000 0.000000 0.062808
#
#
# Mechanical properties :
#
#
# Convention : Reuss Voigt Hill
#
# Bulk Modulus (GPa) = 22.26332 60.31588 41.28960
# Shear Modulus (GPa) = 17.16573 22.60644 19.88609
#
# Velocity S-wave (km/s) = 3.14525 3.60945 3.38532
# Velocity P-wave (km/s) = 5.10103 7.22017 6.25106
#
# Compressibility (1/GPa) = 0.04491693
#
# Stress axis : x y z
#
# Youngs Moduli (GPa) = 63.41107 17.98936 72.27589
#
# Poissons Ratio (x) = 0.08864 0.65248
# Poissons Ratio (y) = 0.31245 0.44693
# Poissons Ratio (z) = 0.57245 0.11124
#
# Static dielectric constant tensor:
#      x y z
#    x 3.548480 0.000000 0.000000 
#    y 0.000000 2.946710 0.000000 
#    z 0.000000 0.000000 3.334490 
# 
# 
# High freq. dielectric constant tensor:
#      x y z
#    x 1.683570 0.000000 0.000000 
#    y 0.000000 1.633670 0.000000 
#    z 0.000000 0.000000 1.658970 
# 
# From -- ./inp_files/26891.got.cif
#   From: 2010.03.12/outbox.cif.g09.slc.cpg/sg59_14_cif.got.tgz:26891.got - 2010.04.16 16:29:54.
