data_PCOD8239197
_publ_section_title
;
Structure prediction by ZEFSAII (Michael W. Deem and Ramdas Pophale) SiO2 
 PCOD8239197
Probable space group: P M M N
;
_chemical_formula_sum "Si O2"
_cell_formula_units_Z 64
_cell_length_a 15.536966
_cell_length_b 8.860320
_cell_length_c 24.004636
_cell_angle_alpha 90.000000
_cell_angle_beta 90.000000
_cell_angle_gamma 90.000000
_cell_volume 3304.537977
_symmetry_space_group_name_H-M "P M M N"
_symmetry_group_IT_number 59
_space_group.IT_coordinate_system_code '2'
_symmetry_cell_setting 'orthorhombic'
loop_
_space_group_symop_operation_xyz
x,y,z
1/2-x,1/2-y,z
1/2+x,-y,-z
-x,1/2+y,-z
-x,-y,-z
1/2+x,1/2+y,-z
1/2-x,y,z
x,1/2-y,z
loop_
_atom_site_type_symbol
_atom_site_label
_atom_site_fract_x
_atom_site_fract_y
_atom_site_fract_z
Si Si1 0.655247 0.929450 0.867167
Si Si2 0.591384 0.928914 0.750288
Si Si3 0.344595 0.429413 0.366594
Si Si4 0.496995 0.928672 0.939759
Si Si5 0.501547 0.071347 0.439832
Si Si6 0.652362 0.923798 0.129147
Si Si7 0.653492 0.076501 0.359368
Si Si8 0.908126 0.574941 0.251301
O O1 0.750000 0.984249 0.887137
O O2 0.651066 0.750000 0.866250
O O3 0.638792 0.992986 0.805011
O O4 0.581364 0.992027 0.907833
O O5 0.594067 0.750000 0.750397
O O6 0.638577 0.992830 0.695493
O O7 0.493502 0.977823 0.750299
O O8 0.250000 0.484070 0.386422
O O9 0.349584 0.250000 0.365298
O O10 0.417286 0.491884 0.408044
O O11 0.499484 0.750000 0.945123
O O12 0.411236 0.973551 0.906738
O O13 0.500000 0.000000 0.000000
O O14 0.499454 0.250000 0.445971
O O15 0.586320 0.018689 0.405999
O O16 0.500000 0.000000 0.500000
O O17 0.750000 0.962029 0.111251
O O18 0.630350 0.750000 0.116181
O O19 0.644126 0.956855 0.194804
O O20 0.750000 0.059453 0.383743
O O21 0.632627 0.250000 0.344090
O O22 0.648304 0.977605 0.303626
O O23 0.931041 0.750000 0.257775
#
# Coordination Sequence:
#
# PCOD8239197 Si02
#       8
#     8   8   8   8   8   8   8   8
#     4   9  18  33  57  87 113 142 183 230 279 334
#     4  10  17  32  58  85 112 142 181 226 277 339
#     4   9  17  31  55  83 108 137 176 224 272 323
#     4  11  23  39  60  85 115 151 196 241 284 336
#     4  10  21  37  55  78 108 143 186 230 274 325
#     4  10  22  40  60  83 115 154 192 234 288 344
#     4  10  21  38  59  82 110 147 189 230 275 333
#     4  11  21  34  57  87 120 150 181 227 287 344
#
# _framework density 19.367307
#
# number of rings (size 3 to 8) (size 9 to 14) (size 15 to 20)
#    0.000    2.000    2.500    1.500    0.000    4.500 
#    0.000    1.250    0.000    4.875    0.000    0.000 
#    0.000    0.000    0.000    0.000    0.000    0.000 
#
# Total GULP energy -793561.477577 kJ/mol
# GULP energy per Si atom -12399.398087 kJ/mol
# Density = 1.932323 g / cm^3
# Si number density = 19.367307 Si / 1000 Ang^3
#
#
#
# Elastic Constant Matrix: (Units=GPa)
#
#
# Indices 1 2 3 4 5 6 
#
# 1 164.4279 18.9455 78.1988 0.0000 0.0000 0.0000
# 2 18.9455 23.5513 37.5348 0.0000 0.0000 0.0000
# 3 78.1988 37.5348 161.4976 0.0000 0.0000 0.0000
# 4 0.0000 0.0000 0.0000 31.7215 0.0000 0.0000
# 5 0.0000 0.0000 0.0000 0.0000 16.3041 0.0000
# 6 0.0000 0.0000 0.0000 0.0000 0.0000 17.2677
#
#
#
# Elastic Compliance Matrix: (Units=1/GPa)
#
#
# Indices 1 2 3 4 5 6 
#
# 1 0.007904 -0.000411 -0.003732 0.000000 0.000000 0.000000
# 2 -0.000411 0.067463 -0.015481 0.000000 0.000000 0.000000
# 3 -0.003732 -0.015481 0.011597 0.000000 0.000000 0.000000
# 4 0.000000 0.000000 0.000000 0.031524 0.000000 0.000000
# 5 0.000000 0.000000 0.000000 0.000000 0.061334 0.000000
# 6 0.000000 0.000000 0.000000 0.000000 0.000000 0.057912
#
#
# Mechanical properties :
#
#
# Convention : Reuss Voigt Hill
#
# Bulk Modulus (GPa) = 20.95659 68.75943 44.85801
# Shear Modulus (GPa) = 17.07147 27.37850 22.22499
#
# Velocity S-wave (km/s) = 2.97216 3.76393 3.39123
# Velocity P-wave (km/s) = 4.75630 7.38034 6.20853
#
# Compressibility (1/GPa) = 0.04771770
#
# Stress axis : x y z
#
# Youngs Moduli (GPa) = 126.52315 14.82287 86.22995
#
# Poissons Ratio (x) = 0.00609 0.32177
# Poissons Ratio (y) = 0.05198 1.33490
# Poissons Ratio (z) = 0.47213 0.22947
#
# Static dielectric constant tensor:
#      x y z
#    x 3.857150 0.000000 0.000000 
#    y 0.000000 3.241500 0.000000 
#    z 0.000000 0.000000 3.649920 
# 
# 
# High freq. dielectric constant tensor:
#      x y z
#    x 1.770550 0.000000 0.000000 
#    y 0.000000 1.719260 0.000000 
#    z 0.000000 0.000000 1.754430 
# 
# From -- ./inp_files/32136.got.cif
#   From: 2010.03.12/outbox.cif.g09.slc.cpg/sg59_17_cif.got.tgz:32136.got - 2010.04.16 16:29:54.
