data_PCOD8239037
_publ_section_title
;
Structure prediction by ZEFSAII (Michael W. Deem and Ramdas Pophale) SiO2 
 PCOD8239037
Probable space group: P M M N
;
_chemical_formula_sum "Si O2"
_cell_formula_units_Z 64
_cell_length_a 20.510487
_cell_length_b 9.198885
_cell_length_c 20.491475
_cell_angle_alpha 90.000000
_cell_angle_beta 90.000000
_cell_angle_gamma 90.000000
_cell_volume 3866.200587
_symmetry_space_group_name_H-M "P M M N"
_symmetry_group_IT_number 59
_space_group.IT_coordinate_system_code '2'
_symmetry_cell_setting 'orthorhombic'
loop_
_space_group_symop_operation_xyz
x,y,z
1/2-x,1/2-y,z
1/2+x,-y,-z
-x,1/2+y,-z
-x,-y,-z
1/2+x,1/2+y,-z
1/2-x,y,z
x,1/2-y,z
loop_
_atom_site_type_symbol
_atom_site_label
_atom_site_fract_x
_atom_site_fract_y
_atom_site_fract_z
Si Si1 0.414209 0.417016 0.684175
Si Si2 0.322686 0.578744 0.936874
Si Si3 0.037226 0.918102 0.173323
Si Si4 0.068376 0.914031 0.424019
Si Si5 0.062248 0.579421 0.028599
Si Si6 0.453653 0.422302 0.299634
Si Si7 0.415634 0.088727 0.544834
Si Si8 0.885167 0.914420 0.176697
O O1 0.442605 0.250000 0.684730
O O2 0.471370 0.533289 0.692593
O O3 0.378635 0.444645 0.614048
O O4 0.366333 0.435205 0.746382
O O5 0.250000 0.527918 0.956772
O O6 0.326444 0.750000 0.930867
O O7 0.339930 0.517385 0.865844
O O8 0.373168 0.522520 0.991597
O O9 0.046746 0.750000 0.192204
O O10 0.071689 0.956866 0.104952
O O11 0.960795 0.955014 0.166363
O O12 0.070904 0.014985 0.229916
O O13 0.092706 0.750000 0.414007
O O14 0.991667 0.923291 0.437135
O O15 0.086881 0.007182 0.359734
O O16 0.105129 0.978479 0.487849
O O17 0.051013 0.750000 0.018171
O O18 0.000000 0.500000 0.000000
O O19 0.445154 0.250000 0.301486
O O20 0.399040 0.250000 0.519425
O O21 0.872199 0.750000 0.153956
#
# Coordination Sequence:
#
# PCOD8239037 Si02
#       8
#     8   8   8   8   8   8   8   8
#     4   8  15  26  37  51  75 103 135 176 217 254
#     4  10  21  34  47  67  94 120 146 181 228 276
#     4   9  17  29  43  60  82 108 140 181 224 262
#     4   9  15  22  31  44  69 103 136 172 210 252
#     4  10  19  32  50  68  89 116 148 186 227 272
#     4  10  17  23  34  53  75 102 137 175 214 259
#     4   8  13  21  32  46  66  97 135 173 209 248
#     4   9  16  28  45  63  83 110 145 183 220 262
#
# _framework density 16.553720999999999
#
# number of rings (size 3 to 8) (size 9 to 14) (size 15 to 20)
#    0.000    2.875    1.250    3.000    0.000    5.750 
#    0.000    0.000    0.000    0.000    0.000    0.000 
#    0.000    0.000    0.000    1.125    0.000   17.000 
#
# Total GULP energy -793053.046143 kJ/mol
# GULP energy per Si atom -12391.453846 kJ/mol
# Density = 1.651604 g / cm^3
# Si number density = 16.553721 Si / 1000 Ang^3
#
#
#
# Elastic Constant Matrix: (Units=GPa)
#
#
# Indices 1 2 3 4 5 6 
#
# 1 47.2172 21.7663 43.1287 0.0000 0.0000 0.0000
# 2 21.7663 82.0582 64.7489 0.0000 0.0000 0.0000
# 3 43.1287 64.7489 160.7369 0.0000 0.0000 0.0000
# 4 0.0000 0.0000 0.0000 32.2560 0.0000 0.0000
# 5 0.0000 0.0000 0.0000 0.0000 9.1581 0.0000
# 6 0.0000 0.0000 0.0000 0.0000 0.0000 9.7182
#
#
#
# Elastic Compliance Matrix: (Units=1/GPa)
#
#
# Indices 1 2 3 4 5 6 
#
# 1 0.028328 -0.002223 -0.006705 0.000000 0.000000 0.000000
# 2 -0.002223 0.018039 -0.006670 0.000000 0.000000 0.000000
# 3 -0.006705 -0.006670 0.010707 0.000000 0.000000 0.000000
# 4 0.000000 0.000000 0.000000 0.031002 0.000000 0.000000
# 5 0.000000 0.000000 0.000000 0.000000 0.109193 0.000000
# 6 0.000000 0.000000 0.000000 0.000000 0.000000 0.102899
#
#
# Mechanical properties :
#
#
# Convention : Reuss Voigt Hill
#
# Bulk Modulus (GPa) = 38.64360 61.03335 49.83847
# Shear Modulus (GPa) = 14.70617 20.91769 17.81193
#
# Velocity S-wave (km/s) = 2.98382 3.55861 3.28381
# Velocity P-wave (km/s) = 5.93851 7.33722 6.67461
#
# Compressibility (1/GPa) = 0.02587751
#
# Stress axis : x y z
#
# Youngs Moduli (GPa) = 35.30020 55.43430 93.39274
#
# Poissons Ratio (x) = 0.12324 0.62624
# Poissons Ratio (y) = 0.07848 0.62295
# Poissons Ratio (z) = 0.23670 0.36976
#
# Static dielectric constant tensor:
#      x y z
#    x 2.542920 0.000000 0.000000 
#    y 0.000000 3.084860 0.000000 
#    z 0.000000 0.000000 3.705490 
# 
# 
# High freq. dielectric constant tensor:
#      x y z
#    x 1.546220 0.000000 0.000000 
#    y 0.000000 1.637040 0.000000 
#    z 0.000000 0.000000 1.663930 
# 
# From -- ./inp_files/30907.got.cif
#   From: 2010.03.12/outbox.cif.g09.slc.cpg/sg59_16_cif.got.tgz:30907.got - 2010.04.16 16:29:54.
