data_PCOD8239003
_publ_section_title
;
Structure prediction by ZEFSAII (Michael W. Deem and Ramdas Pophale) SiO2 
 PCOD8239003
Probable space group: P N N M
;
_chemical_formula_sum "Si O2"
_cell_formula_units_Z 64
_cell_length_a 12.000000
_cell_length_b 30.000000
_cell_length_c 9.000000
_cell_angle_alpha 90.000000
_cell_angle_beta 90.000000
_cell_angle_gamma 90.000000
_cell_volume 3240.000000
_symmetry_space_group_name_H-M "P N N M"
_symmetry_group_IT_number 58
_symmetry_cell_setting 'orthorhombic'
loop_
_space_group_symop_operation_xyz
x,y,z
-x,-y,z
1/2+x,1/2-y,1/2-z
1/2-x,1/2+y,1/2-z
-x,-y,-z
x,y,-z
1/2-x,1/2+y,1/2+z
1/2+x,1/2-y,1/2+z
loop_
_atom_site_type_symbol
_atom_site_label
_atom_site_fract_x
_atom_site_fract_y
_atom_site_fract_z
Si Si1 0.672533 0.621893 0.326632
Si Si2 0.773675 0.529705 0.671236
Si Si3 0.059870 0.718225 0.675446
Si Si4 0.984039 0.565845 0.831773
Si Si5 0.209165 0.568362 0.672089
Si Si6 0.253498 0.660662 0.826301
Si Si7 0.616134 0.161009 0.331125
Si Si8 0.005226 0.818500 0.328898
O O1 0.683230 0.631445 0.500000
O O2 0.682131 0.568482 0.293775
O O3 0.767110 0.649950 0.244031
O O4 0.555601 0.641103 0.268271
O O5 0.812669 0.534353 0.500000
O O6 0.878494 0.537646 0.778057
O O7 0.725435 0.479252 0.698049
O O8 0.061594 0.709733 0.500000
O O9 0.164373 0.692593 0.746809
O O10 0.061573 0.771009 0.712817
O O11 0.944085 0.700069 0.740990
O O12 0.963543 0.618430 0.826936
O O13 0.084052 0.556449 0.719790
O O14 0.012886 0.550984 0.000000
O O15 0.212861 0.582354 0.500000
O O16 0.256502 0.609707 0.766223
O O17 0.373245 0.682918 0.797644
O O18 0.223020 0.658439 0.000000
O O19 0.638297 0.176656 0.500000
O O20 0.028175 0.829887 0.500000
#
# Coordination Sequence:
#
# PCOD8239003 Si02
#       8
#     8   8   8   8   8   8   8   8
#     4  10  21  39  63  88 119 159 205 250 298 356
#     4   9  20  36  55  84 120 159 202 249 302 358
#     4  11  23  40  63  91 119 154 198 245 302 367
#     4  10  19  31  51  83 121 157 195 242 295 355
#     4  11  21  35  57  84 119 160 202 251 302 357
#     4  11  24  43  63  88 123 159 198 250 306 362
#     4  10  20  35  57  87 123 159 193 240 297 353
#     4  10  25  45  63  87 121 157 200 252 304 361
#
# _framework density 19.753086
#
# number of rings (size 3 to 8) (size 9 to 14) (size 15 to 20)
#    0.000    1.750    1.250    2.625    1.750    6.000 
#    0.000    0.625    0.000    3.750    0.000    0.000 
#    0.000    0.000    0.000    0.000    0.000    0.000 
#
# Total GULP energy -793544.529498 kJ/mol
# GULP energy per Si atom -12399.133273 kJ/mol
# Density = 1.970813 g / cm^3
# Si number density = 19.753086 Si / 1000 Ang^3
#
#
#
# Elastic Constant Matrix: (Units=GPa)
#
#
# Indices 1 2 3 4 5 6 
#
# 1 66.8354 42.4403 40.2403 0.0000 0.0000 0.0000
# 2 42.4403 137.2621 54.9342 0.0000 0.0000 0.0000
# 3 40.2403 54.9342 122.9509 0.0000 0.0000 0.0000
# 4 0.0000 0.0000 0.0000 29.7876 0.0000 0.0000
# 5 0.0000 0.0000 0.0000 0.0000 33.8906 0.0000
# 6 0.0000 0.0000 0.0000 0.0000 0.0000 24.3171
#
#
#
# Elastic Compliance Matrix: (Units=1/GPa)
#
#
# Indices 1 2 3 4 5 6 
#
# 1 0.020680 -0.004488 -0.004763 0.000000 0.000000 0.000000
# 2 -0.004488 0.009846 -0.002930 0.000000 0.000000 0.000000
# 3 -0.004763 -0.002930 0.011001 0.000000 0.000000 0.000000
# 4 0.000000 0.000000 0.000000 0.033571 0.000000 0.000000
# 5 0.000000 0.000000 0.000000 0.000000 0.029507 0.000000
# 6 0.000000 0.000000 0.000000 0.000000 0.000000 0.041123
#
#
# Mechanical properties :
#
#
# Convention : Reuss Voigt Hill
#
# Bulk Modulus (GPa) = 58.25941 66.91978 62.58959
# Shear Modulus (GPa) = 28.43961 30.22797 29.33379
#
# Velocity S-wave (km/s) = 3.79853 3.91614 3.85778
# Velocity P-wave (km/s) = 6.98543 7.37563 7.18318
#
# Compressibility (1/GPa) = 0.01716461
#
# Stress axis : x y z
#
# Youngs Moduli (GPa) = 48.35697 101.56805 90.89720
#
# Poissons Ratio (x) = 0.45581 0.43295
# Poissons Ratio (y) = 0.21701 0.26635
# Poissons Ratio (z) = 0.23033 0.29762
#
# Static dielectric constant tensor:
#      x y z
#    x 3.377970 0.000000 0.000000 
#    y 0.000000 3.940480 0.000000 
#    z 0.000000 0.000000 3.745640 
# 
# 
# High freq. dielectric constant tensor:
#      x y z
#    x 1.747370 0.000000 0.000000 
#    y 0.000000 1.792060 0.000000 
#    z 0.000000 0.000000 1.786130 
# 
# From -- ./inp_files/4642.got.cif
#   From: 2010.06.25/outbox.ucp.g09.slc.cvg/sg58_3_cif.got.tgz:4642.got - 2010.06.28 15:54:47.
