data_PCOD8239234
_publ_section_title
;
Structure prediction by ZEFSAII (Michael W. Deem and Ramdas Pophale) SiO2 
 PCOD8239234
Probable space group: P M M N
;
_chemical_formula_sum "Si O2"
_cell_formula_units_Z 56
_cell_length_a 9.161609
_cell_length_b 26.996001
_cell_length_c 14.350539
_cell_angle_alpha 90.000000
_cell_angle_beta 90.000000
_cell_angle_gamma 90.000000
_cell_volume 3549.272971
_symmetry_space_group_name_H-M "P M M N"
_symmetry_group_IT_number 59
_space_group.IT_coordinate_system_code '2'
_symmetry_cell_setting 'orthorhombic'
loop_
_space_group_symop_operation_xyz
x,y,z
1/2-x,1/2-y,z
1/2+x,-y,-z
-x,1/2+y,-z
-x,-y,-z
1/2+x,1/2+y,-z
1/2-x,y,z
x,1/2-y,z
loop_
_atom_site_type_symbol
_atom_site_label
_atom_site_fract_x
_atom_site_fract_y
_atom_site_fract_z
Si Si1 0.084242 0.543652 0.382553
Si Si2 0.577702 0.306886 0.618261
Si Si3 0.919953 0.963918 0.878500
Si Si4 0.580594 0.564583 0.079904
Si Si5 0.921559 0.561334 0.678917
Si Si6 0.921985 0.880393 0.507242
Si Si7 0.913154 0.379719 0.776430
O O1 0.250000 0.543955 0.422951
O O2 0.016648 0.489014 0.367899
O O3 0.084820 0.569896 0.282297
O O4 0.975436 0.571742 0.451152
O O5 0.750000 0.314180 0.605430
O O6 0.531078 0.250000 0.625412
O O7 0.501434 0.330696 0.527586
O O8 0.525544 0.334685 0.712420
O O9 0.750000 0.978906 0.872382
O O10 0.972379 0.933234 0.786673
O O11 0.948180 0.929683 0.969046
O O12 0.010517 0.014058 0.883960
O O13 0.750000 0.562766 0.104025
O O14 0.511944 0.612229 0.132005
O O15 0.750000 0.553951 0.677747
O O16 0.963556 0.609218 0.616197
O O17 0.750000 0.873825 0.493034
O O18 0.750000 0.366763 0.810087
#
# Coordination Sequence:
#
# PCOD8239234 Si02
#       7
#     8   8   8   8   8   8   8
#     4   9  16  28  43  58  84 125 158 175 203 254
#     4   9  19  36  53  66  83 113 148 177 218 280
#     4   9  17  30  43  56  85 126 158 179 204 248
#     4  10  18  26  41  65  88 114 150 188 219 246
#     4   9  16  28  43  59  85 124 157 177 206 255
#     4  10  19  28  43  67  90 111 142 186 227 255
#     4   9  16  28  47  64  85 116 146 178 217 266
#
# _framework density 15.77788
#
# number of rings (size 3 to 8) (size 9 to 14) (size 15 to 20)
#    0.000    2.714    1.429    2.143    0.000    3.143 
#    0.000    2.143    0.000    0.000    0.000    1.000 
#    0.000    5.714    0.000    0.000    0.000    0.000 
#
# Total GULP energy -694029.191476 kJ/mol
# GULP energy per Si atom -12393.378419 kJ/mol
# Density = 1.574197 g / cm^3
# Si number density = 15.777880 Si / 1000 Ang^3
#
#
#
# Elastic Constant Matrix: (Units=GPa)
#
#
# Indices 1 2 3 4 5 6 
#
# 1 52.9682 30.6819 43.6232 0.0000 0.0000 0.0000
# 2 30.6819 90.3937 55.2929 0.0000 0.0000 0.0000
# 3 43.6232 55.2929 119.2586 0.0000 0.0000 0.0000
# 4 0.0000 0.0000 0.0000 16.1743 0.0000 0.0000
# 5 0.0000 0.0000 0.0000 0.0000 20.2987 0.0000
# 6 0.0000 0.0000 0.0000 0.0000 0.0000 18.6861
#
#
#
# Elastic Compliance Matrix: (Units=1/GPa)
#
#
# Indices 1 2 3 4 5 6 
#
# 1 0.028310 -0.004571 -0.008236 0.000000 0.000000 0.000000
# 2 -0.004571 0.016180 -0.005830 0.000000 0.000000 0.000000
# 3 -0.008236 -0.005830 0.014101 0.000000 0.000000 0.000000
# 4 0.000000 0.000000 0.000000 0.061827 0.000000 0.000000
# 5 0.000000 0.000000 0.000000 0.000000 0.049264 0.000000
# 6 0.000000 0.000000 0.000000 0.000000 0.000000 0.053516
#
#
# Mechanical properties :
#
#
# Convention : Reuss Voigt Hill
#
# Bulk Modulus (GPa) = 46.91078 57.97961 52.44520
# Shear Modulus (GPa) = 18.68619 19.89999 19.29309
#
# Velocity S-wave (km/s) = 3.44514 3.55527 3.50064
# Velocity P-wave (km/s) = 6.75440 7.32670 7.04636
#
# Compressibility (1/GPa) = 0.02131706
#
# Stress axis : x y z
#
# Youngs Moduli (GPa) = 35.32295 61.80363 70.91870
#
# Poissons Ratio (x) = 0.28252 0.58409
# Poissons Ratio (y) = 0.16147 0.41343
# Poissons Ratio (z) = 0.29092 0.36030
#
# Static dielectric constant tensor:
#      x y z
#    x 2.933590 0.000000 0.000000 
#    y 0.000000 2.770250 0.000000 
#    z 0.000000 0.000000 3.289480 
# 
# 
# High freq. dielectric constant tensor:
#      x y z
#    x 1.598930 0.000000 0.000000 
#    y 0.000000 1.562390 0.000000 
#    z 0.000000 0.000000 1.606700 
# 
# From -- ./inp_files/21773.got.cif
#   From: 2010.03.12/outbox.cif.g09.slc.cpg/sg59_11_cif.got.tgz:21773.got - 2010.04.16 16:29:54.
