data_PCOD8239391
_publ_section_title
;
Structure prediction by ZEFSAII (Michael W. Deem and Ramdas Pophale) SiO2 
 PCOD8239391
Probable space group: P M M N
;
_chemical_formula_sum "Si O2"
_cell_formula_units_Z 64
_cell_length_a 19.079720
_cell_length_b 9.210904
_cell_length_c 19.988072
_cell_angle_alpha 90.000000
_cell_angle_beta 90.000000
_cell_angle_gamma 90.000000
_cell_volume 3512.733141
_symmetry_space_group_name_H-M "P M M N"
_symmetry_group_IT_number 59
_space_group.IT_coordinate_system_code '2'
_symmetry_cell_setting 'orthorhombic'
loop_
_space_group_symop_operation_xyz
x,y,z
1/2-x,1/2-y,z
1/2+x,-y,-z
-x,1/2+y,-z
-x,-y,-z
1/2+x,1/2+y,-z
1/2-x,y,z
x,1/2-y,z
loop_
_atom_site_type_symbol
_atom_site_label
_atom_site_fract_x
_atom_site_fract_y
_atom_site_fract_z
Si Si1 0.593883 0.412280 0.046764
Si Si2 0.587318 0.078707 0.409980
Si Si3 0.070844 0.410883 0.075862
Si Si4 0.169493 0.422209 0.472184
Si Si5 0.170964 0.412640 0.693083
Si Si6 0.937346 0.921005 0.636484
Si Si7 0.969596 0.578729 0.782882
Si Si8 0.105909 0.415258 0.827857
O O1 0.624018 0.250000 0.047307
O O2 0.511747 0.415839 0.061829
O O3 0.631701 0.504168 0.104914
O O4 0.610537 0.479170 0.973643
O O5 0.594149 0.250000 0.421659
O O6 0.506406 0.026526 0.404244
O O7 0.626839 0.995213 0.468460
O O8 0.623020 0.035176 0.340150
O O9 0.100039 0.250000 0.061428
O O10 0.082643 0.452324 0.154163
O O11 0.250000 0.475855 0.470942
O O12 0.165590 0.250000 0.481975
O O13 0.132420 0.471462 0.402748
O O14 0.250000 0.439994 0.669464
O O15 0.146966 0.250000 0.670953
O O16 0.167758 0.424426 0.773532
O O17 0.941130 0.750000 0.639598
O O18 0.934703 0.976799 0.713409
O O19 0.988329 0.750000 0.780935
O O20 0.039737 0.489044 0.792905
O O21 0.086745 0.250000 0.846919
#
# Coordination Sequence:
#
# PCOD8239391 Si02
#       8
#     8   8   8   8   8   8   8   8
#     4   9  16  25  39  59  89 126 158 194 237 282
#     4  11  21  34  54  76  99 127 162 206 249 292
#     4   8  14  23  38  61  88 120 154 190 235 284
#     4  10  21  37  55  74 100 133 165 199 243 296
#     4  10  21  35  49  68  97 132 167 204 249 302
#     4   9  18  33  53  76 100 129 164 203 247 294
#     4   9  16  29  47  67  95 124 155 198 245 288
#     4  10  18  28  44  65  91 123 161 201 241 289
#
# _framework density 18.219431
#
# number of rings (size 3 to 8) (size 9 to 14) (size 15 to 20)
#    0.000    2.500    1.250    2.625    0.000    5.500 
#    0.000    1.250    0.000    0.000    0.000    0.875 
#    0.000    5.000    0.000    0.000    0.000    0.000 
#
# Total GULP energy -793218.589614 kJ/mol
# GULP energy per Si atom -12394.040463 kJ/mol
# Density = 1.817796 g / cm^3
# Si number density = 18.219431 Si / 1000 Ang^3
#
#
#
# Elastic Constant Matrix: (Units=GPa)
#
#
# Indices 1 2 3 4 5 6 
#
# 1 57.0418 20.1825 47.5378 0.0000 0.0000 0.0000
# 2 20.1825 70.7433 45.1569 0.0000 0.0000 0.0000
# 3 47.5378 45.1569 145.2673 0.0000 0.0000 0.0000
# 4 0.0000 0.0000 0.0000 29.1088 0.0000 0.0000
# 5 0.0000 0.0000 0.0000 0.0000 11.2270 0.0000
# 6 0.0000 0.0000 0.0000 0.0000 0.0000 14.6612
#
#
#
# Elastic Compliance Matrix: (Units=1/GPa)
#
#
# Indices 1 2 3 4 5 6 
#
# 1 0.024408 -0.002327 -0.007264 0.000000 0.000000 0.000000
# 2 -0.002327 0.017857 -0.004789 0.000000 0.000000 0.000000
# 3 -0.007264 -0.004789 0.010750 0.000000 0.000000 0.000000
# 4 0.000000 0.000000 0.000000 0.034354 0.000000 0.000000
# 5 0.000000 0.000000 0.000000 0.000000 0.089071 0.000000
# 6 0.000000 0.000000 0.000000 0.000000 0.000000 0.068207
#
#
# Mechanical properties :
#
#
# Convention : Reuss Voigt Hill
#
# Bulk Modulus (GPa) = 41.23011 55.42299 48.32655
# Shear Modulus (GPa) = 17.76250 21.67773 19.72011
#
# Velocity S-wave (km/s) = 3.12576 3.45311 3.29350
# Velocity P-wave (km/s) = 5.97545 6.81061 6.40665
#
# Compressibility (1/GPa) = 0.02425412
#
# Stress axis : x y z
#
# Youngs Moduli (GPa) = 40.97015 56.00183 93.02481
#
# Poissons Ratio (x) = 0.13029 0.67575
# Poissons Ratio (y) = 0.09532 0.44554
# Poissons Ratio (z) = 0.29761 0.26822
#
# Static dielectric constant tensor:
#      x y z
#    x 3.071070 0.000000 0.000000 
#    y 0.000000 3.341160 0.000000 
#    z 0.000000 0.000000 3.834920 
# 
# 
# High freq. dielectric constant tensor:
#      x y z
#    x 1.652660 0.000000 0.000000 
#    y 0.000000 1.698150 0.000000 
#    z 0.000000 0.000000 1.723410 
# 
# From -- ./inp_files/30658.got.cif
#   From: 2010.03.12/outbox.cif.g09.slc.cpg/sg59_16_cif.got.tgz:30658.got - 2010.04.16 16:29:54.
