data_PCOD8239177
_publ_section_title
;
Structure prediction by ZEFSAII (Michael W. Deem and Ramdas Pophale) SiO2 
 PCOD8239177
Probable space group: P M M N
;
_chemical_formula_sum "Si O2"
_cell_formula_units_Z 64
_cell_length_a 9.006625
_cell_length_b 29.462777
_cell_length_c 14.886830
_cell_angle_alpha 90.000000
_cell_angle_beta 90.000000
_cell_angle_gamma 90.000000
_cell_volume 3950.371946
_symmetry_space_group_name_H-M "P M M N"
_symmetry_group_IT_number 59
_space_group.IT_coordinate_system_code '2'
_symmetry_cell_setting 'orthorhombic'
loop_
_space_group_symop_operation_xyz
x,y,z
1/2-x,1/2-y,z
1/2+x,-y,-z
-x,1/2+y,-z
-x,-y,-z
1/2+x,1/2+y,-z
1/2-x,y,z
x,1/2-y,z
loop_
_atom_site_type_symbol
_atom_site_label
_atom_site_fract_x
_atom_site_fract_y
_atom_site_fract_z
Si Si1 0.925897 0.056653 0.630804
Si Si2 0.079772 0.880762 0.210650
Si Si3 0.574695 0.801343 0.491848
Si Si4 0.573687 0.542854 0.681730
Si Si5 0.926813 0.390956 0.453427
Si Si6 0.920629 0.470497 0.134380
Si Si7 0.418614 0.554999 0.057493
Si Si8 0.080177 0.199116 0.712133
O O1 0.750000 0.056115 0.632295
O O2 0.988760 0.083626 0.717272
O O3 0.984409 0.081412 0.541013
O O4 0.982060 0.004614 0.637371
O O5 0.250000 0.873937 0.235035
O O6 0.055382 0.897766 0.109121
O O7 0.004247 0.832250 0.217912
O O8 0.750000 0.809894 0.500291
O O9 0.536976 0.750000 0.525725
O O10 0.486533 0.839251 0.548073
O O11 0.520019 0.806327 0.389156
O O12 0.750000 0.548405 0.674729
O O13 0.493209 0.584230 0.632849
O O14 0.526547 0.545339 0.785660
O O15 0.750000 0.390073 0.447946
O O16 0.750000 0.471295 0.167061
O O17 0.964712 0.519934 0.098493
O O18 0.942621 0.436763 0.048914
O O19 0.250000 0.537305 0.075723
O O20 0.250000 0.184883 0.713010
O O21 0.056571 0.250000 0.746499
#
# Coordination Sequence:
#
# PCOD8239177 Si02
#       8
#     8   8   8   8   8   8   8   8
#     4   9  18  31  46  66  96 131 164 197 231 275
#     4  10  17  30  49  70  95 127 164 196 233 283
#     4   9  18  33  50  68  93 126 161 195 238 289
#     4  11  21  35  50  65  95 135 167 201 245 285
#     4  11  21  33  48  71  97 125 165 205 238 280
#     4  10  19  31  48  71  94 122 161 202 239 280
#     4   9  18  32  49  68  96 127 155 194 242 285
#     4   9  18  31  46  68  98 127 157 197 240 282
#
# _framework density 16.201004999999999
#
# number of rings (size 3 to 8) (size 9 to 14) (size 15 to 20)
#    0.000    2.250    2.500    2.250    0.000    1.500 
#    0.000    3.125    0.000    0.000    0.000    0.875 
#    0.000    5.000    0.000    0.000    0.000    0.000 
#
# Total GULP energy -793454.590674 kJ/mol
# GULP energy per Si atom -12397.727979 kJ/mol
# Density = 1.616413 g / cm^3
# Si number density = 16.201005 Si / 1000 Ang^3
#
#
#
# Elastic Constant Matrix: (Units=GPa)
#
#
# Indices 1 2 3 4 5 6 
#
# 1 54.1246 43.5568 28.8897 0.0000 0.0000 0.0000
# 2 43.5568 99.5975 46.2295 0.0000 0.0000 0.0000
# 3 28.8897 46.2295 80.6537 0.0000 0.0000 0.0000
# 4 0.0000 0.0000 0.0000 23.4451 0.0000 0.0000
# 5 0.0000 0.0000 0.0000 0.0000 24.0178 0.0000
# 6 0.0000 0.0000 0.0000 0.0000 0.0000 27.1498
#
#
#
# Elastic Compliance Matrix: (Units=1/GPa)
#
#
# Indices 1 2 3 4 5 6 
#
# 1 0.029581 -0.010925 -0.004334 0.000000 0.000000 0.000000
# 2 -0.010925 0.017715 -0.006241 0.000000 0.000000 0.000000
# 3 -0.004334 -0.006241 0.017528 0.000000 0.000000 0.000000
# 4 0.000000 0.000000 0.000000 0.042653 0.000000 0.000000
# 5 0.000000 0.000000 0.000000 0.000000 0.041636 0.000000
# 6 0.000000 0.000000 0.000000 0.000000 0.000000 0.036833
#
#
# Mechanical properties :
#
#
# Convention : Reuss Voigt Hill
#
# Bulk Modulus (GPa) = 45.81859 52.41421 49.11640
# Shear Modulus (GPa) = 21.16679 22.63585 21.90132
#
# Velocity S-wave (km/s) = 3.61849 3.74195 3.68074
# Velocity P-wave (km/s) = 6.76762 7.14789 6.96035
#
# Compressibility (1/GPa) = 0.02182520
#
# Stress axis : x y z
#
# Youngs Moduli (GPa) = 33.80549 56.44952 57.05151
#
# Poissons Ratio (x) = 0.61672 0.24724
# Poissons Ratio (y) = 0.36933 0.35604
# Poissons Ratio (z) = 0.14650 0.35228
#
# Static dielectric constant tensor:
#      x y z
#    x 2.972010 0.000000 0.000000 
#    y 0.000000 3.002430 0.000000 
#    z 0.000000 0.000000 3.039170 
# 
# 
# High freq. dielectric constant tensor:
#      x y z
#    x 1.620160 0.000000 0.000000 
#    y 0.000000 1.607590 0.000000 
#    z 0.000000 0.000000 1.605300 
# 
# From -- ./inp_files/21931.got.cif
#   From: 2010.03.12/outbox.cif.g09.slc.cpg/sg59_11_cif.got.tgz:21931.got - 2010.04.16 16:29:54.
