data_PCOD8239426
_publ_section_title
;
Structure prediction by ZEFSAII (Michael W. Deem and Ramdas Pophale) SiO2 
 PCOD8239426
Probable space group: P M M N
;
_chemical_formula_sum "Si O2"
_cell_formula_units_Z 64
_cell_length_a 14.454796
_cell_length_b 9.489063
_cell_length_c 28.094741
_cell_angle_alpha 90.000000
_cell_angle_beta 90.000000
_cell_angle_gamma 90.000000
_cell_volume 3853.544067
_symmetry_space_group_name_H-M "P M M N"
_symmetry_group_IT_number 59
_space_group.IT_coordinate_system_code '2'
_symmetry_cell_setting 'orthorhombic'
loop_
_space_group_symop_operation_xyz
x,y,z
1/2-x,1/2-y,z
1/2+x,-y,-z
-x,1/2+y,-z
-x,-y,-z
1/2+x,1/2+y,-z
1/2-x,y,z
x,1/2-y,z
loop_
_atom_site_type_symbol
_atom_site_label
_atom_site_fract_x
_atom_site_fract_y
_atom_site_fract_z
Si Si1 0.519888 0.583616 0.612199
Si Si2 0.857883 0.590859 0.966420
Si Si3 0.350538 0.416586 0.927201
Si Si4 0.643306 0.086218 0.793651
Si Si5 0.856643 0.914095 0.420543
Si Si6 0.648086 0.582850 0.528056
Si Si7 0.539657 0.083665 0.887426
Si Si8 0.356073 0.086638 0.298307
O O1 0.502888 0.750000 0.609459
O O2 0.421312 0.505054 0.614460
O O3 0.574403 0.524901 0.565925
O O4 0.579091 0.541727 0.658185
O O5 0.750000 0.588582 0.954700
O O6 0.896505 0.750000 0.960686
O O7 0.907947 0.488104 0.930437
O O8 0.876048 0.531052 0.019629
O O9 0.250000 0.478424 0.910910
O O10 0.341584 0.250000 0.930476
O O11 0.430997 0.459823 0.890152
O O12 0.750000 0.055250 0.806448
O O13 0.626800 0.250000 0.783155
O O14 0.580366 0.032029 0.837184
O O15 0.611742 0.001283 0.747314
O O16 0.750000 0.945152 0.407749
O O17 0.878984 0.750000 0.413578
O O18 0.878487 0.962882 0.474610
O O19 0.750000 0.522772 0.540789
O O20 0.652319 0.750000 0.531217
O O21 0.553932 0.250000 0.893147
O O22 0.250000 0.052376 0.312191
O O23 0.367867 0.250000 0.285789
#
# Coordination Sequence:
#
# PCOD8239426 Si02
#       8
#     8   8   8   8   8   8   8   8
#     4  10  18  28  47  71  90 113 149 190 226 259
#     4   9  17  28  42  63  92 122 148 176 215 263
#     4   8  15  28  44  63  89 119 149 181 217 257
#     4   9  18  31  45  64  90 115 141 179 226 268
#     4   9  18  31  45  63  91 126 156 180 213 260
#     4   8  14  26  44  66  93 122 149 179 218 264
#     4  10  18  28  46  68  88 115 151 187 220 256
#     4   9  18  32  49  69  91 115 145 179 218 268
#
# _framework density 16.608087999999999
#
# number of rings (size 3 to 8) (size 9 to 14) (size 15 to 20)
#    0.000    3.000    0.000    3.000    0.000    3.500 
#    0.000    1.250    0.000    3.750    0.000    1.750 
#    0.000    0.000    0.000    0.000    0.000    0.000 
#
# Total GULP energy -793357.711603 kJ/mol
# GULP energy per Si atom -12396.214244 kJ/mol
# Density = 1.657029 g / cm^3
# Si number density = 16.608088 Si / 1000 Ang^3
#
#
#
# Elastic Constant Matrix: (Units=GPa)
#
#
# Indices 1 2 3 4 5 6 
#
# 1 111.4541 40.5406 78.6951 0.0000 0.0000 0.0000
# 2 40.5406 33.2766 36.9500 0.0000 0.0000 0.0000
# 3 78.6951 36.9500 102.0814 0.0000 0.0000 0.0000
# 4 0.0000 0.0000 0.0000 24.2788 0.0000 0.0000
# 5 0.0000 0.0000 0.0000 0.0000 28.3064 0.0000
# 6 0.0000 0.0000 0.0000 0.0000 0.0000 22.6225
#
#
#
# Elastic Compliance Matrix: (Units=1/GPa)
#
#
# Indices 1 2 3 4 5 6 
#
# 1 0.022996 -0.013930 -0.012686 0.000000 0.000000 0.000000
# 2 -0.013930 0.058684 -0.010503 0.000000 0.000000 0.000000
# 3 -0.012686 -0.010503 0.023377 0.000000 0.000000 0.000000
# 4 0.000000 0.000000 0.000000 0.041188 0.000000 0.000000
# 5 0.000000 0.000000 0.000000 0.000000 0.035328 0.000000
# 6 0.000000 0.000000 0.000000 0.000000 0.000000 0.044204
#
#
# Mechanical properties :
#
#
# Convention : Reuss Voigt Hill
#
# Bulk Modulus (GPa) = 32.44600 62.13149 47.28875
# Shear Modulus (GPa) = 16.11399 21.08332 18.59866
#
# Velocity S-wave (km/s) = 3.11826 3.56681 3.35005
# Velocity P-wave (km/s) = 5.70468 7.37933 6.59537
#
# Compressibility (1/GPa) = 0.03082044
#
# Stress axis : x y z
#
# Youngs Moduli (GPa) = 43.48492 17.04028 42.77639
#
# Poissons Ratio (x) = 0.23737 0.54265
# Poissons Ratio (y) = 0.60575 0.44928
# Poissons Ratio (z) = 0.55164 0.17897
#
# Static dielectric constant tensor:
#      x y z
#    x 3.347940 0.000000 0.000000 
#    y 0.000000 2.851510 0.000000 
#    z 0.000000 0.000000 3.053870 
# 
# 
# High freq. dielectric constant tensor:
#      x y z
#    x 1.642350 0.000000 0.000000 
#    y 0.000000 1.613850 0.000000 
#    z 0.000000 0.000000 1.622520 
# 
# From -- ./inp_files/31949.got.cif
#   From: 2010.03.12/outbox.cif.g09.slc.cpg/sg59_16_cif.got.tgz:31949.got - 2010.04.16 16:29:54.
