data_PCOD8239214
_publ_section_title
;
Structure prediction by ZEFSAII (Michael W. Deem and Ramdas Pophale) SiO2 
 PCOD8239214
Probable space group: P M M N
;
_chemical_formula_sum "Si O2"
_cell_formula_units_Z 56
_cell_length_a 22.267491
_cell_length_b 9.350468
_cell_length_c 17.710352
_cell_angle_alpha 90.000000
_cell_angle_beta 90.000000
_cell_angle_gamma 90.000000
_cell_volume 3687.498283
_symmetry_space_group_name_H-M "P M M N"
_symmetry_group_IT_number 59
_space_group.IT_coordinate_system_code '2'
_symmetry_cell_setting 'orthorhombic'
loop_
_space_group_symop_operation_xyz
x,y,z
1/2-x,1/2-y,z
1/2+x,-y,-z
-x,1/2+y,-z
-x,-y,-z
1/2+x,1/2+y,-z
1/2-x,y,z
x,1/2-y,z
loop_
_atom_site_type_symbol
_atom_site_label
_atom_site_fract_x
_atom_site_fract_y
_atom_site_fract_z
Si Si1 0.816600 0.919198 0.655222
Si Si2 0.394766 0.415564 0.206334
Si Si3 0.468520 0.415600 0.609580
Si Si4 0.424152 0.914021 0.070538
Si Si5 0.419659 0.415208 0.451584
Si Si6 0.543082 0.413232 0.086754
Si Si7 0.967512 0.411007 0.249671
O O1 0.750000 0.987275 0.648954
O O2 0.811892 0.750000 0.661173
O O3 0.849851 0.977389 0.730168
O O4 0.854638 0.961121 0.580501
O O5 0.382637 0.250000 0.191398
O O6 0.381571 0.496838 0.127098
O O7 0.462523 0.443992 0.233556
O O8 0.481360 0.250000 0.623491
O O9 0.420823 0.439492 0.541802
O O10 0.530881 0.490338 0.589637
O O11 0.441894 0.483770 0.686112
O O12 0.420858 0.750000 0.096000
O O13 0.492070 0.968747 0.076571
O O14 0.407480 0.931737 0.980683
O O15 0.433691 0.250000 0.431313
O O16 0.516233 0.250000 0.082606
O O17 0.569954 0.434455 0.171421
O O18 0.959677 0.250000 0.279668
#
# Coordination Sequence:
#
# PCOD8239214 Si02
#       7
#     8   8   8   8   8   8   8
#     4   9  16  28  46  61  74 101 141 174 198 234
#     4   9  16  26  39  55  76 102 132 164 198 232
#     4  10  18  25  39  60  81 104 131 163 200 245
#     4   9  15  23  36  53  74 101 132 160 188 226
#     4   9  17  30  42  56  78 103 132 166 202 240
#     4   8  15  25  35  50  74 105 133 157 186 222
#     4   9  15  25  39  54  78 107 132 161 194 231
#
# _framework density 15.186446999999999
#
# number of rings (size 3 to 8) (size 9 to 14) (size 15 to 20)
#    0.000    3.000    1.429    1.714    0.000    3.429 
#    0.000    0.000    0.000    1.714    0.000    0.000 
#    0.000    1.143    0.000   11.714    0.000    1.857 
#
# Total GULP energy -693763.279935 kJ/mol
# GULP energy per Si atom -12388.629999 kJ/mol
# Density = 1.515188 g / cm^3
# Si number density = 15.186447 Si / 1000 Ang^3
#
#
#
# Elastic Constant Matrix: (Units=GPa)
#
#
# Indices 1 2 3 4 5 6 
#
# 1 50.9954 17.5285 44.4549 0.0000 0.0000 0.0000
# 2 17.5285 62.7645 55.8586 0.0000 0.0000 0.0000
# 3 44.4549 55.8586 150.9617 0.0000 0.0000 0.0000
# 4 0.0000 0.0000 0.0000 28.7996 0.0000 0.0000
# 5 0.0000 0.0000 0.0000 0.0000 14.5502 0.0000
# 6 0.0000 0.0000 0.0000 0.0000 0.0000 8.1488
#
#
#
# Elastic Compliance Matrix: (Units=1/GPa)
#
#
# Indices 1 2 3 4 5 6 
#
# 1 0.026401 -0.000677 -0.007524 0.000000 0.000000 0.000000
# 2 -0.000677 0.023773 -0.008597 0.000000 0.000000 0.000000
# 3 -0.007524 -0.008597 0.012021 0.000000 0.000000 0.000000
# 4 0.000000 0.000000 0.000000 0.034723 0.000000 0.000000
# 5 0.000000 0.000000 0.000000 0.000000 0.068728 0.000000
# 6 0.000000 0.000000 0.000000 0.000000 0.000000 0.122718
#
#
# Mechanical properties :
#
#
# Convention : Reuss Voigt Hill
#
# Bulk Modulus (GPa) = 34.96639 55.60063 45.28351
# Shear Modulus (GPa) = 15.08331 20.09169 17.58750
#
# Velocity S-wave (km/s) = 3.15494 3.64125 3.40679
# Velocity P-wave (km/s) = 6.02878 7.37359 6.73484
#
# Compressibility (1/GPa) = 0.02859889
#
# Stress axis : x y z
#
# Youngs Moduli (GPa) = 37.87670 42.06502 83.18806
#
# Poissons Ratio (x) = 0.02848 0.62592
# Poissons Ratio (y) = 0.02564 0.71517
# Poissons Ratio (z) = 0.28499 0.36163
#
# Static dielectric constant tensor:
#      x y z
#    x 2.533370 0.000000 0.000000 
#    y 0.000000 2.897650 0.000000 
#    z 0.000000 0.000000 3.476070 
# 
# 
# High freq. dielectric constant tensor:
#      x y z
#    x 1.502130 0.000000 0.000000 
#    y 0.000000 1.577150 0.000000 
#    z 0.000000 0.000000 1.604950 
# 
# From -- ./inp_files/26395.got.cif
#   From: 2010.03.12/outbox.cif.g09.slc.cpg/sg59_14_cif.got.tgz:26395.got - 2010.04.16 16:29:54.
