data_PCOD8239573
_publ_section_title
;
Structure prediction by ZEFSAII (Michael W. Deem and Ramdas Pophale) SiO2 
 PCOD8239573
Probable space group: P M M N
;
_chemical_formula_sum "Si O2"
_cell_formula_units_Z 40
_cell_length_a 15.049718
_cell_length_b 9.122200
_cell_length_c 15.399973
_cell_angle_alpha 90.000000
_cell_angle_beta 90.000000
_cell_angle_gamma 90.000000
_cell_volume 2114.208971
_symmetry_space_group_name_H-M "P M M N"
_symmetry_group_IT_number 59
_space_group.IT_coordinate_system_code '2'
_symmetry_cell_setting 'orthorhombic'
loop_
_space_group_symop_operation_xyz
x,y,z
1/2-x,1/2-y,z
1/2+x,-y,-z
-x,1/2+y,-z
-x,-y,-z
1/2+x,1/2+y,-z
1/2-x,y,z
x,1/2-y,z
loop_
_atom_site_type_symbol
_atom_site_label
_atom_site_fract_x
_atom_site_fract_y
_atom_site_fract_z
Si Si1 0.250000 0.417936 0.472583
Si Si2 0.116371 0.419621 0.323743
Si Si3 0.571354 0.421853 0.261066
Si Si4 0.434072 0.576134 0.933856
Si Si5 0.750000 0.076004 0.795032
Si Si6 0.250000 0.577064 0.010459
Si Si7 0.250000 0.575266 0.652128
O O1 0.250000 0.250000 0.504110
O O2 0.161217 0.452220 0.416656
O O3 0.250000 0.525192 0.553135
O O4 0.131463 0.250000 0.298642
O O5 0.161476 0.517479 0.250360
O O6 0.011483 0.458857 0.324784
O O7 0.587051 0.250000 0.253439
O O8 0.549775 0.480953 0.164410
O O9 0.662120 0.489567 0.300373
O O10 0.446358 0.750000 0.942088
O O11 0.335559 0.523090 0.958238
O O12 0.500000 0.500000 0.000000
O O13 0.750000 0.250000 0.790664
O O14 0.750000 0.012948 0.892416
O O15 0.250000 0.750000 0.017342
O O16 0.250000 0.750000 0.652423
#
# Coordination Sequence:
#
# PCOD8239573 Si02
#       7
#     4   8   8   8   4   4   4
#     4   9  19  34  50  71 100 130 159 200 257 307
#     4   9  18  34  53  72  99 132 164 200 249 302
#     4   9  18  33  54  76  98 131 170 206 243 289
#     4  10  19  33  52  74 101 133 170 206 244 290
#     4  10  18  29  47  74 103 130 165 206 248 290
#     4   9  18  30  46  70 103 136 160 199 257 299
#     4  10  20  35  55  77 100 128 170 211 240 288
#
# _framework density 18.919606999999999
#
# number of rings (size 3 to 8) (size 9 to 14) (size 15 to 20)
#    0.000    2.600    0.000    2.700    0.000    4.800 
#    0.000    3.500    0.000    0.000    0.000    0.000 
#    0.000    0.000    0.000    0.000    0.000    0.000 
#
# Total GULP energy -495899.126520 kJ/mol
# GULP energy per Si atom -12397.478163 kJ/mol
# Density = 1.887654 g / cm^3
# Si number density = 18.919607 Si / 1000 Ang^3
#
#
#
# Elastic Constant Matrix: (Units=GPa)
#
#
# Indices 1 2 3 4 5 6 
#
# 1 172.2256 28.5354 72.8723 0.0000 0.0000 0.0000
# 2 28.5354 31.6336 26.3980 0.0000 0.0000 0.0000
# 3 72.8723 26.3980 129.0879 0.0000 0.0000 0.0000
# 4 0.0000 0.0000 0.0000 26.8215 0.0000 0.0000
# 5 0.0000 0.0000 0.0000 0.0000 25.0690 0.0000
# 6 0.0000 0.0000 0.0000 0.0000 0.0000 20.2019
#
#
#
# Elastic Compliance Matrix: (Units=1/GPa)
#
#
# Indices 1 2 3 4 5 6 
#
# 1 0.008064 -0.004191 -0.003695 0.000000 0.000000 0.000000
# 2 -0.004191 0.040294 -0.005874 0.000000 0.000000 0.000000
# 3 -0.003695 -0.005874 0.011034 0.000000 0.000000 0.000000
# 4 0.000000 0.000000 0.000000 0.037284 0.000000 0.000000
# 5 0.000000 0.000000 0.000000 0.000000 0.039890 0.000000
# 6 0.000000 0.000000 0.000000 0.000000 0.000000 0.049500
#
#
# Mechanical properties :
#
#
# Convention : Reuss Voigt Hill
#
# Bulk Modulus (GPa) = 31.37572 65.39539 48.38555
# Shear Modulus (GPa) = 22.30039 28.09456 25.19747
#
# Velocity S-wave (km/s) = 3.43693 3.85768 3.65337
# Velocity P-wave (km/s) = 5.68944 7.38120 6.58984
#
# Compressibility (1/GPa) = 0.03187178
#
# Stress axis : x y z
#
# Youngs Moduli (GPa) = 124.00331 24.81740 90.62822
#
# Poissons Ratio (x) = 0.10400 0.33491
# Poissons Ratio (y) = 0.51966 0.53238
# Poissons Ratio (z) = 0.45825 0.14579
#
# Static dielectric constant tensor:
#      x y z
#    x 3.608960 0.000000 0.000000 
#    y 0.000000 3.089550 0.000000 
#    z 0.000000 0.000000 3.494590 
# 
# 
# High freq. dielectric constant tensor:
#      x y z
#    x 1.750120 0.000000 0.000000 
#    y 0.000000 1.695070 0.000000 
#    z 0.000000 0.000000 1.737060 
# 
# From -- ./inp_files/20055.got.cif
#   From: 2010.03.12/outbox.cif.g09.slc.cpg/sg59_11_cif.got.tgz:20055.got - 2010.04.16 16:29:54.
