data_PCOD8239106
_publ_section_title
;
Structure prediction by ZEFSAII (Michael W. Deem and Ramdas Pophale) SiO2 
 PCOD8239106
Probable space group: P M M N
;
_chemical_formula_sum "Si O2"
_cell_formula_units_Z 56
_cell_length_a 29.569311
_cell_length_b 8.964549
_cell_length_c 12.668382
_cell_angle_alpha 90.000000
_cell_angle_beta 90.000000
_cell_angle_gamma 90.000000
_cell_volume 3358.078166
_symmetry_space_group_name_H-M "P M M N"
_symmetry_group_IT_number 59
_space_group.IT_coordinate_system_code '2'
_symmetry_cell_setting 'orthorhombic'
loop_
_space_group_symop_operation_xyz
x,y,z
1/2-x,1/2-y,z
1/2+x,-y,-z
-x,1/2+y,-z
-x,-y,-z
1/2+x,1/2+y,-z
1/2-x,y,z
x,1/2-y,z
loop_
_atom_site_type_symbol
_atom_site_label
_atom_site_fract_x
_atom_site_fract_y
_atom_site_fract_z
Si Si1 0.392657 0.926863 0.967672
Si Si2 0.200770 0.572609 0.045137
Si Si3 0.955994 0.426110 0.452055
Si Si4 0.891611 0.426853 0.632284
Si Si5 0.551274 0.427277 0.831297
Si Si6 0.299152 0.572588 0.284860
Si Si7 0.957830 0.426380 0.212763
O O1 0.391182 0.750000 0.974737
O O2 0.341026 0.989696 0.974874
O O3 0.415081 0.978584 0.857765
O O4 0.421947 0.986068 0.066278
O O5 0.250000 0.514643 0.003490
O O6 0.200708 0.750000 0.042733
O O7 0.193315 0.518094 0.165065
O O8 0.962713 0.250000 0.459328
O O9 0.912535 0.478173 0.520517
O O10 0.000000 0.500000 0.500000
O O11 0.948289 0.479370 0.332273
O O12 0.889989 0.250000 0.640430
O O13 0.922882 0.486832 0.727367
O O14 0.840387 0.490875 0.643709
O O15 0.546667 0.250000 0.830526
O O16 0.501792 0.496863 0.834768
O O17 0.250000 0.514992 0.326512
O O18 0.299610 0.750000 0.287354
O O19 0.964875 0.250000 0.206566
#
# Coordination Sequence:
#
# PCOD8239106 Si02
#       7
#     8   8   8   8   8   8   8
#     4   9  16  26  39  58  85 112 136 165 206 249
#     4   8  12  19  34  56  80 104 130 162 201 244
#     4  10  19  30  43  58  80 111 142 171 203 240
#     4   9  15  24  39  58  80 106 134 168 206 238
#     4  10  17  27  44  62  82 111 140 168 202 241
#     4   8  12  19  34  57  81 102 129 167 207 243
#     4  10  20  30  40  58  86 115 140 168 203 244
#
# _framework density 16.676205
#
# number of rings (size 3 to 8) (size 9 to 14) (size 15 to 20)
#    0.000    2.857    2.857    1.286    0.000    0.000 
#    0.000    0.000    0.000    0.857    0.000    6.000 
#    0.000    5.714    0.000    2.571    0.000    2.857 
#
# Total GULP energy -693900.961040 kJ/mol
# GULP energy per Si atom -12391.088590 kJ/mol
# Density = 1.663825 g / cm^3
# Si number density = 16.676205 Si / 1000 Ang^3
#
#
#
# Elastic Constant Matrix: (Units=GPa)
#
#
# Indices 1 2 3 4 5 6 
#
# 1 188.4036 12.2272 85.1111 0.0000 0.0000 0.0000
# 2 12.2272 6.3333 11.3480 0.0000 0.0000 0.0000
# 3 85.1111 11.3480 122.9668 0.0000 0.0000 0.0000
# 4 0.0000 0.0000 0.0000 10.3292 0.0000 0.0000
# 5 0.0000 0.0000 0.0000 0.0000 27.1520 0.0000
# 6 0.0000 0.0000 0.0000 0.0000 0.0000 14.9971
#
#
#
# Elastic Compliance Matrix: (Units=1/GPa)
#
#
# Indices 1 2 3 4 5 6 
#
# 1 0.007944 -0.006572 -0.004892 0.000000 0.000000 0.000000
# 2 -0.006572 0.194613 -0.013411 0.000000 0.000000 0.000000
# 3 -0.004892 -0.013411 0.012756 0.000000 0.000000 0.000000
# 4 0.000000 0.000000 0.000000 0.096813 0.000000 0.000000
# 5 0.000000 0.000000 0.000000 0.000000 0.036830 0.000000
# 6 0.000000 0.000000 0.000000 0.000000 0.000000 0.066680
#
#
# Mechanical properties :
#
#
# Convention : Reuss Voigt Hill
#
# Bulk Modulus (GPa) = 6.04001 59.45292 32.74647
# Shear Modulus (GPa) = 9.60480 24.43014 17.01747
#
# Velocity S-wave (km/s) = 2.40252 3.83164 3.19794
# Velocity P-wave (km/s) = 3.36540 7.43667 5.77191
#
# Compressibility (1/GPa) = 0.16556268
#
# Stress axis : x y z
#
# Youngs Moduli (GPa) = 125.87715 5.13841 78.39430
#
# Poissons Ratio (x) = 0.03377 0.38352
# Poissons Ratio (y) = 0.82721 1.05138
# Poissons Ratio (z) = 0.61581 0.06891
#
# Static dielectric constant tensor:
#      x y z
#    x 3.713660 0.000000 0.000000 
#    y 0.000000 2.588850 0.000000 
#    z 0.000000 0.000000 3.270950 
# 
# 
# High freq. dielectric constant tensor:
#      x y z
#    x 1.655670 0.000000 0.000000 
#    y 0.000000 1.580970 0.000000 
#    z 0.000000 0.000000 1.626480 
# 
# From -- ./inp_files/16300.got.cif
#   From: 2010.03.12/outbox.cif.g09.slc.cpg/sg59_9_cif.got.tgz:16300.got - 2010.04.16 16:29:54.
