data_PCOD8239199
_publ_section_title
;
Structure prediction by ZEFSAII (Michael W. Deem and Ramdas Pophale) SiO2 
 PCOD8239199
Probable space group: P M M N
;
_chemical_formula_sum "Si O2"
_cell_formula_units_Z 64
_cell_length_a 30.971109
_cell_length_b 8.965535
_cell_length_c 11.907587
_cell_angle_alpha 90.000000
_cell_angle_beta 90.000000
_cell_angle_gamma 90.000000
_cell_volume 3306.410186
_symmetry_space_group_name_H-M "P M M N"
_symmetry_group_IT_number 59
_space_group.IT_coordinate_system_code '2'
_symmetry_cell_setting 'orthorhombic'
loop_
_space_group_symop_operation_xyz
x,y,z
1/2-x,1/2-y,z
1/2+x,-y,-z
-x,1/2+y,-z
-x,-y,-z
1/2+x,1/2+y,-z
1/2-x,y,z
x,1/2-y,z
loop_
_atom_site_type_symbol
_atom_site_label
_atom_site_fract_x
_atom_site_fract_y
_atom_site_fract_z
Si Si1 0.297863 0.573190 0.267184
Si Si2 0.172397 0.572662 0.507629
Si Si3 0.621763 0.926382 0.127069
Si Si4 0.543036 0.076051 0.735174
Si Si5 0.298007 0.078150 0.726066
Si Si6 0.956234 0.425695 0.258698
Si Si7 0.625433 0.075720 0.889078
Si Si8 0.924261 0.425542 0.498847
O O1 0.250000 0.521021 0.229528
O O2 0.301454 0.750000 0.271686
O O3 0.307426 0.511608 0.391736
O O4 0.333082 0.514060 0.178879
O O5 0.173730 0.750000 0.512912
O O6 0.199862 0.511749 0.610619
O O7 0.123749 0.509318 0.516422
O O8 0.616159 0.750000 0.130740
O O9 0.666431 0.979245 0.185155
O O10 0.581936 0.000459 0.189815
O O11 0.622149 0.979794 0.000139
O O12 0.531374 0.250000 0.729899
O O13 0.583133 0.045730 0.815732
O O14 0.553849 0.010074 0.611470
O O15 0.501951 0.988000 0.784357
O O16 0.250000 0.053896 0.777526
O O17 0.306557 0.250000 0.697854
O O18 0.953805 0.250000 0.238847
O O19 0.952109 0.469012 0.390087
O O20 0.630035 0.250000 0.918764
O O21 0.919944 0.250000 0.514735
#
# Coordination Sequence:
#
# PCOD8239199 Si02
#       8
#     8   8   8   8   8   8   8   8
#     4   9  17  31  56  89 118 145 181 226 278 332
#     4  10  17  32  59  89 117 148 184 224 274 332
#     4  11  24  41  59  79 108 149 193 235 280 331
#     4  10  20  37  59  84 116 151 183 221 280 340
#     4  10  22  39  57  81 115 151 185 226 279 334
#     4  11  22  37  59  87 116 145 184 232 278 329
#     4  10  21  38  59  81 110 148 188 234 278 323
#     4   9  17  32  57  86 117 147 178 224 277 330
#
# _framework density 19.356339999999999
#
# number of rings (size 3 to 8) (size 9 to 14) (size 15 to 20)
#    0.000    2.000    2.500    1.500    0.000    2.750 
#    0.000    1.875    0.000    0.750    0.000    0.000 
#    0.000    0.000    0.000    0.000    0.000    0.000 
#
# Total GULP energy -793653.397329 kJ/mol
# GULP energy per Si atom -12400.834333 kJ/mol
# Density = 1.931228 g / cm^3
# Si number density = 19.356340 Si / 1000 Ang^3
#
#
#
# Elastic Constant Matrix: (Units=GPa)
#
#
# Indices 1 2 3 4 5 6 
#
# 1 164.5973 47.6505 61.5021 0.0000 0.0000 0.0000
# 2 47.6505 50.4026 46.8977 0.0000 0.0000 0.0000
# 3 61.5021 46.8977 127.1450 0.0000 0.0000 0.0000
# 4 0.0000 0.0000 0.0000 20.7294 0.0000 0.0000
# 5 0.0000 0.0000 0.0000 0.0000 6.9689 0.0000
# 6 0.0000 0.0000 0.0000 0.0000 0.0000 18.7633
#
#
#
# Elastic Compliance Matrix: (Units=1/GPa)
#
#
# Indices 1 2 3 4 5 6 
#
# 1 0.008619 -0.006500 -0.001772 0.000000 0.000000 0.000000
# 2 -0.006500 0.035110 -0.009806 0.000000 0.000000 0.000000
# 3 -0.001772 -0.009806 0.012339 0.000000 0.000000 0.000000
# 4 0.000000 0.000000 0.000000 0.048241 0.000000 0.000000
# 5 0.000000 0.000000 0.000000 0.000000 0.143495 0.000000
# 6 0.000000 0.000000 0.000000 0.000000 0.000000 0.053295
#
#
# Mechanical properties :
#
#
# Convention : Reuss Voigt Hill
#
# Bulk Modulus (GPa) = 50.22057 72.69395 61.45726
# Shear Modulus (GPa) = 14.53947 21.69864 18.11906
#
# Velocity S-wave (km/s) = 2.74368 3.35178 3.06286
# Velocity P-wave (km/s) = 6.00322 7.25372 6.65789
#
# Compressibility (1/GPa) = 0.01991216
#
# Stress axis : x y z
#
# Youngs Moduli (GPa) = 116.02037 28.48226 81.04388
#
# Poissons Ratio (x) = 0.18514 0.14358
# Poissons Ratio (y) = 0.75414 0.79472
# Poissons Ratio (z) = 0.20555 0.27930
#
# Static dielectric constant tensor:
#      x y z
#    x 3.763140 0.000000 0.000000 
#    y 0.000000 3.199790 0.000000 
#    z 0.000000 0.000000 3.552140 
# 
# 
# High freq. dielectric constant tensor:
#      x y z
#    x 1.772320 0.000000 0.000000 
#    y 0.000000 1.721680 0.000000 
#    z 0.000000 0.000000 1.751820 
# 
# From -- ./inp_files/19266.got.cif
#   From: 2010.03.12/outbox.cif.g09.slc.cpg/sg59_10_cif.got.tgz:19266.got - 2010.04.16 16:29:54.
