data_PCOD8239311
_publ_section_title
;
Structure prediction by ZEFSAII (Michael W. Deem and Ramdas Pophale) SiO2 
 PCOD8239311
Probable space group: P M M N
;
_chemical_formula_sum "Si O2"
_cell_formula_units_Z 64
_cell_length_a 18.283634
_cell_length_b 20.580962
_cell_length_c 11.227708
_cell_angle_alpha 90.000000
_cell_angle_beta 90.000000
_cell_angle_gamma 90.000000
_cell_volume 4224.927873
_symmetry_space_group_name_H-M "P M M N"
_symmetry_group_IT_number 59
_space_group.IT_coordinate_system_code '2'
_symmetry_cell_setting 'orthorhombic'
loop_
_space_group_symop_operation_xyz
x,y,z
1/2-x,1/2-y,z
1/2+x,-y,-z
-x,1/2+y,-z
-x,-y,-z
1/2+x,1/2+y,-z
1/2-x,y,z
x,1/2-y,z
loop_
_atom_site_type_symbol
_atom_site_label
_atom_site_fract_x
_atom_site_fract_y
_atom_site_fract_z
Si Si1 0.834358 0.573752 0.230375
Si Si2 0.478988 0.915563 0.885601
Si Si3 0.567903 0.030158 0.347805
Si Si4 0.930817 0.323473 0.928756
Si Si5 0.457652 0.174666 0.720560
Si Si6 0.445789 0.574888 0.396809
Si Si7 0.832364 0.075086 0.809141
Si Si8 0.113787 0.025530 0.013389
O O1 0.750000 0.586356 0.263564
O O2 0.861569 0.509883 0.302144
O O3 0.880752 0.636767 0.271232
O O4 0.840311 0.563025 0.087906
O O5 0.458186 0.915704 0.746820
O O6 0.565592 0.923657 0.909697
O O7 0.452152 0.847484 0.939698
O O8 0.439309 0.975387 0.948703
O O9 0.584823 0.068618 0.469304
O O10 0.500972 0.981842 0.364074
O O11 0.904789 0.250000 0.935859
O O12 0.862242 0.363068 0.880033
O O13 0.002176 0.333315 0.846917
O O14 0.443418 0.250000 0.687937
O O15 0.511505 0.143322 0.620914
O O16 0.377109 0.565596 0.311352
O O17 0.750000 0.089378 0.771292
O O18 0.834233 0.011677 0.893636
#
# Coordination Sequence:
#
# PCOD8239311 Si02
#       8
#     8   8   8   8   8   8   8   8
#     4  10  18  27  43  68  95 118 142 180 229 280
#     4   9  14  26  47  63  85 115 145 184 221 260
#     4   9  17  29  46  64  88 119 149 186 227 266
#     4   9  17  29  45  64  86 116 152 184 221 267
#     4   9  17  30  46  63  87 119 153 187 221 260
#     4   9  17  30  45  64  87 117 154 189 223 260
#     4  10  18  27  43  66  91 116 144 185 231 272
#     4   9  15  26  42  66  90 113 142 175 224 277
#
# _framework density 15.148187
#
# number of rings (size 3 to 8) (size 9 to 14) (size 15 to 20)
#    0.000    2.750    2.500    0.375    0.000    1.000 
#    0.000    0.625    0.000    0.000    0.000    0.000 
#    0.000    1.000    0.000    0.000    0.000    0.000 
#
# Total GULP energy -793357.703371 kJ/mol
# GULP energy per Si atom -12396.214115 kJ/mol
# Density = 1.511371 g / cm^3
# Si number density = 15.148187 Si / 1000 Ang^3
#
#
#
# Elastic Constant Matrix: (Units=GPa)
#
#
# Indices 1 2 3 4 5 6 
#
# 1 85.5460 25.0543 33.5296 0.0000 0.0000 0.0000
# 2 25.0543 69.7571 44.4369 0.0000 0.0000 0.0000
# 3 33.5296 44.4369 104.7692 0.0000 0.0000 0.0000
# 4 0.0000 0.0000 0.0000 15.6862 0.0000 0.0000
# 5 0.0000 0.0000 0.0000 0.0000 13.2030 0.0000
# 6 0.0000 0.0000 0.0000 0.0000 0.0000 10.9270
#
#
#
# Elastic Compliance Matrix: (Units=1/GPa)
#
#
# Indices 1 2 3 4 5 6 
#
# 1 0.013791 -0.002935 -0.003169 0.000000 0.000000 0.000000
# 2 -0.002935 0.020267 -0.007657 0.000000 0.000000 0.000000
# 3 -0.003169 -0.007657 0.013807 0.000000 0.000000 0.000000
# 4 0.000000 0.000000 0.000000 0.063750 0.000000 0.000000
# 5 0.000000 0.000000 0.000000 0.000000 0.075741 0.000000
# 6 0.000000 0.000000 0.000000 0.000000 0.000000 0.091517
#
#
# Mechanical properties :
#
#
# Convention : Reuss Voigt Hill
#
# Bulk Modulus (GPa) = 49.15487 51.79044 50.47266
# Shear Modulus (GPa) = 15.96552 18.43332 17.19942
#
# Velocity S-wave (km/s) = 3.24999 3.49215 3.37324
# Velocity P-wave (km/s) = 6.82664 7.10799 6.96874
#
# Compressibility (1/GPa) = 0.02034386
#
# Stress axis : x y z
#
# Youngs Moduli (GPa) = 72.51028 49.34101 72.42929
#
# Poissons Ratio (x) = 0.14480 0.22952
# Poissons Ratio (y) = 0.21279 0.55459
# Poissons Ratio (z) = 0.22978 0.37780
#
# Static dielectric constant tensor:
#      x y z
#    x 2.734680 0.000000 0.000000 
#    y 0.000000 2.797000 0.000000 
#    z 0.000000 0.000000 3.026780 
# 
# 
# High freq. dielectric constant tensor:
#      x y z
#    x 1.569650 0.000000 0.000000 
#    y 0.000000 1.558490 0.000000 
#    z 0.000000 0.000000 1.572200 
# 
# From -- ./inp_files/18021.got.cif
#   From: 2010.03.12/outbox.cif.g09.slc.cpg/sg59_10_cif.got.tgz:18021.got - 2010.04.16 16:29:54.
