data_PCOD8239765
_publ_section_title
;
Structure prediction by ZEFSAII (Michael W. Deem and Ramdas Pophale) SiO2 
 PCOD8239765
Probable space group: P M M N
;
_chemical_formula_sum "Si O2"
_cell_formula_units_Z 56
_cell_length_a 21.742734
_cell_length_b 9.202014
_cell_length_c 14.967761
_cell_angle_alpha 90.000000
_cell_angle_beta 90.000000
_cell_angle_gamma 90.000000
_cell_volume 2994.703859
_symmetry_space_group_name_H-M "P M M N"
_symmetry_group_IT_number 59
_space_group.IT_coordinate_system_code '2'
_symmetry_cell_setting 'orthorhombic'
loop_
_space_group_symop_operation_xyz
x,y,z
1/2-x,1/2-y,z
1/2+x,-y,-z
-x,1/2+y,-z
-x,-y,-z
1/2+x,1/2+y,-z
1/2-x,y,z
x,1/2-y,z
loop_
_atom_site_type_symbol
_atom_site_label
_atom_site_fract_x
_atom_site_fract_y
_atom_site_fract_z
Si Si1 0.680148 0.921289 0.968715
Si Si2 0.250000 0.090166 0.745250
Si Si3 0.426070 0.580090 0.341651
Si Si4 0.750000 0.421491 0.429096
Si Si5 0.680275 0.417877 0.793002
Si Si6 0.046754 0.577163 0.707918
Si Si7 0.382574 0.922578 0.531883
Si Si8 0.875221 0.584791 0.151248
O O1 0.750000 0.974571 0.988458
O O2 0.679384 0.750000 0.955636
O O3 0.655390 0.994213 0.878268
O O4 0.633656 0.965786 0.048547
O O5 0.250000 0.250000 0.698982
O O6 0.191534 0.072608 0.806919
O O7 0.250000 0.962058 0.674400
O O8 0.443417 0.750000 0.337270
O O9 0.362091 0.547801 0.291970
O O10 0.478507 0.486044 0.295328
O O11 0.418916 0.525879 0.444029
O O12 0.750000 0.250000 0.436461
O O13 0.687506 0.483995 0.473510
O O14 0.750000 0.463799 0.767710
O O15 0.676948 0.250000 0.819092
O O16 0.044094 0.750000 0.710121
O O17 0.084173 0.518510 0.621219
O O18 0.077765 0.521128 0.798747
O O19 0.380351 0.750000 0.535226
O O20 0.900213 0.750000 0.157049
#
# Coordination Sequence:
#
# PCOD8239765 Si02
#       8
#     8   4   8   4   8   8   8   8
#     4   9  17  32  55  81 109 140 173 212 265 324
#     4  10  18  30  50  77 110 142 174 213 258 313
#     4  10  21  38  57  76 103 143 184 219 263 316
#     4  10  18  32  52  79 112 140 172 217 268 313
#     4   9  19  35  56  82 107 132 172 225 271 313
#     4  11  22  36  53  79 110 143 182 222 262 309
#     4   9  19  33  54  80 107 141 179 217 261 313
#     4  10  19  33  54  80 110 144 178 211 258 321
#
# _framework density 18.699677999999999
#
# number of rings (size 3 to 8) (size 9 to 14) (size 15 to 20)
#    0.000    2.286    2.143    0.857    1.000    1.143 
#    0.000    2.143    0.000    0.000    0.000    0.000 
#    0.000    0.000    0.000    0.000    0.000    0.000 
#
# Total GULP energy -694318.784726 kJ/mol
# GULP energy per Si atom -12398.549727 kJ/mol
# Density = 1.865712 g / cm^3
# Si number density = 18.699678 Si / 1000 Ang^3
#
#
#
# Elastic Constant Matrix: (Units=GPa)
#
#
# Indices 1 2 3 4 5 6 
#
# 1 87.7667 29.5448 28.2859 0.0000 0.0000 0.0000
# 2 29.5448 39.7461 29.5643 0.0000 0.0000 0.0000
# 3 28.2859 29.5643 96.4330 0.0000 0.0000 0.0000
# 4 0.0000 0.0000 0.0000 26.5055 0.0000 0.0000
# 5 0.0000 0.0000 0.0000 0.0000 20.7599 0.0000
# 6 0.0000 0.0000 0.0000 0.0000 0.0000 24.9702
#
#
#
# Elastic Compliance Matrix: (Units=1/GPa)
#
#
# Indices 1 2 3 4 5 6 
#
# 1 0.015321 -0.010423 -0.001299 0.000000 0.000000 0.000000
# 2 -0.010423 0.039683 -0.009109 0.000000 0.000000 0.000000
# 3 -0.001299 -0.009109 0.013543 0.000000 0.000000 0.000000
# 4 0.000000 0.000000 0.000000 0.037728 0.000000 0.000000
# 5 0.000000 0.000000 0.000000 0.000000 0.048170 0.000000
# 6 0.000000 0.000000 0.000000 0.000000 0.000000 0.040048
#
#
# Mechanical properties :
#
#
# Convention : Reuss Voigt Hill
#
# Bulk Modulus (GPa) = 37.19271 44.30397 40.74834
# Shear Modulus (GPa) = 20.39864 23.55052 21.97458
#
# Velocity S-wave (km/s) = 3.30639 3.55266 3.43174
# Velocity P-wave (km/s) = 5.87443 6.36964 6.12704
#
# Compressibility (1/GPa) = 0.02688699
#
# Stress axis : x y z
#
# Youngs Moduli (GPa) = 65.27021 25.20001 73.83731
#
# Poissons Ratio (x) = 0.26265 0.09588
# Poissons Ratio (y) = 0.68029 0.67255
# Poissons Ratio (z) = 0.08476 0.22954
#
# Static dielectric constant tensor:
#      x y z
#    x 3.468420 0.000000 0.000000 
#    y 0.000000 3.268620 0.000000 
#    z 0.000000 0.000000 3.530400 
# 
# 
# High freq. dielectric constant tensor:
#      x y z
#    x 1.721780 0.000000 0.000000 
#    y 0.000000 1.703750 0.000000 
#    z 0.000000 0.000000 1.726320 
# 
# From -- ./inp_files/24333.got.cif
#   From: 2010.03.12/outbox.cif.g09.slc.cpg/sg59_13_cif.got.tgz:24333.got - 2010.04.16 16:29:54.
