data_PCOD8239506
_publ_section_title
;
Structure prediction by ZEFSAII (Michael W. Deem and Ramdas Pophale) SiO2 
 PCOD8239506
Probable space group: P M M N
;
_chemical_formula_sum "Si O2"
_cell_formula_units_Z 64
_cell_length_a 9.434803
_cell_length_b 19.652788
_cell_length_c 19.123674
_cell_angle_alpha 90.000000
_cell_angle_beta 90.000000
_cell_angle_gamma 90.000000
_cell_volume 3545.915136
_symmetry_space_group_name_H-M "P M M N"
_symmetry_group_IT_number 59
_space_group.IT_coordinate_system_code '2'
_symmetry_cell_setting 'orthorhombic'
loop_
_space_group_symop_operation_xyz
x,y,z
1/2-x,1/2-y,z
1/2+x,-y,-z
-x,1/2+y,-z
-x,-y,-z
1/2+x,1/2+y,-z
1/2-x,y,z
x,1/2-y,z
loop_
_atom_site_type_symbol
_atom_site_label
_atom_site_fract_x
_atom_site_fract_y
_atom_site_fract_z
Si Si1 0.083522 0.823434 0.013508
Si Si2 0.906813 0.669501 0.565091
Si Si3 0.417626 0.091132 0.719601
Si Si4 0.918604 0.826332 0.412072
Si Si5 0.917214 0.457791 0.057944
Si Si6 0.590464 0.170149 0.832390
Si Si7 0.082737 0.672283 0.697797
Si Si8 0.417248 0.546741 0.785904
O O1 0.250000 0.814503 0.022069
O O2 0.017894 0.750000 0.991365
O O3 0.029216 0.846213 0.090175
O O4 0.046217 0.878630 0.955253
O O5 0.750000 0.638357 0.579124
O O6 0.894144 0.750000 0.563563
O O7 0.967022 0.646955 0.488858
O O8 0.013359 0.646431 0.625670
O O9 0.250000 0.099506 0.724549
O O10 0.474744 0.119483 0.645254
O O11 0.483047 0.135783 0.780130
O O12 0.462461 0.012325 0.731287
O O13 0.750000 0.822809 0.411363
O O14 0.978362 0.750000 0.396234
O O15 0.750000 0.473095 0.050126
O O16 0.975796 0.471234 0.136422
O O17 0.000000 0.500000 0.000000
O O18 0.750000 0.141183 0.822118
O O19 0.590078 0.250000 0.818541
O O20 0.250000 0.667279 0.687114
O O21 0.037935 0.750000 0.717202
O O22 0.028893 0.620282 0.757991
O O23 0.250000 0.550983 0.793388
#
# Coordination Sequence:
#
# PCOD8239506 Si02
#       8
#     8   8   8   8   8   8   8   8
#     4   8  15  28  46  66  86 113 151 189 223 265
#     4   8  14  27  47  68  88 111 145 188 226 263
#     4  10  18  29  45  64  91 124 155 186 220 265
#     4   8  14  25  43  66  88 114 150 184 214 258
#     4  10  19  32  50  69  91 120 153 188 227 272
#     4   9  17  29  44  64  91 119 148 186 228 265
#     4   9  17  31  50  69  91 120 152 187 231 280
#     4   9  19  32  46  69  96 119 148 190 234 269
#
# _framework density 18.048936999999999
#
# number of rings (size 3 to 8) (size 9 to 14) (size 15 to 20)
#    0.000    3.125    0.000    2.625    0.000    1.250 
#    0.000    5.000    0.000    3.375    0.000    0.000 
#    0.000    0.000    0.000    0.000    0.000    0.000 
#
# Total GULP energy -793002.421852 kJ/mol
# GULP energy per Si atom -12390.662841 kJ/mol
# Density = 1.800786 g / cm^3
# Si number density = 18.048937 Si / 1000 Ang^3
#
#
#
# Elastic Constant Matrix: (Units=GPa)
#
#
# Indices 1 2 3 4 5 6 
#
# 1 23.3310 20.9647 24.5659 0.0000 0.0000 0.0000
# 2 20.9647 83.5475 70.6451 0.0000 0.0000 0.0000
# 3 24.5659 70.6451 132.5163 0.0000 0.0000 0.0000
# 4 0.0000 0.0000 0.0000 28.0659 0.0000 0.0000
# 5 0.0000 0.0000 0.0000 0.0000 23.7500 0.0000
# 6 0.0000 0.0000 0.0000 0.0000 0.0000 13.8515
#
#
#
# Elastic Compliance Matrix: (Units=1/GPa)
#
#
# Indices 1 2 3 4 5 6 
#
# 1 0.057380 -0.009839 -0.005392 0.000000 0.000000 0.000000
# 2 -0.009839 0.023480 -0.010693 0.000000 0.000000 0.000000
# 3 -0.005392 -0.010693 0.014246 0.000000 0.000000 0.000000
# 4 0.000000 0.000000 0.000000 0.035630 0.000000 0.000000
# 5 0.000000 0.000000 0.000000 0.000000 0.042105 0.000000
# 6 0.000000 0.000000 0.000000 0.000000 0.000000 0.072194
#
#
# Mechanical properties :
#
#
# Convention : Reuss Voigt Hill
#
# Bulk Modulus (GPa) = 23.11730 52.41624 37.76677
# Shear Modulus (GPa) = 16.06143 21.34808 18.70476
#
# Velocity S-wave (km/s) = 2.98633 3.44290 3.22271
# Velocity P-wave (km/s) = 4.97260 6.70142 5.90067
#
# Compressibility (1/GPa) = 0.04325765
#
# Stress axis : x y z
#
# Youngs Moduli (GPa) = 17.42772 42.58895 70.19280
#
# Poissons Ratio (x) = 0.41905 0.37846
# Poissons Ratio (y) = 0.17148 0.75060
# Poissons Ratio (z) = 0.09396 0.45542
#
# Static dielectric constant tensor:
#      x y z
#    x 3.034500 0.000000 0.000000 
#    y 0.000000 2.949430 0.000000 
#    z 0.000000 0.000000 3.695940 
# 
# 
# High freq. dielectric constant tensor:
#      x y z
#    x 1.652680 0.000000 0.000000 
#    y 0.000000 1.691020 0.000000 
#    z 0.000000 0.000000 1.704740 
# 
# From -- ./inp_files/27188.got.cif
#   From: 2010.03.12/outbox.cif.g09.slc.cpg/sg59_14_cif.got.tgz:27188.got - 2010.04.16 16:29:54.
