data_PCOD8239620
_publ_section_title
;
Structure prediction by ZEFSAII (Michael W. Deem and Ramdas Pophale) SiO2 
 PCOD8239620
Probable space group: P M M N
;
_chemical_formula_sum "Si O2"
_cell_formula_units_Z 40
_cell_length_a 24.248071
_cell_length_b 9.711904
_cell_length_c 9.762117
_cell_angle_alpha 90.000000
_cell_angle_beta 90.000000
_cell_angle_gamma 90.000000
_cell_volume 2298.929135
_symmetry_space_group_name_H-M "P M M N"
_symmetry_group_IT_number 59
_space_group.IT_coordinate_system_code '2'
_symmetry_cell_setting 'orthorhombic'
loop_
_space_group_symop_operation_xyz
x,y,z
1/2-x,1/2-y,z
1/2+x,-y,-z
-x,1/2+y,-z
-x,-y,-z
1/2+x,1/2+y,-z
1/2-x,y,z
x,1/2-y,z
loop_
_atom_site_type_symbol
_atom_site_label
_atom_site_fract_x
_atom_site_fract_y
_atom_site_fract_z
Si Si1 0.570295 0.750000 0.637533
Si Si2 0.402217 0.534766 0.792455
Si Si3 0.992024 0.250000 0.125463
Si Si4 0.187971 0.750000 0.797715
Si Si5 0.689732 0.250000 0.526293
Si Si6 0.516148 0.250000 0.592262
Si Si7 0.557716 0.750000 0.144087
Si Si8 0.896662 0.030884 0.533803
O O1 0.550369 0.750000 0.794235
O O2 0.514123 0.750000 0.552382
O O3 0.607671 0.617888 0.603017
O O4 0.456696 0.614908 0.840542
O O5 0.346805 0.614289 0.842061
O O6 0.403304 0.384978 0.864032
O O7 0.403823 0.520480 0.628937
O O8 0.009282 0.250000 0.967283
O O9 0.250000 0.750000 0.863075
O O10 0.193457 0.750000 0.636085
O O11 0.750000 0.250000 0.594160
O O12 0.658618 0.387613 0.574254
O O13 0.471760 0.250000 0.710272
O O14 0.552051 0.388201 0.599532
#
# Coordination Sequence:
#
# PCOD8239620 Si02
#       8
#     4   8   4   4   4   4   4   8
#     4  12  18  30  49  71  99 127 165 195 227 286
#     4  10  18  32  48  70 101 128 162 198 238 284
#     4  11  22  32  45  69 105 141 157 187 241 286
#     4   8  16  31  52  71  93 125 158 198 250 292
#     4   8  16  31  48  71 101 119 149 204 258 288
#     4  11  18  30  49  67  99 131 165 184 230 286
#     4  12  22  30  45  75 103 135 156 200 240 276
#     4  10  18  29  50  74  90 132 167 195 234 286
#
# _framework density 17.399405000000002
#
# number of rings (size 3 to 8) (size 9 to 14) (size 15 to 20)
#    0.000    1.800    4.000    3.600    0.000    0.000 
#    0.000    1.000    0.000    4.800    0.000   26.600 
#    0.000    0.000    0.000    0.000    0.000    0.000 
#
# Total GULP energy -495929.262487 kJ/mol
# GULP energy per Si atom -12398.231562 kJ/mol
# Density = 1.735980 g / cm^3
# Si number density = 17.399405 Si / 1000 Ang^3
#
#
#
# Elastic Constant Matrix: (Units=GPa)
#
#
# Indices 1 2 3 4 5 6 
#
# 1 110.3580 65.1468 12.6814 0.0000 0.0000 0.0000
# 2 65.1468 167.4851 14.7113 0.0000 0.0000 0.0000
# 3 12.6814 14.7113 24.5865 0.0000 0.0000 0.0000
# 4 0.0000 0.0000 0.0000 4.4345 0.0000 0.0000
# 5 0.0000 0.0000 0.0000 0.0000 12.6506 0.0000
# 6 0.0000 0.0000 0.0000 0.0000 0.0000 4.9500
#
#
#
# Elastic Compliance Matrix: (Units=1/GPa)
#
#
# Indices 1 2 3 4 5 6 
#
# 1 0.012057 -0.004373 -0.003602 0.000000 0.000000 0.000000
# 2 -0.004373 0.007888 -0.002464 0.000000 0.000000 0.000000
# 3 -0.003602 -0.002464 0.044005 0.000000 0.000000 0.000000
# 4 0.000000 0.000000 0.000000 0.225505 0.000000 0.000000
# 5 0.000000 0.000000 0.000000 0.000000 0.079048 0.000000
# 6 0.000000 0.000000 0.000000 0.000000 0.000000 0.202019
#
#
# Mechanical properties :
#
#
# Convention : Reuss Voigt Hill
#
# Bulk Modulus (GPa) = 23.21741 54.16763 38.69252
# Shear Modulus (GPa) = 8.25410 18.39969 13.32690
#
# Velocity S-wave (km/s) = 2.18041 3.25543 2.77056
# Velocity P-wave (km/s) = 4.43979 6.73275 5.70270
#
# Compressibility (1/GPa) = 0.04307113
#
# Stress axis : x y z
#
# Youngs Moduli (GPa) = 82.93879 126.77052 22.72462
#
# Poissons Ratio (x) = 0.55443 0.08186
# Poissons Ratio (y) = 0.36273 0.05600
# Poissons Ratio (z) = 0.29875 0.31238
#
# Static dielectric constant tensor:
#      x y z
#    x 3.331080 0.000000 0.000000 
#    y 0.000000 3.528770 0.000000 
#    z 0.000000 0.000000 2.894740 
# 
# 
# High freq. dielectric constant tensor:
#      x y z
#    x 1.648250 0.000000 0.000000 
#    y 0.000000 1.687010 0.000000 
#    z 0.000000 0.000000 1.637520 
# 
# From -- ./inp_files/12488.got.cif
#   From: 2010.03.12/outbox.cif.g09.slc.cpg/sg59_7_cif.got.tgz:12488.got - 2010.04.16 16:29:54.
