data_PCOD8239388
_publ_section_title
;
Structure prediction by ZEFSAII (Michael W. Deem and Ramdas Pophale) SiO2 
 PCOD8239388
Probable space group: P M M N
;
_chemical_formula_sum "Si O2"
_cell_formula_units_Z 56
_cell_length_a 8.660635
_cell_length_b 21.962864
_cell_length_c 17.781889
_cell_angle_alpha 90.000000
_cell_angle_beta 90.000000
_cell_angle_gamma 90.000000
_cell_volume 3382.334870
_symmetry_space_group_name_H-M "P M M N"
_symmetry_group_IT_number 59
_space_group.IT_coordinate_system_code '2'
_symmetry_cell_setting 'orthorhombic'
loop_
_space_group_symop_operation_xyz
x,y,z
1/2-x,1/2-y,z
1/2+x,-y,-z
-x,1/2+y,-z
-x,-y,-z
1/2+x,1/2+y,-z
1/2-x,y,z
x,1/2-y,z
loop_
_atom_site_type_symbol
_atom_site_label
_atom_site_fract_x
_atom_site_fract_y
_atom_site_fract_z
Si Si1 0.430005 0.033300 0.236998
Si Si2 0.569883 0.047840 0.089419
Si Si3 0.072073 0.579362 0.450403
Si Si4 0.571210 0.180860 0.664010
Si Si5 0.573300 0.081242 0.932571
Si Si6 0.927850 0.039386 0.389301
Si Si7 0.571068 0.901774 0.214226
O O1 0.250000 0.040097 0.223350
O O2 0.519959 0.071989 0.171930
O O3 0.473821 0.061749 0.317780
O O4 0.476396 0.962019 0.236646
O O5 0.750000 0.028554 0.089385
O O6 0.459535 0.990246 0.076543
O O7 0.539725 0.096410 0.021280
O O8 0.250000 0.559072 0.439408
O O9 0.039217 0.644875 0.413596
O O10 0.032360 0.582347 0.539247
O O11 0.965211 0.530417 0.409319
O O12 0.750000 0.176518 0.686769
O O13 0.518594 0.250000 0.650403
O O14 0.472275 0.153732 0.732026
O O15 0.750000 0.095184 0.912475
O O16 0.468726 0.117803 0.872351
O O17 0.750000 0.043410 0.366730
O O18 0.750000 0.917005 0.221475
#
# Coordination Sequence:
#
# PCOD8239388 Si02
#       7
#     8   8   8   8   8   8   8
#     4  11  19  27  41  61  88 119 149 181 220 266
#     4   9  16  25  38  58  83 112 145 177 211 251
#     4   9  18  31  46  64  86 114 147 182 225 273
#     4  10  20  34  50  66  87 116 150 188 227 268
#     4   9  16  26  40  57  81 113 145 177 212 254
#     4  10  18  28  44  65  88 115 147 184 223 269
#     4  11  20  29  43  62  85 115 150 185 221 261
#
# _framework density 16.556609999999999
#
# number of rings (size 3 to 8) (size 9 to 14) (size 15 to 20)
#    0.000    2.143    1.429    5.571    0.000    2.571 
#    0.000    0.000    0.000    0.000    0.000    0.000 
#    0.000    1.143    0.000    8.857    0.000    2.571 
#
# Total GULP energy -694027.557517 kJ/mol
# GULP energy per Si atom -12393.349241 kJ/mol
# Density = 1.651893 g / cm^3
# Si number density = 16.556610 Si / 1000 Ang^3
#
#
#
# Elastic Constant Matrix: (Units=GPa)
#
#
# Indices 1 2 3 4 5 6 
#
# 1 66.0952 14.4769 39.2209 0.0000 0.0000 0.0000
# 2 14.4769 46.8410 37.5004 0.0000 0.0000 0.0000
# 3 39.2209 37.5004 151.9976 0.0000 0.0000 0.0000
# 4 0.0000 0.0000 0.0000 14.7076 0.0000 0.0000
# 5 0.0000 0.0000 0.0000 0.0000 29.1485 0.0000
# 6 0.0000 0.0000 0.0000 0.0000 0.0000 11.8012
#
#
#
# Elastic Compliance Matrix: (Units=1/GPa)
#
#
# Indices 1 2 3 4 5 6 
#
# 1 0.018063 -0.002307 -0.004092 0.000000 0.000000 0.000000
# 2 -0.002307 0.026898 -0.006041 0.000000 0.000000 0.000000
# 3 -0.004092 -0.006041 0.009125 0.000000 0.000000 0.000000
# 4 0.000000 0.000000 0.000000 0.067992 0.000000 0.000000
# 5 0.000000 0.000000 0.000000 0.000000 0.034307 0.000000
# 6 0.000000 0.000000 0.000000 0.000000 0.000000 0.084737
#
#
# Mechanical properties :
#
#
# Convention : Reuss Voigt Hill
#
# Bulk Modulus (GPa) = 34.23802 49.70336 41.97069
# Shear Modulus (GPa) = 18.13317 22.71384 20.42351
#
# Velocity S-wave (km/s) = 3.31301 3.70792 3.51601
# Velocity P-wave (km/s) = 5.94634 6.95823 6.47209
#
# Compressibility (1/GPa) = 0.02920729
#
# Stress axis : x y z
#
# Youngs Moduli (GPa) = 55.36174 37.17733 109.58537
#
# Poissons Ratio (x) = 0.08576 0.44840
# Poissons Ratio (y) = 0.12771 0.66201
# Poissons Ratio (z) = 0.22653 0.22459
#
# Static dielectric constant tensor:
#      x y z
#    x 3.152010 0.000000 0.000000 
#    y 0.000000 2.523310 0.000000 
#    z 0.000000 0.000000 3.894620 
# 
# 
# High freq. dielectric constant tensor:
#      x y z
#    x 1.649490 0.000000 0.000000 
#    y 0.000000 1.546240 0.000000 
#    z 0.000000 0.000000 1.665600 
# 
# From -- ./inp_files/26060.got.cif
#   From: 2010.03.12/outbox.cif.g09.slc.cpg/sg59_14_cif.got.tgz:26060.got - 2010.04.16 16:29:54.
