data_PCOD8239594
_publ_section_title
;
Structure prediction by ZEFSAII (Michael W. Deem and Ramdas Pophale) SiO2 
 PCOD8239594
Probable space group: P M M N
;
_chemical_formula_sum "Si O2"
_cell_formula_units_Z 56
_cell_length_a 22.553812
_cell_length_b 9.260311
_cell_length_c 14.719955
_cell_angle_alpha 90.000000
_cell_angle_beta 90.000000
_cell_angle_gamma 90.000000
_cell_volume 3074.340814
_symmetry_space_group_name_H-M "P M M N"
_symmetry_group_IT_number 59
_space_group.IT_coordinate_system_code '2'
_symmetry_cell_setting 'orthorhombic'
loop_
_space_group_symop_operation_xyz
x,y,z
1/2-x,1/2-y,z
1/2+x,-y,-z
-x,1/2+y,-z
-x,-y,-z
1/2+x,1/2+y,-z
1/2-x,y,z
x,1/2-y,z
loop_
_atom_site_type_symbol
_atom_site_label
_atom_site_fract_x
_atom_site_fract_y
_atom_site_fract_z
Si Si1 0.099109 0.414986 0.704616
Si Si2 0.513862 0.415335 0.589686
Si Si3 0.355228 0.580649 0.379519
Si Si4 0.458780 0.082855 0.885205
Si Si5 0.818238 0.415155 0.426244
Si Si6 0.817346 0.079981 0.814797
Si Si7 0.576229 0.919818 0.911923
O O1 0.118077 0.250000 0.689902
O O2 0.092013 0.453696 0.810919
O O3 0.148150 0.509983 0.656192
O O4 0.034744 0.448068 0.664433
O O5 0.500000 0.500000 0.500000
O O6 0.516264 0.250000 0.560285
O O7 0.576306 0.462959 0.632286
O O8 0.343745 0.750000 0.385452
O O9 0.331326 0.513062 0.474679
O O10 0.321948 0.523292 0.289698
O O11 0.478416 0.250000 0.877372
O O12 0.517609 0.988315 0.866449
O O13 0.428098 0.048631 0.980832
O O14 0.750000 0.431198 0.402880
O O15 0.839399 0.250000 0.427849
O O16 0.750000 0.050440 0.848301
O O17 0.832816 0.250000 0.820359
O O18 0.863418 0.993339 0.877091
O O19 0.578163 0.750000 0.889993
#
# Coordination Sequence:
#
# PCOD8239594 Si02
#       7
#     8   8   8   8   8   8   8
#     4  10  20  34  53  77 104 136 172 211 256 308
#     4  10  18  29  48  74 102 131 164 207 254 299
#     4   9  17  32  53  75 101 137 178 214 253 308
#     4   9  19  37  59  80 105 138 175 212 261 326
#     4  10  20  34  52  73 100 137 179 219 255 297
#     4  10  20  35  56  79 106 145 186 219 258 317
#     4  10  20  35  57  84 109 134 168 220 276 316
#
# _framework density 18.215285999999999
#
# number of rings (size 3 to 8) (size 9 to 14) (size 15 to 20)
#    0.000    2.286    1.429    1.714    0.000    5.714 
#    0.000    3.571    0.000    6.000    0.000    0.000 
#    0.000    0.000    0.000    0.000    0.000    0.000 
#
# Total GULP energy -694261.229239 kJ/mol
# GULP energy per Si atom -12397.521951 kJ/mol
# Density = 1.817383 g / cm^3
# Si number density = 18.215286 Si / 1000 Ang^3
#
#
#
# Elastic Constant Matrix: (Units=GPa)
#
#
# Indices 1 2 3 4 5 6 
#
# 1 93.9431 47.8522 59.2907 0.0000 0.0000 0.0000
# 2 47.8522 63.1647 46.5648 0.0000 0.0000 0.0000
# 3 59.2907 46.5648 105.8454 0.0000 0.0000 0.0000
# 4 0.0000 0.0000 0.0000 28.2130 0.0000 0.0000
# 5 0.0000 0.0000 0.0000 0.0000 28.8519 0.0000
# 6 0.0000 0.0000 0.0000 0.0000 0.0000 30.4065
#
#
#
# Elastic Compliance Matrix: (Units=1/GPa)
#
#
# Indices 1 2 3 4 5 6 
#
# 1 0.020150 -0.010277 -0.006766 0.000000 0.000000 0.000000
# 2 -0.010277 0.028672 -0.006857 0.000000 0.000000 0.000000
# 3 -0.006766 -0.006857 0.016254 0.000000 0.000000 0.000000
# 4 0.000000 0.000000 0.000000 0.035445 0.000000 0.000000
# 5 0.000000 0.000000 0.000000 0.000000 0.034660 0.000000
# 6 0.000000 0.000000 0.000000 0.000000 0.000000 0.032888
#
#
# Mechanical properties :
#
#
# Convention : Reuss Voigt Hill
#
# Bulk Modulus (GPa) = 57.88270 63.37429 60.62849
# Shear Modulus (GPa) = 22.56032 24.77732 23.66882
#
# Velocity S-wave (km/s) = 3.52310 3.69216 3.60862
# Velocity P-wave (km/s) = 6.95670 7.28309 7.12176
#
# Compressibility (1/GPa) = 0.01727632
#
# Stress axis : x y z
#
# Youngs Moduli (GPa) = 49.62793 34.87670 61.52194
#
# Poissons Ratio (x) = 0.35844 0.41625
# Poissons Ratio (y) = 0.51004 0.42185
# Poissons Ratio (z) = 0.33578 0.23915
#
# Static dielectric constant tensor:
#      x y z
#    x 3.338760 0.000000 0.000000 
#    y 0.000000 3.194940 0.000000 
#    z 0.000000 0.000000 3.349310 
# 
# 
# High freq. dielectric constant tensor:
#      x y z
#    x 1.704300 0.000000 0.000000 
#    y 0.000000 1.683480 0.000000 
#    z 0.000000 0.000000 1.710830 
# 
# From -- ./inp_files/21019.got.cif
#   From: 2010.03.12/outbox.cif.g09.slc.cpg/sg59_11_cif.got.tgz:21019.got - 2010.04.16 16:29:54.
