data_PCOD8239457
_publ_section_title
;
Structure prediction by ZEFSAII (Michael W. Deem and Ramdas Pophale) SiO2 
 PCOD8239457
Probable space group: P M M N
;
_chemical_formula_sum "Si O2"
_cell_formula_units_Z 56
_cell_length_a 9.417654
_cell_length_b 14.272916
_cell_length_c 23.135204
_cell_angle_alpha 90.000000
_cell_angle_beta 90.000000
_cell_angle_gamma 90.000000
_cell_volume 3109.773611
_symmetry_space_group_name_H-M "P M M N"
_symmetry_group_IT_number 59
_space_group.IT_coordinate_system_code '2'
_symmetry_cell_setting 'orthorhombic'
loop_
_space_group_symop_operation_xyz
x,y,z
1/2-x,1/2-y,z
1/2+x,-y,-z
-x,1/2+y,-z
-x,-y,-z
1/2+x,1/2+y,-z
1/2-x,y,z
x,1/2-y,z
loop_
_atom_site_type_symbol
_atom_site_label
_atom_site_fract_x
_atom_site_fract_y
_atom_site_fract_z
Si Si1 0.412139 0.359169 0.526322
Si Si2 0.084506 0.357988 0.098332
Si Si3 0.915458 0.145384 0.413456
Si Si4 0.916633 0.541224 0.359874
Si Si5 0.419083 0.143612 0.752745
Si Si6 0.081501 0.475484 0.862472
Si Si7 0.081577 0.353084 0.968190
O O1 0.250000 0.389788 0.514559
O O2 0.423229 0.250000 0.539523
O O3 0.503266 0.387273 0.470726
O O4 0.477460 0.411271 0.582074
O O5 0.250000 0.380602 0.106097
O O6 0.053339 0.250000 0.113853
O O7 0.993546 0.423241 0.141319
O O8 0.033469 0.380352 0.032815
O O9 0.750000 0.143265 0.428941
O O10 0.962482 0.250000 0.393416
O O11 0.949862 0.070691 0.362499
O O12 0.750000 0.560561 0.357925
O O13 0.983543 0.588470 0.302746
O O14 0.250000 0.145569 0.750866
O O15 0.478138 0.250000 0.753839
O O16 0.470340 0.088412 0.809410
O O17 0.250000 0.489954 0.861625
O O18 0.025196 0.426493 0.921164
O O19 0.250000 0.348827 0.965784
O O20 0.021440 0.250000 0.952552
#
# Coordination Sequence:
#
# PCOD8239457 Si02
#       7
#     8   8   8   8   8   8   8
#     4   9  16  26  43  66  88 111 142 180 218 257
#     4   9  18  32  48  65  90 126 159 184 220 275
#     4   9  17  28  42  62  88 115 143 178 220 264
#     4   9  16  27  43  63  88 118 149 178 213 260
#     4   9  17  29  46  69  94 118 147 184 225 270
#     4  10  18  28  47  73  95 116 148 193 235 264
#     4   8  14  26  45  69  95 122 152 185 225 275
#
# _framework density 18.007742
#
# number of rings (size 3 to 8) (size 9 to 14) (size 15 to 20)
#    0.000    3.000    0.000    2.571    0.000    3.714 
#    0.000    0.714    0.000    6.857    0.000    2.000 
#    0.000    0.000    0.000    0.000    0.000    0.000 
#
# Total GULP energy -694110.795664 kJ/mol
# GULP energy per Si atom -12394.835637 kJ/mol
# Density = 1.796676 g / cm^3
# Si number density = 18.007742 Si / 1000 Ang^3
#
#
#
# Elastic Constant Matrix: (Units=GPa)
#
#
# Indices 1 2 3 4 5 6 
#
# 1 25.1570 31.1943 24.3287 0.0000 0.0000 0.0000
# 2 31.1943 137.2667 81.5230 0.0000 0.0000 0.0000
# 3 24.3287 81.5230 96.6951 0.0000 0.0000 0.0000
# 4 0.0000 0.0000 0.0000 32.5562 0.0000 0.0000
# 5 0.0000 0.0000 0.0000 0.0000 14.6759 0.0000
# 6 0.0000 0.0000 0.0000 0.0000 0.0000 22.1099
#
#
#
# Elastic Compliance Matrix: (Units=1/GPa)
#
#
# Indices 1 2 3 4 5 6 
#
# 1 0.057569 -0.008974 -0.006919 0.000000 0.000000 0.000000
# 2 -0.008974 0.015990 -0.011223 0.000000 0.000000 0.000000
# 3 -0.006919 -0.011223 0.021545 0.000000 0.000000 0.000000
# 4 0.000000 0.000000 0.000000 0.030716 0.000000 0.000000
# 5 0.000000 0.000000 0.000000 0.000000 0.068139 0.000000
# 6 0.000000 0.000000 0.000000 0.000000 0.000000 0.045229
#
#
# Mechanical properties :
#
#
# Convention : Reuss Voigt Hill
#
# Bulk Modulus (GPa) = 24.46659 59.24564 41.85611
# Shear Modulus (GPa) = 16.28443 22.00658 19.14550
#
# Velocity S-wave (km/s) = 3.01042 3.49959 3.26418
# Velocity P-wave (km/s) = 5.06949 7.02147 6.12376
#
# Compressibility (1/GPa) = 0.04087206
#
# Stress axis : x y z
#
# Youngs Moduli (GPa) = 17.37060 62.53988 46.41507
#
# Poissons Ratio (x) = 0.56120 0.32114
# Poissons Ratio (y) = 0.15588 0.52092
# Poissons Ratio (z) = 0.12018 0.70189
#
# Static dielectric constant tensor:
#      x y z
#    x 2.844300 0.000000 0.000000 
#    y 0.000000 3.565980 0.000000 
#    z 0.000000 0.000000 3.354340 
# 
# 
# High freq. dielectric constant tensor:
#      x y z
#    x 1.642750 0.000000 0.000000 
#    y 0.000000 1.715320 0.000000 
#    z 0.000000 0.000000 1.681900 
# 
# From -- ./inp_files/29117.got.cif
#   From: 2010.03.12/outbox.cif.g09.slc.cpg/sg59_15_cif.got.tgz:29117.got - 2010.04.16 16:29:54.
