data_PCOD8239001
_publ_section_title
;
Structure prediction by ZEFSAII (Michael W. Deem and Ramdas Pophale) SiO2 
 PCOD8239001
Probable space group: P N N M
;
_chemical_formula_sum "Si O2"
_cell_formula_units_Z 64
_cell_length_a 24.000000
_cell_length_b 15.000000
_cell_length_c 9.000000
_cell_angle_alpha 90.000000
_cell_angle_beta 90.000000
_cell_angle_gamma 90.000000
_cell_volume 3240.000000
_symmetry_space_group_name_H-M "P N N M"
_symmetry_group_IT_number 58
_symmetry_cell_setting 'orthorhombic'
loop_
_space_group_symop_operation_xyz
x,y,z
-x,-y,z
1/2+x,1/2-y,1/2-z
1/2-x,1/2+y,1/2-z
-x,-y,-z
x,y,-z
1/2-x,1/2+y,1/2+z
1/2+x,1/2-y,1/2+z
loop_
_atom_site_type_symbol
_atom_site_label
_atom_site_fract_x
_atom_site_fract_y
_atom_site_fract_z
Si Si1 0.258693 0.144911 0.173834
Si Si2 0.170347 0.004611 0.824636
Si Si3 0.908731 0.248140 0.830589
Si Si4 0.139798 0.564402 0.166403
Si Si5 0.952877 0.570643 0.174686
Si Si6 0.478610 0.745292 0.173112
Si Si7 0.304592 0.328614 0.175511
Si Si8 0.442860 0.548667 0.828519
O O1 0.200551 0.098223 0.218682
O O2 0.308070 0.080986 0.228657
O O3 0.263312 0.247910 0.232295
O O4 0.266473 0.149442 0.000000
O O5 0.107691 0.006123 0.763903
O O6 0.206781 0.922976 0.755785
O O7 0.168804 0.991107 0.000000
O O8 0.904368 0.354951 0.822267
O O9 0.866174 0.201054 0.720220
O O10 0.968279 0.221066 0.770654
O O11 0.900220 0.214226 0.000000
O O12 0.107175 0.473988 0.207797
O O13 0.163640 0.558011 0.000000
O O14 0.951445 0.663687 0.264448
O O15 0.000000 0.500000 0.228384
O O16 0.961209 0.591409 0.000000
O O17 0.441377 0.656218 0.193816
O O18 0.493381 0.759771 0.000000
O O19 0.299827 0.343198 0.000000
O O20 0.500000 0.500000 0.775486
O O21 0.432650 0.524680 0.000000
#
# Coordination Sequence:
#
# PCOD8239001 Si02
#       8
#     8   8   8   8   8   8   8   8
#     4   9  21  40  60  85 118 149 189 244 293 345
#     4  11  23  41  64  91 119 153 198 246 297 355
#     4  10  18  32  55  83 115 150 196 243 283 339
#     4   9  18  33  55  81 110 152 200 240 285 342
#     4  10  19  35  54  79 119 162 200 243 295 353
#     4  11  22  34  53  85 119 155 197 240 297 356
#     4  10  20  37  61  87 115 151 191 238 296 348
#     4  10  23  43  63  85 118 156 195 245 303 362
#
# _framework density 19.753086
#
# number of rings (size 3 to 8) (size 9 to 14) (size 15 to 20)
#    0.000    2.000    1.250    2.250    0.000    5.000 
#    2.250    0.000    0.000    0.000    0.000    0.000 
#    0.000    0.000    0.000    0.000    0.000    0.000 
#
# Total GULP energy -793344.045941 kJ/mol
# GULP energy per Si atom -12396.000718 kJ/mol
# Density = 1.970813 g / cm^3
# Si number density = 19.753086 Si / 1000 Ang^3
#
#
#
# Elastic Constant Matrix: (Units=GPa)
#
#
# Indices 1 2 3 4 5 6 
#
# 1 78.2273 40.7540 31.1811 0.0000 0.0000 0.0000
# 2 40.7540 138.8081 46.2960 0.0000 0.0000 0.0000
# 3 31.1811 46.2960 63.5332 0.0000 0.0000 0.0000
# 4 0.0000 0.0000 0.0000 36.8989 0.0000 0.0000
# 5 0.0000 0.0000 0.0000 0.0000 24.7206 0.0000
# 6 0.0000 0.0000 0.0000 0.0000 0.0000 29.1845
#
#
#
# Elastic Compliance Matrix: (Units=1/GPa)
#
#
# Indices 1 2 3 4 5 6 
#
# 1 0.016714 -0.002869 -0.006113 0.000000 0.000000 0.000000
# 2 -0.002869 0.010010 -0.005886 0.000000 0.000000 0.000000
# 3 -0.006113 -0.005886 0.023029 0.000000 0.000000 0.000000
# 4 0.000000 0.000000 0.000000 0.027101 0.000000 0.000000
# 5 0.000000 0.000000 0.000000 0.000000 0.040452 0.000000
# 6 0.000000 0.000000 0.000000 0.000000 0.000000 0.034265
#
#
# Mechanical properties :
#
#
# Convention : Reuss Voigt Hill
#
# Bulk Modulus (GPa) = 49.95505 57.44788 53.70146
# Shear Modulus (GPa) = 26.59884 28.98328 27.79106
#
# Velocity S-wave (km/s) = 3.67354 3.83466 3.75497
# Velocity P-wave (km/s) = 6.58315 6.98229 6.78565
#
# Compressibility (1/GPa) = 0.02001800
#
# Stress axis : x y z
#
# Youngs Moduli (GPa) = 59.82933 99.90488 43.42356
#
# Poissons Ratio (x) = 0.28658 0.26544
# Poissons Ratio (y) = 0.17162 0.25559
# Poissons Ratio (z) = 0.36573 0.58804
#
# Static dielectric constant tensor:
#      x y z
#    x 3.375580 0.000000 0.000000 
#    y 0.000000 4.081090 0.000000 
#    z 0.000000 0.000000 3.582480 
# 
# 
# High freq. dielectric constant tensor:
#      x y z
#    x 1.748330 0.000000 0.000000 
#    y 0.000000 1.791610 0.000000 
#    z 0.000000 0.000000 1.770670 
# 
# From -- ./inp_files/10027.got.cif
#   From: 2010.06.25/outbox.ucp.g09.slc.cvg/sg58_6_cif.got.tgz:10027.got - 2010.06.28 15:54:47.
