data_PCOD8239303
_publ_section_title
;
Structure prediction by ZEFSAII (Michael W. Deem and Ramdas Pophale) SiO2 
 PCOD8239303
Probable space group: P M M N
;
_chemical_formula_sum "Si O2"
_cell_formula_units_Z 64
_cell_length_a 9.063169
_cell_length_b 13.846860
_cell_length_c 31.566504
_cell_angle_alpha 90.000000
_cell_angle_beta 90.000000
_cell_angle_gamma 90.000000
_cell_volume 3961.483632
_symmetry_space_group_name_H-M "P M M N"
_symmetry_group_IT_number 59
_space_group.IT_coordinate_system_code '2'
_symmetry_cell_setting 'orthorhombic'
loop_
_space_group_symop_operation_xyz
x,y,z
1/2-x,1/2-y,z
1/2+x,-y,-z
-x,1/2+y,-z
-x,-y,-z
1/2+x,1/2+y,-z
1/2-x,y,z
x,1/2-y,z
loop_
_atom_site_type_symbol
_atom_site_label
_atom_site_fract_x
_atom_site_fract_y
_atom_site_fract_z
Si Si1 0.922373 0.137367 0.808580
Si Si2 0.921867 0.967641 0.435687
Si Si3 0.412915 0.136059 0.969829
Si Si4 0.083791 0.364683 0.725094
Si Si5 0.424206 0.542834 0.105990
Si Si6 0.578871 0.638536 0.522322
Si Si7 0.423988 0.861784 0.359390
Si Si8 0.574625 0.644179 0.937546
O O1 0.750000 0.118390 0.801336
O O2 0.954629 0.250000 0.816021
O O3 0.986550 0.080097 0.849180
O O4 0.007138 0.096010 0.767673
O O5 0.750000 0.974310 0.424493
O O6 0.951828 0.895471 0.474532
O O7 0.009859 0.926373 0.396258
O O8 0.981135 0.074931 0.445791
O O9 0.250000 0.090809 0.961929
O O10 0.399040 0.250000 0.970962
O O11 0.521584 0.107620 0.932544
O O12 0.477400 0.105112 0.016136
O O13 0.250000 0.405144 0.722309
O O14 0.082534 0.250000 0.726411
O O15 0.992333 0.400349 0.684489
O O16 0.250000 0.553258 0.106751
O O17 0.475789 0.432068 0.098310
O O18 0.750000 0.624142 0.533940
O O19 0.530833 0.750000 0.526631
O O20 0.250000 0.876295 0.357423
O O21 0.466152 0.750000 0.367308
O O22 0.750000 0.651764 0.939264
O O23 0.507455 0.750000 0.926698
#
# Coordination Sequence:
#
# PCOD8239303 Si02
#       8
#     8   8   8   8   8   8   8   8
#     4   9  17  28  40  58  86 112 133 164 209 259
#     4  10  19  30  46  69  95 123 159 199 234 271
#     4   9  17  28  41  58  83 113 140 169 208 251
#     4   9  17  29  45  64  86 113 143 174 212 261
#     4  10  18  27  43  64  83 108 142 176 209 248
#     4   9  18  32  47  64  92 129 164 198 235 272
#     4  10  19  30  46  68  94 123 152 184 225 270
#     4   8  15  28  43  59  81 109 141 176 212 248
#
# _framework density 16.155563999999998
#
# number of rings (size 3 to 8) (size 9 to 14) (size 15 to 20)
#    0.000    2.750    0.000    3.000    0.000    4.750 
#    0.000    1.250    0.000    1.125    0.000    0.875 
#    0.000    5.000    0.000    0.000    0.000    0.000 
#
# Total GULP energy -793408.240948 kJ/mol
# GULP energy per Si atom -12397.003765 kJ/mol
# Density = 1.611879 g / cm^3
# Si number density = 16.155564 Si / 1000 Ang^3
#
#
#
# Elastic Constant Matrix: (Units=GPa)
#
#
# Indices 1 2 3 4 5 6 
#
# 1 58.8679 33.0106 50.1616 0.0000 0.0000 0.0000
# 2 33.0106 69.1488 55.8776 0.0000 0.0000 0.0000
# 3 50.1616 55.8776 130.6746 0.0000 0.0000 0.0000
# 4 0.0000 0.0000 0.0000 23.5978 0.0000 0.0000
# 5 0.0000 0.0000 0.0000 0.0000 27.3620 0.0000
# 6 0.0000 0.0000 0.0000 0.0000 0.0000 17.6508
#
#
#
# Elastic Compliance Matrix: (Units=1/GPa)
#
#
# Indices 1 2 3 4 5 6 
#
# 1 0.027278 -0.006969 -0.007491 0.000000 0.000000 0.000000
# 2 -0.006969 0.023877 -0.007535 0.000000 0.000000 0.000000
# 3 -0.007491 -0.007535 0.013750 0.000000 0.000000 0.000000
# 4 0.000000 0.000000 0.000000 0.042377 0.000000 0.000000
# 5 0.000000 0.000000 0.000000 0.000000 0.036547 0.000000
# 6 0.000000 0.000000 0.000000 0.000000 0.000000 0.056655
#
#
# Mechanical properties :
#
#
# Convention : Reuss Voigt Hill
#
# Bulk Modulus (GPa) = 47.81098 59.64344 53.72721
# Shear Modulus (GPa) = 19.88493 21.69822 20.79158
#
# Velocity S-wave (km/s) = 3.51214 3.66878 3.59132
# Velocity P-wave (km/s) = 6.79008 7.41249 7.10810
#
# Compressibility (1/GPa) = 0.02091570
#
# Stress axis : x y z
#
# Youngs Moduli (GPa) = 36.65908 41.88083 72.72542
#
# Poissons Ratio (x) = 0.29185 0.54481
# Poissons Ratio (y) = 0.25547 0.54799
# Poissons Ratio (z) = 0.27463 0.31558
#
# Static dielectric constant tensor:
#      x y z
#    x 3.031280 0.000000 0.000000 
#    y 0.000000 3.013700 0.000000 
#    z 0.000000 0.000000 3.126800 
# 
# 
# High freq. dielectric constant tensor:
#      x y z
#    x 1.616530 0.000000 0.000000 
#    y 0.000000 1.595940 0.000000 
#    z 0.000000 0.000000 1.615850 
# 
# From -- ./inp_files/33240.got.cif
#   From: 2010.03.12/outbox.cif.g09.slc.cpg/sg59_17_cif.got.tgz:33240.got - 2010.04.16 16:29:54.
