data_PCOD8239294
_publ_section_title
;
Structure prediction by ZEFSAII (Michael W. Deem and Ramdas Pophale) SiO2 
 PCOD8239294
Probable space group: P M M N
;
_chemical_formula_sum "Si O2"
_cell_formula_units_Z 64
_cell_length_a 9.045575
_cell_length_b 19.397122
_cell_length_c 21.346910
_cell_angle_alpha 90.000000
_cell_angle_beta 90.000000
_cell_angle_gamma 90.000000
_cell_volume 3745.488736
_symmetry_space_group_name_H-M "P M M N"
_symmetry_group_IT_number 59
_space_group.IT_coordinate_system_code '2'
_symmetry_cell_setting 'orthorhombic'
loop_
_space_group_symop_operation_xyz
x,y,z
1/2-x,1/2-y,z
1/2+x,-y,-z
-x,1/2+y,-z
-x,-y,-z
1/2+x,1/2+y,-z
1/2-x,y,z
x,1/2-y,z
loop_
_atom_site_type_symbol
_atom_site_label
_atom_site_fract_x
_atom_site_fract_y
_atom_site_fract_z
Si Si1 0.912761 0.484499 0.322562
Si Si2 0.925349 0.173288 0.963449
Si Si3 0.925608 0.326645 0.102551
Si Si4 0.423405 0.530016 0.439394
Si Si5 0.419719 0.674943 0.388096
Si Si6 0.425385 0.947565 0.809875
Si Si7 0.074107 0.588161 0.154059
Si Si8 0.914249 0.636803 0.269795
O O1 0.750000 0.462551 0.347769
O O2 0.963583 0.436237 0.264257
O O3 0.903560 0.559069 0.292411
O O4 0.027885 0.483845 0.379764
O O5 0.750000 0.175340 0.962313
O O6 0.985664 0.250000 0.947657
O O7 0.980208 0.151303 0.032957
O O8 0.981485 0.118373 0.912417
O O9 0.750000 0.326020 0.104115
O O10 0.985287 0.250000 0.118907
O O11 0.985380 0.380451 0.153802
O O12 0.500000 0.500000 0.500000
O O13 0.250000 0.522586 0.447896
O O14 0.472940 0.610486 0.430993
O O15 0.250000 0.660982 0.370162
O O16 0.437987 0.750000 0.422473
O O17 0.510369 0.681294 0.324068
O O18 0.250000 0.959367 0.817926
O O19 0.508753 0.012175 0.839700
O O20 0.250000 0.585190 0.160055
O O21 0.012182 0.639860 0.207184
O O22 0.750000 0.666099 0.256501
#
# Coordination Sequence:
#
# PCOD8239294 Si02
#       8
#     8   8   8   8   8   8   8   8
#     4   8  15  28  44  64  91 117 142 177 221 268
#     4   8  15  27  41  59  85 117 154 195 234 276
#     4   8  14  27  47  67  86 113 153 197 240 285
#     4  10  19  31  50  73  96 125 157 187 221 264
#     4   9  18  32  49  70  96 126 160 194 227 269
#     4   9  17  29  47  70  93 116 146 192 240 276
#     4  10  18  27  42  65  92 123 156 188 229 281
#     4   9  17  29  44  64  91 121 152 188 229 269
#
# _framework density 17.087223000000002
#
# number of rings (size 3 to 8) (size 9 to 14) (size 15 to 20)
#    0.000    3.125    0.000    2.625    0.000    4.750 
#    0.000    1.250    0.000    3.000    0.000    7.000 
#    0.000    0.000    0.000    0.000    0.000    0.000 
#
# Total GULP energy -793031.243363 kJ/mol
# GULP energy per Si atom -12391.113178 kJ/mol
# Density = 1.704833 g / cm^3
# Si number density = 17.087223 Si / 1000 Ang^3
#
#
#
# Elastic Constant Matrix: (Units=GPa)
#
#
# Indices 1 2 3 4 5 6 
#
# 1 57.9724 33.5567 44.4461 0.0000 0.0000 0.0000
# 2 33.5567 90.6635 72.2997 0.0000 0.0000 0.0000
# 3 44.4461 72.2997 134.6510 0.0000 0.0000 0.0000
# 4 0.0000 0.0000 0.0000 22.0474 0.0000 0.0000
# 5 0.0000 0.0000 0.0000 0.0000 21.7541 0.0000
# 6 0.0000 0.0000 0.0000 0.0000 0.0000 15.9252
#
#
#
# Elastic Compliance Matrix: (Units=1/GPa)
#
#
# Indices 1 2 3 4 5 6 
#
# 1 0.024102 -0.004506 -0.005536 0.000000 0.000000 0.000000
# 2 -0.004506 0.020131 -0.009322 0.000000 0.000000 0.000000
# 3 -0.005536 -0.009322 0.014260 0.000000 0.000000 0.000000
# 4 0.000000 0.000000 0.000000 0.045357 0.000000 0.000000
# 5 0.000000 0.000000 0.000000 0.000000 0.045968 0.000000
# 6 0.000000 0.000000 0.000000 0.000000 0.000000 0.062794
#
#
# Mechanical properties :
#
#
# Convention : Reuss Voigt Hill
#
# Bulk Modulus (GPa) = 50.59548 64.87688 57.73618
# Shear Modulus (GPa) = 19.38517 20.81096 20.09806
#
# Velocity S-wave (km/s) = 3.37186 3.49366 3.43330
# Velocity P-wave (km/s) = 6.69580 7.37053 7.04125
#
# Compressibility (1/GPa) = 0.01976461
#
# Stress axis : x y z
#
# Youngs Moduli (GPa) = 41.48961 49.67357 70.12864
#
# Poissons Ratio (x) = 0.22382 0.38826
# Poissons Ratio (y) = 0.18695 0.65375
# Poissons Ratio (z) = 0.22970 0.46306
#
# Static dielectric constant tensor:
#      x y z
#    x 3.086950 0.000000 0.000000 
#    y 0.000000 3.254890 0.000000 
#    z 0.000000 0.000000 3.415310 
# 
# 
# High freq. dielectric constant tensor:
#      x y z
#    x 1.640610 0.000000 0.000000 
#    y 0.000000 1.640820 0.000000 
#    z 0.000000 0.000000 1.652470 
# 
# From -- ./inp_files/29798.got.cif
#   From: 2010.03.12/outbox.cif.g09.slc.cpg/sg59_15_cif.got.tgz:29798.got - 2010.04.16 16:29:54.
