data_PCOD8239735
_publ_section_title
;
Structure prediction by ZEFSAII (Michael W. Deem and Ramdas Pophale) SiO2 
 PCOD8239735
Probable space group: P M M N
;
_chemical_formula_sum "Si O2"
_cell_formula_units_Z 64
_cell_length_a 9.196619
_cell_length_b 19.582999
_cell_length_c 19.982734
_cell_angle_alpha 90.000000
_cell_angle_beta 90.000000
_cell_angle_gamma 90.000000
_cell_volume 3598.838052
_symmetry_space_group_name_H-M "P M M N"
_symmetry_group_IT_number 59
_space_group.IT_coordinate_system_code '2'
_symmetry_cell_setting 'orthorhombic'
loop_
_space_group_symop_operation_xyz
x,y,z
1/2-x,1/2-y,z
1/2+x,-y,-z
-x,1/2+y,-z
-x,-y,-z
1/2+x,1/2+y,-z
1/2-x,y,z
x,1/2-y,z
loop_
_atom_site_type_symbol
_atom_site_label
_atom_site_fract_x
_atom_site_fract_y
_atom_site_fract_z
Si Si1 0.420665 0.392276 0.381808
Si Si2 0.421133 0.031145 0.661189
Si Si3 0.417593 0.410277 0.163481
Si Si4 0.919416 0.672027 0.965809
Si Si5 0.415208 0.065691 0.520472
Si Si6 0.919975 0.327770 0.900077
Si Si7 0.082010 0.938854 0.206005
Si Si8 0.917030 0.173590 0.272590
O O1 0.250000 0.396401 0.364519
O O2 0.496626 0.460982 0.354800
O O3 0.446935 0.378516 0.461945
O O4 0.495726 0.330170 0.342674
O O5 0.250000 0.017033 0.671516
O O6 0.448813 0.084192 0.598301
O O7 0.485915 0.065038 0.727359
O O8 0.250000 0.390458 0.177272
O O9 0.441010 0.491538 0.164043
O O10 0.516415 0.379590 0.221141
O O11 0.469185 0.378936 0.093018
O O12 0.750000 0.664768 0.980567
O O13 0.959612 0.750000 0.945879
O O14 0.002076 0.648783 0.032210
O O15 0.250000 0.042868 0.515152
O O16 0.500000 0.000000 0.500000
O O17 0.750000 0.336097 0.912993
O O18 0.961739 0.250000 0.881271
O O19 0.971517 0.376478 0.840072
O O20 0.250000 0.930580 0.226732
O O21 0.750000 0.154289 0.285067
O O22 0.933184 0.250000 0.244110
#
# Coordination Sequence:
#
# PCOD8239735 Si02
#       8
#     8   8   8   8   8   8   8   8
#     4  10  18  31  50  71  98 133 173 212 251 302
#     4  10  18  30  49  75 105 132 162 207 260 303
#     4  10  20  34  52  74 102 134 171 214 256 305
#     4   9  18  33  52  73  98 130 169 210 253 304
#     4   8  16  28  45  70  97 126 161 201 245 294
#     4   9  19  36  55  74  99 132 169 210 258 310
#     4  10  20  33  51  76 104 135 171 212 256 308
#     4  11  23  35  48  71 104 140 178 218 258 303
#
# _framework density 17.783518999999998
#
# number of rings (size 3 to 8) (size 9 to 14) (size 15 to 20)
#    0.000    2.375    1.250    1.500    0.000    4.000 
#    0.000    1.250    0.000    0.750    0.000    3.500 
#    0.000    0.000    0.000    0.000    0.000    0.000 
#
# Total GULP energy -793181.158520 kJ/mol
# GULP energy per Si atom -12393.455602 kJ/mol
# Density = 1.774304 g / cm^3
# Si number density = 17.783519 Si / 1000 Ang^3
#
#
#
# Elastic Constant Matrix: (Units=GPa)
#
#
# Indices 1 2 3 4 5 6 
#
# 1 76.4661 33.0429 55.8974 0.0000 0.0000 0.0000
# 2 33.0429 69.4382 56.2876 0.0000 0.0000 0.0000
# 3 55.8974 56.2876 145.1238 0.0000 0.0000 0.0000
# 4 0.0000 0.0000 0.0000 22.3647 0.0000 0.0000
# 5 0.0000 0.0000 0.0000 0.0000 30.5062 0.0000
# 6 0.0000 0.0000 0.0000 0.0000 0.0000 19.1289
#
#
#
# Elastic Compliance Matrix: (Units=1/GPa)
#
#
# Indices 1 2 3 4 5 6 
#
# 1 0.019148 -0.004570 -0.005603 0.000000 0.000000 0.000000
# 2 -0.004570 0.022096 -0.006810 0.000000 0.000000 0.000000
# 3 -0.005603 -0.006810 0.011690 0.000000 0.000000 0.000000
# 4 0.000000 0.000000 0.000000 0.044713 0.000000 0.000000
# 5 0.000000 0.000000 0.000000 0.000000 0.032780 0.000000
# 6 0.000000 0.000000 0.000000 0.000000 0.000000 0.052277
#
#
# Mechanical properties :
#
#
# Convention : Reuss Voigt Hill
#
# Bulk Modulus (GPa) = 52.71836 64.60930 58.66383
# Shear Modulus (GPa) = 22.42214 24.11996 23.27105
#
# Velocity S-wave (km/s) = 3.55468 3.68681 3.62135
# Velocity P-wave (km/s) = 6.82323 7.38466 7.10949
#
# Compressibility (1/GPa) = 0.01896872
#
# Stress axis : x y z
#
# Youngs Moduli (GPa) = 52.22417 45.25643 85.54345
#
# Poissons Ratio (x) = 0.20683 0.47928
# Poissons Ratio (y) = 0.23868 0.58255
# Poissons Ratio (z) = 0.29260 0.30819
#
# Static dielectric constant tensor:
#      x y z
#    x 3.312280 0.000000 0.000000 
#    y 0.000000 3.132370 0.000000 
#    z 0.000000 0.000000 3.759510 
# 
# 
# High freq. dielectric constant tensor:
#      x y z
#    x 1.694110 0.000000 0.000000 
#    y 0.000000 1.653830 0.000000 
#    z 0.000000 0.000000 1.698820 
# 
# From -- ./inp_files/26331.got.cif
#   From: 2010.03.12/outbox.cif.g09.slc.cpg/sg59_14_cif.got.tgz:26331.got - 2010.04.16 16:29:54.
