data_PCOD8239552
_publ_section_title
;
Structure prediction by ZEFSAII (Michael W. Deem and Ramdas Pophale) SiO2 
 PCOD8239552
Probable space group: P M M N
;
_chemical_formula_sum "Si O2"
_cell_formula_units_Z 64
_cell_length_a 9.069221
_cell_length_b 28.229022
_cell_length_c 15.628069
_cell_angle_alpha 90.000000
_cell_angle_beta 90.000000
_cell_angle_gamma 90.000000
_cell_volume 4001.023822
_symmetry_space_group_name_H-M "P M M N"
_symmetry_group_IT_number 59
_space_group.IT_coordinate_system_code '2'
_symmetry_cell_setting 'orthorhombic'
loop_
_space_group_symop_operation_xyz
x,y,z
1/2-x,1/2-y,z
1/2+x,-y,-z
-x,1/2+y,-z
-x,-y,-z
1/2+x,1/2+y,-z
1/2-x,y,z
x,1/2-y,z
loop_
_atom_site_type_symbol
_atom_site_label
_atom_site_fract_x
_atom_site_fract_y
_atom_site_fract_z
Si Si1 0.577566 0.137129 0.166348
Si Si2 0.074281 0.697229 0.674330
Si Si3 0.078679 0.446490 0.088362
Si Si4 0.913967 0.193568 0.512266
Si Si5 0.076406 0.303728 0.677877
Si Si6 0.424978 0.359166 0.844537
Si Si7 0.921127 0.445988 0.909453
Si Si8 0.079649 0.805011 0.003842
O O1 0.750000 0.124871 0.172965
O O2 0.517217 0.162471 0.251739
O O3 0.485289 0.088592 0.159761
O O4 0.544455 0.171506 0.087085
O O5 0.250000 0.700157 0.676091
O O6 0.010044 0.750000 0.690643
O O7 0.023674 0.677461 0.580879
O O8 0.250000 0.436274 0.070103
O O9 0.055011 0.500133 0.121093
O O10 0.987958 0.437147 0.002622
O O11 0.750000 0.173336 0.526560
O O12 0.911672 0.250000 0.511895
O O13 0.013491 0.174217 0.589862
O O14 0.250000 0.305242 0.670762
O O15 0.019967 0.250000 0.691369
O O16 0.020092 0.334100 0.757964
O O17 0.250000 0.363433 0.848408
O O18 0.496163 0.411470 0.843620
O O19 0.478444 0.328891 0.925032
O O20 0.750000 0.432348 0.914297
O O21 0.250000 0.812285 0.029100
O O22 0.038512 0.750000 0.997036
#
# Coordination Sequence:
#
# PCOD8239552 Si02
#       8
#     8   8   8   8   8   8   8   8
#     4  10  18  29  47  69  94 125 157 188 225 271
#     4   8  14  26  45  69  96 124 155 190 225 264
#     4  10  20  33  49  68  91 118 150 193 238 276
#     4   8  14  26  45  67  89 117 155 194 226 259
#     4   9  18  31  45  64  93 125 153 184 228 277
#     4  11  21  32  47  67  92 123 156 192 234 275
#     4  10  20  34  50  67  88 117 154 194 236 278
#     4  10  20  31  43  63  93 128 162 189 216 261
#
# _framework density 15.995905
#
# number of rings (size 3 to 8) (size 9 to 14) (size 15 to 20)
#    0.000    2.500    1.250    2.625    0.000    4.750 
#    0.000    1.875    0.000    1.875    0.000    0.875 
#    0.000    0.000    0.000    0.000    0.000    0.000 
#
# Total GULP energy -793487.715148 kJ/mol
# GULP energy per Si atom -12398.245549 kJ/mol
# Density = 1.595950 g / cm^3
# Si number density = 15.995905 Si / 1000 Ang^3
#
#
#
# Elastic Constant Matrix: (Units=GPa)
#
#
# Indices 1 2 3 4 5 6 
#
# 1 56.5603 39.4197 42.9984 0.0000 0.0000 0.0000
# 2 39.4197 97.2765 57.5104 0.0000 0.0000 0.0000
# 3 42.9984 57.5104 129.3996 0.0000 0.0000 0.0000
# 4 0.0000 0.0000 0.0000 12.3912 0.0000 0.0000
# 5 0.0000 0.0000 0.0000 0.0000 19.2790 0.0000
# 6 0.0000 0.0000 0.0000 0.0000 0.0000 24.4337
#
#
#
# Elastic Compliance Matrix: (Units=1/GPa)
#
#
# Indices 1 2 3 4 5 6 
#
# 1 0.027382 -0.007754 -0.005652 0.000000 0.000000 0.000000
# 2 -0.007754 0.016140 -0.004596 0.000000 0.000000 0.000000
# 3 -0.005652 -0.004596 0.011649 0.000000 0.000000 0.000000
# 4 0.000000 0.000000 0.000000 0.080703 0.000000 0.000000
# 5 0.000000 0.000000 0.000000 0.000000 0.051870 0.000000
# 6 0.000000 0.000000 0.000000 0.000000 0.000000 0.040927
#
#
# Mechanical properties :
#
#
# Convention : Reuss Voigt Hill
#
# Bulk Modulus (GPa) = 52.18050 62.56594 57.37322
# Shear Modulus (GPa) = 18.44580 20.77463 19.61022
#
# Velocity S-wave (km/s) = 3.39950 3.60772 3.50516
# Velocity P-wave (km/s) = 6.93547 7.52016 7.23373
#
# Compressibility (1/GPa) = 0.01916425
#
# Stress axis : x y z
#
# Youngs Moduli (GPa) = 36.52086 61.95908 85.84352
#
# Poissons Ratio (x) = 0.48044 0.48522
# Poissons Ratio (y) = 0.28319 0.39458
# Poissons Ratio (z) = 0.20643 0.28479
#
# Static dielectric constant tensor:
#      x y z
#    x 2.967280 0.000000 0.000000 
#    y 0.000000 3.085410 0.000000 
#    z 0.000000 0.000000 3.183880 
# 
# 
# High freq. dielectric constant tensor:
#      x y z
#    x 1.607870 0.000000 0.000000 
#    y 0.000000 1.598280 0.000000 
#    z 0.000000 0.000000 1.604550 
# 
# From -- ./inp_files/21879.got.cif
#   From: 2010.03.12/outbox.cif.g09.slc.cpg/sg59_11_cif.got.tgz:21879.got - 2010.04.16 16:29:54.
