data_PCOD8239986
_publ_section_title
;
Structure prediction by ZEFSAII (Michael W. Deem and Ramdas Pophale) SiO2 
 PCOD8239986
Probable space group: P M M N
;
_chemical_formula_sum "Si O2"
_cell_formula_units_Z 40
_cell_length_a 9.397636
_cell_length_b 9.800073
_cell_length_c 24.263861
_cell_angle_alpha 90.000000
_cell_angle_beta 90.000000
_cell_angle_gamma 90.000000
_cell_volume 2234.641395
_symmetry_space_group_name_H-M "P M M N"
_symmetry_group_IT_number 59
_space_group.IT_coordinate_system_code '2'
_symmetry_cell_setting 'orthorhombic'
loop_
_space_group_symop_operation_xyz
x,y,z
1/2-x,1/2-y,z
1/2+x,-y,-z
-x,1/2+y,-z
-x,-y,-z
1/2+x,1/2+y,-z
1/2-x,y,z
x,1/2-y,z
loop_
_atom_site_type_symbol
_atom_site_label
_atom_site_fract_x
_atom_site_fract_y
_atom_site_fract_z
Si Si1 0.589977 0.410977 0.745702
Si Si2 0.583062 0.089570 0.044388
Si Si3 0.584641 0.905888 0.148374
Si Si4 0.084253 0.250000 0.436022
Si Si5 0.580655 0.250000 0.549266
Si Si6 0.916988 0.484213 0.627904
O O1 0.750000 0.466669 0.755003
O O2 0.590920 0.250000 0.739287
O O3 0.496819 0.457033 0.797514
O O4 0.519474 0.470575 0.689568
O O5 0.750000 0.079724 0.031211
O O6 0.535346 0.250000 0.045054
O O7 0.546328 0.016406 0.101927
O O8 0.500000 0.000000 0.000000
O O9 0.750000 0.908419 0.162291
O O10 0.539425 0.750000 0.131274
O O11 0.250000 0.250000 0.452767
O O12 0.041468 0.372505 0.396827
O O13 0.991316 0.250000 0.490235
O O14 0.750000 0.250000 0.540340
O O15 0.522725 0.122568 0.583894
O O16 0.750000 0.457940 0.634021
#
# Coordination Sequence:
#
# PCOD8239986 Si02
#       6
#     8   8   8   4   4   8
#     4   9  16  30  52  73  93 126 171 208 242 296
#     4  10  21  37  57  81 111 146 181 217 261 310
#     4   9  18  33  52  75 104 136 168 209 260 305
#     4  10  20  32  46  70  98 122 153 202 253 294
#     4  10  18  32  52  68  90 126 163 196 241 302
#     4   9  17  31  50  69  93 126 161 200 248 297
#
# _framework density 17.899964000000001
#
# number of rings (size 3 to 8) (size 9 to 14) (size 15 to 20)
#    0.000    2.600    1.000    1.200    0.000    2.000 
#    1.800    4.000    0.000    0.000    0.000    0.000 
#    0.000    0.000    0.000    0.000    0.000    0.000 
#
# Total GULP energy -495783.755429 kJ/mol
# GULP energy per Si atom -12394.593886 kJ/mol
# Density = 1.785922 g / cm^3
# Si number density = 17.899964 Si / 1000 Ang^3
#
#
#
# Elastic Constant Matrix: (Units=GPa)
#
#
# Indices 1 2 3 4 5 6 
#
# 1 43.3325 37.1246 62.6596 0.0000 0.0000 0.0000
# 2 37.1246 127.6302 80.6279 0.0000 0.0000 0.0000
# 3 62.6596 80.6279 177.8052 0.0000 0.0000 0.0000
# 4 0.0000 0.0000 0.0000 25.6403 0.0000 0.0000
# 5 0.0000 0.0000 0.0000 0.0000 34.2595 0.0000
# 6 0.0000 0.0000 0.0000 0.0000 0.0000 25.4966
#
#
#
# Elastic Compliance Matrix: (Units=1/GPa)
#
#
# Indices 1 2 3 4 5 6 
#
# 1 0.048977 -0.004685 -0.015135 0.000000 0.000000 0.000000
# 2 -0.004685 0.011429 -0.003532 0.000000 0.000000 0.000000
# 3 -0.015135 -0.003532 0.012559 0.000000 0.000000 0.000000
# 4 0.000000 0.000000 0.000000 0.039001 0.000000 0.000000
# 5 0.000000 0.000000 0.000000 0.000000 0.029189 0.000000
# 6 0.000000 0.000000 0.000000 0.000000 0.000000 0.039221
#
#
# Mechanical properties :
#
#
# Convention : Reuss Voigt Hill
#
# Bulk Modulus (GPa) = 38.07821 78.84355 58.46088
# Shear Modulus (GPa) = 21.20135 28.30300 24.75217
#
# Velocity S-wave (km/s) = 3.44530 3.98071 3.72264
# Velocity P-wave (km/s) = 6.09473 8.07902 7.15598
#
# Compressibility (1/GPa) = 0.02626174
#
# Stress axis : x y z
#
# Youngs Moduli (GPa) = 20.41768 87.49791 79.62152
#
# Poissons Ratio (x) = 0.40990 1.20511
# Poissons Ratio (y) = 0.09565 0.28119
# Poissons Ratio (z) = 0.30903 0.30901
#
# Static dielectric constant tensor:
#      x y z
#    x 3.082510 0.000000 0.000000 
#    y 0.000000 3.398690 0.000000 
#    z 0.000000 0.000000 3.466820 
# 
# 
# High freq. dielectric constant tensor:
#      x y z
#    x 1.663180 0.000000 0.000000 
#    y 0.000000 1.692700 0.000000 
#    z 0.000000 0.000000 1.706690 
# 
# From -- ./inp_files/32419.got.cif
#   From: 2010.03.12/outbox.cif.g09.slc.cpg/sg59_17_cif.got.tgz:32419.got - 2010.04.16 16:29:54.
