data_PCOD8239647
_publ_section_title
;
Structure prediction by ZEFSAII (Michael W. Deem and Ramdas Pophale) SiO2 
 PCOD8239647
Probable space group: P M M N
;
_chemical_formula_sum "Si O2"
_cell_formula_units_Z 64
_cell_length_a 9.180022
_cell_length_b 28.644162
_cell_length_c 15.766856
_cell_angle_alpha 90.000000
_cell_angle_beta 90.000000
_cell_angle_gamma 90.000000
_cell_volume 4145.958441
_symmetry_space_group_name_H-M "P M M N"
_symmetry_group_IT_number 59
_space_group.IT_coordinate_system_code '2'
_symmetry_cell_setting 'orthorhombic'
loop_
_space_group_symop_operation_xyz
x,y,z
1/2-x,1/2-y,z
1/2+x,-y,-z
-x,1/2+y,-z
-x,-y,-z
1/2+x,1/2+y,-z
1/2-x,y,z
x,1/2-y,z
loop_
_atom_site_type_symbol
_atom_site_label
_atom_site_fract_x
_atom_site_fract_y
_atom_site_fract_z
Si Si1 0.909736 0.194515 0.502232
Si Si2 0.918255 0.042652 0.901201
Si Si3 0.580198 0.452880 0.095355
Si Si4 0.577412 0.147738 0.153034
Si Si5 0.423875 0.802289 0.316307
Si Si6 0.576294 0.302208 0.320972
Si Si7 0.578685 0.143668 0.847680
Si Si8 0.580065 0.695384 0.000555
O O1 0.750000 0.171179 0.502536
O O2 0.893862 0.250000 0.502128
O O3 0.988437 0.180498 0.591599
O O4 0.988357 0.180276 0.412946
O O5 0.750000 0.029874 0.897143
O O6 0.954776 0.088481 0.846471
O O7 0.967119 0.053005 0.997595
O O8 0.003070 0.998058 0.863630
O O9 0.750000 0.461136 0.104897
O O10 0.530698 0.406159 0.143676
O O11 0.750000 0.154171 0.138805
O O12 0.526024 0.163228 0.246623
O O13 0.495809 0.180015 0.086088
O O14 0.250000 0.802117 0.322849
O O15 0.479496 0.750000 0.294916
O O16 0.476968 0.836696 0.242357
O O17 0.750000 0.301332 0.328455
O O18 0.519519 0.250000 0.299884
O O19 0.750000 0.153137 0.863037
O O20 0.490850 0.168451 0.921526
O O21 0.750000 0.682964 0.995955
O O22 0.553418 0.750000 0.014015
#
# Coordination Sequence:
#
# PCOD8239647 Si02
#       8
#     8   8   8   8   8   8   8   8
#     4   7  10  18  32  56  88 111 129 161 207 249
#     4   9  17  29  43  60  80 103 136 178 216 250
#     4   9  17  29  43  60  80 103 136 178 216 250
#     4  10  18  30  46  64  83 109 146 179 208 246
#     4   8  13  21  37  61  87 112 135 165 206 247
#     4   8  13  21  37  61  87 112 135 165 206 247
#     4  10  18  30  46  64  83 109 146 179 208 246
#     4  11  23  33  40  57  88 121 146 169 202 245
#
# _framework density 15.436721
#
# number of rings (size 3 to 8) (size 9 to 14) (size 15 to 20)
#    0.000    3.000    1.250    2.625    0.000    3.000 
#    0.000    0.000    0.000    0.000    0.000    1.750 
#    0.000    5.000    0.000    0.000    0.000    0.000 
#
# Total GULP energy -792989.817969 kJ/mol
# GULP energy per Si atom -12390.465906 kJ/mol
# Density = 1.540159 g / cm^3
# Si number density = 15.436721 Si / 1000 Ang^3
#
#
#
# Elastic Constant Matrix: (Units=GPa)
#
#
# Indices 1 2 3 4 5 6 
#
# 1 24.8765 19.4811 15.7797 0.0000 0.0000 0.0000
# 2 19.4811 80.8018 40.2001 0.0000 0.0000 0.0000
# 3 15.7797 40.2001 111.4374 0.0000 0.0000 0.0000
# 4 0.0000 0.0000 0.0000 8.8643 0.0000 0.0000
# 5 0.0000 0.0000 0.0000 0.0000 3.4320 0.0000
# 6 0.0000 0.0000 0.0000 0.0000 0.0000 20.5707
#
#
#
# Elastic Compliance Matrix: (Units=1/GPa)
#
#
# Indices 1 2 3 4 5 6 
#
# 1 0.050571 -0.010517 -0.003367 0.000000 0.000000 0.000000
# 2 -0.010517 0.017270 -0.004741 0.000000 0.000000 0.000000
# 3 -0.003367 -0.004741 0.011161 0.000000 0.000000 0.000000
# 4 0.000000 0.000000 0.000000 0.112812 0.000000 0.000000
# 5 0.000000 0.000000 0.000000 0.000000 0.291378 0.000000
# 6 0.000000 0.000000 0.000000 0.000000 0.000000 0.048613
#
#
# Mechanical properties :
#
#
# Convention : Reuss Voigt Hill
#
# Bulk Modulus (GPa) = 23.95128 40.89306 32.42217
# Shear Modulus (GPa) = 8.57674 16.01705 12.29690
#
# Velocity S-wave (km/s) = 2.35969 3.22466 2.82547
# Velocity P-wave (km/s) = 4.79308 6.35711 5.62968
#
# Compressibility (1/GPa) = 0.04175142
#
# Stress axis : x y z
#
# Youngs Moduli (GPa) = 19.77435 57.90282 89.60084
#
# Poissons Ratio (x) = 0.60899 0.30167
# Poissons Ratio (y) = 0.20797 0.42478
# Poissons Ratio (z) = 0.06658 0.27451
#
# Static dielectric constant tensor:
#      x y z
#    x 2.633390 0.000000 0.000000 
#    y 0.000000 2.946360 0.000000 
#    z 0.000000 0.000000 3.343010 
# 
# 
# High freq. dielectric constant tensor:
#      x y z
#    x 1.553810 0.000000 0.000000 
#    y 0.000000 1.575500 0.000000 
#    z 0.000000 0.000000 1.589440 
# 
# From -- ./inp_files/21849.got.cif
#   From: 2010.03.12/outbox.cif.g09.slc.cpg/sg59_11_cif.got.tgz:21849.got - 2010.04.16 16:29:54.
