data_PCOD8239224
_publ_section_title
;
Structure prediction by ZEFSAII (Michael W. Deem and Ramdas Pophale) SiO2 
 PCOD8239224
Probable space group: P M M N
;
_chemical_formula_sum "Si O2"
_cell_formula_units_Z 56
_cell_length_a 24.531988
_cell_length_b 9.422436
_cell_length_c 16.264965
_cell_angle_alpha 90.000000
_cell_angle_beta 90.000000
_cell_angle_gamma 90.000000
_cell_volume 3759.664338
_symmetry_space_group_name_H-M "P M M N"
_symmetry_group_IT_number 59
_space_group.IT_coordinate_system_code '2'
_symmetry_cell_setting 'orthorhombic'
loop_
_space_group_symop_operation_xyz
x,y,z
1/2-x,1/2-y,z
1/2+x,-y,-z
-x,1/2+y,-z
-x,-y,-z
1/2+x,1/2+y,-z
1/2-x,y,z
x,1/2-y,z
loop_
_atom_site_type_symbol
_atom_site_label
_atom_site_fract_x
_atom_site_fract_y
_atom_site_fract_z
Si Si1 0.810089 0.581257 0.901920
Si Si2 0.452009 0.589916 0.534671
Si Si3 0.916972 0.584163 0.991283
Si Si4 0.500215 0.584714 0.696998
Si Si5 0.398146 0.916084 0.376048
Si Si6 0.980387 0.414624 0.119132
Si Si7 0.313079 0.089538 0.283132
O O1 0.750000 0.525643 0.930529
O O2 0.809534 0.750000 0.900939
O O3 0.857884 0.525999 0.961864
O O4 0.822473 0.530644 0.809146
O O5 0.500000 0.500000 0.500000
O O6 0.470651 0.750000 0.520548
O O7 0.448806 0.561438 0.633355
O O8 0.399659 0.559977 0.476256
O O9 0.914615 0.750000 0.011937
O O10 0.960555 0.552206 0.919606
O O11 0.933102 0.502042 0.073813
O O12 0.518124 0.750000 0.700256
O O13 0.551470 0.491458 0.669421
O O14 0.480691 0.534871 0.786515
O O15 0.399082 0.750000 0.353644
O O16 0.342466 0.985537 0.346360
O O17 0.965615 0.250000 0.110466
O O18 0.250000 0.086866 0.306228
O O19 0.335984 0.250000 0.291330
#
# Coordination Sequence:
#
# PCOD8239224 Si02
#       7
#     8   8   8   8   8   8   8
#     4   8  14  26  44  62  78 101 136 171 197 231
#     4   8  15  26  39  57  79 103 130 159 191 228
#     4   9  16  26  40  59  82 104 129 163 203 243
#     4   9  16  28  44  58  77 108 142 166 188 231
#     4  10  18  26  39  61  87 108 128 163 207 239
#     4   9  17  27  40  58  80 108 137 165 197 236
#     4   9  17  29  44  60  79 107 141 167 189 230
#
# _framework density 14.894945
#
# number of rings (size 3 to 8) (size 9 to 14) (size 15 to 20)
#    0.000    3.143    0.000    2.143    0.000    3.714 
#    0.000    3.571    0.000    1.286    0.000    1.000 
#    0.000    5.714    0.000    0.000    0.000    0.000 
#
# Total GULP energy -693776.616197 kJ/mol
# GULP energy per Si atom -12388.868146 kJ/mol
# Density = 1.486104 g / cm^3
# Si number density = 14.894945 Si / 1000 Ang^3
#
#
#
# Elastic Constant Matrix: (Units=GPa)
#
#
# Indices 1 2 3 4 5 6 
#
# 1 82.5376 31.2528 55.6719 0.0000 0.0000 0.0000
# 2 31.2528 46.9657 40.1133 0.0000 0.0000 0.0000
# 3 55.6719 40.1133 124.0063 0.0000 0.0000 0.0000
# 4 0.0000 0.0000 0.0000 21.4321 0.0000 0.0000
# 5 0.0000 0.0000 0.0000 0.0000 23.9904 0.0000
# 6 0.0000 0.0000 0.0000 0.0000 0.0000 20.5985
#
#
#
# Elastic Compliance Matrix: (Units=1/GPa)
#
#
# Indices 1 2 3 4 5 6 
#
# 1 0.019090 -0.007438 -0.006164 0.000000 0.000000 0.000000
# 2 -0.007438 0.032319 -0.007115 0.000000 0.000000 0.000000
# 3 -0.006164 -0.007115 0.013133 0.000000 0.000000 0.000000
# 4 0.000000 0.000000 0.000000 0.046659 0.000000 0.000000
# 5 0.000000 0.000000 0.000000 0.000000 0.041683 0.000000
# 6 0.000000 0.000000 0.000000 0.000000 0.000000 0.048547
#
#
# Mechanical properties :
#
#
# Convention : Reuss Voigt Hill
#
# Bulk Modulus (GPa) = 43.27754 56.39840 49.83797
# Shear Modulus (GPa) = 19.95458 21.63562 20.79510
#
# Velocity S-wave (km/s) = 3.66415 3.81537 3.74052
# Velocity P-wave (km/s) = 6.85708 7.57335 7.22410
#
# Compressibility (1/GPa) = 0.02310667
#
# Stress axis : x y z
#
# Youngs Moduli (GPa) = 52.38338 30.94170 76.14391
#
# Poissons Ratio (x) = 0.23016 0.46937
# Poissons Ratio (y) = 0.38965 0.54176
# Poissons Ratio (z) = 0.32290 0.22015
#
# Static dielectric constant tensor:
#      x y z
#    x 2.792010 0.000000 0.000000 
#    y 0.000000 2.781800 0.000000 
#    z 0.000000 0.000000 3.190190 
# 
# 
# High freq. dielectric constant tensor:
#      x y z
#    x 1.542370 0.000000 0.000000 
#    y 0.000000 1.562500 0.000000 
#    z 0.000000 0.000000 1.566850 
# 
# From -- ./inp_files/26421.got.cif
#   From: 2010.03.12/outbox.cif.g09.slc.cpg/sg59_14_cif.got.tgz:26421.got - 2010.04.16 16:29:54.
