data_PCOD8239786
_publ_section_title
;
Structure prediction by ZEFSAII (Michael W. Deem and Ramdas Pophale) SiO2 
 PCOD8239786
Probable space group: P M M N
;
_chemical_formula_sum "Si O2"
_cell_formula_units_Z 64
_cell_length_a 23.237717
_cell_length_b 9.055641
_cell_length_c 15.297702
_cell_angle_alpha 90.000000
_cell_angle_beta 90.000000
_cell_angle_gamma 90.000000
_cell_volume 3219.132495
_symmetry_space_group_name_H-M "P M M N"
_symmetry_group_IT_number 59
_space_group.IT_coordinate_system_code '2'
_symmetry_cell_setting 'orthorhombic'
loop_
_space_group_symop_operation_xyz
x,y,z
1/2-x,1/2-y,z
1/2+x,-y,-z
-x,1/2+y,-z
-x,-y,-z
1/2+x,1/2+y,-z
1/2-x,y,z
x,1/2-y,z
loop_
_atom_site_type_symbol
_atom_site_label
_atom_site_fract_x
_atom_site_fract_y
_atom_site_fract_z
Si Si1 0.317224 0.580024 0.461989
Si Si2 0.623929 0.922256 0.688576
Si Si3 0.514557 0.075175 0.133676
Si Si4 0.611767 0.923686 0.887367
Si Si5 0.007804 0.922056 0.669990
Si Si6 0.683801 0.421146 0.234358
Si Si7 0.615005 0.924952 0.385498
Si Si8 0.131535 0.576861 0.946575
O O1 0.250000 0.561692 0.479460
O O2 0.336027 0.750000 0.470926
O O3 0.331751 0.521377 0.365344
O O4 0.350496 0.481840 0.531479
O O5 0.637670 0.750000 0.675090
O O6 0.632721 0.965864 0.790201
O O7 0.559380 0.956986 0.654642
O O8 0.511033 0.250000 0.133211
O O9 0.453398 0.014041 0.099847
O O10 0.525093 0.025932 0.232982
O O11 0.567429 0.017181 0.076072
O O12 0.614946 0.750000 0.900374
O O13 0.650805 0.999016 0.962790
O O14 0.020224 0.750000 0.654481
O O15 0.049232 0.016530 0.606652
O O16 0.750000 0.448818 0.258102
O O17 0.666502 0.250000 0.248216
O O18 0.644683 0.518737 0.296930
O O19 0.673707 0.465913 0.133094
O O20 0.614907 0.750000 0.386677
O O21 0.132416 0.750000 0.962982
#
# Coordination Sequence:
#
# PCOD8239786 Si02
#       8
#     8   8   8   8   8   8   8   8
#     4  11  25  44  65  86 110 147 193 238 286 343
#     4   9  20  39  63  88 117 153 191 238 291 338
#     4   8  14  28  50  76 109 148 185 223 267 323
#     4   9  18  32  52  80 113 146 183 227 281 336
#     4   9  17  35  60  85 119 158 190 225 279 346
#     4  10  21  38  58  78 108 153 198 238 284 341
#     4  12  24  37  59  90 119 147 184 234 290 346
#     4  10  18  30  51  78 109 148 191 231 274 325
#
# _framework density 19.881132000000001
#
# number of rings (size 3 to 8) (size 9 to 14) (size 15 to 20)
#    0.000    2.250    1.250    3.750    0.000    4.750 
#    0.000    2.500    0.000    2.250    0.000    0.000 
#    0.000    0.000    0.000    0.000    0.000    0.000 
#
# Total GULP energy -793442.096575 kJ/mol
# GULP energy per Si atom -12397.532759 kJ/mol
# Density = 1.983588 g / cm^3
# Si number density = 19.881132 Si / 1000 Ang^3
#
#
#
# Elastic Constant Matrix: (Units=GPa)
#
#
# Indices 1 2 3 4 5 6 
#
# 1 23.6732 18.9861 16.6124 0.0000 0.0000 0.0000
# 2 18.9861 74.5995 33.6122 0.0000 0.0000 0.0000
# 3 16.6124 33.6122 78.4454 0.0000 0.0000 0.0000
# 4 0.0000 0.0000 0.0000 34.3409 0.0000 0.0000
# 5 0.0000 0.0000 0.0000 0.0000 22.2777 0.0000
# 6 0.0000 0.0000 0.0000 0.0000 0.0000 22.9401
#
#
#
# Elastic Compliance Matrix: (Units=1/GPa)
#
#
# Indices 1 2 3 4 5 6 
#
# 1 0.056131 -0.011066 -0.007145 0.000000 0.000000 0.000000
# 2 -0.011066 0.018794 -0.005709 0.000000 0.000000 0.000000
# 3 -0.007145 -0.005709 0.016707 0.000000 0.000000 0.000000
# 4 0.000000 0.000000 0.000000 0.029120 0.000000 0.000000
# 5 0.000000 0.000000 0.000000 0.000000 0.044888 0.000000
# 6 0.000000 0.000000 0.000000 0.000000 0.000000 0.043592
#
#
# Mechanical properties :
#
#
# Convention : Reuss Voigt Hill
#
# Bulk Modulus (GPa) = 22.83596 35.01550 28.92573
# Shear Modulus (GPa) = 18.40466 23.07890 20.74178
#
# Velocity S-wave (km/s) = 3.04589 3.41081 3.23350
# Velocity P-wave (km/s) = 4.88683 5.75866 5.34057
#
# Compressibility (1/GPa) = 0.04379059
#
# Stress axis : x y z
#
# Youngs Moduli (GPa) = 17.81536 53.20907 59.85461
#
# Poissons Ratio (x) = 0.58883 0.42768
# Poissons Ratio (y) = 0.19715 0.34172
# Poissons Ratio (z) = 0.12730 0.30378
#
# Static dielectric constant tensor:
#      x y z
#    x 3.686120 0.000000 0.000000 
#    y 0.000000 3.326840 0.000000 
#    z 0.000000 0.000000 3.659020 
# 
# 
# High freq. dielectric constant tensor:
#      x y z
#    x 1.764340 0.000000 0.000000 
#    y 0.000000 1.751910 0.000000 
#    z 0.000000 0.000000 1.782510 
# 
# From -- ./inp_files/24798.got.cif
#   From: 2010.03.12/outbox.cif.g09.slc.cpg/sg59_13_cif.got.tgz:24798.got - 2010.04.16 16:29:54.
