data_PCOD8239036
_publ_section_title
;
Structure prediction by ZEFSAII (Michael W. Deem and Ramdas Pophale) SiO2 
 PCOD8239036
Probable space group: P M M N
;
_chemical_formula_sum "Si O2"
_cell_formula_units_Z 30
_cell_length_a 10.703418
_cell_length_b 15.452852
_cell_length_c 8.892538
_cell_angle_alpha 90.000000
_cell_angle_beta 90.000000
_cell_angle_gamma 90.000000
_cell_volume 1470.810972
_symmetry_space_group_name_H-M "P M M N"
_symmetry_group_IT_number 59
_space_group.IT_coordinate_system_code '2'
_symmetry_cell_setting 'orthorhombic'
loop_
_space_group_symop_operation_xyz
x,y,z
1/2-x,1/2-y,z
1/2+x,-y,-z
-x,1/2+y,-z
-x,-y,-z
1/2+x,1/2+y,-z
1/2-x,y,z
x,1/2-y,z
loop_
_atom_site_type_symbol
_atom_site_label
_atom_site_fract_x
_atom_site_fract_y
_atom_site_fract_z
Si Si1 0.607468 0.919177 0.827923
Si Si2 0.393874 0.250000 0.677989
Si Si3 0.250000 0.655389 0.011321
Si Si4 0.750000 0.250000 0.278725
Si Si5 0.522594 0.750000 0.654415
Si Si6 0.996732 0.908142 0.141760
O O1 0.750000 0.935588 0.776780
O O2 0.557211 0.832711 0.752363
O O3 0.515959 0.998579 0.777363
O O4 0.605883 0.909114 0.009638
O O5 0.250000 0.250000 0.728366
O O6 0.400974 0.250000 0.498977
O O7 0.461946 0.164200 0.737547
O O8 0.250000 0.750000 0.089154
O O9 0.371163 0.604922 0.061373
O O10 0.250000 0.665198 0.829676
O O11 0.873958 0.250000 0.381543
#
# Coordination Sequence:
#
# PCOD8239036 Si02
#       6
#     8   4   4   2   4   8
#     4  11  22  39  66  95 123 162 211 261 311 365
#     4  12  26  45  62  90 131 169 205 253 308 377
#     4  10  16  37  66  92 127 148 208 279 295 370
#     4  10  20  40  64  88 122 162 212 256 316 368
#     4  12  25  43  62  88 130 173 207 251 310 371
#     4  11  22  38  67  95 123 162 209 260 315 362
#
# _framework density 20.396912
#
# number of rings (size 3 to 8) (size 9 to 14) (size 15 to 20)
#    0.400    0.533    5.333    2.800    0.000    2.133 
#    2.400    0.000    0.000    0.000    0.000    0.000 
#    0.000    0.000    0.000    0.000    0.000    0.000 
#
# Total GULP energy -371923.088235 kJ/mol
# GULP energy per Si atom -12397.436274 kJ/mol
# Density = 2.035049 g / cm^3
# Si number density = 20.396912 Si / 1000 Ang^3
#
#
#
# Elastic Constant Matrix: (Units=GPa)
#
#
# Indices 1 2 3 4 5 6 
#
# 1 109.3066 29.9553 17.5088 0.0000 0.0000 0.0000
# 2 29.9553 174.4285 52.0249 0.0000 0.0000 0.0000
# 3 17.5088 52.0249 58.2932 0.0000 0.0000 0.0000
# 4 0.0000 0.0000 0.0000 -4.5760 0.0000 0.0000
# 5 0.0000 0.0000 0.0000 0.0000 20.9992 0.0000
# 6 0.0000 0.0000 0.0000 0.0000 0.0000 14.3634
#
#
#
# Elastic Compliance Matrix: (Units=1/GPa)
#
#
# Indices 1 2 3 4 5 6 
#
# 1 0.009761 -0.001093 -0.001957 0.000000 0.000000 0.000000
# 2 -0.001093 0.007935 -0.006753 0.000000 0.000000 0.000000
# 3 -0.001957 -0.006753 0.023770 0.000000 0.000000 0.000000
# 4 0.000000 0.000000 0.000000 -0.218534 0.000000 0.000000
# 5 0.000000 0.000000 0.000000 0.000000 0.047621 0.000000
# 6 0.000000 0.000000 0.000000 0.000000 0.000000 0.069621
#
#
# Mechanical properties :
#
#
# Convention : Reuss Voigt Hill
#
# Bulk Modulus (GPa) = 45.74519 60.11180 52.92850
# Shear Modulus (GPa) = -151.82438 22.32663 -64.74888
#
# Velocity S-wave (km/s) = -8.63693 3.31208 -5.64033
# Velocity P-wave (km/s) = 8.77416 6.64541 4.05120
#
# Compressibility (1/GPa) = 0.02186022
#
# Stress axis : x y z
#
# Youngs Moduli (GPa) = 102.44360 126.02458 42.07053
#
# Poissons Ratio (x) = 0.13772 0.08232
# Poissons Ratio (y) = 0.11195 0.28412
# Poissons Ratio (z) = 0.20045 0.85110
#
# Static dielectric constant tensor:
#      x y z
#    x 3.782210 0.000000 0.000000 
#    y 0.000000 3.956400 0.000000 
#    z 0.000000 0.000000 3.255600 
# 
# 
# High freq. dielectric constant tensor:
#      x y z
#    x 1.811210 0.000000 0.000000 
#    y 0.000000 1.816130 0.000000 
#    z 0.000000 0.000000 1.754260 
# 
# From -- ./inp_files/6778.got.cif
#   From: 2010.03.12/outbox.cif.g09.slc.cpg/sg59_4_cif.got.tgz:6778.got - 2010.04.16 16:29:54.
