data_PCOD8239337
_publ_section_title
;
Structure prediction by ZEFSAII (Michael W. Deem and Ramdas Pophale) SiO2 
 PCOD8239337
Probable space group: P M M N
;
_chemical_formula_sum "Si O2"
_cell_formula_units_Z 56
_cell_length_a 20.098648
_cell_length_b 8.954240
_cell_length_c 21.345149
_cell_angle_alpha 90.000000
_cell_angle_beta 90.000000
_cell_angle_gamma 90.000000
_cell_volume 3841.446291
_symmetry_space_group_name_H-M "P M M N"
_symmetry_group_IT_number 59
_space_group.IT_coordinate_system_code '2'
_symmetry_cell_setting 'orthorhombic'
loop_
_space_group_symop_operation_xyz
x,y,z
1/2-x,1/2-y,z
1/2+x,-y,-z
-x,1/2+y,-z
-x,-y,-z
1/2+x,1/2+y,-z
1/2-x,y,z
x,1/2-y,z
loop_
_atom_site_type_symbol
_atom_site_label
_atom_site_fract_x
_atom_site_fract_y
_atom_site_fract_z
Si Si1 0.951700 0.927437 0.050073
Si Si2 0.568679 0.079933 0.172185
Si Si3 0.523155 0.918328 0.594986
Si Si4 0.398822 0.582413 0.502519
Si Si5 0.325022 0.422235 0.604572
Si Si6 0.175064 0.920033 0.921573
Si Si7 0.441430 0.426325 0.695144
O O1 0.957402 0.750000 0.048199
O O2 0.973227 0.991499 0.118545
O O3 0.874914 0.979176 0.035918
O O4 0.000000 0.000000 0.000000
O O5 0.542707 0.250000 0.177612
O O6 0.646478 0.077101 0.150046
O O7 0.559513 0.997912 0.237123
O O8 0.541072 0.750000 0.614849
O O9 0.462639 0.921371 0.546848
O O10 0.586987 0.992070 0.561382
O O11 0.504655 0.012156 0.656780
O O12 0.379582 0.750000 0.483684
O O13 0.337670 0.510174 0.540096
O O14 0.250000 0.452093 0.627188
O O15 0.338632 0.250000 0.589346
O O16 0.373539 0.475325 0.660188
O O17 0.250000 0.985458 0.922804
O O18 0.174190 0.750000 0.946979
O O19 0.447939 0.250000 0.701521
#
# Coordination Sequence:
#
# PCOD8239337 Si02
#       7
#     8   8   8   8   8   8   8
#     4  10  18  30  47  67  89 118 153 191 231 270
#     4   9  18  30  43  61  87 119 150 183 221 264
#     4   9  16  26  41  57  76 103 133 171 217 261
#     4   9  16  26  40  58  76  98 133 175 216 255
#     4   9  18  30  41  55  80 113 146 178 213 256
#     4   8  16  30  45  63  89 120 152 186 222 262
#     4  10  18  28  41  60  84 112 146 184 218 256
#
# _framework density 14.577842
#
# number of rings (size 3 to 8) (size 9 to 14) (size 15 to 20)
#    0.857    2.000    0.000    2.571    0.000    5.143 
#    0.000    0.000    0.000    0.000    0.000    0.000 
#    0.000    1.143    0.000    4.286    0.000    6.571 
#
# Total GULP energy -693906.960224 kJ/mol
# GULP energy per Si atom -12391.195718 kJ/mol
# Density = 1.454466 g / cm^3
# Si number density = 14.577842 Si / 1000 Ang^3
#
#
#
# Elastic Constant Matrix: (Units=GPa)
#
#
# Indices 1 2 3 4 5 6 
#
# 1 35.1733 33.1113 54.7937 0.0000 0.0000 0.0000
# 2 33.1113 112.5610 58.6439 0.0000 0.0000 0.0000
# 3 54.7937 58.6439 97.1138 0.0000 0.0000 0.0000
# 4 0.0000 0.0000 0.0000 27.9917 0.0000 0.0000
# 5 0.0000 0.0000 0.0000 0.0000 16.7366 0.0000
# 6 0.0000 0.0000 0.0000 0.0000 0.0000 19.5968
#
#
#
# Elastic Compliance Matrix: (Units=1/GPa)
#
#
# Indices 1 2 3 4 5 6 
#
# 1 0.234879 -0.000071 -0.132482 0.000000 0.000000 0.000000
# 2 -0.000071 0.012962 -0.007788 0.000000 0.000000 0.000000
# 3 -0.132482 -0.007788 0.089749 0.000000 0.000000 0.000000
# 4 0.000000 0.000000 0.000000 0.035725 0.000000 0.000000
# 5 0.000000 0.000000 0.000000 0.000000 0.059749 0.000000
# 6 0.000000 0.000000 0.000000 0.000000 0.000000 0.051029
#
#
# Mechanical properties :
#
#
# Convention : Reuss Voigt Hill
#
# Bulk Modulus (GPa) = 17.57127 59.77177 38.67152
# Shear Modulus (GPa) = 6.37964 19.41830 12.89897
#
# Velocity S-wave (km/s) = 2.09422 3.65367 2.97784
# Velocity P-wave (km/s) = 4.23406 7.67398 6.19747
#
# Compressibility (1/GPa) = 0.05691108
#
# Stress axis : x y z
#
# Youngs Moduli (GPa) = 4.25750 77.14772 11.14220
#
# Poissons Ratio (x) = 0.00544 1.47614
# Poissons Ratio (y) = 0.00030 0.08677
# Poissons Ratio (z) = 0.56404 0.60080
#
# Static dielectric constant tensor:
#      x y z
#    x 2.620490 0.000000 0.000000 
#    y 0.000000 2.987840 0.000000 
#    z 0.000000 0.000000 2.641540 
# 
# 
# High freq. dielectric constant tensor:
#      x y z
#    x 1.520570 0.000000 0.000000 
#    y 0.000000 1.574260 0.000000 
#    z 0.000000 0.000000 1.532470 
# 
# From -- ./inp_files/30884.got.cif
#   From: 2010.03.12/outbox.cif.g09.slc.cpg/sg59_16_cif.got.tgz:30884.got - 2010.04.16 16:29:54.
