data_PCOD8239651
_publ_section_title
;
Structure prediction by ZEFSAII (Michael W. Deem and Ramdas Pophale) SiO2 
 PCOD8239651
Probable space group: P M M N
;
_chemical_formula_sum "Si O2"
_cell_formula_units_Z 64
_cell_length_a 21.580984
_cell_length_b 8.927525
_cell_length_c 19.143106
_cell_angle_alpha 90.000000
_cell_angle_beta 90.000000
_cell_angle_gamma 90.000000
_cell_volume 3688.202195
_symmetry_space_group_name_H-M "P M M N"
_symmetry_group_IT_number 59
_space_group.IT_coordinate_system_code '2'
_symmetry_cell_setting 'orthorhombic'
loop_
_space_group_symop_operation_xyz
x,y,z
1/2-x,1/2-y,z
1/2+x,-y,-z
-x,1/2+y,-z
-x,-y,-z
1/2+x,1/2+y,-z
1/2-x,y,z
x,1/2-y,z
loop_
_atom_site_type_symbol
_atom_site_label
_atom_site_fract_x
_atom_site_fract_y
_atom_site_fract_z
Si Si1 0.180689 0.581786 0.698814
Si Si2 0.494155 0.575059 0.329591
Si Si3 0.939503 0.074505 0.531824
Si Si4 0.990762 0.428083 0.826870
Si Si5 0.443457 0.426889 0.043373
Si Si6 0.617976 0.073926 0.159996
Si Si7 0.614581 0.924999 0.411995
Si Si8 0.819738 0.576667 0.038631
O O1 0.250000 0.571042 0.727364
O O2 0.164549 0.750000 0.674702
O O3 0.136768 0.530962 0.761601
O O4 0.174451 0.472512 0.632155
O O5 0.504038 0.750000 0.318669
O O6 0.437511 0.542020 0.384204
O O7 0.481155 0.507787 0.252480
O O8 0.556726 0.512812 0.365710
O O9 0.942415 0.250000 0.518108
O O10 0.882455 0.002720 0.488818
O O11 0.000000 0.000000 0.500000
O O12 0.983603 0.250000 0.831120
O O13 0.941374 0.506399 0.877964
O O14 0.057341 0.477049 0.856974
O O15 0.455011 0.250000 0.044811
O O16 0.500000 0.500000 0.000000
O O17 0.374952 0.467149 0.014539
O O18 0.604804 0.250000 0.151574
O O19 0.672075 0.023805 0.107649
O O20 0.611543 0.750000 0.424868
O O21 0.750000 0.544645 0.008353
O O22 0.825713 0.750000 0.059622
#
# Coordination Sequence:
#
# PCOD8239651 Si02
#       8
#     8   8   8   8   8   8   8   8
#     4  10  21  34  46  66  98 135 173 214 257 301
#     4   8  16  29  46  68  96 126 159 198 244 295
#     4   9  16  28  45  68  94 123 157 196 241 290
#     4  11  20  33  52  75 105 140 173 209 254 311
#     4  11  22  36  54  78 106 135 171 216 265 317
#     4  11  21  33  51  75 103 135 173 216 259 305
#     4  10  18  30  46  67  94 128 167 205 247 295
#     4  10  22  39  57  75  99 136 177 215 259 313
#
# _framework density 17.352627999999999
#
# number of rings (size 3 to 8) (size 9 to 14) (size 15 to 20)
#    0.000    2.000    2.500    3.000    0.000    2.000 
#    0.000    1.875    0.000    0.000    0.000    0.875 
#    0.000    5.000    0.000    0.000    0.000    0.000 
#
# Total GULP energy -793125.592364 kJ/mol
# GULP energy per Si atom -12392.587381 kJ/mol
# Density = 1.731313 g / cm^3
# Si number density = 17.352628 Si / 1000 Ang^3
#
#
#
# Elastic Constant Matrix: (Units=GPa)
#
#
# Indices 1 2 3 4 5 6 
#
# 1 75.2575 29.6563 43.0384 0.0000 0.0000 0.0000
# 2 29.6563 75.1039 43.3740 0.0000 0.0000 0.0000
# 3 43.0384 43.3740 110.7295 0.0000 0.0000 0.0000
# 4 0.0000 0.0000 0.0000 28.8161 0.0000 0.0000
# 5 0.0000 0.0000 0.0000 0.0000 23.9885 0.0000
# 6 0.0000 0.0000 0.0000 0.0000 0.0000 20.0459
#
#
#
# Elastic Compliance Matrix: (Units=1/GPa)
#
#
# Indices 1 2 3 4 5 6 
#
# 1 0.017950 -0.003953 -0.005428 0.000000 0.000000 0.000000
# 2 -0.003953 0.018078 -0.005545 0.000000 0.000000 0.000000
# 3 -0.005428 -0.005545 0.013313 0.000000 0.000000 0.000000
# 4 0.000000 0.000000 0.000000 0.034703 0.000000 0.000000
# 5 0.000000 0.000000 0.000000 0.000000 0.041687 0.000000
# 6 0.000000 0.000000 0.000000 0.000000 0.000000 0.049886
#
#
# Mechanical properties :
#
#
# Convention : Reuss Voigt Hill
#
# Bulk Modulus (GPa) = 51.31253 54.80314 53.05783
# Shear Modulus (GPa) = 23.58886 24.23823 23.91354
#
# Velocity S-wave (km/s) = 3.69098 3.74144 3.71630
# Velocity P-wave (km/s) = 6.91369 7.09331 7.00408
#
# Compressibility (1/GPa) = 0.01948842
#
# Stress axis : x y z
#
# Youngs Moduli (GPa) = 55.71101 55.31551 75.11482
#
# Poissons Ratio (x) = 0.21865 0.40775
# Poissons Ratio (y) = 0.22022 0.41651
# Poissons Ratio (z) = 0.30242 0.30672
#
# Static dielectric constant tensor:
#      x y z
#    x 3.045420 0.000000 0.000000 
#    y 0.000000 3.219560 0.000000 
#    z 0.000000 0.000000 3.583470 
# 
# 
# High freq. dielectric constant tensor:
#      x y z
#    x 1.629650 0.000000 0.000000 
#    y 0.000000 1.672110 0.000000 
#    z 0.000000 0.000000 1.673280 
# 
# From -- ./inp_files/28449.got.cif
#   From: 2010.03.12/outbox.cif.g09.slc.cpg/sg59_15_cif.got.tgz:28449.got - 2010.04.16 16:29:54.
