data_PCOD8239478
_publ_section_title
;
Structure prediction by ZEFSAII (Michael W. Deem and Ramdas Pophale) SiO2 
 PCOD8239478
Probable space group: P M M N
;
_chemical_formula_sum "Si O2"
_cell_formula_units_Z 64
_cell_length_a 9.024560
_cell_length_b 26.194038
_cell_length_c 17.204237
_cell_angle_alpha 90.000000
_cell_angle_beta 90.000000
_cell_angle_gamma 90.000000
_cell_volume 4066.903865
_symmetry_space_group_name_H-M "P M M N"
_symmetry_group_IT_number 59
_space_group.IT_coordinate_system_code '2'
_symmetry_cell_setting 'orthorhombic'
loop_
_space_group_symop_operation_xyz
x,y,z
1/2-x,1/2-y,z
1/2+x,-y,-z
-x,1/2+y,-z
-x,-y,-z
1/2+x,1/2+y,-z
1/2-x,y,z
x,1/2-y,z
loop_
_atom_site_type_symbol
_atom_site_label
_atom_site_fract_x
_atom_site_fract_y
_atom_site_fract_z
Si Si1 0.074211 0.542412 0.328680
Si Si2 0.424092 0.447281 0.521036
Si Si3 0.423095 0.072769 0.354173
Si Si4 0.921214 0.558231 0.172358
Si Si5 0.084846 0.465404 0.102560
Si Si6 0.578918 0.886663 0.021302
Si Si7 0.415888 0.368956 0.211828
Si Si8 0.923826 0.191560 0.084457
O O1 0.250000 0.546773 0.334368
O O2 0.014934 0.483944 0.333837
O O3 0.001895 0.574164 0.400865
O O4 0.019416 0.567683 0.248683
O O5 0.500000 0.500000 0.500000
O O6 0.250000 0.454972 0.535475
O O7 0.452456 0.411840 0.444563
O O8 0.250000 0.069327 0.336431
O O9 0.486688 0.116881 0.296844
O O10 0.750000 0.553796 0.196304
O O11 0.946671 0.605883 0.113479
O O12 0.966425 0.507160 0.127355
O O13 0.250000 0.489713 0.095599
O O14 0.087946 0.421949 0.166975
O O15 0.032711 0.439570 0.021583
O O16 0.750000 0.875455 0.001026
O O17 0.485926 0.839174 0.989540
O O18 0.250000 0.346145 0.219365
O O19 0.514995 0.327817 0.167195
O O20 0.750000 0.184068 0.086105
O O21 0.970652 0.250000 0.073315
#
# Coordination Sequence:
#
# PCOD8239478 Si02
#       8
#     8   8   8   8   8   8   8   8
#     4  10  18  29  41  56  85 123 155 185 220 253
#     4   9  16  26  40  59  83 115 152 185 218 252
#     4   8  14  26  42  59  84 114 146 183 214 247
#     4  11  20  28  41  63  88 114 150 189 219 256
#     4   9  16  28  43  59  86 118 145 177 217 260
#     4   9  20  34  46  62  84 113 148 181 218 268
#     4   9  16  29  47  66  87 116 150 179 215 264
#     4  10  21  35  49  67  89 110 139 184 230 267
#
# _framework density 15.736788000000001
#
# number of rings (size 3 to 8) (size 9 to 14) (size 15 to 20)
#    0.000    2.625    1.250    3.375    0.000    4.000 
#    0.000    1.250    0.000    0.000    0.000    0.000 
#    0.000    1.000    0.000    9.500    0.000    5.500 
#
# Total GULP energy -793113.002470 kJ/mol
# GULP energy per Si atom -12392.390664 kJ/mol
# Density = 1.570097 g / cm^3
# Si number density = 15.736788 Si / 1000 Ang^3
#
#
#
# Elastic Constant Matrix: (Units=GPa)
#
#
# Indices 1 2 3 4 5 6 
#
# 1 71.6215 30.1772 47.4850 0.0000 0.0000 0.0000
# 2 30.1772 43.8913 34.9938 0.0000 0.0000 0.0000
# 3 47.4850 34.9938 135.2916 0.0000 0.0000 0.0000
# 4 0.0000 0.0000 0.0000 9.7775 0.0000 0.0000
# 5 0.0000 0.0000 0.0000 0.0000 26.0630 0.0000
# 6 0.0000 0.0000 0.0000 0.0000 0.0000 17.4648
#
#
#
# Elastic Compliance Matrix: (Units=1/GPa)
#
#
# Indices 1 2 3 4 5 6 
#
# 1 0.021851 -0.011224 -0.004766 0.000000 0.000000 0.000000
# 2 -0.011224 0.034467 -0.004976 0.000000 0.000000 0.000000
# 3 -0.004766 -0.004976 0.010351 0.000000 0.000000 0.000000
# 4 0.000000 0.000000 0.000000 0.102276 0.000000 0.000000
# 5 0.000000 0.000000 0.000000 0.000000 0.038369 0.000000
# 6 0.000000 0.000000 0.000000 0.000000 0.000000 0.057258
#
#
# Mechanical properties :
#
#
# Convention : Reuss Voigt Hill
#
# Bulk Modulus (GPa) = 40.42291 52.90184 46.66238
# Shear Modulus (GPa) = 15.88557 19.87093 17.87825
#
# Velocity S-wave (km/s) = 3.18064 3.55731 3.37424
# Velocity P-wave (km/s) = 6.26349 7.11072 6.70051
#
# Compressibility (1/GPa) = 0.02473844
#
# Stress axis : x y z
#
# Youngs Moduli (GPa) = 45.76369 29.01291 96.60514
#
# Poissons Ratio (x) = 0.32563 0.46046
# Poissons Ratio (y) = 0.51363 0.48070
# Poissons Ratio (z) = 0.21813 0.14436
#
# Static dielectric constant tensor:
#      x y z
#    x 2.999910 0.000000 0.000000 
#    y 0.000000 2.553610 0.000000 
#    z 0.000000 0.000000 2.931010 
# 
# 
# High freq. dielectric constant tensor:
#      x y z
#    x 1.604730 0.000000 0.000000 
#    y 0.000000 1.536280 0.000000 
#    z 0.000000 0.000000 1.618890 
# 
# From -- ./inp_files/26512.got.cif
#   From: 2010.03.12/outbox.cif.g09.slc.cpg/sg59_14_cif.got.tgz:26512.got - 2010.04.16 16:29:54.
