data_PCOD8239967
_publ_section_title
;
Structure prediction by ZEFSAII (Michael W. Deem and Ramdas Pophale) SiO2 
 PCOD8239967
Probable space group: P M M N
;
_chemical_formula_sum "Si O2"
_cell_formula_units_Z 40
_cell_length_a 10.212435
_cell_length_b 8.997810
_cell_length_c 24.472446
_cell_angle_alpha 90.000000
_cell_angle_beta 90.000000
_cell_angle_gamma 90.000000
_cell_volume 2248.762045
_symmetry_space_group_name_H-M "P M M N"
_symmetry_group_IT_number 59
_space_group.IT_coordinate_system_code '2'
_symmetry_cell_setting 'orthorhombic'
loop_
_space_group_symop_operation_xyz
x,y,z
1/2-x,1/2-y,z
1/2+x,-y,-z
-x,1/2+y,-z
-x,-y,-z
1/2+x,1/2+y,-z
1/2-x,y,z
x,1/2-y,z
loop_
_atom_site_type_symbol
_atom_site_label
_atom_site_fract_x
_atom_site_fract_y
_atom_site_fract_z
Si Si1 0.250000 0.425960 0.433267
Si Si2 0.012957 0.573795 0.623865
Si Si3 0.098335 0.925584 0.957730
Si Si4 0.750000 0.073243 0.449579
Si Si5 0.594680 0.419937 0.259369
Si Si6 0.095114 0.415970 0.847243
O O1 0.250000 0.250000 0.442115
O O2 0.374409 0.480386 0.398829
O O3 0.250000 0.502854 0.491257
O O4 0.024792 0.750000 0.626752
O O5 0.123842 0.513506 0.583010
O O6 0.032656 0.512070 0.685236
O O7 0.250000 0.969493 0.970329
O O8 0.080118 0.750000 0.959653
O O9 0.054402 0.982884 0.898328
O O10 0.000000 0.000000 0.000000
O O11 0.750000 0.250000 0.455569
O O12 0.750000 0.431988 0.264557
O O13 0.551760 0.250000 0.250247
O O14 0.538350 0.513086 0.208332
O O15 0.250000 0.410380 0.842421
O O16 0.037604 0.250000 0.854807
#
# Coordination Sequence:
#
# PCOD8239967 Si02
#       6
#     4   8   8   4   8   8
#     4  10  20  32  46  68  96 122 151 194 241 286
#     4   9  17  30  49  69  91 121 157 195 238 288
#     4  10  20  34  54  80 109 142 178 216 258 305
#     4  10  18  32  50  68  90 122 159 192 233 288
#     4   9  15  27  48  69  88 118 162 204 239 286
#     4   9  17  29  47  74 104 131 163 209 256 295
#
# _framework density 17.787566000000002
#
# number of rings (size 3 to 8) (size 9 to 14) (size 15 to 20)
#    0.000    2.600    1.000    1.800    0.000    3.600 
#    0.000    2.000    2.200    0.000    0.000    0.000 
#    0.000    0.000    0.000    0.000    0.000    0.000 
#
# Total GULP energy -495929.077057 kJ/mol
# GULP energy per Si atom -12398.226926 kJ/mol
# Density = 1.774708 g / cm^3
# Si number density = 17.787566 Si / 1000 Ang^3
#
#
#
# Elastic Constant Matrix: (Units=GPa)
#
#
# Indices 1 2 3 4 5 6 
#
# 1 93.5433 34.1500 67.3920 0.0000 0.0000 0.0000
# 2 34.1500 72.3035 60.1562 0.0000 0.0000 0.0000
# 3 67.3920 60.1562 184.7588 0.0000 0.0000 0.0000
# 4 0.0000 0.0000 0.0000 35.1984 0.0000 0.0000
# 5 0.0000 0.0000 0.0000 0.0000 15.2508 0.0000
# 6 0.0000 0.0000 0.0000 0.0000 0.0000 13.0560
#
#
#
# Elastic Compliance Matrix: (Units=1/GPa)
#
#
# Indices 1 2 3 4 5 6 
#
# 1 0.015121 -0.003501 -0.004375 0.000000 0.000000 0.000000
# 2 -0.003501 0.019780 -0.005163 0.000000 0.000000 0.000000
# 3 -0.004375 -0.005163 0.008689 0.000000 0.000000 0.000000
# 4 0.000000 0.000000 0.000000 0.028410 0.000000 0.000000
# 5 0.000000 0.000000 0.000000 0.000000 0.065570 0.000000
# 6 0.000000 0.000000 0.000000 0.000000 0.000000 0.076593
#
#
# Mechanical properties :
#
#
# Convention : Reuss Voigt Hill
#
# Bulk Modulus (GPa) = 57.10878 74.88914 65.99896
# Shear Modulus (GPa) = 20.31855 25.29486 22.80670
#
# Velocity S-wave (km/s) = 3.38344 3.77510 3.58463
# Velocity P-wave (km/s) = 6.88762 7.82274 7.37002
#
# Compressibility (1/GPa) = 0.01751044
#
# Stress axis : x y z
#
# Youngs Moduli (GPa) = 66.13474 50.55604 115.08219
#
# Poissons Ratio (x) = 0.17702 0.50352
# Poissons Ratio (y) = 0.23157 0.59418
# Poissons Ratio (z) = 0.28936 0.26102
#
# Static dielectric constant tensor:
#      x y z
#    x 3.279210 0.000000 0.000000 
#    y 0.000000 3.206240 0.000000 
#    z 0.000000 0.000000 3.534630 
# 
# 
# High freq. dielectric constant tensor:
#      x y z
#    x 1.656860 0.000000 0.000000 
#    y 0.000000 1.670670 0.000000 
#    z 0.000000 0.000000 1.705730 
# 
# From -- ./inp_files/28748.got.cif
#   From: 2010.03.12/outbox.cif.g09.slc.cpg/sg59_15_cif.got.tgz:28748.got - 2010.04.16 16:29:54.
