data_PCOD8239825
_publ_section_title
;
Structure prediction by ZEFSAII (Michael W. Deem and Ramdas Pophale) SiO2 
 PCOD8239825
Probable space group: P M M N
;
_chemical_formula_sum "Si O2"
_cell_formula_units_Z 64
_cell_length_a 9.084939
_cell_length_b 28.326191
_cell_length_c 15.448818
_cell_angle_alpha 90.000000
_cell_angle_beta 90.000000
_cell_angle_gamma 90.000000
_cell_volume 3975.625355
_symmetry_space_group_name_H-M "P M M N"
_symmetry_group_IT_number 59
_space_group.IT_coordinate_system_code '2'
_symmetry_cell_setting 'orthorhombic'
loop_
_space_group_symop_operation_xyz
x,y,z
1/2-x,1/2-y,z
1/2+x,-y,-z
-x,1/2+y,-z
-x,-y,-z
1/2+x,1/2+y,-z
1/2-x,y,z
x,1/2-y,z
loop_
_atom_site_type_symbol
_atom_site_label
_atom_site_fract_x
_atom_site_fract_y
_atom_site_fract_z
Si Si1 0.077110 0.141221 0.162252
Si Si2 0.575038 0.697418 0.672711
Si Si3 0.079787 0.459580 0.104001
Si Si4 0.086115 0.193932 0.516351
Si Si5 0.919212 0.305806 0.684513
Si Si6 0.075284 0.346821 0.847498
Si Si7 0.077909 0.448973 0.907251
Si Si8 0.079422 0.804455 0.990877
O O1 0.250000 0.151106 0.147684
O O2 0.017555 0.162652 0.252300
O O3 0.045168 0.085218 0.164930
O O4 0.991476 0.164266 0.083452
O O5 0.750000 0.699875 0.673769
O O6 0.510688 0.750000 0.689720
O O7 0.525867 0.677637 0.578293
O O8 0.250000 0.472438 0.104580
O O9 0.995597 0.505749 0.139074
O O10 0.027297 0.446342 0.007143
O O11 0.250000 0.173350 0.534503
O O12 0.096063 0.250000 0.514348
O O13 0.974091 0.176784 0.590286
O O14 0.750000 0.320726 0.696119
O O15 0.939598 0.250000 0.695085
O O16 0.020273 0.331685 0.753792
O O17 0.250000 0.340677 0.854471
O O18 0.026380 0.400988 0.861390
O O19 0.000520 0.313600 0.918478
O O20 0.250000 0.455596 0.898650
O O21 0.250000 0.817827 0.000988
O O22 0.058561 0.750000 0.965735
#
# Coordination Sequence:
#
# PCOD8239825 Si02
#       8
#     8   8   8   8   8   8   8   8
#     4  10  18  31  49  70  94 123 160 195 228 271
#     4   8  14  25  45  71  95 121 155 193 227 262
#     4   9  17  30  47  68  91 117 152 192 233 276
#     4   8  14  27  46  67  90 119 156 191 224 265
#     4  10  20  32  46  68  97 125 153 187 230 277
#     4  11  21  34  50  68  89 119 159 196 230 273
#     4   9  18  32  47  66  89 115 152 194 234 276
#     4  11  23  34  43  62  95 130 160 189 224 270
#
# _framework density 16.098096000000002
#
# number of rings (size 3 to 8) (size 9 to 14) (size 15 to 20)
#    0.000    2.500    1.250    2.625    0.000    5.250 
#    0.000    0.625    0.000    2.250    0.000    0.875 
#    0.000    0.000    0.000    0.000    0.000    0.000 
#
# Total GULP energy -793476.571221 kJ/mol
# GULP energy per Si atom -12398.071425 kJ/mol
# Density = 1.606146 g / cm^3
# Si number density = 16.098096 Si / 1000 Ang^3
#
#
#
# Elastic Constant Matrix: (Units=GPa)
#
#
# Indices 1 2 3 4 5 6 
#
# 1 54.5802 30.6479 25.7501 0.0000 0.0000 0.0000
# 2 30.6479 71.1284 29.5437 0.0000 0.0000 0.0000
# 3 25.7501 29.5437 90.7061 0.0000 0.0000 0.0000
# 4 0.0000 0.0000 0.0000 8.9014 0.0000 0.0000
# 5 0.0000 0.0000 0.0000 0.0000 11.7790 0.0000
# 6 0.0000 0.0000 0.0000 0.0000 0.0000 23.8740
#
#
#
# Elastic Compliance Matrix: (Units=1/GPa)
#
#
# Indices 1 2 3 4 5 6 
#
# 1 0.025502 -0.009230 -0.004233 0.000000 0.000000 0.000000
# 2 -0.009230 0.019599 -0.003763 0.000000 0.000000 0.000000
# 3 -0.004233 -0.003763 0.013452 0.000000 0.000000 0.000000
# 4 0.000000 0.000000 0.000000 0.112342 0.000000 0.000000
# 5 0.000000 0.000000 0.000000 0.000000 0.084897 0.000000
# 6 0.000000 0.000000 0.000000 0.000000 0.000000 0.041887
#
#
# Mechanical properties :
#
#
# Convention : Reuss Voigt Hill
#
# Bulk Modulus (GPa) = 41.49394 43.14422 42.31908
# Shear Modulus (GPa) = 14.69876 17.60907 16.15391
#
# Velocity S-wave (km/s) = 3.02499 3.31094 3.17119
# Velocity P-wave (km/s) = 6.16704 6.44015 6.30507
#
# Compressibility (1/GPa) = 0.02409991
#
# Stress axis : x y z
#
# Youngs Moduli (GPa) = 39.21320 51.02249 74.33750
#
# Poissons Ratio (x) = 0.47093 0.31469
# Poissons Ratio (y) = 0.36193 0.27976
# Poissons Ratio (z) = 0.16600 0.19202
#
# Static dielectric constant tensor:
#      x y z
#    x 2.998200 0.000000 0.000000 
#    y 0.000000 3.059470 0.000000 
#    z 0.000000 0.000000 3.212260 
# 
# 
# High freq. dielectric constant tensor:
#      x y z
#    x 1.612680 0.000000 0.000000 
#    y 0.000000 1.599510 0.000000 
#    z 0.000000 0.000000 1.607740 
# 
# From -- ./inp_files/21880.got.cif
#   From: 2010.03.12/outbox.cif.g09.slc.cpg/sg59_11_cif.got.tgz:21880.got - 2010.04.16 16:29:54.
