data_PCOD8239595
_publ_section_title
;
Structure prediction by ZEFSAII (Michael W. Deem and Ramdas Pophale) SiO2 
 PCOD8239595
Probable space group: P M M N
;
_chemical_formula_sum "Si O2"
_cell_formula_units_Z 48
_cell_length_a 8.913496
_cell_length_b 20.674404
_cell_length_c 14.845297
_cell_angle_alpha 90.000000
_cell_angle_beta 90.000000
_cell_angle_gamma 90.000000
_cell_volume 2735.709403
_symmetry_space_group_name_H-M "P M M N"
_symmetry_group_IT_number 59
_space_group.IT_coordinate_system_code '2'
_symmetry_cell_setting 'orthorhombic'
loop_
_space_group_symop_operation_xyz
x,y,z
1/2-x,1/2-y,z
1/2+x,-y,-z
-x,1/2+y,-z
-x,-y,-z
1/2+x,1/2+y,-z
1/2-x,y,z
x,1/2-y,z
loop_
_atom_site_type_symbol
_atom_site_label
_atom_site_fract_x
_atom_site_fract_y
_atom_site_fract_z
Si Si1 0.073600 0.049834 0.569617
Si Si2 0.427121 0.046300 0.072854
Si Si3 0.074726 0.486598 0.273446
Si Si4 0.577523 0.358186 0.309820
Si Si5 0.420380 0.319702 0.478028
Si Si6 0.923414 0.321938 0.109022
O O1 0.250000 0.037803 0.568613
O O2 0.028680 0.122995 0.543991
O O3 0.000000 0.000000 0.500000
O O4 0.011854 0.042104 0.671518
O O5 0.250000 0.046817 0.060577
O O6 0.475573 0.016492 0.169141
O O7 0.483245 0.120494 0.061938
O O8 0.500000 0.000000 0.000000
O O9 0.250000 0.498831 0.282924
O O10 0.030279 0.419701 0.320196
O O11 0.750000 0.379957 0.318787
O O12 0.529188 0.312985 0.391820
O O13 0.550012 0.321770 0.216085
O O14 0.250000 0.331998 0.445266
O O15 0.432600 0.250000 0.528354
O O16 0.750000 0.334244 0.085725
O O17 0.972683 0.250000 0.074416
#
# Coordination Sequence:
#
# PCOD8239595 Si02
#       6
#     8   8   8   8   8   8
#     4  11  21  33  52  75 102 137 177 217 256 303
#     4  10  21  36  56  80 106 136 174 220 268 318
#     4  10  20  34  52  76 104 135 173 215 260 311
#     4  10  18  29  48  74 103 136 172 208 252 306
#     4  10  21  34  47  67 100 139 175 214 260 306
#     4   9  18  32  50  75 108 140 169 207 258 317
#
# _framework density 17.545722999999999
#
# number of rings (size 3 to 8) (size 9 to 14) (size 15 to 20)
#    0.000    2.000    1.667    2.500    0.000    4.667 
#    0.000    0.000    0.000    1.000    0.000    4.667 
#    0.000    0.000    0.000    0.000    0.000    0.000 
#
# Total GULP energy -595027.907307 kJ/mol
# GULP energy per Si atom -12396.414736 kJ/mol
# Density = 1.750579 g / cm^3
# Si number density = 17.545723 Si / 1000 Ang^3
#
#
#
# Elastic Constant Matrix: (Units=GPa)
#
#
# Indices 1 2 3 4 5 6 
#
# 1 70.7751 50.4089 39.4691 0.0000 0.0000 0.0000
# 2 50.4089 145.5201 64.3679 0.0000 0.0000 0.0000
# 3 39.4691 64.3679 75.7572 0.0000 0.0000 0.0000
# 4 0.0000 0.0000 0.0000 23.5202 0.0000 0.0000
# 5 0.0000 0.0000 0.0000 0.0000 27.7637 0.0000
# 6 0.0000 0.0000 0.0000 0.0000 0.0000 25.3304
#
#
#
# Elastic Compliance Matrix: (Units=1/GPa)
#
#
# Indices 1 2 3 4 5 6 
#
# 1 0.021242 -0.003946 -0.007714 0.000000 0.000000 0.000000
# 2 -0.003946 0.011743 -0.007921 0.000000 0.000000 0.000000
# 3 -0.007714 -0.007921 0.023949 0.000000 0.000000 0.000000
# 4 0.000000 0.000000 0.000000 0.042517 0.000000 0.000000
# 5 0.000000 0.000000 0.000000 0.000000 0.036018 0.000000
# 6 0.000000 0.000000 0.000000 0.000000 0.000000 0.039478
#
#
# Mechanical properties :
#
#
# Convention : Reuss Voigt Hill
#
# Bulk Modulus (GPa) = 56.27166 66.72713 61.49939
# Shear Modulus (GPa) = 22.72379 24.50996 23.61688
#
# Velocity S-wave (km/s) = 3.60268 3.74159 3.67279
# Velocity P-wave (km/s) = 7.03184 7.53519 7.28786
#
# Compressibility (1/GPa) = 0.01777094
#
# Stress axis : x y z
#
# Youngs Moduli (GPa) = 47.07730 85.15907 41.75453
#
# Poissons Ratio (x) = 0.33605 0.32209
# Poissons Ratio (y) = 0.18577 0.33076
# Poissons Ratio (z) = 0.36315 0.67458
#
# Static dielectric constant tensor:
#      x y z
#    x 3.306360 0.000000 0.000000 
#    y 0.000000 3.417960 0.000000 
#    z 0.000000 0.000000 3.130060 
# 
# 
# High freq. dielectric constant tensor:
#      x y z
#    x 1.687000 0.000000 0.000000 
#    y 0.000000 1.678320 0.000000 
#    z 0.000000 0.000000 1.645360 
# 
# From -- ./inp_files/14307.got.cif
#   From: 2010.03.12/outbox.cif.g09.slc.cpg/sg59_8_cif.got.tgz:14307.got - 2010.04.16 16:29:54.
