data_PCOD8239494
_publ_section_title
;
Structure prediction by ZEFSAII (Michael W. Deem and Ramdas Pophale) SiO2 
 PCOD8239494
Probable space group: P M M N
;
_chemical_formula_sum "Si O2"
_cell_formula_units_Z 64
_cell_length_a 20.345362
_cell_length_b 9.014157
_cell_length_c 20.424079
_cell_angle_alpha 90.000000
_cell_angle_beta 90.000000
_cell_angle_gamma 90.000000
_cell_volume 3745.700260
_symmetry_space_group_name_H-M "P M M N"
_symmetry_group_IT_number 59
_space_group.IT_coordinate_system_code '2'
_symmetry_cell_setting 'orthorhombic'
loop_
_space_group_symop_operation_xyz
x,y,z
1/2-x,1/2-y,z
1/2+x,-y,-z
-x,1/2+y,-z
-x,-y,-z
1/2+x,1/2+y,-z
1/2-x,y,z
x,1/2-y,z
loop_
_atom_site_type_symbol
_atom_site_label
_atom_site_fract_x
_atom_site_fract_y
_atom_site_fract_z
Si Si1 0.041528 0.078187 0.330488
Si Si2 0.570696 0.917582 0.927102
Si Si3 0.099325 0.416560 0.818013
Si Si4 0.438415 0.573125 0.464443
Si Si5 0.056116 0.582112 0.200598
Si Si6 0.914950 0.417201 0.054952
Si Si7 0.176964 0.573918 0.558296
Si Si8 0.387839 0.579188 0.689571
O O1 0.061391 0.250000 0.336626
O O2 0.963567 0.058195 0.329150
O O3 0.069706 0.986394 0.391244
O O4 0.074354 0.010918 0.265237
O O5 0.596999 0.750000 0.921769
O O6 0.492791 0.918814 0.935788
O O7 0.591037 0.005658 0.861568
O O8 0.604860 0.995423 0.989224
O O9 0.125858 0.250000 0.825095
O O10 0.119887 0.506043 0.882963
O O11 0.132387 0.489766 0.754392
O O12 0.021440 0.419062 0.809953
O O13 0.500000 0.500000 0.500000
O O14 0.447352 0.750000 0.464823
O O15 0.372778 0.520894 0.502161
O O16 0.082238 0.750000 0.207718
O O17 0.888598 0.250000 0.049210
O O18 0.250000 0.513099 0.542656
O O19 0.176250 0.750000 0.561529
O O20 0.154140 0.514148 0.629258
O O21 0.371927 0.750000 0.703829
#
# Coordination Sequence:
#
# PCOD8239494 Si02
#       8
#     8   8   8   8   8   8   8   8
#     4  10  18  29  44  65  88 114 148 189 232 275
#     4   9  15  22  32  47  71 105 141 180 221 266
#     4   9  16  24  35  53  76 104 139 181 223 263
#     4  11  20  32  50  72  93 119 152 192 236 282
#     4   9  16  25  36  54  78 108 143 182 224 269
#     4   9  15  22  32  47  69 102 142 182 218 261
#     4   9  18  33  51  70  92 120 155 192 232 281
#     4   9  16  28  44  62  83 111 146 184 225 269
#
# _framework density 17.086258999999998
#
# number of rings (size 3 to 8) (size 9 to 14) (size 15 to 20)
#    0.000    2.625    1.250    2.250    0.000    6.500 
#    0.000    0.000    0.000    3.375    0.000    0.000 
#    0.000    0.000    0.000    1.125    0.000   23.750 
#
# Total GULP energy -793501.633881 kJ/mol
# GULP energy per Si atom -12398.463029 kJ/mol
# Density = 1.704737 g / cm^3
# Si number density = 17.086259 Si / 1000 Ang^3
#
#
#
# Elastic Constant Matrix: (Units=GPa)
#
#
# Indices 1 2 3 4 5 6 
#
# 1 41.1537 25.6740 39.1018 0.0000 0.0000 0.0000
# 2 25.6740 123.9180 72.5419 0.0000 0.0000 0.0000
# 3 39.1018 72.5419 167.9284 0.0000 0.0000 0.0000
# 4 0.0000 0.0000 0.0000 38.4873 0.0000 0.0000
# 5 0.0000 0.0000 0.0000 0.0000 10.2118 0.0000
# 6 0.0000 0.0000 0.0000 0.0000 0.0000 7.6952
#
#
#
# Elastic Compliance Matrix: (Units=1/GPa)
#
#
# Indices 1 2 3 4 5 6 
#
# 1 0.032035 -0.003039 -0.006147 0.000000 0.000000 0.000000
# 2 -0.003039 0.011090 -0.004083 0.000000 0.000000 0.000000
# 3 -0.006147 -0.004083 0.009150 0.000000 0.000000 0.000000
# 4 0.000000 0.000000 0.000000 0.025983 0.000000 0.000000
# 5 0.000000 0.000000 0.000000 0.000000 0.097926 0.000000
# 6 0.000000 0.000000 0.000000 0.000000 0.000000 0.129951
#
#
# Mechanical properties :
#
#
# Convention : Reuss Voigt Hill
#
# Bulk Modulus (GPa) = 38.85338 67.51505 53.18422
# Shear Modulus (GPa) = 14.65199 24.32434 19.48817
#
# Velocity S-wave (km/s) = 2.93154 3.77718 3.38090
# Velocity P-wave (km/s) = 5.85213 7.65655 6.81433
#
# Compressibility (1/GPa) = 0.02573779
#
# Stress axis : x y z
#
# Youngs Moduli (GPa) = 31.21569 90.17444 109.29137
#
# Poissons Ratio (x) = 0.27404 0.67176
# Poissons Ratio (y) = 0.09487 0.44622
# Poissons Ratio (z) = 0.19187 0.36817
#
# Static dielectric constant tensor:
#      x y z
#    x 2.624100 0.000000 0.000000 
#    y 0.000000 3.286250 0.000000 
#    z 0.000000 0.000000 3.467930 
# 
# 
# High freq. dielectric constant tensor:
#      x y z
#    x 1.574340 0.000000 0.000000 
#    y 0.000000 1.664970 0.000000 
#    z 0.000000 0.000000 1.679330 
# 
# From -- ./inp_files/30974.got.cif
#   From: 2010.03.12/outbox.cif.g09.slc.cpg/sg59_16_cif.got.tgz:30974.got - 2010.04.16 16:29:54.
