data_PCOD8239536
_publ_section_title
;
Structure prediction by ZEFSAII (Michael W. Deem and Ramdas Pophale) SiO2 
 PCOD8239536
Probable space group: P M M N
;
_chemical_formula_sum "Si O2"
_cell_formula_units_Z 64
_cell_length_a 19.242542
_cell_length_b 16.607175
_cell_length_c 11.913735
_cell_angle_alpha 90.000000
_cell_angle_beta 90.000000
_cell_angle_gamma 90.000000
_cell_volume 3807.203938
_symmetry_space_group_name_H-M "P M M N"
_symmetry_group_IT_number 59
_space_group.IT_coordinate_system_code '2'
_symmetry_cell_setting 'orthorhombic'
loop_
_space_group_symop_operation_xyz
x,y,z
1/2-x,1/2-y,z
1/2+x,-y,-z
-x,1/2+y,-z
-x,-y,-z
1/2+x,1/2+y,-z
1/2-x,y,z
x,1/2-y,z
loop_
_atom_site_type_symbol
_atom_site_label
_atom_site_fract_x
_atom_site_fract_y
_atom_site_fract_z
Si Si1 0.829023 0.613138 0.042356
Si Si2 0.036629 0.943044 0.091526
Si Si3 0.328085 0.961541 0.802660
Si Si4 0.171404 0.156530 0.386169
Si Si5 0.328286 0.094080 0.626834
Si Si6 0.908850 0.903777 0.824316
Si Si7 0.439069 0.655879 0.888959
Si Si8 0.068457 0.335646 0.788723
O O1 0.750000 0.639989 0.053683
O O2 0.851391 0.622301 0.914012
O O3 0.841358 0.523898 0.094786
O O4 0.876275 0.674382 0.111116
O O5 0.984228 0.907208 0.183439
O O6 0.087540 0.998593 0.165765
O O7 0.072024 0.871574 0.019342
O O8 0.000000 0.000000 0.000000
O O9 0.250000 0.926271 0.811627
O O10 0.383454 0.889631 0.810331
O O11 0.337990 0.005393 0.681689
O O12 0.250000 0.148814 0.339985
O O13 0.155498 0.250000 0.416360
O O14 0.162376 0.097819 0.493239
O O15 0.116692 0.123920 0.296543
O O16 0.250000 0.124665 0.658585
O O17 0.388615 0.150282 0.675332
O O18 0.983138 0.862927 0.847720
O O19 0.423937 0.750000 0.880468
O O20 0.028919 0.250000 0.777344
#
# Coordination Sequence:
#
# PCOD8239536 Si02
#       8
#     8   8   8   8   8   8   8   8
#     4  10  18  29  46  70  99 131 163 200 244 299
#     4  10  18  32  48  66  97 135 169 197 244 305
#     4   9  18  34  54  75  98 127 170 216 253 301
#     4  10  21  35  51  75 106 137 170 208 249 296
#     4   9  18  34  53  71  97 135 169 202 248 299
#     4  11  19  33  50  70 101 139 171 197 245 307
#     4  11  20  32  51  76 106 136 165 208 263 309
#     4  11  19  29  47  73  98 124 163 209 252 294
#
# _framework density 16.810237999999998
#
# number of rings (size 3 to 8) (size 9 to 14) (size 15 to 20)
#    0.000    1.875    3.750    4.875    0.000    2.250 
#    0.000    2.500    0.000    0.000    0.000    0.875 
#    0.000    2.000    0.000    0.000    0.000    0.000 
#
# Total GULP energy -793063.668605 kJ/mol
# GULP energy per Si atom -12391.619822 kJ/mol
# Density = 1.677198 g / cm^3
# Si number density = 16.810238 Si / 1000 Ang^3
#
#
#
# Elastic Constant Matrix: (Units=GPa)
#
#
# Indices 1 2 3 4 5 6 
#
# 1 51.4599 28.8748 31.8762 0.0000 0.0000 0.0000
# 2 28.8748 91.9013 34.3495 0.0000 0.0000 0.0000
# 3 31.8762 34.3495 87.4310 0.0000 0.0000 0.0000
# 4 0.0000 0.0000 0.0000 19.9788 0.0000 0.0000
# 5 0.0000 0.0000 0.0000 0.0000 22.3167 0.0000
# 6 0.0000 0.0000 0.0000 0.0000 0.0000 36.6310
#
#
#
# Elastic Compliance Matrix: (Units=1/GPa)
#
#
# Indices 1 2 3 4 5 6 
#
# 1 0.027451 -0.005725 -0.007759 0.000000 0.000000 0.000000
# 2 -0.005725 0.013948 -0.003393 0.000000 0.000000 0.000000
# 3 -0.007759 -0.003393 0.015599 0.000000 0.000000 0.000000
# 4 0.000000 0.000000 0.000000 0.050053 0.000000 0.000000
# 5 0.000000 0.000000 0.000000 0.000000 0.044810 0.000000
# 6 0.000000 0.000000 0.000000 0.000000 0.000000 0.027299
#
#
# Mechanical properties :
#
#
# Convention : Reuss Voigt Hill
#
# Bulk Modulus (GPa) = 43.01959 46.77702 44.89831
# Shear Modulus (GPa) = 22.65905 24.83140 23.74522
#
# Velocity S-wave (km/s) = 3.67540 3.84755 3.76246
# Velocity P-wave (km/s) = 6.60744 6.90110 6.75587
#
# Compressibility (1/GPa) = 0.02324522
#
# Stress axis : x y z
#
# Youngs Moduli (GPa) = 36.42819 71.69493 64.10515
#
# Poissons Ratio (x) = 0.41045 0.49741
# Poissons Ratio (y) = 0.20855 0.21748
# Poissons Ratio (z) = 0.28265 0.24323
#
# Static dielectric constant tensor:
#      x y z
#    x 3.145810 0.000000 0.000000 
#    y 0.000000 3.164280 0.000000 
#    z 0.000000 0.000000 3.024120 
# 
# 
# High freq. dielectric constant tensor:
#      x y z
#    x 1.639680 0.000000 0.000000 
#    y 0.000000 1.635520 0.000000 
#    z 0.000000 0.000000 1.628530 
# 
# From -- ./inp_files/18464.got.cif
#   From: 2010.03.12/outbox.cif.g09.slc.cpg/sg59_10_cif.got.tgz:18464.got - 2010.04.16 16:29:54.
