data_PCOD8239448
_publ_section_title
;
Structure prediction by ZEFSAII (Michael W. Deem and Ramdas Pophale) SiO2 
 PCOD8239448
Probable space group: P M M N
;
_chemical_formula_sum "Si O2"
_cell_formula_units_Z 64
_cell_length_a 19.068049
_cell_length_b 8.581244
_cell_length_c 21.642293
_cell_angle_alpha 90.000000
_cell_angle_beta 90.000000
_cell_angle_gamma 90.000000
_cell_volume 3541.276052
_symmetry_space_group_name_H-M "P M M N"
_symmetry_group_IT_number 59
_space_group.IT_coordinate_system_code '2'
_symmetry_cell_setting 'orthorhombic'
loop_
_space_group_symop_operation_xyz
x,y,z
1/2-x,1/2-y,z
1/2+x,-y,-z
-x,1/2+y,-z
-x,-y,-z
1/2+x,1/2+y,-z
1/2-x,y,z
x,1/2-y,z
loop_
_atom_site_type_symbol
_atom_site_label
_atom_site_fract_x
_atom_site_fract_y
_atom_site_fract_z
Si Si1 0.583472 0.567742 0.152193
Si Si2 0.869157 0.069472 0.269611
Si Si3 0.672656 0.569094 0.390767
Si Si4 0.828043 0.435146 0.907272
Si Si5 0.567490 0.431412 0.807972
Si Si6 0.489446 0.932131 0.315524
Si Si7 0.528626 0.433833 0.436644
Si Si8 0.076462 0.067225 0.987844
O O1 0.585466 0.750000 0.166477
O O2 0.639892 0.487646 0.198550
O O3 0.505670 0.499872 0.166186
O O4 0.602164 0.529554 0.081632
O O5 0.850204 0.250000 0.274033
O O6 0.821012 0.977757 0.318523
O O7 0.948349 0.037050 0.289658
O O8 0.750000 0.534703 0.420189
O O9 0.653895 0.750000 0.396277
O O10 0.610571 0.476730 0.425828
O O11 0.750000 0.506142 0.906778
O O12 0.825041 0.250000 0.906128
O O13 0.867833 0.503907 0.846385
O O14 0.867014 0.487516 0.968743
O O15 0.566914 0.250000 0.823208
O O16 0.574547 0.459604 0.733356
O O17 0.510505 0.750000 0.316511
O O18 0.476164 0.992267 0.384866
O O19 0.500000 0.500000 0.500000
O O20 0.520895 0.250000 0.435821
O O21 0.073789 0.250000 0.000163
O O22 0.000000 0.000000 0.000000
#
# Coordination Sequence:
#
# PCOD8239448 Si02
#       8
#     8   8   8   8   8   8   8   8
#     4   9  17  31  49  68  96 130 168 213 259 314
#     4  10  18  28  46  74 103 128 163 210 256 305
#     4  10  20  35  55  78 107 144 182 218 264 322
#     4  10  20  35  53  74 103 137 174 217 270 328
#     4   8  14  28  49  72  96 126 165 207 256 308
#     4   9  16  29  49  72 102 133 167 209 254 305
#     4  11  21  34  54  81 113 145 183 225 266 310
#     4  11  21  34  53  75 101 133 177 226 272 327
#
# _framework density 18.072579999999999
#
# number of rings (size 3 to 8) (size 9 to 14) (size 15 to 20)
#    0.000    2.250    1.250    5.625    0.000    2.250 
#    0.000    1.250    0.000    1.500    0.000    1.750 
#    0.000    0.000    0.000    0.000    0.000    0.000 
#
# Total GULP energy -792969.365929 kJ/mol
# GULP energy per Si atom -12390.146343 kJ/mol
# Density = 1.803145 g / cm^3
# Si number density = 18.072580 Si / 1000 Ang^3
#
#
#
# Elastic Constant Matrix: (Units=GPa)
#
#
# Indices 1 2 3 4 5 6 
#
# 1 89.2928 18.4023 54.3786 0.0000 0.0000 0.0000
# 2 18.4023 52.7995 26.3609 0.0000 0.0000 0.0000
# 3 54.3786 26.3609 138.1030 0.0000 0.0000 0.0000
# 4 0.0000 0.0000 0.0000 30.2347 0.0000 0.0000
# 5 0.0000 0.0000 0.0000 0.0000 20.0175 0.0000
# 6 0.0000 0.0000 0.0000 0.0000 0.0000 16.7379
#
#
#
# Elastic Compliance Matrix: (Units=1/GPa)
#
#
# Indices 1 2 3 4 5 6 
#
# 1 0.015030 -0.002524 -0.005436 0.000000 0.000000 0.000000
# 2 -0.002524 0.021359 -0.003083 0.000000 0.000000 0.000000
# 3 -0.005436 -0.003083 0.009970 0.000000 0.000000 0.000000
# 4 0.000000 0.000000 0.000000 0.033075 0.000000 0.000000
# 5 0.000000 0.000000 0.000000 0.000000 0.049956 0.000000
# 6 0.000000 0.000000 0.000000 0.000000 0.000000 0.059745
#
#
# Mechanical properties :
#
#
# Convention : Reuss Voigt Hill
#
# Bulk Modulus (GPa) = 41.20052 53.16429 47.18241
# Shear Modulus (GPa) = 22.79861 25.46826 24.13343
#
# Velocity S-wave (km/s) = 3.55562 3.75803 3.65822
# Velocity P-wave (km/s) = 6.30106 6.95064 6.63380
#
# Compressibility (1/GPa) = 0.02427154
#
# Stress axis : x y z
#
# Youngs Moduli (GPa) = 66.53363 46.81963 100.30092
#
# Poissons Ratio (x) = 0.11819 0.54526
# Poissons Ratio (y) = 0.16795 0.30922
# Poissons Ratio (z) = 0.36170 0.14434
#
# Static dielectric constant tensor:
#      x y z
#    x 3.132430 0.000000 0.000000 
#    y 0.000000 3.319550 0.000000 
#    z 0.000000 0.000000 9.739040 
# 
# 
# High freq. dielectric constant tensor:
#      x y z
#    x 1.664370 0.000000 0.000000 
#    y 0.000000 1.695000 0.000000 
#    z 0.000000 0.000000 1.704780 
# 
# From -- ./inp_files/32319.got.cif
#   From: 2010.03.12/outbox.cif.g09.slc.cpg/sg59_17_cif.got.tgz:32319.got - 2010.04.16 16:29:54.
