data_PCOD8239359
_publ_section_title
;
Structure prediction by ZEFSAII (Michael W. Deem and Ramdas Pophale) SiO2 
 PCOD8239359
Probable space group: P M M N
;
_chemical_formula_sum "Si O2"
_cell_formula_units_Z 64
_cell_length_a 18.454409
_cell_length_b 8.592403
_cell_length_c 26.323805
_cell_angle_alpha 90.000000
_cell_angle_beta 90.000000
_cell_angle_gamma 90.000000
_cell_volume 4174.105721
_symmetry_space_group_name_H-M "P M M N"
_symmetry_group_IT_number 59
_space_group.IT_coordinate_system_code '2'
_symmetry_cell_setting 'orthorhombic'
loop_
_space_group_symop_operation_xyz
x,y,z
1/2-x,1/2-y,z
1/2+x,-y,-z
-x,1/2+y,-z
-x,-y,-z
1/2+x,1/2+y,-z
1/2-x,y,z
x,1/2-y,z
loop_
_atom_site_type_symbol
_atom_site_label
_atom_site_fract_x
_atom_site_fract_y
_atom_site_fract_z
Si Si1 0.087098 0.933288 0.393138
Si Si2 0.333744 0.569468 0.191922
Si Si3 0.170138 0.933443 0.493288
Si Si4 0.464839 0.566707 0.550229
Si Si5 0.412569 0.068149 0.099160
Si Si6 0.332591 0.430980 0.298769
Si Si7 0.039924 0.434046 0.950952
Si Si8 0.167503 0.566306 0.002857
O O1 0.093853 0.750000 0.385153
O O2 0.133783 0.995440 0.441191
O O3 0.114483 0.020594 0.343646
O O4 0.002453 0.980576 0.401996
O O5 0.250000 0.527460 0.182198
O O6 0.349190 0.750000 0.181817
O O7 0.382342 0.466681 0.154747
O O8 0.355582 0.527571 0.249236
O O9 0.250000 0.008544 0.500311
O O10 0.176497 0.750000 0.487268
O O11 0.121103 0.971738 0.543272
O O12 0.500000 0.500000 0.500000
O O13 0.478429 0.750000 0.554655
O O14 0.412034 0.250000 0.087935
O O15 0.495699 0.004565 0.096799
O O16 0.362239 0.985585 0.057483
O O17 0.250000 0.470999 0.314377
O O18 0.341760 0.250000 0.286513
O O19 0.036662 0.250000 0.948766
O O20 0.123092 0.490854 0.955587
O O21 0.000000 0.500000 0.000000
O O22 0.250000 0.510000 0.997537
O O23 0.160570 0.750000 0.999217
#
# Coordination Sequence:
#
# PCOD8239359 Si02
#       8
#     8   8   8   8   8   8   8   8
#     4  10  18  28  43  60  82 114 146 174 208 252
#     4  10  20  33  47  63  85 113 145 179 214 252
#     4   8  14  24  39  59  81 107 140 174 208 248
#     4   9  16  26  40  58  81 108 139 176 213 251
#     4  11  20  30  45  63  86 115 147 180 215 254
#     4  10  20  32  45  63  86 110 140 179 217 250
#     4  10  18  29  44  61  84 112 144 179 214 254
#     4  10  19  30  44  63  88 116 146 179 215 256
#
# _framework density 15.332625
#
# number of rings (size 3 to 8) (size 9 to 14) (size 15 to 20)
#    0.000    2.250    0.000    7.125    0.000    4.500 
#    0.000    0.000    0.000    7.500    0.000    0.000 
#    0.000    1.000    0.000    6.000    0.000    4.625 
#
# Total GULP energy -793287.707973 kJ/mol
# GULP energy per Si atom -12395.120437 kJ/mol
# Density = 1.529773 g / cm^3
# Si number density = 15.332625 Si / 1000 Ang^3
#
#
#
# Elastic Constant Matrix: (Units=GPa)
#
#
# Indices 1 2 3 4 5 6 
#
# 1 99.8104 18.6003 43.0697 0.0000 0.0000 0.0000
# 2 18.6003 49.4329 11.0594 0.0000 0.0000 0.0000
# 3 43.0697 11.0594 64.8847 0.0000 0.0000 0.0000
# 4 0.0000 0.0000 0.0000 24.0448 0.0000 0.0000
# 5 0.0000 0.0000 0.0000 0.0000 27.4140 0.0000
# 6 0.0000 0.0000 0.0000 0.0000 0.0000 21.7582
#
#
#
# Elastic Compliance Matrix: (Units=1/GPa)
#
#
# Indices 1 2 3 4 5 6 
#
# 1 0.014587 -0.003454 -0.009094 0.000000 0.000000 0.000000
# 2 -0.003454 0.021849 -0.001431 0.000000 0.000000 0.000000
# 3 -0.009094 -0.001431 0.021692 0.000000 0.000000 0.000000
# 4 0.000000 0.000000 0.000000 0.041589 0.000000 0.000000
# 5 0.000000 0.000000 0.000000 0.000000 0.036478 0.000000
# 6 0.000000 0.000000 0.000000 0.000000 0.000000 0.045960
#
#
# Mechanical properties :
#
#
# Convention : Reuss Voigt Hill
#
# Bulk Modulus (GPa) = 33.14563 39.95409 36.54986
# Shear Modulus (GPa) = 22.70973 24.06998 23.38986
#
# Velocity S-wave (km/s) = 3.85273 3.96644 3.91000
# Velocity P-wave (km/s) = 6.43863 6.86233 6.65386
#
# Compressibility (1/GPa) = 0.03016989
#
# Stress axis : x y z
#
# Youngs Moduli (GPa) = 68.55507 45.76789 46.09935
#
# Poissons Ratio (x) = 0.15809 0.41922
# Poissons Ratio (y) = 0.23680 0.06599
# Poissons Ratio (z) = 0.62343 0.06551
#
# Static dielectric constant tensor:
#      x y z
#    x 3.496180 0.000000 0.000000 
#    y 0.000000 3.023430 0.000000 
#    z 0.000000 0.000000 2.798420 
# 
# 
# High freq. dielectric constant tensor:
#      x y z
#    x 1.580770 0.000000 0.000000 
#    y 0.000000 1.599780 0.000000 
#    z 0.000000 0.000000 1.551020 
# 
# From -- ./inp_files/32287.got.cif
#   From: 2010.03.12/outbox.cif.g09.slc.cpg/sg59_17_cif.got.tgz:32287.got - 2010.04.16 16:29:54.
