data_PCOD8239205
_publ_section_title
;
Structure prediction by ZEFSAII (Michael W. Deem and Ramdas Pophale) SiO2 
 PCOD8239205
Probable space group: P M M N
;
_chemical_formula_sum "Si O2"
_cell_formula_units_Z 48
_cell_length_a 16.287086
_cell_length_b 17.021298
_cell_length_c 9.604882
_cell_angle_alpha 90.000000
_cell_angle_beta 90.000000
_cell_angle_gamma 90.000000
_cell_volume 2662.735930
_symmetry_space_group_name_H-M "P M M N"
_symmetry_group_IT_number 59
_space_group.IT_coordinate_system_code '2'
_symmetry_cell_setting 'orthorhombic'
loop_
_space_group_symop_operation_xyz
x,y,z
1/2-x,1/2-y,z
1/2+x,-y,-z
-x,1/2+y,-z
-x,-y,-z
1/2+x,1/2+y,-z
1/2-x,y,z
x,1/2-y,z
loop_
_atom_site_type_symbol
_atom_site_label
_atom_site_fract_x
_atom_site_fract_y
_atom_site_fract_z
Si Si1 0.425020 0.049141 0.932728
Si Si2 0.947458 0.337538 0.978759
Si Si3 0.547074 0.340018 0.310033
Si Si4 0.927473 0.540150 0.584074
Si Si5 0.343468 0.531355 0.156065
Si Si6 0.155765 0.517823 0.661673
O O1 0.461832 0.136884 0.922412
O O2 0.400331 0.018818 0.782018
O O3 0.500000 0.000000 0.000000
O O4 0.349798 0.039132 0.041311
O O5 0.931853 0.250000 0.926597
O O6 0.873117 0.388296 0.916013
O O7 0.947493 0.343955 0.144535
O O8 0.556145 0.250000 0.362843
O O9 0.458758 0.374324 0.363454
O O10 0.621187 0.394196 0.370451
O O11 0.901771 0.487019 0.714357
O O12 0.851994 0.539706 0.473525
O O13 0.000000 0.500000 0.500000
O O14 0.250000 0.539762 0.205617
O O15 0.250000 0.523073 0.707912
#
# Coordination Sequence:
#
# PCOD8239205 Si02
#       6
#     8   8   8   8   8   8
#     4  10  17  34  54  77 106 145 187 221 259 326
#     4  10  19  33  55  82 110 141 180 228 274 323
#     4  10  19  34  57  82 108 140 181 225 271 327
#     4  10  20  37  56  78 108 148 194 222 254 325
#     4  11  20  33  55  82 111 141 178 226 276 324
#     4  11  21  35  56  84 113 143 180 228 280 326
#
# _framework density 18.026571000000001
#
# number of rings (size 3 to 8) (size 9 to 14) (size 15 to 20)
#    0.000    1.667    5.000    4.000    0.000    0.667 
#    0.000    9.167    0.000   10.000    0.000    0.000 
#    0.000    0.000    0.000    0.000    0.000    0.000 
#
# Total GULP energy -594721.536597 kJ/mol
# GULP energy per Si atom -12390.032012 kJ/mol
# Density = 1.798554 g / cm^3
# Si number density = 18.026571 Si / 1000 Ang^3
#
#
#
# Elastic Constant Matrix: (Units=GPa)
#
#
# Indices 1 2 3 4 5 6 
#
# 1 97.6604 52.5571 24.5362 0.0000 0.0000 0.0000
# 2 52.5571 53.1460 24.5099 0.0000 0.0000 0.0000
# 3 24.5362 24.5099 89.0081 0.0000 0.0000 0.0000
# 4 0.0000 0.0000 0.0000 21.7246 0.0000 0.0000
# 5 0.0000 0.0000 0.0000 0.0000 27.8705 0.0000
# 6 0.0000 0.0000 0.0000 0.0000 0.0000 15.2925
#
#
#
# Elastic Compliance Matrix: (Units=1/GPa)
#
#
# Indices 1 2 3 4 5 6 
#
# 1 0.021889 -0.021608 -0.000084 0.000000 0.000000 0.000000
# 2 -0.021608 0.042884 -0.005852 0.000000 0.000000 0.000000
# 3 -0.000084 -0.005852 0.012870 0.000000 0.000000 0.000000
# 4 0.000000 0.000000 0.000000 0.046031 0.000000 0.000000
# 5 0.000000 0.000000 0.000000 0.000000 0.035880 0.000000
# 6 0.000000 0.000000 0.000000 0.000000 0.000000 0.065392
#
#
# Mechanical properties :
#
#
# Convention : Reuss Voigt Hill
#
# Bulk Modulus (GPa) = 44.33771 49.22454 46.78113
# Shear Modulus (GPa) = 17.38819 22.19160 19.78990
#
# Velocity S-wave (km/s) = 3.10915 3.51244 3.31693
# Velocity P-wave (km/s) = 6.12684 6.61933 6.37784
#
# Compressibility (1/GPa) = 0.02255417
#
# Stress axis : x y z
#
# Youngs Moduli (GPa) = 45.68444 23.31892 77.70270
#
# Poissons Ratio (x) = 0.50388 0.00652
# Poissons Ratio (y) = 0.98715 0.45473
# Poissons Ratio (z) = 0.00383 0.13647
#
# Static dielectric constant tensor:
#      x y z
#    x 3.573040 0.000000 0.000000 
#    y 0.000000 3.660330 0.000000 
#    z 0.000000 0.000000 3.600570 
# 
# 
# High freq. dielectric constant tensor:
#      x y z
#    x 1.688110 0.000000 0.000000 
#    y 0.000000 1.670120 0.000000 
#    z 0.000000 0.000000 1.709920 
# 
# From -- ./inp_files/9042.got.cif
#   From: 2010.03.12/outbox.cif.g09.slc.cpg/sg59_5_cif.got.tgz:9042.got - 2010.04.16 16:29:54.
