data_PCOD8239907
_publ_section_title
;
Structure prediction by ZEFSAII (Michael W. Deem and Ramdas Pophale) SiO2 
 PCOD8239907
Probable space group: P M M N
;
_chemical_formula_sum "Si O2"
_cell_formula_units_Z 64
_cell_length_a 28.997960
_cell_length_b 9.144305
_cell_length_c 12.434423
_cell_angle_alpha 90.000000
_cell_angle_beta 90.000000
_cell_angle_gamma 90.000000
_cell_volume 3297.188579
_symmetry_space_group_name_H-M "P M M N"
_symmetry_group_IT_number 59
_space_group.IT_coordinate_system_code '2'
_symmetry_cell_setting 'orthorhombic'
loop_
_space_group_symop_operation_xyz
x,y,z
1/2-x,1/2-y,z
1/2+x,-y,-z
-x,1/2+y,-z
-x,-y,-z
1/2+x,1/2+y,-z
1/2-x,y,z
x,1/2-y,z
loop_
_atom_site_type_symbol
_atom_site_label
_atom_site_fract_x
_atom_site_fract_y
_atom_site_fract_z
Si Si1 0.601630 0.079323 0.613742
Si Si2 0.079373 0.085723 0.596484
Si Si3 0.200084 0.584095 0.459872
Si Si4 0.698560 0.418592 0.116145
Si Si5 0.680945 0.915762 0.330883
Si Si6 0.533298 0.578877 0.188148
Si Si7 0.113667 0.418876 0.969276
Si Si8 0.059274 0.419496 0.184116
O O1 0.591255 0.250000 0.627258
O O2 0.656643 0.043508 0.615774
O O3 0.578611 0.027660 0.501694
O O4 0.578882 0.994217 0.710239
O O5 0.073005 0.250000 0.550298
O O6 0.125990 0.075555 0.664833
O O7 0.040094 0.048146 0.684120
O O8 0.250000 0.569694 0.399268
O O9 0.192726 0.750000 0.501274
O O10 0.202566 0.477097 0.560384
O O11 0.750000 0.436435 0.066404
O O12 0.685027 0.250000 0.128071
O O13 0.698978 0.489301 0.233236
O O14 0.661479 0.494182 0.038636
O O15 0.697941 0.750000 0.315851
O O16 0.525149 0.750000 0.165932
O O17 0.576630 0.523197 0.117868
O O18 0.488933 0.490356 0.149159
O O19 0.124506 0.250000 0.945716
O O20 0.095220 0.444413 0.088745
O O21 0.051130 0.250000 0.207892
#
# Coordination Sequence:
#
# PCOD8239907 Si02
#       8
#     8   8   8   8   8   8   8   8
#     4  10  21  37  57  81 114 155 194 233 284 342
#     4   9  18  34  57  84 117 150 183 230 281 333
#     4   9  18  33  53  79 110 145 190 240 285 334
#     4  11  23  36  54  84 119 153 190 232 280 337
#     4  10  18  31  52  81 117 153 185 225 280 338
#     4  10  20  38  63  89 116 146 185 235 291 346
#     4  10  22  42  63  85 115 150 191 239 286 336
#     4  11  24  40  60  85 113 148 192 240 288 341
#
# _framework density 19.410475999999999
#
# number of rings (size 3 to 8) (size 9 to 14) (size 15 to 20)
#    0.000    2.000    1.250    2.250    0.000    6.250 
#    0.000    0.625    0.000    2.250    0.000    0.000 
#    0.000    0.000    0.000    0.000    0.000    0.000 
#
# Total GULP energy -793593.388769 kJ/mol
# GULP energy per Si atom -12399.896700 kJ/mol
# Density = 1.936630 g / cm^3
# Si number density = 19.410476 Si / 1000 Ang^3
#
#
#
# Elastic Constant Matrix: (Units=GPa)
#
#
# Indices 1 2 3 4 5 6 
#
# 1 103.4246 60.5691 33.3905 0.0000 0.0000 0.0000
# 2 60.5691 106.4363 42.6773 0.0000 0.0000 0.0000
# 3 33.3905 42.6773 64.8645 0.0000 0.0000 0.0000
# 4 0.0000 0.0000 0.0000 21.4926 0.0000 0.0000
# 5 0.0000 0.0000 0.0000 0.0000 12.3969 0.0000
# 6 0.0000 0.0000 0.0000 0.0000 0.0000 29.2038
#
#
#
# Elastic Compliance Matrix: (Units=1/GPa)
#
#
# Indices 1 2 3 4 5 6 
#
# 1 0.014876 -0.007328 -0.002836 0.000000 0.000000 0.000000
# 2 -0.007328 0.016372 -0.007000 0.000000 0.000000 0.000000
# 3 -0.002836 -0.007000 0.021482 0.000000 0.000000 0.000000
# 4 0.000000 0.000000 0.000000 0.046528 0.000000 0.000000
# 5 0.000000 0.000000 0.000000 0.000000 0.080665 0.000000
# 6 0.000000 0.000000 0.000000 0.000000 0.000000 0.034242
#
#
# Mechanical properties :
#
#
# Convention : Reuss Voigt Hill
#
# Bulk Modulus (GPa) = 54.34115 60.88877 57.61496
# Shear Modulus (GPa) = 19.63650 21.82458 20.73054
#
# Velocity S-wave (km/s) = 3.18409 3.35680 3.27158
# Velocity P-wave (km/s) = 6.44782 6.81625 6.63460
#
# Compressibility (1/GPa) = 0.01840226
#
# Stress axis : x y z
#
# Youngs Moduli (GPa) = 67.22112 61.07934 46.55032
#
# Poissons Ratio (x) = 0.44761 0.13203
# Poissons Ratio (y) = 0.49262 0.32583
# Poissons Ratio (z) = 0.19066 0.42753
#
# Static dielectric constant tensor:
#      x y z
#    x 3.767230 0.000000 0.000000 
#    y 0.000000 3.595420 0.000000 
#    z 0.000000 0.000000 3.279070 
# 
# 
# High freq. dielectric constant tensor:
#      x y z
#    x 1.766100 0.000000 0.000000 
#    y 0.000000 1.760080 0.000000 
#    z 0.000000 0.000000 1.732720 
# 
# From -- ./inp_files/19232.got.cif
#   From: 2010.03.12/outbox.cif.g09.slc.cpg/sg59_10_cif.got.tgz:19232.got - 2010.04.16 16:29:54.
