data_PCOD8239791
_publ_section_title
;
Structure prediction by ZEFSAII (Michael W. Deem and Ramdas Pophale) SiO2 
 PCOD8239791
Probable space group: P M M N
;
_chemical_formula_sum "Si O2"
_cell_formula_units_Z 64
_cell_length_a 8.857235
_cell_length_b 23.628806
_cell_length_c 15.514445
_cell_angle_alpha 90.000000
_cell_angle_beta 90.000000
_cell_angle_gamma 90.000000
_cell_volume 3246.954391
_symmetry_space_group_name_H-M "P M M N"
_symmetry_group_IT_number 59
_space_group.IT_coordinate_system_code '2'
_symmetry_cell_setting 'orthorhombic'
loop_
_space_group_symop_operation_xyz
x,y,z
1/2-x,1/2-y,z
1/2+x,-y,-z
-x,1/2+y,-z
-x,-y,-z
1/2+x,1/2+y,-z
1/2-x,y,z
x,1/2-y,z
loop_
_atom_site_type_symbol
_atom_site_label
_atom_site_fract_x
_atom_site_fract_y
_atom_site_fract_z
Si Si1 0.570919 0.313787 0.461752
Si Si2 0.924358 0.892996 0.868978
Si Si3 0.074589 0.126337 0.943387
Si Si4 0.426974 0.888205 0.693966
Si Si5 0.426096 0.521071 0.126403
Si Si6 0.423339 0.816457 0.213485
Si Si7 0.422626 0.369614 0.623618
Si Si8 0.423161 0.016243 0.700834
O O1 0.750000 0.313137 0.458880
O O2 0.506422 0.250000 0.458984
O O3 0.503477 0.348324 0.380468
O O4 0.524751 0.343943 0.549537
O O5 0.750000 0.893963 0.843044
O O6 0.012301 0.867883 0.787033
O O7 0.979184 0.956864 0.888082
O O8 0.952455 0.856499 0.955966
O O9 0.250000 0.131869 0.919223
O O10 0.023542 0.061054 0.935609
O O11 0.977478 0.166760 0.882270
O O12 0.250000 0.879989 0.696388
O O13 0.471652 0.953141 0.671306
O O14 0.250000 0.530804 0.108688
O O15 0.465967 0.538102 0.224374
O O16 0.250000 0.835553 0.224706
O O17 0.440809 0.750000 0.224822
O O18 0.527030 0.846207 0.283991
O O19 0.250000 0.351779 0.607681
O O20 0.439598 0.438232 0.623538
O O21 0.250000 0.015320 0.734633
#
# Coordination Sequence:
#
# PCOD8239791 Si02
#       8
#     8   8   8   8   8   8   8   8
#     4  10  22  40  60  82 109 144 188 234 278 329
#     4   9  20  35  53  81 114 146 184 229 277 328
#     4  11  21  34  53  79 113 150 187 228 275 329
#     4   9  19  37  59  81 110 148 188 232 282 332
#     4  10  18  30  51  80 113 149 186 223 268 325
#     4  11  24  40  57  79 110 148 191 237 281 332
#     4  11  22  36  58  86 114 143 180 227 281 342
#     4   9  18  33  53  81 115 147 180 223 279 339
#
# _framework density 19.710778999999999
#
# number of rings (size 3 to 8) (size 9 to 14) (size 15 to 20)
#    0.000    2.000    1.250    2.250    0.000    5.750 
#    0.000    0.625    0.000    2.250    0.000    0.000 
#    0.000    0.000    0.000    0.000    0.000    0.000 
#
# Total GULP energy -793530.281026 kJ/mol
# GULP energy per Si atom -12398.910641 kJ/mol
# Density = 1.966592 g / cm^3
# Si number density = 19.710779 Si / 1000 Ang^3
#
#
#
# Elastic Constant Matrix: (Units=GPa)
#
#
# Indices 1 2 3 4 5 6 
#
# 1 32.1517 18.1108 16.0110 0.0000 0.0000 0.0000
# 2 18.1108 61.8197 54.5186 0.0000 0.0000 0.0000
# 3 16.0110 54.5186 111.8978 0.0000 0.0000 0.0000
# 4 0.0000 0.0000 0.0000 22.1246 0.0000 0.0000
# 5 0.0000 0.0000 0.0000 0.0000 33.0721 0.0000
# 6 0.0000 0.0000 0.0000 0.0000 0.0000 22.1786
#
#
#
# Elastic Compliance Matrix: (Units=1/GPa)
#
#
# Indices 1 2 3 4 5 6 
#
# 1 0.037250 -0.010893 -0.000023 0.000000 0.000000 0.000000
# 2 -0.010893 0.031548 -0.013812 0.000000 0.000000 0.000000
# 3 -0.000023 -0.013812 0.015670 0.000000 0.000000 0.000000
# 4 0.000000 0.000000 0.000000 0.045198 0.000000 0.000000
# 5 0.000000 0.000000 0.000000 0.000000 0.030237 0.000000
# 6 0.000000 0.000000 0.000000 0.000000 0.000000 0.045089
#
#
# Mechanical properties :
#
#
# Convention : Reuss Voigt Hill
#
# Bulk Modulus (GPa) = 28.56158 42.57222 35.56690
# Shear Modulus (GPa) = 18.78869 23.29031 21.03950
#
# Velocity S-wave (km/s) = 3.09077 3.44117 3.27067
# Velocity P-wave (km/s) = 5.22101 6.11835 5.68741
#
# Compressibility (1/GPa) = 0.03501207
#
# Stress axis : x y z
#
# Youngs Moduli (GPa) = 26.84586 31.69753 63.81790
#
# Poissons Ratio (x) = 0.34527 0.00146
# Poissons Ratio (y) = 0.29242 0.88147
# Poissons Ratio (z) = 0.00061 0.43782
#
# Static dielectric constant tensor:
#      x y z
#    x 3.506950 0.000000 0.000000 
#    y 0.000000 3.666620 0.000000 
#    z 0.000000 0.000000 3.558550 
# 
# 
# High freq. dielectric constant tensor:
#      x y z
#    x 1.765150 0.000000 0.000000 
#    y 0.000000 1.756780 0.000000 
#    z 0.000000 0.000000 1.764660 
# 
# From -- ./inp_files/21627.got.cif
#   From: 2010.03.12/outbox.cif.g09.slc.cpg/sg59_11_cif.got.tgz:21627.got - 2010.04.16 16:29:54.
