data_PCOD8239249
_publ_section_title
;
Structure prediction by ZEFSAII (Michael W. Deem and Ramdas Pophale) SiO2 
 PCOD8239249
Probable space group: P M M N
;
_chemical_formula_sum "Si O2"
_cell_formula_units_Z 64
_cell_length_a 24.954077
_cell_length_b 8.828069
_cell_length_c 18.711787
_cell_angle_alpha 90.000000
_cell_angle_beta 90.000000
_cell_angle_gamma 90.000000
_cell_volume 4122.137697
_symmetry_space_group_name_H-M "P M M N"
_symmetry_group_IT_number 59
_space_group.IT_coordinate_system_code '2'
_symmetry_cell_setting 'orthorhombic'
loop_
_space_group_symop_operation_xyz
x,y,z
1/2-x,1/2-y,z
1/2+x,-y,-z
-x,1/2+y,-z
-x,-y,-z
1/2+x,1/2+y,-z
1/2-x,y,z
x,1/2-y,z
loop_
_atom_site_type_symbol
_atom_site_label
_atom_site_fract_x
_atom_site_fract_y
_atom_site_fract_z
Si Si1 0.960718 0.576582 0.894762
Si Si2 0.996025 0.572300 0.609834
Si Si3 0.810342 0.428149 0.445733
Si Si4 0.436348 0.074297 0.956153
Si Si5 0.509649 0.072068 0.759388
Si Si6 0.416858 0.427502 0.516923
Si Si7 0.605484 0.573925 0.186623
Si Si8 0.810276 0.924553 0.295440
O O1 0.959711 0.750000 0.869965
O O2 0.016600 0.538375 0.933048
O O3 0.949633 0.477012 0.823639
O O4 0.918388 0.547079 0.960812
O O5 0.005508 0.750000 0.614922
O O6 0.949079 0.530108 0.554503
O O7 0.975971 0.508717 0.685459
O O8 0.052218 0.497895 0.585243
O O9 0.750000 0.479537 0.469669
O O10 0.816423 0.250000 0.454247
O O11 0.856679 0.507456 0.492555
O O12 0.820386 0.473899 0.364305
O O13 0.455432 0.250000 0.946508
O O14 0.388547 0.041437 0.898815
O O15 0.513808 0.250000 0.747928
O O16 0.451359 0.013466 0.784187
O O17 0.413387 0.250000 0.529825
O O18 0.607744 0.750000 0.202271
O O19 0.653724 0.502640 0.232191
O O20 0.750000 0.937970 0.267581
O O21 0.824301 0.750000 0.314638
#
# Coordination Sequence:
#
# PCOD8239249 Si02
#       8
#     8   8   8   8   8   8   8   8
#     4   9  15  23  36  53  74 100 131 167 202 238
#     4  10  20  32  46  65  88 114 145 178 212 256
#     4  10  20  32  46  64  86 113 146 184 220 253
#     4   8  14  24  36  50  72 103 133 162 199 240
#     4  10  18  27  40  57  80 110 139 169 207 250
#     4  10  20  33  48  65  87 115 144 176 216 261
#     4   8  14  24  37  54  76 103 136 167 198 241
#     4   9  16  26  41  59  79 105 137 173 210 247
#
# _framework density 15.525925000000001
#
# number of rings (size 3 to 8) (size 9 to 14) (size 15 to 20)
#    0.000    2.750    0.000    3.375    0.000    3.750 
#    0.000    2.500    0.000    0.000    0.000    0.000 
#    0.000    1.000    0.000    7.500    0.000    2.250 
#
# Total GULP energy -792930.638779 kJ/mol
# GULP energy per Si atom -12389.541231 kJ/mol
# Density = 1.549059 g / cm^3
# Si number density = 15.525925 Si / 1000 Ang^3
#
#
#
# Elastic Constant Matrix: (Units=GPa)
#
#
# Indices 1 2 3 4 5 6 
#
# 1 67.4914 26.3453 32.9233 0.0000 0.0000 0.0000
# 2 26.3453 54.1292 30.9109 0.0000 0.0000 0.0000
# 3 32.9233 30.9109 100.7205 0.0000 0.0000 0.0000
# 4 0.0000 0.0000 0.0000 23.5658 0.0000 0.0000
# 5 0.0000 0.0000 0.0000 0.0000 20.4132 0.0000
# 6 0.0000 0.0000 0.0000 0.0000 0.0000 16.7030
#
#
#
# Elastic Compliance Matrix: (Units=1/GPa)
#
#
# Indices 1 2 3 4 5 6 
#
# 1 0.019677 -0.007159 -0.004235 0.000000 0.000000 0.000000
# 2 -0.007159 0.025004 -0.005334 0.000000 0.000000 0.000000
# 3 -0.004235 -0.005334 0.012950 0.000000 0.000000 0.000000
# 4 0.000000 0.000000 0.000000 0.042434 0.000000 0.000000
# 5 0.000000 0.000000 0.000000 0.000000 0.048988 0.000000
# 6 0.000000 0.000000 0.000000 0.000000 0.000000 0.059870
#
#
# Mechanical properties :
#
#
# Convention : Reuss Voigt Hill
#
# Bulk Modulus (GPa) = 41.36281 44.74444 43.05362
# Shear Modulus (GPa) = 19.96516 20.94719 20.45617
#
# Velocity S-wave (km/s) = 3.58987 3.67710 3.63374
# Velocity P-wave (km/s) = 6.62434 6.84907 6.73764
#
# Compressibility (1/GPa) = 0.02417631
#
# Stress axis : x y z
#
# Youngs Moduli (GPa) = 50.82093 39.99302 77.22174
#
# Poissons Ratio (x) = 0.28629 0.32703
# Poissons Ratio (y) = 0.36380 0.41189
# Poissons Ratio (z) = 0.21523 0.21332
#
# Static dielectric constant tensor:
#      x y z
#    x 2.891620 0.000000 0.000000 
#    y 0.000000 2.945760 0.000000 
#    z 0.000000 0.000000 3.224830 
# 
# 
# High freq. dielectric constant tensor:
#      x y z
#    x 1.547020 0.000000 0.000000 
#    y 0.000000 1.598230 0.000000 
#    z 0.000000 0.000000 1.597690 
# 
# From -- ./inp_files/28490.got.cif
#   From: 2010.03.12/outbox.cif.g09.slc.cpg/sg59_15_cif.got.tgz:28490.got - 2010.04.16 16:29:54.
