data_PCOD8239973
_publ_section_title
;
Structure prediction by ZEFSAII (Michael W. Deem and Ramdas Pophale) SiO2 
 PCOD8239973
Probable space group: P M M N
;
_chemical_formula_sum "Si O2"
_cell_formula_units_Z 56
_cell_length_a 21.771426
_cell_length_b 19.072730
_cell_length_c 7.502736
_cell_angle_alpha 90.000000
_cell_angle_beta 90.000000
_cell_angle_gamma 90.000000
_cell_volume 3115.440072
_symmetry_space_group_name_H-M "P M M N"
_symmetry_group_IT_number 59
_space_group.IT_coordinate_system_code '2'
_symmetry_cell_setting 'orthorhombic'
loop_
_space_group_symop_operation_xyz
x,y,z
1/2-x,1/2-y,z
1/2+x,-y,-z
-x,1/2+y,-z
-x,-y,-z
1/2+x,1/2+y,-z
1/2-x,y,z
x,1/2-y,z
loop_
_atom_site_type_symbol
_atom_site_label
_atom_site_fract_x
_atom_site_fract_y
_atom_site_fract_z
Si Si1 0.042568 0.170658 0.834128
Si Si2 0.937031 0.423853 0.883955
Si Si3 0.681128 0.016284 0.977170
Si Si4 0.117197 0.455308 0.675522
Si Si5 0.065927 0.327357 0.250228
Si Si6 0.492677 0.956503 0.735023
Si Si7 0.818478 0.594335 0.663617
O O1 0.048512 0.250000 0.761350
O O2 0.087410 0.120138 0.723174
O O3 0.970714 0.146654 0.814244
O O4 0.062618 0.165725 0.038527
O O5 0.862990 0.419798 0.907743
O O6 0.951293 0.488611 0.751617
O O7 0.965810 0.441943 0.072611
O O8 0.750000 0.046295 0.001440
O O9 0.679842 0.954449 0.835435
O O10 0.656453 0.985217 0.161541
O O11 0.062043 0.509065 0.618457
O O12 0.162856 0.449596 0.510744
O O13 0.045678 0.250000 0.313601
O O14 0.135884 0.340475 0.308781
O O15 0.020844 0.384383 0.346041
O O16 0.750000 0.624444 0.635439
#
# Coordination Sequence:
#
# PCOD8239973 Si02
#       7
#     8   8   8   8   8   8   8
#     4   9  17  31  52  73  96 128 161 199 249 292
#     4   8  13  27  49  71  95 120 158 202 241 279
#     4  10  18  32  51  71  97 129 160 194 237 285
#     4  10  19  33  53  72  98 124 161 206 243 279
#     4  10  18  32  50  70 100 132 161 195 241 290
#     4   8  14  28  48  72  93 122 156 201 247 282
#     4  11  22  33  48  71  97 128 165 199 233 282
#
# _framework density 17.974988
#
# number of rings (size 3 to 8) (size 9 to 14) (size 15 to 20)
#    0.000    2.571    2.857    2.143    0.000    1.429 
#    0.000    0.000    0.000    1.714    0.000    0.000 
#    0.000    2.857    0.000    0.286    0.000    0.286 
#
# Total GULP energy -693878.020101 kJ/mol
# GULP energy per Si atom -12390.678930 kJ/mol
# Density = 1.793408 g / cm^3
# Si number density = 17.974988 Si / 1000 Ang^3
#
#
#
# Elastic Constant Matrix: (Units=GPa)
#
#
# Indices 1 2 3 4 5 6 
#
# 1 143.7399 48.3418 33.7004 0.0000 0.0000 0.0000
# 2 48.3418 81.4304 21.7063 0.0000 0.0000 0.0000
# 3 33.7004 21.7063 32.8382 0.0000 0.0000 0.0000
# 4 0.0000 0.0000 0.0000 6.8854 0.0000 0.0000
# 5 0.0000 0.0000 0.0000 0.0000 19.8444 0.0000
# 6 0.0000 0.0000 0.0000 0.0000 0.0000 22.5260
#
#
#
# Elastic Compliance Matrix: (Units=1/GPa)
#
#
# Indices 1 2 3 4 5 6 
#
# 1 0.010098 -0.003924 -0.007770 0.000000 0.000000 0.000000
# 2 -0.003924 0.016432 -0.006835 0.000000 0.000000 0.000000
# 3 -0.007770 -0.006835 0.042944 0.000000 0.000000 0.000000
# 4 0.000000 0.000000 0.000000 0.145235 0.000000 0.000000
# 5 0.000000 0.000000 0.000000 0.000000 0.050392 0.000000
# 6 0.000000 0.000000 0.000000 0.000000 0.000000 0.044393
#
#
# Mechanical properties :
#
#
# Convention : Reuss Voigt Hill
#
# Bulk Modulus (GPa) = 30.84760 51.72281 41.28520
# Shear Modulus (GPa) = 13.99165 20.13517 17.06341
#
# Velocity S-wave (km/s) = 2.79300 3.35054 3.08439
# Velocity P-wave (km/s) = 5.25355 6.61857 5.97517
#
# Compressibility (1/GPa) = 0.03241744
#
# Stress axis : x y z
#
# Youngs Moduli (GPa) = 99.02661 60.85810 23.28622
#
# Poissons Ratio (x) = 0.23880 0.18093
# Poissons Ratio (y) = 0.38856 0.15915
# Poissons Ratio (z) = 0.76941 0.41594
#
# Static dielectric constant tensor:
#      x y z
#    x 3.684960 0.000000 0.000000 
#    y 0.000000 3.357500 0.000000 
#    z 0.000000 0.000000 3.235580 
# 
# 
# High freq. dielectric constant tensor:
#      x y z
#    x 1.691430 0.000000 0.000000 
#    y 0.000000 1.660800 0.000000 
#    z 0.000000 0.000000 1.699720 
# 
# From -- ./inp_files/11563.got.cif
#   From: 2010.03.12/outbox.cif.g09.slc.cpg/sg59_6_cif.got.tgz:11563.got - 2010.04.16 16:29:54.
