data_PCOD8239748
_publ_section_title
;
Structure prediction by ZEFSAII (Michael W. Deem and Ramdas Pophale) SiO2 
 PCOD8239748
Probable space group: P M M N
;
_chemical_formula_sum "Si O2"
_cell_formula_units_Z 56
_cell_length_a 22.062631
_cell_length_b 8.882341
_cell_length_c 17.069789
_cell_angle_alpha 90.000000
_cell_angle_beta 90.000000
_cell_angle_gamma 90.000000
_cell_volume 3345.129200
_symmetry_space_group_name_H-M "P M M N"
_symmetry_group_IT_number 59
_space_group.IT_coordinate_system_code '2'
_symmetry_cell_setting 'orthorhombic'
loop_
_space_group_symop_operation_xyz
x,y,z
1/2-x,1/2-y,z
1/2+x,-y,-z
-x,1/2+y,-z
-x,-y,-z
1/2+x,1/2+y,-z
1/2-x,y,z
x,1/2-y,z
loop_
_atom_site_type_symbol
_atom_site_label
_atom_site_fract_x
_atom_site_fract_y
_atom_site_fract_z
Si Si1 0.522480 0.420599 0.277893
Si Si2 0.816765 0.573072 0.413711
Si Si3 0.916596 0.923562 0.003610
Si Si4 0.452784 0.429180 0.560598
Si Si5 0.683593 0.083117 0.084331
Si Si6 0.481845 0.573653 0.127010
Si Si7 0.660513 0.081705 0.256386
O O1 0.501293 0.250000 0.297414
O O2 0.521174 0.521341 0.355633
O O3 0.479837 0.490852 0.210821
O O4 0.589135 0.423597 0.242831
O O5 0.750000 0.516561 0.448728
O O6 0.818327 0.750000 0.422163
O O7 0.881484 0.513333 0.451366
O O8 0.816800 0.531695 0.322513
O O9 0.925506 0.750000 0.982633
O O10 0.960366 0.973883 0.074646
O O11 0.849788 0.958089 0.033478
O O12 0.924875 0.019762 0.924379
O O13 0.500000 0.500000 0.500000
O O14 0.455026 0.250000 0.553607
O O15 0.750000 0.091405 0.047829
O O16 0.652675 0.250000 0.080010
O O17 0.689214 0.031325 0.174582
O O18 0.479249 0.750000 0.143369
O O19 0.681275 0.250000 0.280742
#
# Coordination Sequence:
#
# PCOD8239748 Si02
#       7
#     8   8   8   8   8   8   8
#     4  10  18  30  50  72  96 126 161 198 240 288
#     4   9  18  31  47  68  95 128 163 199 238 283
#     4  10  20  31  45  65  91 122 160 202 241 280
#     4  10  20  34  51  73 103 133 165 202 246 296
#     4  10  19  30  43  61  90 127 163 199 240 284
#     4  10  19  31  48  68  92 121 156 199 243 284
#     4   9  17  28  43  64  93 126 161 195 228 276
#
# _framework density 16.740758
#
# number of rings (size 3 to 8) (size 9 to 14) (size 15 to 20)
#    0.000    2.286    1.429    2.143    0.000    4.000 
#    0.000    0.000    0.000    0.000    0.000    1.000 
#    0.000    5.714    0.000    0.000    0.000    0.000 
#
# Total GULP energy -693789.625616 kJ/mol
# GULP energy per Si atom -12389.100457 kJ/mol
# Density = 1.670266 g / cm^3
# Si number density = 16.740758 Si / 1000 Ang^3
#
#
#
# Elastic Constant Matrix: (Units=GPa)
#
#
# Indices 1 2 3 4 5 6 
#
# 1 90.6882 24.8604 46.1758 0.0000 0.0000 0.0000
# 2 24.8604 50.2735 27.3164 0.0000 0.0000 0.0000
# 3 46.1758 27.3164 73.5678 0.0000 0.0000 0.0000
# 4 0.0000 0.0000 0.0000 29.4412 0.0000 0.0000
# 5 0.0000 0.0000 0.0000 0.0000 -102.1938 0.0000
# 6 0.0000 0.0000 0.0000 0.0000 0.0000 18.5330
#
#
#
# Elastic Compliance Matrix: (Units=1/GPa)
#
#
# Indices 1 2 3 4 5 6 
#
# 1 0.016605 -0.003192 -0.009237 0.000000 0.000000 0.000000
# 2 -0.003192 0.025532 -0.007477 0.000000 0.000000 0.000000
# 3 -0.009237 -0.007477 0.022167 0.000000 0.000000 0.000000
# 4 0.000000 0.000000 0.000000 0.033966 0.000000 0.000000
# 5 0.000000 0.000000 0.000000 0.000000 -0.009785 0.000000
# 6 0.000000 0.000000 0.000000 0.000000 0.000000 0.053958
#
#
# Mechanical properties :
#
#
# Convention : Reuss Voigt Hill
#
# Bulk Modulus (GPa) = 40.82945 45.69275 43.26110
# Shear Modulus (GPa) = 26.25789 -3.09879 11.57955
#
# Velocity S-wave (km/s) = 3.96473 -1.36201 2.63287
# Velocity P-wave (km/s) = 6.73802 4.98800 5.92795
#
# Compressibility (1/GPa) = 0.02449213
#
# Stress axis : x y z
#
# Youngs Moduli (GPa) = 60.22217 39.16614 45.11232
#
# Poissons Ratio (x) = 0.12503 0.41671
# Poissons Ratio (y) = 0.19224 0.33729
# Poissons Ratio (z) = 0.55628 0.29283
#
# Static dielectric constant tensor:
#      x y z
#    x 3.302370 0.000000 0.000000 
#    y 0.000000 3.148320 0.000000 
#    z 0.000000 0.000000 2.887940 
# 
# 
# High freq. dielectric constant tensor:
#      x y z
#    x 1.630680 0.000000 0.000000 
#    y 0.000000 1.649230 0.000000 
#    z 0.000000 0.000000 1.611910 
# 
# From -- ./inp_files/25997.got.cif
#   From: 2010.03.12/outbox.cif.g09.slc.cpg/sg59_13_cif.got.tgz:25997.got - 2010.04.16 16:29:54.
