data_PCOD8239934
_publ_section_title
;
Structure prediction by ZEFSAII (Michael W. Deem and Ramdas Pophale) SiO2 
 PCOD8239934
Probable space group: P M M N
;
_chemical_formula_sum "Si O2"
_cell_formula_units_Z 64
_cell_length_a 8.606604
_cell_length_b 29.344654
_cell_length_c 12.502249
_cell_angle_alpha 90.000000
_cell_angle_beta 90.000000
_cell_angle_gamma 90.000000
_cell_volume 3157.540709
_symmetry_space_group_name_H-M "P M M N"
_symmetry_group_IT_number 59
_space_group.IT_coordinate_system_code '2'
_symmetry_cell_setting 'orthorhombic'
loop_
_space_group_symop_operation_xyz
x,y,z
1/2-x,1/2-y,z
1/2+x,-y,-z
-x,1/2+y,-z
-x,-y,-z
1/2+x,1/2+y,-z
1/2-x,y,z
x,1/2-y,z
loop_
_atom_site_type_symbol
_atom_site_label
_atom_site_fract_x
_atom_site_fract_y
_atom_site_fract_z
Si Si1 0.070330 0.936736 0.833389
Si Si2 0.070213 0.580492 0.401223
Si Si3 0.571281 0.199654 0.878408
Si Si4 0.431751 0.111849 0.968683
Si Si5 0.929154 0.671336 0.334637
Si Si6 0.933988 0.897107 0.622447
Si Si7 0.430917 0.201441 0.433965
Si Si8 0.068723 0.038807 0.794356
O O1 0.250000 0.926074 0.854972
O O2 0.026646 0.922521 0.713984
O O3 0.033841 0.990120 0.848096
O O4 0.967096 0.908525 0.915632
O O5 0.250000 0.575910 0.431048
O O6 0.035982 0.626772 0.337351
O O7 0.970699 0.578209 0.510120
O O8 0.021070 0.540612 0.319077
O O9 0.750000 0.190817 0.850265
O O10 0.548504 0.250000 0.930593
O O11 0.513905 0.160859 0.959729
O O12 0.472334 0.199686 0.769675
O O13 0.250000 0.119668 0.957307
O O14 0.491754 0.077503 0.876432
O O15 0.750000 0.655543 0.329189
O O16 0.960375 0.701533 0.438956
O O17 0.750000 0.898993 0.642404
O O18 0.998852 0.844578 0.619123
O O19 0.250000 0.201286 0.408980
O O20 0.502288 0.250000 0.390977
O O21 0.250000 0.044833 0.770565
#
# Coordination Sequence:
#
# PCOD8239934 Si02
#       8
#     8   8   8   8   8   8   8   8
#     4  11  24  42  63  86 117 155 200 251 305 359
#     4  11  21  34  58  89 123 159 192 238 300 355
#     4  11  23  37  56  87 124 159 197 243 298 353
#     4  11  23  41  65  89 118 155 200 248 300 360
#     4  10  18  31  53  83 120 157 193 236 289 356
#     4  10  21  38  59  84 119 158 201 249 297 357
#     4   8  15  29  52  81 110 145 191 240 286 336
#     4  10  22  40  63  91 119 153 196 246 302 366
#
# _framework density 20.268939
#
# number of rings (size 3 to 8) (size 9 to 14) (size 15 to 20)
#    0.000    1.750    1.250    4.500    0.000    3.500 
#    0.000    0.625    0.000    9.750    0.000    0.000 
#    0.000    0.000    0.000    0.000    0.000    0.000 
#
# Total GULP energy -793524.070233 kJ/mol
# GULP energy per Si atom -12398.813597 kJ/mol
# Density = 2.022281 g / cm^3
# Si number density = 20.268939 Si / 1000 Ang^3
#
#
#
# Elastic Constant Matrix: (Units=GPa)
#
#
# Indices 1 2 3 4 5 6 
#
# 1 52.2478 31.4199 7.3404 0.0000 0.0000 0.0000
# 2 31.4199 107.1819 39.9048 0.0000 0.0000 0.0000
# 3 7.3404 39.9048 77.8865 0.0000 0.0000 0.0000
# 4 0.0000 0.0000 0.0000 26.1247 0.0000 0.0000
# 5 0.0000 0.0000 0.0000 0.0000 31.8045 0.0000
# 6 0.0000 0.0000 0.0000 0.0000 0.0000 22.6470
#
#
#
# Elastic Compliance Matrix: (Units=1/GPa)
#
#
# Indices 1 2 3 4 5 6 
#
# 1 0.023399 -0.007462 0.001618 0.000000 0.000000 0.000000
# 2 -0.007462 0.013909 -0.006423 0.000000 0.000000 0.000000
# 3 0.001618 -0.006423 0.015977 0.000000 0.000000 0.000000
# 4 0.000000 0.000000 0.000000 0.038278 0.000000 0.000000
# 5 0.000000 0.000000 0.000000 0.000000 0.031442 0.000000
# 6 0.000000 0.000000 0.000000 0.000000 0.000000 0.044156
#
#
# Mechanical properties :
#
#
# Convention : Reuss Voigt Hill
#
# Bulk Modulus (GPa) = 34.78035 43.84960 39.31498
# Shear Modulus (GPa) = 24.84114 26.69198 25.76656
#
# Velocity S-wave (km/s) = 3.50462 3.63284 3.56930
# Velocity P-wave (km/s) = 5.79424 6.26718 6.03534
#
# Compressibility (1/GPa) = 0.02875187
#
# Stress axis : x y z
#
# Youngs Moduli (GPa) = 42.73600 71.89820 62.58839
#
# Poissons Ratio (x) = 0.53648 -0.10125
# Poissons Ratio (y) = 0.31888 0.40199
# Poissons Ratio (z) = -0.06913 0.46178
#
# Static dielectric constant tensor:
#      x y z
#    x 3.531120 0.000000 0.000000 
#    y 0.000000 3.884520 0.000000 
#    z 0.000000 0.000000 3.462990 
# 
# 
# High freq. dielectric constant tensor:
#      x y z
#    x 1.782210 0.000000 0.000000 
#    y 0.000000 1.799880 0.000000 
#    z 0.000000 0.000000 1.772890 
# 
# From -- ./inp_files/15078.got.cif
#   From: 2010.03.12/outbox.cif.g09.slc.cpg/sg59_8_cif.got.tgz:15078.got - 2010.04.16 16:29:54.
