data_PCOD8239287
_publ_section_title
;
Structure prediction by ZEFSAII (Michael W. Deem and Ramdas Pophale) SiO2 
 PCOD8239287
Probable space group: P M M N
;
_chemical_formula_sum "Si O2"
_cell_formula_units_Z 56
_cell_length_a 9.053226
_cell_length_b 26.718163
_cell_length_c 14.549008
_cell_angle_alpha 90.000000
_cell_angle_beta 90.000000
_cell_angle_gamma 90.000000
_cell_volume 3519.195063
_symmetry_space_group_name_H-M "P M M N"
_symmetry_group_IT_number 59
_space_group.IT_coordinate_system_code '2'
_symmetry_cell_setting 'orthorhombic'
loop_
_space_group_symop_operation_xyz
x,y,z
1/2-x,1/2-y,z
1/2+x,-y,-z
-x,1/2+y,-z
-x,-y,-z
1/2+x,1/2+y,-z
1/2-x,y,z
x,1/2-y,z
loop_
_atom_site_type_symbol
_atom_site_label
_atom_site_fract_x
_atom_site_fract_y
_atom_site_fract_z
Si Si1 0.081085 0.541546 0.378961
Si Si2 0.424616 0.307069 0.632116
Si Si3 0.922040 0.961835 0.882579
Si Si4 0.577937 0.565251 0.083334
Si Si5 0.924484 0.564479 0.687557
Si Si6 0.924319 0.887543 0.510307
Si Si7 0.918902 0.374687 0.771978
O O1 0.250000 0.538456 0.412057
O O2 0.013777 0.488124 0.350677
O O3 0.066152 0.576765 0.290785
O O4 0.984561 0.562680 0.462062
O O5 0.250000 0.312523 0.645002
O O6 0.472708 0.250000 0.616815
O O7 0.481615 0.337638 0.541709
O O8 0.501470 0.327681 0.723936
O O9 0.750000 0.977369 0.874882
O O10 0.973489 0.928487 0.794050
O O11 0.950301 0.929259 0.973853
O O12 0.014938 0.012508 0.882585
O O13 0.750000 0.567017 0.107883
O O14 0.497496 0.612068 0.131599
O O15 0.750000 0.560976 0.684835
O O16 0.975603 0.609424 0.618247
O O17 0.750000 0.889203 0.502974
O O18 0.750000 0.359850 0.790977
#
# Coordination Sequence:
#
# PCOD8239287 Si02
#       7
#     8   8   8   8   8   8   8
#     4   9  16  26  39  56  83 115 141 174 214 248
#     4   9  18  32  47  66  91 111 135 179 226 264
#     4   9  17  29  42  58  86 121 152 182 215 253
#     4  10  18  27  42  63  86 116 152 185 219 257
#     4   9  15  26  41  58  83 116 149 177 208 251
#     4   9  17  27  42  61  81 110 145 175 212 259
#     4  10  18  29  46  64  87 116 147 181 217 265
#
# _framework density 15.912731000000001
#
# number of rings (size 3 to 8) (size 9 to 14) (size 15 to 20)
#    0.000    2.714    1.429    1.286    0.000    1.429 
#    0.000    0.714    0.000    0.000    0.000    1.000 
#    0.000    5.714    0.000    0.143    0.000    0.429 
#
# Total GULP energy -693979.398378 kJ/mol
# GULP energy per Si atom -12392.489257 kJ/mol
# Density = 1.587651 g / cm^3
# Si number density = 15.912731 Si / 1000 Ang^3
#
#
#
# Elastic Constant Matrix: (Units=GPa)
#
#
# Indices 1 2 3 4 5 6 
#
# 1 40.5796 25.2387 33.8454 0.0000 0.0000 0.0000
# 2 25.2387 75.6291 54.8283 0.0000 0.0000 0.0000
# 3 33.8454 54.8283 138.3594 0.0000 0.0000 0.0000
# 4 0.0000 0.0000 0.0000 16.5748 0.0000 0.0000
# 5 0.0000 0.0000 0.0000 0.0000 16.7975 0.0000
# 6 0.0000 0.0000 0.0000 0.0000 0.0000 16.5846
#
#
#
# Elastic Compliance Matrix: (Units=1/GPa)
#
#
# Indices 1 2 3 4 5 6 
#
# 1 0.033664 -0.007386 -0.005308 0.000000 0.000000 0.000000
# 2 -0.007386 0.020173 -0.006187 0.000000 0.000000 0.000000
# 3 -0.005308 -0.006187 0.010978 0.000000 0.000000 0.000000
# 4 0.000000 0.000000 0.000000 0.060333 0.000000 0.000000
# 5 0.000000 0.000000 0.000000 0.000000 0.059533 0.000000
# 6 0.000000 0.000000 0.000000 0.000000 0.000000 0.060297
#
#
# Mechanical properties :
#
#
# Convention : Reuss Voigt Hill
#
# Bulk Modulus (GPa) = 36.96590 53.59920 45.28255
# Shear Modulus (GPa) = 17.13761 19.36843 18.25302
#
# Velocity S-wave (km/s) = 3.28529 3.49258 3.39052
# Velocity P-wave (km/s) = 6.13772 7.07251 6.62164
#
# Compressibility (1/GPa) = 0.02705196
#
# Stress axis : x y z
#
# Youngs Moduli (GPa) = 29.70553 49.57175 91.09315
#
# Poissons Ratio (x) = 0.36615 0.48351
# Poissons Ratio (y) = 0.21941 0.56361
# Poissons Ratio (z) = 0.15767 0.30671
#
# Static dielectric constant tensor:
#      x y z
#    x 2.964920 0.000000 0.000000 
#    y 0.000000 2.808490 0.000000 
#    z 0.000000 0.000000 3.438500 
# 
# 
# High freq. dielectric constant tensor:
#      x y z
#    x 1.602960 0.000000 0.000000 
#    y 0.000000 1.564770 0.000000 
#    z 0.000000 0.000000 1.618230 
# 
# From -- ./inp_files/21711.got.cif
#   From: 2010.03.12/outbox.cif.g09.slc.cpg/sg59_11_cif.got.tgz:21711.got - 2010.04.16 16:29:54.
