data_PCOD8239084
_publ_section_title
;
Structure prediction by ZEFSAII (Michael W. Deem and Ramdas Pophale) SiO2 
 PCOD8239084
Probable space group: P M M N
;
_chemical_formula_sum "Si O2"
_cell_formula_units_Z 48
_cell_length_a 20.372885
_cell_length_b 9.243162
_cell_length_c 15.250562
_cell_angle_alpha 90.000000
_cell_angle_beta 90.000000
_cell_angle_gamma 90.000000
_cell_volume 2871.831446
_symmetry_space_group_name_H-M "P M M N"
_symmetry_group_IT_number 59
_space_group.IT_coordinate_system_code '2'
_symmetry_cell_setting 'orthorhombic'
loop_
_space_group_symop_operation_xyz
x,y,z
1/2-x,1/2-y,z
1/2+x,-y,-z
-x,1/2+y,-z
-x,-y,-z
1/2+x,1/2+y,-z
1/2-x,y,z
x,1/2-y,z
loop_
_atom_site_type_symbol
_atom_site_label
_atom_site_fract_x
_atom_site_fract_y
_atom_site_fract_z
Si Si1 0.435657 0.081967 0.030268
Si Si2 0.534651 0.582924 0.776776
Si Si3 0.085941 0.912021 0.569094
Si Si4 0.096059 0.080120 0.739159
Si Si5 0.177642 0.080027 0.906620
Si Si6 0.069734 0.410407 0.408076
O O1 0.445454 0.250000 0.006309
O O2 0.424327 0.059675 0.134246
O O3 0.372612 0.016778 0.979330
O O4 0.500000 0.000000 0.000000
O O5 0.511009 0.750000 0.767183
O O6 0.471204 0.481484 0.778834
O O7 0.581548 0.543659 0.693638
O O8 0.114465 0.750000 0.572231
O O9 0.008110 0.913092 0.578280
O O10 0.116883 0.004802 0.648094
O O11 0.105652 0.981305 0.475152
O O12 0.086818 0.250000 0.722350
O O13 0.152935 0.045754 0.808730
O O14 0.250000 0.009905 0.918823
O O15 0.182493 0.250000 0.921043
O O16 0.097402 0.250000 0.426461
#
# Coordination Sequence:
#
# PCOD8239084 Si02
#       6
#     8   8   8   8   8   8
#     4  10  18  30  48  69  92 121 155 194 235 277
#     4   9  17  27  42  64  91 117 147 188 231 270
#     4   9  16  25  38  58  86 117 145 180 221 263
#     4  10  17  26  43  64  86 118 152 183 223 272
#     4   9  18  31  46  67  94 123 156 191 230 279
#     4   8  14  24  36  56  85 116 145 176 217 266
#
# _framework density 16.714072999999999
#
# number of rings (size 3 to 8) (size 9 to 14) (size 15 to 20)
#    0.000    2.833    1.667    2.000    0.000    4.000 
#    0.000    0.000    0.000    4.500    0.000    1.167 
#    0.000    6.667    0.000    0.000    0.000    0.000 
#
# Total GULP energy -594926.879690 kJ/mol
# GULP energy per Si atom -12394.309994 kJ/mol
# Density = 1.667603 g / cm^3
# Si number density = 16.714073 Si / 1000 Ang^3
#
#
#
# Elastic Constant Matrix: (Units=GPa)
#
#
# Indices 1 2 3 4 5 6 
#
# 1 73.4303 30.6544 54.8916 0.0000 0.0000 0.0000
# 2 30.6544 78.8213 56.9070 0.0000 0.0000 0.0000
# 3 54.8916 56.9070 156.1090 0.0000 0.0000 0.0000
# 4 0.0000 0.0000 0.0000 24.6646 0.0000 0.0000
# 5 0.0000 0.0000 0.0000 0.0000 12.5198 0.0000
# 6 0.0000 0.0000 0.0000 0.0000 0.0000 10.3603
#
#
#
# Elastic Compliance Matrix: (Units=1/GPa)
#
#
# Indices 1 2 3 4 5 6 
#
# 1 0.019165 -0.003513 -0.005458 0.000000 0.000000 0.000000
# 2 -0.003513 0.017862 -0.005276 0.000000 0.000000 0.000000
# 3 -0.005458 -0.005276 0.010248 0.000000 0.000000 0.000000
# 4 0.000000 0.000000 0.000000 0.040544 0.000000 0.000000
# 5 0.000000 0.000000 0.000000 0.000000 0.079873 0.000000
# 6 0.000000 0.000000 0.000000 0.000000 0.000000 0.096522
#
#
# Mechanical properties :
#
#
# Convention : Reuss Voigt Hill
#
# Bulk Modulus (GPa) = 53.24473 65.91851 59.58162
# Shear Modulus (GPa) = 16.72406 20.56945 18.64675
#
# Velocity S-wave (km/s) = 3.16665 3.51189 3.34373
# Velocity P-wave (km/s) = 6.73020 7.48125 7.11564
#
# Compressibility (1/GPa) = 0.01878120
#
# Stress axis : x y z
#
# Youngs Moduli (GPa) = 52.17817 55.98347 97.57536
#
# Poissons Ratio (x) = 0.19665 0.53261
# Poissons Ratio (y) = 0.18328 0.51484
# Poissons Ratio (z) = 0.28481 0.29539
#
# Static dielectric constant tensor:
#      x y z
#    x 2.761680 0.000000 0.000000 
#    y 0.000000 3.153070 0.000000 
#    z 0.000000 0.000000 3.636720 
# 
# 
# High freq. dielectric constant tensor:
#      x y z
#    x 1.574970 0.000000 0.000000 
#    y 0.000000 1.635580 0.000000 
#    z 0.000000 0.000000 1.666760 
# 
# From -- ./inp_files/21250.got.cif
#   From: 2010.03.12/outbox.cif.g09.slc.cpg/sg59_11_cif.got.tgz:21250.got - 2010.04.16 16:29:54.
