data_PCOD8239080
_publ_section_title
;
Structure prediction by ZEFSAII (Michael W. Deem and Ramdas Pophale) SiO2 
 PCOD8239080
Probable space group: P M M N
;
_chemical_formula_sum "Si O2"
_cell_formula_units_Z 64
_cell_length_a 8.491003
_cell_length_b 26.808609
_cell_length_c 17.257457
_cell_angle_alpha 90.000000
_cell_angle_beta 90.000000
_cell_angle_gamma 90.000000
_cell_volume 3928.349097
_symmetry_space_group_name_H-M "P M M N"
_symmetry_group_IT_number 59
_space_group.IT_coordinate_system_code '2'
_symmetry_cell_setting 'orthorhombic'
loop_
_space_group_symop_operation_xyz
x,y,z
1/2-x,1/2-y,z
1/2+x,-y,-z
-x,1/2+y,-z
-x,-y,-z
1/2+x,1/2+y,-z
1/2-x,y,z
x,1/2-y,z
loop_
_atom_site_type_symbol
_atom_site_label
_atom_site_fract_x
_atom_site_fract_y
_atom_site_fract_z
Si Si1 0.566157 0.553590 0.984852
Si Si2 0.433776 0.460472 0.600591
Si Si3 0.434411 0.886523 0.519695
Si Si4 0.936102 0.530056 0.821377
Si Si5 0.565202 0.578919 0.146556
Si Si6 0.933043 0.562009 0.655014
Si Si7 0.934932 0.692804 0.408370
Si Si8 0.567063 0.120423 0.709216
O O1 0.750000 0.549729 0.994465
O O2 0.522596 0.566655 0.895261
O O3 0.500000 0.500000 0.000000
O O4 0.508643 0.588777 0.056408
O O5 0.250000 0.473646 0.594828
O O6 0.493043 0.434931 0.521994
O O7 0.533327 0.510012 0.612933
O O8 0.463411 0.423240 0.671643
O O9 0.250000 0.883784 0.505026
O O10 0.474825 0.893232 0.610813
O O11 0.510983 0.836418 0.485351
O O12 0.750000 0.518320 0.817608
O O13 0.991403 0.559134 0.744267
O O14 0.025036 0.477503 0.827520
O O15 0.750000 0.587900 0.156749
O O16 0.473410 0.619415 0.199321
O O17 0.750000 0.574491 0.650680
O O18 0.750000 0.685633 0.397235
O O19 0.983196 0.750000 0.419387
O O20 0.020606 0.672570 0.330917
O O21 0.750000 0.109818 0.695004
#
# Coordination Sequence:
#
# PCOD8239080 Si02
#       8
#     8   8   8   8   8   8   8   8
#     4   8  15  26  39  58  82 116 155 191 225 258
#     4  11  20  31  45  62  88 118 154 192 229 268
#     4  11  22  34  48  66  89 117 151 185 223 272
#     4   9  17  28  42  59  86 122 159 193 229 266
#     4  10  17  26  42  62  89 119 155 194 225 262
#     4  11  20  30  44  63  91 123 156 192 229 266
#     4  10  21  38  57  73  90 112 142 184 233 279
#     4  11  20  30  46  68  93 121 154 186 224 272
#
# _framework density 16.291831999999999
#
# number of rings (size 3 to 8) (size 9 to 14) (size 15 to 20)
#    0.000    1.875    1.250    6.375    0.000    2.000 
#    0.000    0.000    0.000    0.000    0.000    0.000 
#    0.000    1.000    0.000   11.500    0.000    3.250 
#
# Total GULP energy -793086.531192 kJ/mol
# GULP energy per Si atom -12391.977050 kJ/mol
# Density = 1.625475 g / cm^3
# Si number density = 16.291832 Si / 1000 Ang^3
#
#
#
# Elastic Constant Matrix: (Units=GPa)
#
#
# Indices 1 2 3 4 5 6 
#
# 1 39.3187 4.1473 28.0888 0.0000 0.0000 0.0000
# 2 4.1473 53.8460 49.6779 0.0000 0.0000 0.0000
# 3 28.0888 49.6779 136.1512 0.0000 0.0000 0.0000
# 4 0.0000 0.0000 0.0000 12.2641 0.0000 0.0000
# 5 0.0000 0.0000 0.0000 0.0000 19.9492 0.0000
# 6 0.0000 0.0000 0.0000 0.0000 0.0000 17.7497
#
#
#
# Elastic Compliance Matrix: (Units=1/GPa)
#
#
# Indices 1 2 3 4 5 6 
#
# 1 0.030787 0.005259 -0.008270 0.000000 0.000000 0.000000
# 2 0.005259 0.028894 -0.011628 0.000000 0.000000 0.000000
# 3 -0.008270 -0.011628 0.013294 0.000000 0.000000 0.000000
# 4 0.000000 0.000000 0.000000 0.081539 0.000000 0.000000
# 5 0.000000 0.000000 0.000000 0.000000 0.050127 0.000000
# 6 0.000000 0.000000 0.000000 0.000000 0.000000 0.056339
#
#
# Mechanical properties :
#
#
# Convention : Reuss Voigt Hill
#
# Bulk Modulus (GPa) = 22.88525 43.68266 33.28396
# Shear Modulus (GPa) = 16.40299 19.81939 18.11119
#
# Velocity S-wave (km/s) = 3.17649 3.49165 3.33779
# Velocity P-wave (km/s) = 5.24700 6.56707 5.94379
#
# Compressibility (1/GPa) = 0.04369626
#
# Stress axis : x y z
#
# Youngs Moduli (GPa) = 32.48154 34.60934 75.22433
#
# Poissons Ratio (x) = -0.18201 0.62213
# Poissons Ratio (y) = -0.17082 0.87468
# Poissons Ratio (z) = 0.26863 0.40242
#
# Static dielectric constant tensor:
#      x y z
#    x 3.711020 0.000000 0.000000 
#    y 0.000000 2.681470 0.000000 
#    z 0.000000 0.000000 3.801930 
# 
# 
# High freq. dielectric constant tensor:
#      x y z
#    x 1.640210 0.000000 0.000000 
#    y 0.000000 1.557470 0.000000 
#    z 0.000000 0.000000 1.642110 
# 
# From -- ./inp_files/26665.got.cif
#   From: 2010.03.12/outbox.cif.g09.slc.cpg/sg59_14_cif.got.tgz:26665.got - 2010.04.16 16:29:54.
