data_PCOD8239325
_publ_section_title
;
Structure prediction by ZEFSAII (Michael W. Deem and Ramdas Pophale) SiO2 
 PCOD8239325
Probable space group: P M M N
;
_chemical_formula_sum "Si O2"
_cell_formula_units_Z 56
_cell_length_a 18.646522
_cell_length_b 9.231929
_cell_length_c 18.958359
_cell_angle_alpha 90.000000
_cell_angle_beta 90.000000
_cell_angle_gamma 90.000000
_cell_volume 3263.555755
_symmetry_space_group_name_H-M "P M M N"
_symmetry_group_IT_number 59
_space_group.IT_coordinate_system_code '2'
_symmetry_cell_setting 'orthorhombic'
loop_
_space_group_symop_operation_xyz
x,y,z
1/2-x,1/2-y,z
1/2+x,-y,-z
-x,1/2+y,-z
-x,-y,-z
1/2+x,1/2+y,-z
1/2-x,y,z
x,1/2-y,z
loop_
_atom_site_type_symbol
_atom_site_label
_atom_site_fract_x
_atom_site_fract_y
_atom_site_fract_z
Si Si1 0.526865 0.415059 0.566691
Si Si2 0.011314 0.414612 0.717310
Si Si3 0.172571 0.916599 0.364556
Si Si4 0.427319 0.085620 0.859003
Si Si5 0.409931 0.919711 0.103441
Si Si6 0.375563 0.078623 0.236738
Si Si7 0.331678 0.920485 0.961863
O O1 0.500000 0.500000 0.500000
O O2 0.529779 0.250000 0.542893
O O3 0.472279 0.436145 0.633806
O O4 0.607106 0.470620 0.586395
O O5 0.980191 0.250000 0.727689
O O6 0.076501 0.433508 0.772987
O O7 0.954565 0.536061 0.737736
O O8 0.250000 0.932516 0.403489
O O9 0.157696 0.750000 0.343530
O O10 0.178882 0.011184 0.293430
O O11 0.410797 0.250000 0.880618
O O12 0.505942 0.041142 0.888593
O O13 0.365546 0.986917 0.891304
O O14 0.396763 0.750000 0.116098
O O15 0.362750 0.008991 0.159856
O O16 0.380817 0.969550 0.027481
O O17 0.365657 0.250000 0.232514
O O18 0.250000 0.975603 0.971633
O O19 0.333032 0.750000 0.952622
#
# Coordination Sequence:
#
# PCOD8239325 Si02
#       7
#     8   8   8   8   8   8   8
#     4   9  17  30  50  75 100 125 155 192 232 276
#     4   8  16  32  50  69  94 124 156 185 223 283
#     4   9  18  33  50  66  92 134 171 192 224 284
#     4   9  17  31  52  71  88 118 161 204 237 272
#     4   9  18  33  49  66  93 129 164 192 230 292
#     4  10  18  27  44  72  99 119 148 194 239 275
#     4  10  21  34  47  66  93 124 158 199 248 296
#
# _framework density 17.159198
#
# number of rings (size 3 to 8) (size 9 to 14) (size 15 to 20)
#    0.000    2.857    0.000    3.429    0.000    6.286 
#    0.000    1.429    0.000    0.857    0.000    4.000 
#    0.000    0.000    0.000    0.000    0.000    0.000 
#
# Total GULP energy -693807.934114 kJ/mol
# GULP energy per Si atom -12389.427395 kJ/mol
# Density = 1.712014 g / cm^3
# Si number density = 17.159198 Si / 1000 Ang^3
#
#
#
# Elastic Constant Matrix: (Units=GPa)
#
#
# Indices 1 2 3 4 5 6 
#
# 1 72.9749 29.3001 51.9237 0.0000 0.0000 0.0000
# 2 29.3001 56.7638 41.9150 0.0000 0.0000 0.0000
# 3 51.9237 41.9150 130.4419 0.0000 0.0000 0.0000
# 4 0.0000 0.0000 0.0000 31.4891 0.0000 0.0000
# 5 0.0000 0.0000 0.0000 0.0000 17.3433 0.0000
# 6 0.0000 0.0000 0.0000 0.0000 0.0000 20.0542
#
#
#
# Elastic Compliance Matrix: (Units=1/GPa)
#
#
# Indices 1 2 3 4 5 6 
#
# 1 0.020563 -0.005992 -0.006260 0.000000 0.000000 0.000000
# 2 -0.005992 0.024843 -0.005598 0.000000 0.000000 0.000000
# 3 -0.006260 -0.005598 0.011957 0.000000 0.000000 0.000000
# 4 0.000000 0.000000 0.000000 0.031757 0.000000 0.000000
# 5 0.000000 0.000000 0.000000 0.000000 0.057659 0.000000
# 6 0.000000 0.000000 0.000000 0.000000 0.000000 0.049865
#
#
# Mechanical properties :
#
#
# Convention : Reuss Voigt Hill
#
# Bulk Modulus (GPa) = 46.15940 56.27312 51.21626
# Shear Modulus (GPa) = 20.87117 22.91345 21.89231
#
# Velocity S-wave (km/s) = 3.49137 3.65820 3.57576
# Velocity P-wave (km/s) = 6.57358 7.12104 6.85278
#
# Compressibility (1/GPa) = 0.02166406
#
# Stress axis : x y z
#
# Youngs Moduli (GPa) = 48.63030 40.25257 83.63385
#
# Poissons Ratio (x) = 0.24118 0.52356
# Poissons Ratio (y) = 0.29138 0.46816
# Poissons Ratio (z) = 0.30443 0.22533
#
# Static dielectric constant tensor:
#      x y z
#    x 3.031070 0.000000 0.000000 
#    y 0.000000 3.055330 0.000000 
#    z 0.000000 0.000000 3.283850 
# 
# 
# High freq. dielectric constant tensor:
#      x y z
#    x 1.630770 0.000000 0.000000 
#    y 0.000000 1.655130 0.000000 
#    z 0.000000 0.000000 1.656700 
# 
# From -- ./inp_files/26017.got.cif
#   From: 2010.03.12/outbox.cif.g09.slc.cpg/sg59_14_cif.got.tgz:26017.got - 2010.04.16 16:29:54.
