data_PCOD8239040
_publ_section_title
;
Structure prediction by ZEFSAII (Michael W. Deem and Ramdas Pophale) SiO2 
 PCOD8239040
Probable space group: P M M N
;
_chemical_formula_sum "Si O2"
_cell_formula_units_Z 64
_cell_length_a 9.234376
_cell_length_b 25.346004
_cell_length_c 18.628997
_cell_angle_alpha 90.000000
_cell_angle_beta 90.000000
_cell_angle_gamma 90.000000
_cell_volume 4360.201156
_symmetry_space_group_name_H-M "P M M N"
_symmetry_group_IT_number 59
_space_group.IT_coordinate_system_code '2'
_symmetry_cell_setting 'orthorhombic'
loop_
_space_group_symop_operation_xyz
x,y,z
1/2-x,1/2-y,z
1/2+x,-y,-z
-x,1/2+y,-z
-x,-y,-z
1/2+x,1/2+y,-z
1/2-x,y,z
x,1/2-y,z
loop_
_atom_site_type_symbol
_atom_site_label
_atom_site_fract_x
_atom_site_fract_y
_atom_site_fract_z
Si Si1 0.422453 0.399339 0.827235
Si Si2 0.078862 0.308005 0.725933
Si Si3 0.082263 0.003565 0.394220
Si Si4 0.090376 0.453992 0.088989
Si Si5 0.588262 0.074184 0.962135
Si Si6 0.577949 0.807882 0.434871
Si Si7 0.920511 0.580533 0.482044
Si Si8 0.917900 0.498371 0.768430
O O1 0.250000 0.401358 0.834422
O O2 0.483069 0.350144 0.781760
O O3 0.489959 0.393442 0.906435
O O4 0.475984 0.450530 0.785170
O O5 0.250000 0.313498 0.723429
O O6 0.032109 0.250000 0.752712
O O7 0.018554 0.317700 0.645675
O O8 0.250000 0.990225 0.406101
O O9 0.049265 0.018686 0.311788
O O10 0.994013 0.951723 0.417228
O O11 0.036220 0.054187 0.442026
O O12 0.250000 0.429557 0.077556
O O13 0.089337 0.513936 0.062138
O O14 0.050143 0.454628 0.174034
O O15 0.977267 0.420088 0.042466
O O16 0.750000 0.097656 0.963557
O O17 0.750000 0.805719 0.434001
O O18 0.521363 0.750000 0.463053
O O19 0.525720 0.858129 0.482449
O O20 0.750000 0.578045 0.467840
O O21 0.750000 0.480216 0.776758
#
# Coordination Sequence:
#
# PCOD8239040 Si02
#       8
#     8   8   8   8   8   8   8   8
#     4  10  17  24  38  56  72  95 127 156 180 215
#     4   8  14  23  34  51  74  96 120 153 187 213
#     4   9  17  27  38  54  78 105 128 155 193 231
#     4   8  14  24  36  49  67  93 124 151 173 206
#     4   9  16  25  36  51  73  97 118 145 181 214
#     4   8  13  22  37  56  76  97 124 160 194 219
#     4   9  16  26  40  57  76 100 131 160 187 227
#     4   9  17  27  37  51  74 101 125 152 187 222
#
# _framework density 14.678222
#
# number of rings (size 3 to 8) (size 9 to 14) (size 15 to 20)
#    0.000    3.250    0.000    3.000    0.000    4.500 
#    0.000    0.000    0.000    1.875    0.000    5.250 
#    0.000    1.000    0.000   10.500    0.000    1.125 
#
# Total GULP energy -792987.194889 kJ/mol
# GULP energy per Si atom -12390.424920 kJ/mol
# Density = 1.464481 g / cm^3
# Si number density = 14.678222 Si / 1000 Ang^3
#
#
#
# Elastic Constant Matrix: (Units=GPa)
#
#
# Indices 1 2 3 4 5 6 
#
# 1 47.7527 22.2546 31.1512 0.0000 0.0000 0.0000
# 2 22.2546 81.1953 42.4153 0.0000 0.0000 0.0000
# 3 31.1512 42.4153 106.1860 0.0000 0.0000 0.0000
# 4 0.0000 0.0000 0.0000 19.0484 0.0000 0.0000
# 5 0.0000 0.0000 0.0000 0.0000 18.1809 0.0000
# 6 0.0000 0.0000 0.0000 0.0000 0.0000 10.2552
#
#
#
# Elastic Compliance Matrix: (Units=1/GPa)
#
#
# Indices 1 2 3 4 5 6 
#
# 1 0.026943 -0.004114 -0.006261 0.000000 0.000000 0.000000
# 2 -0.004114 0.016192 -0.005261 0.000000 0.000000 0.000000
# 3 -0.006261 -0.005261 0.013355 0.000000 0.000000 0.000000
# 4 0.000000 0.000000 0.000000 0.052498 0.000000 0.000000
# 5 0.000000 0.000000 0.000000 0.000000 0.055003 0.000000
# 6 0.000000 0.000000 0.000000 0.000000 0.000000 0.097511
#
#
# Mechanical properties :
#
#
# Convention : Reuss Voigt Hill
#
# Bulk Modulus (GPa) = 39.65297 47.41958 43.53627
# Shear Modulus (GPa) = 16.60140 18.78442 17.69291
#
# Velocity S-wave (km/s) = 3.36672 3.58124 3.47563
# Velocity P-wave (km/s) = 6.49512 7.03396 6.76990
#
# Compressibility (1/GPa) = 0.02521879
#
# Stress axis : x y z
#
# Youngs Moduli (GPa) = 37.11578 61.75974 74.87573
#
# Poissons Ratio (x) = 0.25409 0.46877
# Poissons Ratio (y) = 0.15270 0.39390
# Poissons Ratio (z) = 0.23237 0.32490
#
# Static dielectric constant tensor:
#      x y z
#    x 2.753490 0.000000 0.000000 
#    y 0.000000 2.796630 0.000000 
#    z 0.000000 0.000000 3.064390 
# 
# 
# High freq. dielectric constant tensor:
#      x y z
#    x 1.547880 0.000000 0.000000 
#    y 0.000000 1.520510 0.000000 
#    z 0.000000 0.000000 1.558470 
# 
# From -- ./inp_files/26590.got.cif
#   From: 2010.03.12/outbox.cif.g09.slc.cpg/sg59_14_cif.got.tgz:26590.got - 2010.04.16 16:29:54.
