data_PCOD8239657
_publ_section_title
;
Structure prediction by ZEFSAII (Michael W. Deem and Ramdas Pophale) SiO2 
 PCOD8239657
Probable space group: P M M N
;
_chemical_formula_sum "Si O2"
_cell_formula_units_Z 64
_cell_length_a 9.388240
_cell_length_b 28.198584
_cell_length_c 15.541119
_cell_angle_alpha 90.000000
_cell_angle_beta 90.000000
_cell_angle_gamma 90.000000
_cell_volume 4114.279292
_symmetry_space_group_name_H-M "P M M N"
_symmetry_group_IT_number 59
_space_group.IT_coordinate_system_code '2'
_symmetry_cell_setting 'orthorhombic'
loop_
_space_group_symop_operation_xyz
x,y,z
1/2-x,1/2-y,z
1/2+x,-y,-z
-x,1/2+y,-z
-x,-y,-z
1/2+x,1/2+y,-z
1/2-x,y,z
x,1/2-y,z
loop_
_atom_site_type_symbol
_atom_site_label
_atom_site_fract_x
_atom_site_fract_y
_atom_site_fract_z
Si Si1 0.080650 0.697187 0.332127
Si Si2 0.085950 0.195136 0.987483
Si Si3 0.083773 0.195641 0.319514
Si Si4 0.086202 0.954746 0.096984
Si Si5 0.917441 0.146920 0.837824
Si Si6 0.915692 0.453404 0.103493
Si Si7 0.908644 0.193512 0.480573
Si Si8 0.582538 0.864167 0.845959
O O1 0.250000 0.700100 0.334555
O O2 0.018967 0.750000 0.314273
O O3 0.028687 0.662010 0.256944
O O4 0.029893 0.677555 0.425697
O O5 0.250000 0.184975 0.965432
O O6 0.059547 0.250000 0.008285
O O7 0.037666 0.165963 0.070936
O O8 0.993130 0.180083 0.906648
O O9 0.250000 0.191569 0.336676
O O10 0.038646 0.250000 0.302500
O O11 0.036697 0.165499 0.237351
O O12 0.007461 0.174274 0.403937
O O13 0.250000 0.969482 0.112403
O O14 0.043150 0.908059 0.149930
O O15 0.059011 0.943660 0.997067
O O16 0.984647 0.996505 0.130135
O O17 0.750000 0.155189 0.849684
O O18 0.750000 0.454190 0.127901
O O19 0.994448 0.412689 0.156893
O O20 0.750000 0.173140 0.465745
O O21 0.905283 0.250000 0.480496
O O22 0.750000 0.875689 0.846324
#
# Coordination Sequence:
#
# PCOD8239657 Si02
#       8
#     8   8   8   8   8   8   8   8
#     4   8  14  25  43  66  91 119 148 178 216 260
#     4  10  20  31  42  60  90 125 154 179 212 256
#     4   9  17  29  45  65  89 119 153 184 217 261
#     4   9  18  31  46  65  88 114 147 186 227 267
#     4  10  18  30  47  67  89 117 153 187 217 258
#     4  10  19  31  47  66  87 112 148 190 228 265
#     4   8  14  26  43  63  87 115 147 182 219 257
#     4  10  19  31  46  63  88 121 152 182 220 264
#
# _framework density 15.555580000000001
#
# number of rings (size 3 to 8) (size 9 to 14) (size 15 to 20)
#    0.000    2.750    1.250    1.875    0.000    3.750 
#    0.000    0.625    0.000    4.500    0.000    0.875 
#    0.000    0.000    0.000    0.000    0.000    0.000 
#
# Total GULP energy -793503.560167 kJ/mol
# GULP energy per Si atom -12398.493128 kJ/mol
# Density = 1.552017 g / cm^3
# Si number density = 15.555580 Si / 1000 Ang^3
#
#
#
# Elastic Constant Matrix: (Units=GPa)
#
#
# Indices 1 2 3 4 5 6 
#
# 1 44.0683 35.9451 35.7803 0.0000 0.0000 0.0000
# 2 35.9451 83.9089 46.3474 0.0000 0.0000 0.0000
# 3 35.7803 46.3474 110.7398 0.0000 0.0000 0.0000
# 4 0.0000 0.0000 0.0000 11.4365 0.0000 0.0000
# 5 0.0000 0.0000 0.0000 0.0000 21.8576 0.0000
# 6 0.0000 0.0000 0.0000 0.0000 0.0000 22.6195
#
#
#
# Elastic Compliance Matrix: (Units=1/GPa)
#
#
# Indices 1 2 3 4 5 6 
#
# 1 0.038924 -0.012653 -0.007281 0.000000 0.000000 0.000000
# 2 -0.012653 0.019614 -0.004121 0.000000 0.000000 0.000000
# 3 -0.007281 -0.004121 0.013107 0.000000 0.000000 0.000000
# 4 0.000000 0.000000 0.000000 0.087439 0.000000 0.000000
# 5 0.000000 0.000000 0.000000 0.000000 0.045751 0.000000
# 6 0.000000 0.000000 0.000000 0.000000 0.000000 0.044210
#
#
# Mechanical properties :
#
#
# Convention : Reuss Voigt Hill
#
# Bulk Modulus (GPa) = 42.48737 52.76251 47.62494
# Shear Modulus (GPa) = 16.39346 19.22567 17.80956
#
# Velocity S-wave (km/s) = 3.24985 3.51940 3.38731
# Velocity P-wave (km/s) = 6.43852 7.10684 6.78092
#
# Compressibility (1/GPa) = 0.02353641
#
# Stress axis : x y z
#
# Youngs Moduli (GPa) = 25.69101 50.98383 76.29306
#
# Poissons Ratio (x) = 0.64508 0.55549
# Poissons Ratio (y) = 0.32506 0.31439
# Poissons Ratio (z) = 0.18706 0.21010
#
# Static dielectric constant tensor:
#      x y z
#    x 2.902490 0.000000 0.000000 
#    y 0.000000 2.867110 0.000000 
#    z 0.000000 0.000000 3.139430 
# 
# 
# High freq. dielectric constant tensor:
#      x y z
#    x 1.586990 0.000000 0.000000 
#    y 0.000000 1.578340 0.000000 
#    z 0.000000 0.000000 1.587760 
# 
# From -- ./inp_files/21973.got.cif
#   From: 2010.03.12/outbox.cif.g09.slc.cpg/sg59_11_cif.got.tgz:21973.got - 2010.04.16 16:29:54.
