data_PCOD8239119
_publ_section_title
;
Structure prediction by ZEFSAII (Michael W. Deem and Ramdas Pophale) SiO2 
 PCOD8239119
Probable space group: P M M N
;
_chemical_formula_sum "Si O2"
_cell_formula_units_Z 64
_cell_length_a 16.868548
_cell_length_b 14.297497
_cell_length_c 15.642515
_cell_angle_alpha 90.000000
_cell_angle_beta 90.000000
_cell_angle_gamma 90.000000
_cell_volume 3772.630708
_symmetry_space_group_name_H-M "P M M N"
_symmetry_group_IT_number 59
_space_group.IT_coordinate_system_code '2'
_symmetry_cell_setting 'orthorhombic'
loop_
_space_group_symop_operation_xyz
x,y,z
1/2-x,1/2-y,z
1/2+x,-y,-z
-x,1/2+y,-z
-x,-y,-z
1/2+x,1/2+y,-z
1/2-x,y,z
x,1/2-y,z
loop_
_atom_site_type_symbol
_atom_site_label
_atom_site_fract_x
_atom_site_fract_y
_atom_site_fract_z
Si Si1 0.098120 0.850465 0.890122
Si Si2 0.388161 0.855688 0.695907
Si Si3 0.843065 0.860274 0.173564
Si Si4 0.342280 0.140470 0.483757
Si Si5 0.589983 0.528229 0.020294
Si Si6 0.909922 0.855371 0.866587
Si Si7 0.430500 0.139656 0.318423
Si Si8 0.161208 0.451382 0.652596
O O1 0.124036 0.750000 0.928540
O O2 0.133974 0.861251 0.795624
O O3 0.003660 0.853654 0.882145
O O4 0.132965 0.931667 0.951303
O O5 0.370522 0.750000 0.661656
O O6 0.477808 0.887015 0.677153
O O7 0.337510 0.935300 0.648519
O O8 0.750000 0.883476 0.156420
O O9 0.856455 0.750000 0.182560
O O10 0.899110 0.897886 0.097398
O O11 0.876096 0.910606 0.259804
O O12 0.250000 0.118329 0.472468
O O13 0.359297 0.250000 0.492897
O O14 0.385140 0.097542 0.399965
O O15 0.379872 0.090100 0.567254
O O16 0.500000 0.500000 0.000000
O O17 0.629587 0.574750 0.936060
O O18 0.875747 0.750000 0.878272
O O19 0.892491 0.895715 0.771474
O O20 0.421549 0.250000 0.316402
O O21 0.250000 0.412177 0.650320
#
# Coordination Sequence:
#
# PCOD8239119 Si02
#       8
#     8   8   8   8   8   8   8   8
#     4   8  14  25  40  61  88 116 148 189 228 263
#     4   9  16  28  45  64  90 119 150 191 234 273
#     4  10  20  33  47  68 101 131 153 187 240 293
#     4   9  17  30  47  67  91 120 154 187 223 276
#     4  10  17  27  47  68  89 127 163 195 227 276
#     4   8  14  24  40  64  89 113 148 190 231 271
#     4   8  15  28  45  64  89 119 150 190 234 271
#     4  10  19  30  46  68  94 125 156 184 226 285
#
# _framework density 16.964289000000001
#
# number of rings (size 3 to 8) (size 9 to 14) (size 15 to 20)
#    0.000    3.000    1.250    2.250    0.000    2.750 
#    0.000    0.625    0.000    2.625    0.000    0.875 
#    0.000    0.000    0.000    0.000    0.000    0.000 
#
# Total GULP energy -792863.489178 kJ/mol
# GULP energy per Si atom -12388.492018 kJ/mol
# Density = 1.692568 g / cm^3
# Si number density = 16.964289 Si / 1000 Ang^3
#
#
#
# Elastic Constant Matrix: (Units=GPa)
#
#
# Indices 1 2 3 4 5 6 
#
# 1 24.1219 13.4332 26.3684 0.0000 0.0000 0.0000
# 2 13.4332 100.5957 52.2151 0.0000 0.0000 0.0000
# 3 26.3684 52.2151 138.3830 0.0000 0.0000 0.0000
# 4 0.0000 0.0000 0.0000 24.9198 0.0000 0.0000
# 5 0.0000 0.0000 0.0000 0.0000 16.6184 0.0000
# 6 0.0000 0.0000 0.0000 0.0000 0.0000 16.5354
#
#
#
# Elastic Compliance Matrix: (Units=1/GPa)
#
#
# Indices 1 2 3 4 5 6 
#
# 1 0.052777 -0.002273 -0.009199 0.000000 0.000000 0.000000
# 2 -0.002273 0.012460 -0.004268 0.000000 0.000000 0.000000
# 3 -0.009199 -0.004268 0.010590 0.000000 0.000000 0.000000
# 4 0.000000 0.000000 0.000000 0.040129 0.000000 0.000000
# 5 0.000000 0.000000 0.000000 0.000000 0.060174 0.000000
# 6 0.000000 0.000000 0.000000 0.000000 0.000000 0.060476
#
#
# Mechanical properties :
#
#
# Convention : Reuss Voigt Hill
#
# Bulk Modulus (GPa) = 22.54960 49.68157 36.11559
# Shear Modulus (GPa) = 17.67605 23.02032 20.34819
#
# Velocity S-wave (km/s) = 3.23144 3.68773 3.46710
# Velocity P-wave (km/s) = 5.21959 6.89072 6.11253
#
# Compressibility (1/GPa) = 0.04434668
#
# Stress axis : x y z
#
# Youngs Moduli (GPa) = 18.94747 80.25822 94.43159
#
# Poissons Ratio (x) = 0.18242 0.86867
# Poissons Ratio (y) = 0.04307 0.40306
# Poissons Ratio (z) = 0.17430 0.34256
#
# Static dielectric constant tensor:
#      x y z
#    x 2.872890 0.000000 0.000000 
#    y 0.000000 3.403350 0.000000 
#    z 0.000000 0.000000 3.574330 
# 
# 
# High freq. dielectric constant tensor:
#      x y z
#    x 1.606720 0.000000 0.000000 
#    y 0.000000 1.649780 0.000000 
#    z 0.000000 0.000000 1.654220 
# 
# From -- ./inp_files/24016.got.cif
#   From: 2010.03.12/outbox.cif.g09.slc.cpg/sg59_13_cif.got.tgz:24016.got - 2010.04.16 16:29:54.
