data_PCOD8239848
_publ_section_title
;
Structure prediction by ZEFSAII (Michael W. Deem and Ramdas Pophale) SiO2 
 PCOD8239848
Probable space group: P M M N
;
_chemical_formula_sum "Si O2"
_cell_formula_units_Z 64
_cell_length_a 15.175350
_cell_length_b 9.093202
_cell_length_c 24.283935
_cell_angle_alpha 90.000000
_cell_angle_beta 90.000000
_cell_angle_gamma 90.000000
_cell_volume 3351.001458
_symmetry_space_group_name_H-M "P M M N"
_symmetry_group_IT_number 59
_space_group.IT_coordinate_system_code '2'
_symmetry_cell_setting 'orthorhombic'
loop_
_space_group_symop_operation_xyz
x,y,z
1/2-x,1/2-y,z
1/2+x,-y,-z
-x,1/2+y,-z
-x,-y,-z
1/2+x,1/2+y,-z
1/2-x,y,z
x,1/2-y,z
loop_
_atom_site_type_symbol
_atom_site_label
_atom_site_fract_x
_atom_site_fract_y
_atom_site_fract_z
Si Si1 0.350547 0.583105 0.496620
Si Si2 0.388330 0.587408 0.614412
Si Si3 0.409174 0.087803 0.394104
Si Si4 0.653808 0.077594 0.269309
Si Si5 0.145673 0.078046 0.000724
Si Si6 0.487906 0.577412 0.080225
Si Si7 0.152656 0.423250 0.280113
Si Si8 0.994706 0.925442 0.802985
O O1 0.250000 0.574368 0.478122
O O2 0.385790 0.750000 0.499656
O O3 0.364211 0.506334 0.556724
O O4 0.406173 0.503599 0.449972
O O5 0.345145 0.750000 0.610038
O O6 0.491121 0.599577 0.624326
O O7 0.351195 0.506016 0.669144
O O8 0.369404 0.250000 0.405965
O O9 0.360710 0.010935 0.341846
O O10 0.750000 0.045962 0.244032
O O11 0.634433 0.250000 0.276878
O O12 0.582972 0.015028 0.226682
O O13 0.250000 0.030717 0.992378
O O14 0.142594 0.250000 0.015642
O O15 0.097654 0.988841 0.049298
O O16 0.083831 0.045329 0.947472
O O17 0.471643 0.750000 0.085229
O O18 0.489611 0.503351 0.139100
O O19 0.250000 0.463505 0.259129
O O20 0.137153 0.250000 0.286049
O O21 0.085735 0.483848 0.234528
O O22 0.993464 0.750000 0.811533
#
# Coordination Sequence:
#
# PCOD8239848 Si02
#       8
#     8   8   8   8   8   8   8   8
#     4  10  20  31  44  67  97 126 158 201 260 325
#     4   9  16  29  48  69  94 125 163 209 260 314
#     4  10  18  31  51  71  91 121 165 213 258 308
#     4   9  16  28  49  75 100 129 171 222 266 306
#     4   9  19  38  62  85 112 150 190 222 258 309
#     4  10  21  36  56  85 118 149 181 223 269 311
#     4   9  17  30  49  71  95 128 171 215 255 300
#     4  10  19  33  52  76 105 138 179 220 257 307
#
# _framework density 19.098769000000001
#
# number of rings (size 3 to 8) (size 9 to 14) (size 15 to 20)
#    0.000    2.500    1.250    1.500    0.000    4.000 
#    0.000    1.875    0.000    1.500    0.000    0.000 
#    0.000    0.000    0.000    0.000    0.000    0.000 
#
# Total GULP energy -793022.665195 kJ/mol
# GULP energy per Si atom -12390.979144 kJ/mol
# Density = 1.905530 g / cm^3
# Si number density = 19.098769 Si / 1000 Ang^3
#
#
#
# Elastic Constant Matrix: (Units=GPa)
#
#
# Indices 1 2 3 4 5 6 
#
# 1 132.3454 24.1914 56.8389 0.0000 0.0000 0.0000
# 2 24.1914 38.9468 38.7933 0.0000 0.0000 0.0000
# 3 56.8389 38.7933 156.1253 0.0000 0.0000 0.0000
# 4 0.0000 0.0000 0.0000 22.2457 0.0000 0.0000
# 5 0.0000 0.0000 0.0000 0.0000 16.0615 0.0000
# 6 0.0000 0.0000 0.0000 0.0000 0.0000 13.7390
#
#
#
# Elastic Compliance Matrix: (Units=1/GPa)
#
#
# Indices 1 2 3 4 5 6 
#
# 1 0.009243 -0.003175 -0.002576 0.000000 0.000000 0.000000
# 2 -0.003175 0.035212 -0.007593 0.000000 0.000000 0.000000
# 3 -0.002576 -0.007593 0.009230 0.000000 0.000000 0.000000
# 4 0.000000 0.000000 0.000000 0.044953 0.000000 0.000000
# 5 0.000000 0.000000 0.000000 0.000000 0.062261 0.000000
# 6 0.000000 0.000000 0.000000 0.000000 0.000000 0.072786
#
#
# Mechanical properties :
#
#
# Convention : Reuss Voigt Hill
#
# Bulk Modulus (GPa) = 37.04373 63.00718 50.02545
# Shear Modulus (GPa) = 18.56184 24.24882 21.40533
#
# Velocity S-wave (km/s) = 3.12089 3.56709 3.35142
# Velocity P-wave (km/s) = 5.69426 7.07300 6.42074
#
# Compressibility (1/GPa) = 0.02699512
#
# Stress axis : x y z
#
# Youngs Moduli (GPa) = 108.19376 28.39975 108.34667
#
# Poissons Ratio (x) = 0.09018 0.27909
# Poissons Ratio (y) = 0.34354 0.82270
# Poissons Ratio (z) = 0.27870 0.21565
#
# Static dielectric constant tensor:
#      x y z
#    x 3.616320 0.000000 0.000000 
#    y 0.000000 3.040650 0.000000 
#    z 0.000000 0.000000 3.528960 
# 
# 
# High freq. dielectric constant tensor:
#      x y z
#    x 1.756340 0.000000 0.000000 
#    y 0.000000 1.682930 0.000000 
#    z 0.000000 0.000000 1.749680 
# 
# From -- ./inp_files/32181.got.cif
#   From: 2010.03.12/outbox.cif.g09.slc.cpg/sg59_17_cif.got.tgz:32181.got - 2010.04.16 16:29:54.
