data_PCOD8239451
_publ_section_title
;
Structure prediction by ZEFSAII (Michael W. Deem and Ramdas Pophale) SiO2 
 PCOD8239451
Probable space group: P M M N
;
_chemical_formula_sum "Si O2"
_cell_formula_units_Z 64
_cell_length_a 9.497877
_cell_length_b 14.402332
_cell_length_c 28.167668
_cell_angle_alpha 90.000000
_cell_angle_beta 90.000000
_cell_angle_gamma 90.000000
_cell_volume 3853.099750
_symmetry_space_group_name_H-M "P M M N"
_symmetry_group_IT_number 59
_space_group.IT_coordinate_system_code '2'
_symmetry_cell_setting 'orthorhombic'
loop_
_space_group_symop_operation_xyz
x,y,z
1/2-x,1/2-y,z
1/2+x,-y,-z
-x,1/2+y,-z
-x,-y,-z
1/2+x,1/2+y,-z
1/2-x,y,z
x,1/2-y,z
loop_
_atom_site_type_symbol
_atom_site_label
_atom_site_fract_x
_atom_site_fract_y
_atom_site_fract_z
Si Si1 0.587209 0.856516 0.701831
Si Si2 0.086266 0.142853 0.579043
Si Si3 0.083872 0.480252 0.387719
Si Si4 0.414013 0.857529 0.793812
Si Si5 0.588461 0.357893 0.023279
Si Si6 0.085549 0.962394 0.885010
Si Si7 0.082979 0.147705 0.471924
Si Si8 0.913358 0.853892 0.068752
O O1 0.750000 0.869848 0.714957
O O2 0.555945 0.750000 0.687537
O O3 0.542443 0.921303 0.658322
O O4 0.496285 0.887573 0.746822
O O5 0.250000 0.119844 0.586040
O O6 0.056065 0.250000 0.591497
O O7 0.037321 0.120395 0.525172
O O8 0.994887 0.079070 0.614333
O O9 0.250000 0.497438 0.390595
O O10 0.025015 0.425522 0.433822
O O11 0.250000 0.877581 0.784906
O O12 0.440575 0.750000 0.806461
O O13 0.478057 0.919815 0.836699
O O14 0.750000 0.386096 0.013407
O O15 0.574127 0.250000 0.034966
O O16 0.523743 0.412395 0.068236
O O17 0.499360 0.385372 0.977253
O O18 0.250000 0.939649 0.883744
O O19 0.054599 0.073112 0.888797
O O20 0.250000 0.152051 0.468856
O O21 0.022709 0.250000 0.459527
O O22 0.750000 0.858043 0.054591
O O23 0.956225 0.750000 0.085708
#
# Coordination Sequence:
#
# PCOD8239451 Si02
#       8
#     8   8   8   8   8   8   8   8
#     4   9  18  32  48  68  94 118 140 173 221 272
#     4   9  18  31  45  63  91 124 153 184 222 259
#     4  10  18  28  47  70  89 116 153 186 217 260
#     4   9  17  30  48  67  85 108 141 179 217 257
#     4   9  16  26  41  61  85 112 141 172 206 246
#     4   9  16  27  44  63  83 110 143 176 210 249
#     4   8  14  26  44  66  92 121 151 181 217 264
#     4   9  17  28  41  59  85 114 141 170 205 246
#
# _framework density 16.610004
#
# number of rings (size 3 to 8) (size 9 to 14) (size 15 to 20)
#    0.000    3.000    0.000    2.250    0.000    3.750 
#    0.000    1.250    0.000    5.625    0.000    1.750 
#    0.000    0.000    0.000    0.000    0.000    0.000 
#
# Total GULP energy -793399.646142 kJ/mol
# GULP energy per Si atom -12396.869471 kJ/mol
# Density = 1.657220 g / cm^3
# Si number density = 16.610004 Si / 1000 Ang^3
#
#
#
# Elastic Constant Matrix: (Units=GPa)
#
#
# Indices 1 2 3 4 5 6 
#
# 1 39.2343 38.8635 42.7411 0.0000 0.0000 0.0000
# 2 38.8635 105.2234 74.9127 0.0000 0.0000 0.0000
# 3 42.7411 74.9127 108.8125 0.0000 0.0000 0.0000
# 4 0.0000 0.0000 0.0000 28.6646 0.0000 0.0000
# 5 0.0000 0.0000 0.0000 0.0000 23.1377 0.0000
# 6 0.0000 0.0000 0.0000 0.0000 0.0000 21.8933
#
#
#
# Elastic Compliance Matrix: (Units=1/GPa)
#
#
# Indices 1 2 3 4 5 6 
#
# 1 0.048111 -0.008464 -0.013071 0.000000 0.000000 0.000000
# 2 -0.008464 0.020129 -0.010533 0.000000 0.000000 0.000000
# 3 -0.013071 -0.010533 0.021576 0.000000 0.000000 0.000000
# 4 0.000000 0.000000 0.000000 0.034886 0.000000 0.000000
# 5 0.000000 0.000000 0.000000 0.000000 0.043220 0.000000
# 6 0.000000 0.000000 0.000000 0.000000 0.000000 0.045676
#
#
# Mechanical properties :
#
#
# Convention : Reuss Voigt Hill
#
# Bulk Modulus (GPa) = 38.94101 62.92275 50.93188
# Shear Modulus (GPa) = 17.46469 21.18932 19.32700
#
# Velocity S-wave (km/s) = 3.24613 3.57556 3.41482
# Velocity P-wave (km/s) = 6.12740 7.41693 6.80279
#
# Compressibility (1/GPa) = 0.02567987
#
# Stress axis : x y z
#
# Youngs Moduli (GPa) = 20.78541 49.68067 46.34808
#
# Poissons Ratio (x) = 0.42048 0.60580
# Poissons Ratio (y) = 0.17592 0.48819
# Poissons Ratio (z) = 0.27168 0.52329
#
# Static dielectric constant tensor:
#      x y z
#    x 2.870850 0.000000 0.000000 
#    y 0.000000 3.219670 0.000000 
#    z 0.000000 0.000000 3.064180 
# 
# 
# High freq. dielectric constant tensor:
#      x y z
#    x 1.612850 0.000000 0.000000 
#    y 0.000000 1.644030 0.000000 
#    z 0.000000 0.000000 1.621240 
# 
# From -- ./inp_files/33211.got.cif
#   From: 2010.03.12/outbox.cif.g09.slc.cpg/sg59_17_cif.got.tgz:33211.got - 2010.04.16 16:29:54.
