data_PCOD8239379
_publ_section_title
;
Structure prediction by ZEFSAII (Michael W. Deem and Ramdas Pophale) SiO2 
 PCOD8239379
Probable space group: P M M N
;
_chemical_formula_sum "Si O2"
_cell_formula_units_Z 64
_cell_length_a 9.357706
_cell_length_b 20.060940
_cell_length_c 20.003083
_cell_angle_alpha 90.000000
_cell_angle_beta 90.000000
_cell_angle_gamma 90.000000
_cell_volume 3755.066326
_symmetry_space_group_name_H-M "P M M N"
_symmetry_group_IT_number 59
_space_group.IT_coordinate_system_code '2'
_symmetry_cell_setting 'orthorhombic'
loop_
_space_group_symop_operation_xyz
x,y,z
1/2-x,1/2-y,z
1/2+x,-y,-z
-x,1/2+y,-z
-x,-y,-z
1/2+x,1/2+y,-z
1/2-x,y,z
x,1/2-y,z
loop_
_atom_site_type_symbol
_atom_site_label
_atom_site_fract_x
_atom_site_fract_y
_atom_site_fract_z
Si Si1 0.419743 0.176527 0.106804
Si Si2 0.582886 0.894739 0.380715
Si Si3 0.917231 0.972014 0.658546
Si Si4 0.912121 0.936589 0.518877
Si Si5 0.080695 0.056758 0.194637
Si Si6 0.582802 0.673885 0.045446
Si Si7 0.418539 0.911802 0.151049
Si Si8 0.587382 0.174951 0.723521
O O1 0.250000 0.176443 0.111574
O O2 0.476751 0.250000 0.128317
O O3 0.486356 0.119865 0.155227
O O4 0.464866 0.161400 0.030826
O O5 0.750000 0.899111 0.363681
O O6 0.557501 0.881468 0.461052
O O7 0.512256 0.833595 0.341435
O O8 0.506772 0.961935 0.355912
O O9 0.750000 0.991803 0.664753
O O10 0.942453 0.918475 0.597204
O O11 0.970656 0.939892 0.728069
O O12 0.750000 0.959824 0.512409
O O13 0.000000 0.000000 0.500000
O O14 0.250000 0.060748 0.191644
O O15 0.031063 0.988297 0.159155
O O16 0.750000 0.660366 0.055140
O O17 0.545953 0.750000 0.066341
O O18 0.496717 0.620781 0.088563
O O19 0.250000 0.905465 0.139284
O O20 0.465295 0.873769 0.218164
O O21 0.750000 0.158816 0.703123
O O22 0.571496 0.250000 0.749968
#
# Coordination Sequence:
#
# PCOD8239379 Si02
#       8
#     8   8   8   8   8   8   8   8
#     4   8  15  29  48  70  94 119 150 187 228 280
#     4  10  18  28  43  66  94 120 153 195 235 273
#     4   9  15  28  47  66  92 123 153 186 228 275
#     4   8  15  25  41  64  88 116 148 183 222 267
#     4   9  16  27  47  70  93 122 153 190 233 273
#     4   9  18  32  48  66  92 125 156 187 227 275
#     4  10  19  31  47  69  93 118 154 197 235 272
#     4  10  20  33  47  63  88 126 165 195 230 280
#
# _framework density 17.043641000000001
#
# number of rings (size 3 to 8) (size 9 to 14) (size 15 to 20)
#    0.000    2.875    1.250    1.500    0.000    2.500 
#    0.000    0.000    0.000    1.500    0.000    3.500 
#    0.000    0.000    0.000    0.000    0.000    0.000 
#
# Total GULP energy -792907.027587 kJ/mol
# GULP energy per Si atom -12389.172306 kJ/mol
# Density = 1.700485 g / cm^3
# Si number density = 17.043641 Si / 1000 Ang^3
#
#
#
# Elastic Constant Matrix: (Units=GPa)
#
#
# Indices 1 2 3 4 5 6 
#
# 1 34.7458 21.9452 32.7749 0.0000 0.0000 0.0000
# 2 21.9452 103.9041 75.4636 0.0000 0.0000 0.0000
# 3 32.7749 75.4636 139.1217 0.0000 0.0000 0.0000
# 4 0.0000 0.0000 0.0000 21.2884 0.0000 0.0000
# 5 0.0000 0.0000 0.0000 0.0000 21.1179 0.0000
# 6 0.0000 0.0000 0.0000 0.0000 0.0000 16.4261
#
#
#
# Elastic Compliance Matrix: (Units=1/GPa)
#
#
# Indices 1 2 3 4 5 6 
#
# 1 0.037385 -0.002474 -0.007465 0.000000 0.000000 0.000000
# 2 -0.002474 0.016044 -0.008120 0.000000 0.000000 0.000000
# 3 -0.007465 -0.008120 0.013351 0.000000 0.000000 0.000000
# 4 0.000000 0.000000 0.000000 0.046974 0.000000 0.000000
# 5 0.000000 0.000000 0.000000 0.000000 0.047353 0.000000
# 6 0.000000 0.000000 0.000000 0.000000 0.000000 0.060879
#
#
# Mechanical properties :
#
#
# Convention : Reuss Voigt Hill
#
# Bulk Modulus (GPa) = 32.61403 59.79325 46.20364
# Shear Modulus (GPa) = 18.63410 21.60567 20.11989
#
# Velocity S-wave (km/s) = 3.31012 3.56429 3.43956
# Velocity P-wave (km/s) = 5.81260 7.21786 6.55301
#
# Compressibility (1/GPa) = 0.03066165
#
# Stress axis : x y z
#
# Youngs Moduli (GPa) = 26.74872 62.32786 74.89968
#
# Poissons Ratio (x) = 0.15420 0.55915
# Poissons Ratio (y) = 0.06618 0.60819
# Poissons Ratio (z) = 0.19969 0.50610
#
# Static dielectric constant tensor:
#      x y z
#    x 2.897460 0.000000 0.000000 
#    y 0.000000 -1.140920 0.000000 
#    z 0.000000 0.000000 4.176680 
# 
# 
# High freq. dielectric constant tensor:
#      x y z
#    x 1.631180 0.000000 0.000000 
#    y 0.000000 1.629330 0.000000 
#    z 0.000000 0.000000 1.670950 
# 
# From -- ./inp_files/29770.got.cif
#   From: 2010.03.12/outbox.cif.g09.slc.cpg/sg59_15_cif.got.tgz:29770.got - 2010.04.16 16:29:54.
