data_PCOD8239453
_publ_section_title
;
Structure prediction by ZEFSAII (Michael W. Deem and Ramdas Pophale) SiO2 
 PCOD8239453
Probable space group: P M M N
;
_chemical_formula_sum "Si O2"
_cell_formula_units_Z 64
_cell_length_a 9.299769
_cell_length_b 14.604660
_cell_length_c 27.747584
_cell_angle_alpha 90.000000
_cell_angle_beta 90.000000
_cell_angle_gamma 90.000000
_cell_volume 3768.675869
_symmetry_space_group_name_H-M "P M M N"
_symmetry_group_IT_number 59
_space_group.IT_coordinate_system_code '2'
_symmetry_cell_setting 'orthorhombic'
loop_
_space_group_symop_operation_xyz
x,y,z
1/2-x,1/2-y,z
1/2+x,-y,-z
-x,1/2+y,-z
-x,-y,-z
1/2+x,1/2+y,-z
1/2-x,y,z
x,1/2-y,z
loop_
_atom_site_type_symbol
_atom_site_label
_atom_site_fract_x
_atom_site_fract_y
_atom_site_fract_z
Si Si1 0.085519 0.039283 0.615716
Si Si2 0.415186 0.090545 0.511460
Si Si3 0.413747 0.651013 0.570984
Si Si4 0.583287 0.855520 0.207240
Si Si5 0.913225 0.143871 0.967059
Si Si6 0.418979 0.855241 0.303692
Si Si7 0.919841 0.537882 0.113663
Si Si8 0.579681 0.349550 0.075144
O O1 0.250000 0.039497 0.634460
O O2 0.072420 0.106027 0.568987
O O3 0.980693 0.078198 0.655821
O O4 0.035267 0.934376 0.604012
O O5 0.250000 0.082892 0.495813
O O6 0.491989 0.165293 0.477744
O O7 0.500000 0.000000 0.500000
O O8 0.250000 0.629818 0.555278
O O9 0.424150 0.750000 0.598283
O O10 0.750000 0.874219 0.219049
O O11 0.558335 0.750000 0.192686
O O12 0.490387 0.883061 0.253360
O O13 0.526323 0.918783 0.163724
O O14 0.750000 0.107827 0.962233
O O15 0.920836 0.250000 0.953216
O O16 0.013577 0.088969 0.931349
O O17 0.974195 0.128128 0.021054
O O18 0.250000 0.871106 0.299568
O O19 0.456117 0.750000 0.316535
O O20 0.750000 0.549566 0.109316
O O21 0.966927 0.430618 0.111560
O O22 0.750000 0.342333 0.072358
O O23 0.518499 0.250000 0.092467
#
# Coordination Sequence:
#
# PCOD8239453 Si02
#       8
#     8   8   8   8   8   8   8   8
#     4   9  18  32  50  71  96 127 159 192 233 278
#     4   9  17  29  45  67  95 127 162 196 231 272
#     4   9  18  32  49  71 101 134 164 195 231 272
#     4   9  18  32  48  67  91 115 142 184 238 287
#     4   9  17  28  42  63  94 129 157 183 223 272
#     4  10  21  35  51  71  92 117 152 192 234 281
#     4  10  18  28  47  71  91 117 155 194 228 266
#     4   8  15  28  44  64  93 126 157 188 222 263
#
# _framework density 16.982092000000002
#
# number of rings (size 3 to 8) (size 9 to 14) (size 15 to 20)
#    0.000    2.875    0.000    3.000    0.000    5.250 
#    0.000    3.750    0.000    1.875    0.000    3.500 
#    0.000    0.000    0.000    0.000    0.000    0.000 
#
# Total GULP energy -793077.859997 kJ/mol
# GULP energy per Si atom -12391.841562 kJ/mol
# Density = 1.694344 g / cm^3
# Si number density = 16.982092 Si / 1000 Ang^3
#
#
#
# Elastic Constant Matrix: (Units=GPa)
#
#
# Indices 1 2 3 4 5 6 
#
# 1 57.8319 38.1114 44.7489 0.0000 0.0000 0.0000
# 2 38.1114 106.9579 72.2074 0.0000 0.0000 0.0000
# 3 44.7489 72.2074 103.0242 0.0000 0.0000 0.0000
# 4 0.0000 0.0000 0.0000 26.0691 0.0000 0.0000
# 5 0.0000 0.0000 0.0000 0.0000 26.3467 0.0000
# 6 0.0000 0.0000 0.0000 0.0000 0.0000 17.9153
#
#
#
# Elastic Compliance Matrix: (Units=1/GPa)
#
#
# Indices 1 2 3 4 5 6 
#
# 1 0.026605 -0.003186 -0.009323 0.000000 0.000000 0.000000
# 2 -0.003186 0.018128 -0.011322 0.000000 0.000000 0.000000
# 3 -0.009323 -0.011322 0.021691 0.000000 0.000000 0.000000
# 4 0.000000 0.000000 0.000000 0.038360 0.000000 0.000000
# 5 0.000000 0.000000 0.000000 0.000000 0.037955 0.000000
# 6 0.000000 0.000000 0.000000 0.000000 0.000000 0.055818
#
#
# Mechanical properties :
#
#
# Convention : Reuss Voigt Hill
#
# Bulk Modulus (GPa) = 53.29708 64.21658 58.75683
# Shear Modulus (GPa) = 19.80413 21.58264 20.69339
#
# Velocity S-wave (km/s) = 3.41864 3.56884 3.49455
# Velocity P-wave (km/s) = 6.85822 7.40801 7.13841
#
# Compressibility (1/GPa) = 0.01876276
#
# Stress axis : x y z
#
# Youngs Moduli (GPa) = 37.58697 55.16338 46.10202
#
# Poissons Ratio (x) = 0.17575 0.42981
# Poissons Ratio (y) = 0.11975 0.52195
# Poissons Ratio (z) = 0.35042 0.62454
#
# Static dielectric constant tensor:
#      x y z
#    x 3.222980 0.000000 0.000000 
#    y 0.000000 3.377310 0.000000 
#    z 0.000000 0.000000 3.056480 
# 
# 
# High freq. dielectric constant tensor:
#      x y z
#    x 1.645490 0.000000 0.000000 
#    y 0.000000 1.655510 0.000000 
#    z 0.000000 0.000000 1.631620 
# 
# From -- ./inp_files/33225.got.cif
#   From: 2010.03.12/outbox.cif.g09.slc.cpg/sg59_17_cif.got.tgz:33225.got - 2010.04.16 16:29:54.
