data_PCOD8239384
_publ_section_title
;
Structure prediction by ZEFSAII (Michael W. Deem and Ramdas Pophale) SiO2 
 PCOD8239384
Probable space group: P M M N
;
_chemical_formula_sum "Si O2"
_cell_formula_units_Z 64
_cell_length_a 18.046769
_cell_length_b 8.977151
_cell_length_c 23.252243
_cell_angle_alpha 90.000000
_cell_angle_beta 90.000000
_cell_angle_gamma 90.000000
_cell_volume 3767.062646
_symmetry_space_group_name_H-M "P M M N"
_symmetry_group_IT_number 59
_space_group.IT_coordinate_system_code '2'
_symmetry_cell_setting 'orthorhombic'
loop_
_space_group_symop_operation_xyz
x,y,z
1/2-x,1/2-y,z
1/2+x,-y,-z
-x,1/2+y,-z
-x,-y,-z
1/2+x,1/2+y,-z
1/2-x,y,z
x,1/2-y,z
loop_
_atom_site_type_symbol
_atom_site_label
_atom_site_fract_x
_atom_site_fract_y
_atom_site_fract_z
Si Si1 0.959587 0.073796 0.127424
Si Si2 0.533293 0.923513 0.632377
Si Si3 0.470308 0.077338 0.241821
Si Si4 0.667953 0.073948 0.048149
Si Si5 0.332178 0.080856 0.168930
Si Si6 0.094151 0.574283 0.068496
Si Si7 0.066818 0.576656 0.532147
Si Si8 0.834746 0.925940 0.550691
O O1 0.973387 0.250000 0.126255
O O2 0.877257 0.031261 0.106101
O O3 0.974089 0.012065 0.192448
O O4 0.016592 0.004151 0.082036
O O5 0.550013 0.750000 0.640527
O O6 0.522470 0.999824 0.695321
O O7 0.454870 0.948118 0.599218
O O8 0.606475 0.986656 0.598699
O O9 0.489111 0.250000 0.248680
O O10 0.386540 0.047451 0.221725
O O11 0.750000 0.002228 0.052351
O O12 0.675071 0.250000 0.042420
O O13 0.624571 0.013745 0.992373
O O14 0.250000 0.056181 0.193070
O O15 0.344463 0.250000 0.146806
O O16 0.345606 0.969041 0.116446
O O17 0.082076 0.750000 0.068035
O O18 0.070634 0.750000 0.516844
O O19 0.143193 0.499492 0.511185
O O20 0.000000 0.500000 0.500000
O O21 0.750000 0.971030 0.566531
O O22 0.842031 0.750000 0.543244
#
# Coordination Sequence:
#
# PCOD8239384 Si02
#       8
#     8   8   8   8   8   8   8   8
#     4   9  17  30  47  64  84 110 141 178 214 251
#     4   8  14  25  42  64  87 111 142 177 208 245
#     4   8  14  25  42  63  84 109 142 176 210 245
#     4   9  17  28  43  64  86 108 137 174 217 261
#     4   9  17  28  42  62  88 115 142 173 209 251
#     4  10  18  28  44  63  85 113 142 172 210 258
#     4   9  16  27  44  64  87 115 144 174 209 247
#     4   9  17  28  43  65  91 116 142 173 210 253
#
# _framework density 16.989363999999998
#
# number of rings (size 3 to 8) (size 9 to 14) (size 15 to 20)
#    0.000    3.125    0.000    3.000    0.000    1.500 
#    0.000    3.125    0.000   17.625    0.000   10.500 
#    0.000    0.000    0.000    0.000    0.000    0.000 
#
# Total GULP energy -792854.529451 kJ/mol
# GULP energy per Si atom -12388.352023 kJ/mol
# Density = 1.695070 g / cm^3
# Si number density = 16.989364 Si / 1000 Ang^3
#
#
#
# Elastic Constant Matrix: (Units=GPa)
#
#
# Indices 1 2 3 4 5 6 
#
# 1 97.1217 17.9817 70.7980 0.0000 0.0000 0.0000
# 2 17.9817 27.9948 20.0747 0.0000 0.0000 0.0000
# 3 70.7980 20.0747 131.4042 0.0000 0.0000 0.0000
# 4 0.0000 0.0000 0.0000 15.3962 0.0000 0.0000
# 5 0.0000 0.0000 0.0000 0.0000 16.1827 0.0000
# 6 0.0000 0.0000 0.0000 0.0000 0.0000 19.8384
#
#
#
# Elastic Compliance Matrix: (Units=1/GPa)
#
#
# Indices 1 2 3 4 5 6 
#
# 1 0.017569 -0.005051 -0.008694 0.000000 0.000000 0.000000
# 2 -0.005051 0.041567 -0.003629 0.000000 0.000000 0.000000
# 3 -0.008694 -0.003629 0.012849 0.000000 0.000000 0.000000
# 4 0.000000 0.000000 0.000000 0.064951 0.000000 0.000000
# 5 0.000000 0.000000 0.000000 0.000000 0.061794 0.000000
# 6 0.000000 0.000000 0.000000 0.000000 0.000000 0.050407
#
#
# Mechanical properties :
#
#
# Convention : Reuss Voigt Hill
#
# Bulk Modulus (GPa) = 26.85466 52.69216 39.77341
# Shear Modulus (GPa) = 16.87481 20.12787 18.50134
#
# Velocity S-wave (km/s) = 3.15502 3.44573 3.30357
# Velocity P-wave (km/s) = 5.39567 6.84930 6.16547
#
# Compressibility (1/GPa) = 0.03723748
#
# Stress axis : x y z
#
# Youngs Moduli (GPa) = 56.91726 24.05726 77.82751
#
# Poissons Ratio (x) = 0.12150 0.67667
# Poissons Ratio (y) = 0.28746 0.28245
# Poissons Ratio (z) = 0.49486 0.08731
#
# Static dielectric constant tensor:
#      x y z
#    x 3.350320 0.000000 0.000000 
#    y 0.000000 2.927980 0.000000 
#    z 0.000000 0.000000 3.554580 
# 
# 
# High freq. dielectric constant tensor:
#      x y z
#    x 1.644900 0.000000 0.000000 
#    y 0.000000 1.619550 0.000000 
#    z 0.000000 0.000000 1.647950 
# 
# From -- ./inp_files/32332.got.cif
#   From: 2010.03.12/outbox.cif.g09.slc.cpg/sg59_17_cif.got.tgz:32332.got - 2010.04.16 16:29:54.
