data_PCOD8239623
_publ_section_title
;
Structure prediction by ZEFSAII (Michael W. Deem and Ramdas Pophale) SiO2 
 PCOD8239623
Probable space group: P M M N
;
_chemical_formula_sum "Si O2"
_cell_formula_units_Z 40
_cell_length_a 8.955675
_cell_length_b 19.864083
_cell_length_c 12.818510
_cell_angle_alpha 90.000000
_cell_angle_beta 90.000000
_cell_angle_gamma 90.000000
_cell_volume 2280.365135
_symmetry_space_group_name_H-M "P M M N"
_symmetry_group_IT_number 59
_space_group.IT_coordinate_system_code '2'
_symmetry_cell_setting 'orthorhombic'
loop_
_space_group_symop_operation_xyz
x,y,z
1/2-x,1/2-y,z
1/2+x,-y,-z
-x,1/2+y,-z
-x,-y,-z
1/2+x,1/2+y,-z
1/2-x,y,z
x,1/2-y,z
loop_
_atom_site_type_symbol
_atom_site_label
_atom_site_fract_x
_atom_site_fract_y
_atom_site_fract_z
Si Si1 0.422020 0.828050 0.614339
Si Si2 0.423997 0.068638 0.534514
Si Si3 0.577886 0.569538 0.016893
Si Si4 0.074342 0.102800 0.201680
Si Si5 0.577702 0.538525 0.236416
O O1 0.250000 0.849844 0.614165
O O2 0.442950 0.750000 0.589275
O O3 0.506348 0.868416 0.524503
O O4 0.489243 0.843149 0.728123
O O5 0.250000 0.064416 0.507244
O O6 0.452560 0.079704 0.657910
O O7 0.500000 0.000000 0.500000
O O8 0.750000 0.555304 0.000339
O O9 0.544100 0.589748 0.137903
O O10 0.500000 0.500000 0.000000
O O11 0.530723 0.618814 0.920885
O O12 0.250000 0.110028 0.222416
O O13 0.025598 0.027420 0.233470
O O14 0.750000 0.514113 0.232220
#
# Coordination Sequence:
#
# PCOD8239623 Si02
#       5
#     8   8   8   8   8
#     4  11  24  39  53  71 101 141 181 222 269 317
#     4  11  21  33  54  80 107 138 174 217 262 315
#     4   8  15  27  44  71 102 130 160 196 245 302
#     4  10  18  29  50  76 102 131 167 212 257 308
#     4   9  17  30  49  74 106 137 164 203 256 312
#
# _framework density 17.541049999999998
#
# number of rings (size 3 to 8) (size 9 to 14) (size 15 to 20)
#    0.000    2.200    2.000    1.800    0.000    3.200 
#    0.000    0.000    0.000    1.200    0.000    8.400 
#    0.000    0.000    0.000    0.000    0.000    0.000 
#
# Total GULP energy -495524.495183 kJ/mol
# GULP energy per Si atom -12388.112380 kJ/mol
# Density = 1.750113 g / cm^3
# Si number density = 17.541050 Si / 1000 Ang^3
#
#
#
# Elastic Constant Matrix: (Units=GPa)
#
#
# Indices 1 2 3 4 5 6 
#
# 1 91.1117 38.0770 58.0502 0.0000 0.0000 0.0000
# 2 38.0770 57.6176 47.9528 0.0000 0.0000 0.0000
# 3 58.0502 47.9528 173.5982 0.0000 0.0000 0.0000
# 4 0.0000 0.0000 0.0000 21.7775 0.0000 0.0000
# 5 0.0000 0.0000 0.0000 0.0000 23.9821 0.0000
# 6 0.0000 0.0000 0.0000 0.0000 0.0000 22.6493
#
#
#
# Elastic Compliance Matrix: (Units=1/GPa)
#
#
# Indices 1 2 3 4 5 6 
#
# 1 0.016461 -0.008177 -0.003246 0.000000 0.000000 0.000000
# 2 -0.008177 0.026599 -0.004613 0.000000 0.000000 0.000000
# 3 -0.003246 -0.004613 0.008120 0.000000 0.000000 0.000000
# 4 0.000000 0.000000 0.000000 0.045919 0.000000 0.000000
# 5 0.000000 0.000000 0.000000 0.000000 0.041698 0.000000
# 6 0.000000 0.000000 0.000000 0.000000 0.000000 0.044151
#
#
# Mechanical properties :
#
#
# Convention : Reuss Voigt Hill
#
# Bulk Modulus (GPa) = 52.33336 67.83196 60.08266
# Shear Modulus (GPa) = 22.58472 25.56493 24.07483
#
# Velocity S-wave (km/s) = 3.59212 3.82178 3.70873
# Velocity P-wave (km/s) = 6.86323 7.63079 7.25717
#
# Compressibility (1/GPa) = 0.01910827
#
# Stress axis : x y z
#
# Youngs Moduli (GPa) = 60.75060 37.59560 123.15246
#
# Poissons Ratio (x) = 0.30742 0.39971
# Poissons Ratio (y) = 0.49676 0.56811
# Poissons Ratio (z) = 0.19718 0.17343
#
# Static dielectric constant tensor:
#      x y z
#    x 3.417420 0.000000 0.000000 
#    y 0.000000 2.785460 0.000000 
#    z 0.000000 0.000000 4.305590 
# 
# 
# High freq. dielectric constant tensor:
#      x y z
#    x 1.691490 0.000000 0.000000 
#    y 0.000000 1.614450 0.000000 
#    z 0.000000 0.000000 1.709540 
# 
# From -- ./inp_files/20113.got.cif
#   From: 2010.03.12/outbox.cif.g09.slc.cpg/sg59_11_cif.got.tgz:20113.got - 2010.04.16 16:29:54.
