data_PCOD8239807
_publ_section_title
;
Structure prediction by ZEFSAII (Michael W. Deem and Ramdas Pophale) SiO2 
 PCOD8239807
Probable space group: P M M N
;
_chemical_formula_sum "Si O2"
_cell_formula_units_Z 64
_cell_length_a 29.270584
_cell_length_b 8.720174
_cell_length_c 12.440428
_cell_angle_alpha 90.000000
_cell_angle_beta 90.000000
_cell_angle_gamma 90.000000
_cell_volume 3175.351889
_symmetry_space_group_name_H-M "P M M N"
_symmetry_group_IT_number 59
_space_group.IT_coordinate_system_code '2'
_symmetry_cell_setting 'orthorhombic'
loop_
_space_group_symop_operation_xyz
x,y,z
1/2-x,1/2-y,z
1/2+x,-y,-z
-x,1/2+y,-z
-x,-y,-z
1/2+x,1/2+y,-z
1/2-x,y,z
x,1/2-y,z
loop_
_atom_site_type_symbol
_atom_site_label
_atom_site_fract_x
_atom_site_fract_y
_atom_site_fract_z
Si Si1 0.800690 0.425997 0.928050
Si Si2 0.829194 0.075555 0.164383
Si Si3 0.420208 0.427421 0.887991
Si Si4 0.439202 0.569407 0.329541
Si Si5 0.035468 0.569348 0.697664
Si Si6 0.799608 0.924626 0.369574
Si Si7 0.106567 0.429546 0.125482
Si Si8 0.894088 0.569986 0.467184
O O1 0.750000 0.474186 0.886739
O O2 0.811054 0.250000 0.897508
O O3 0.839522 0.530555 0.873773
O O4 0.800284 0.447421 0.056359
O O5 0.847147 0.250000 0.173445
O O6 0.871932 0.961007 0.167443
O O7 0.798234 0.033704 0.265606
O O8 0.432317 0.250000 0.875983
O O9 0.458766 0.522634 0.823447
O O10 0.417128 0.476839 0.012715
O O11 0.442699 0.750000 0.341072
O O12 0.488948 0.499033 0.348798
O O13 0.419800 0.526112 0.213711
O O14 0.405639 0.503982 0.419174
O O15 0.033530 0.750000 0.686179
O O16 0.077358 0.504318 0.629133
O O17 0.750000 0.945641 0.427215
O O18 0.806060 0.750000 0.330422
O O19 0.840533 0.968269 0.450046
O O20 0.101102 0.250000 0.148800
O O21 0.904249 0.750000 0.470291
#
# Coordination Sequence:
#
# PCOD8239807 Si02
#       8
#     8   8   8   8   8   8   8   8
#     4   9  18  33  54  83 119 159 202 247 298 355
#     4  10  18  30  52  84 122 160 196 241 293 352
#     4  10  20  36  59  89 125 161 195 240 296 357
#     4  12  26  44  65  87 116 157 206 253 305 363
#     4  12  24  40  65  95 124 155 198 247 304 364
#     4  10  21  36  57  86 121 160 198 240 295 356
#     4  10  22  40  61  87 121 159 203 251 302 359
#     4  11  23  42  65  89 124 160 201 252 300 353
#
# _framework density 20.155248
#
# number of rings (size 3 to 8) (size 9 to 14) (size 15 to 20)
#    0.000    1.500    1.250    4.500    0.000    4.000 
#    0.000    0.625    0.000    2.250    0.000    0.000 
#    0.000    0.000    0.000    0.000    0.000    0.000 
#
# Total GULP energy -793707.580246 kJ/mol
# GULP energy per Si atom -12401.680941 kJ/mol
# Density = 2.010937 g / cm^3
# Si number density = 20.155248 Si / 1000 Ang^3
#
#
#
# Elastic Constant Matrix: (Units=GPa)
#
#
# Indices 1 2 3 4 5 6 
#
# 1 120.0747 48.6375 50.1947 0.0000 0.0000 0.0000
# 2 48.6375 118.1609 44.2085 0.0000 0.0000 0.0000
# 3 50.1947 44.2085 92.8214 0.0000 0.0000 0.0000
# 4 0.0000 0.0000 0.0000 31.8882 0.0000 0.0000
# 5 0.0000 0.0000 0.0000 0.0000 19.0555 0.0000
# 6 0.0000 0.0000 0.0000 0.0000 0.0000 29.7857
#
#
#
# Elastic Compliance Matrix: (Units=1/GPa)
#
#
# Indices 1 2 3 4 5 6 
#
# 1 0.011543 -0.002940 -0.004842 0.000000 0.000000 0.000000
# 2 -0.002940 0.011047 -0.003672 0.000000 0.000000 0.000000
# 3 -0.004842 -0.003672 0.015140 0.000000 0.000000 0.000000
# 4 0.000000 0.000000 0.000000 0.031360 0.000000 0.000000
# 5 0.000000 0.000000 0.000000 0.000000 0.052478 0.000000
# 6 0.000000 0.000000 0.000000 0.000000 0.000000 0.033573
#
#
# Mechanical properties :
#
#
# Convention : Reuss Voigt Hill
#
# Bulk Modulus (GPa) = 67.45985 68.57094 68.01539
# Shear Modulus (GPa) = 27.32405 28.68031 28.00218
#
# Velocity S-wave (km/s) = 3.68595 3.77632 3.73141
# Velocity P-wave (km/s) = 7.18733 7.28762 7.23765
#
# Compressibility (1/GPa) = 0.01482363
#
# Stress axis : x y z
#
# Youngs Moduli (GPa) = 86.63254 90.52400 66.04842
#
# Poissons Ratio (x) = 0.26612 0.31980
# Poissons Ratio (y) = 0.25468 0.24250
# Poissons Ratio (z) = 0.41947 0.33237
#
# Static dielectric constant tensor:
#      x y z
#    x 3.757520 0.000000 0.000000 
#    y 0.000000 3.680520 0.000000 
#    z 0.000000 0.000000 3.547230 
# 
# 
# High freq. dielectric constant tensor:
#      x y z
#    x 1.791630 0.000000 0.000000 
#    y 0.000000 1.793910 0.000000 
#    z 0.000000 0.000000 1.769690 
# 
# From -- ./inp_files/19201.got.cif
#   From: 2010.03.12/outbox.cif.g09.slc.cpg/sg59_10_cif.got.tgz:19201.got - 2010.04.16 16:29:54.
