data_PCOD8239202
_publ_section_title
;
Structure prediction by ZEFSAII (Michael W. Deem and Ramdas Pophale) SiO2 
 PCOD8239202
Probable space group: P M M N
;
_chemical_formula_sum "Si O2"
_cell_formula_units_Z 56
_cell_length_a 15.321591
_cell_length_b 19.257651
_cell_length_c 9.954986
_cell_angle_alpha 90.000000
_cell_angle_beta 90.000000
_cell_angle_gamma 90.000000
_cell_volume 2937.296788
_symmetry_space_group_name_H-M "P M M N"
_symmetry_group_IT_number 59
_space_group.IT_coordinate_system_code '2'
_symmetry_cell_setting 'orthorhombic'
loop_
_space_group_symop_operation_xyz
x,y,z
1/2-x,1/2-y,z
1/2+x,-y,-z
-x,1/2+y,-z
-x,-y,-z
1/2+x,1/2+y,-z
1/2-x,y,z
x,1/2-y,z
loop_
_atom_site_type_symbol
_atom_site_label
_atom_site_fract_x
_atom_site_fract_y
_atom_site_fract_z
Si Si1 0.092890 0.921235 0.691996
Si Si2 0.846155 0.600367 0.530532
Si Si3 0.655043 0.171711 0.078138
Si Si4 0.347497 0.944485 0.401692
Si Si5 0.973813 0.829245 0.042827
Si Si6 0.467738 0.422264 0.709733
Si Si7 0.434931 0.170712 0.253927
O O1 0.151913 0.886313 0.806202
O O2 0.146774 0.918798 0.554841
O O3 0.006845 0.875908 0.672657
O O4 0.065015 0.999365 0.730642
O O5 0.750000 0.606057 0.465279
O O6 0.860050 0.526705 0.601403
O O7 0.917633 0.612784 0.415105
O O8 0.850944 0.656583 0.652833
O O9 0.750000 0.164537 0.007401
O O10 0.644083 0.250000 0.138498
O O11 0.577990 0.159126 0.972105
O O12 0.250000 0.923642 0.347207
O O13 0.427531 0.914665 0.313107
O O14 0.952533 0.750000 0.083203
O O15 0.939987 0.880037 0.158054
O O16 0.924727 0.849713 0.903335
O O17 0.464614 0.250000 0.259613
#
# Coordination Sequence:
#
# PCOD8239202 Si02
#       7
#     8   8   8   8   8   8   8
#     4  10  17  33  54  81 110 147 185 230 280 328
#     4  10  20  37  58  81 108 142 187 231 277 331
#     4   9  18  33  53  78 111 149 190 230 271 331
#     4  10  19  33  55  83 115 146 177 228 285 330
#     4   9  21  37  55  78 110 150 183 226 287 334
#     4  11  20  36  58  83 116 148 182 230 286 334
#     4  10  19  35  56  78 107 143 186 231 274 323
#
# _framework density 19.065149000000002
#
# number of rings (size 3 to 8) (size 9 to 14) (size 15 to 20)
#    0.000    2.143    2.857    2.571    0.000    4.286 
#    0.000    0.714    0.000    2.571    0.000    0.000 
#    0.000    0.000    0.000    0.000    0.000    0.000 
#
# Total GULP energy -693947.266012 kJ/mol
# GULP energy per Si atom -12391.915464 kJ/mol
# Density = 1.902176 g / cm^3
# Si number density = 19.065149 Si / 1000 Ang^3
#
#
#
# Elastic Constant Matrix: (Units=GPa)
#
#
# Indices 1 2 3 4 5 6 
#
# 1 82.4261 21.5574 38.5772 0.0000 0.0000 0.0000
# 2 21.5574 76.1078 58.6678 0.0000 0.0000 0.0000
# 3 38.5772 58.6678 98.9910 0.0000 0.0000 0.0000
# 4 0.0000 0.0000 0.0000 29.1127 0.0000 0.0000
# 5 0.0000 0.0000 0.0000 0.0000 13.9303 0.0000
# 6 0.0000 0.0000 0.0000 0.0000 0.0000 15.0232
#
#
#
# Elastic Compliance Matrix: (Units=1/GPa)
#
#
# Indices 1 2 3 4 5 6 
#
# 1 0.014848 0.000469 -0.006064 0.000000 0.000000 0.000000
# 2 0.000469 0.024206 -0.014528 0.000000 0.000000 0.000000
# 3 -0.006064 -0.014528 0.021076 0.000000 0.000000 0.000000
# 4 0.000000 0.000000 0.000000 0.034349 0.000000 0.000000
# 5 0.000000 0.000000 0.000000 0.000000 0.071786 0.000000
# 6 0.000000 0.000000 0.000000 0.000000 0.000000 0.066563
#
#
# Mechanical properties :
#
#
# Convention : Reuss Voigt Hill
#
# Bulk Modulus (GPa) = 50.29768 55.01442 52.65605
# Shear Modulus (GPa) = 17.87616 20.86141 19.36878
#
# Velocity S-wave (km/s) = 3.06541 3.31148 3.19082
# Velocity P-wave (km/s) = 6.24245 6.59848 6.42293
#
# Compressibility (1/GPa) = 0.01988163
#
# Stress axis : x y z
#
# Youngs Moduli (GPa) = 67.35117 41.31255 47.44833
#
# Poissons Ratio (x) = -0.01938 0.28773
# Poissons Ratio (y) = -0.03159 0.68935
# Poissons Ratio (z) = 0.40842 0.60021
#
# Static dielectric constant tensor:
#      x y z
#    x 3.610380 0.000000 0.000000 
#    y 0.000000 3.427980 0.000000 
#    z 0.000000 0.000000 3.236200 
# 
# 
# High freq. dielectric constant tensor:
#      x y z
#    x 1.740010 0.000000 0.000000 
#    y 0.000000 1.733340 0.000000 
#    z 0.000000 0.000000 1.720710 
# 
# From -- ./inp_files/10608.got.cif
#   From: 2010.03.12/outbox.cif.g09.slc.cpg/sg59_6_cif.got.tgz:10608.got - 2010.04.16 16:29:54.
