data_PCOD8239701
_publ_section_title
;
Structure prediction by ZEFSAII (Michael W. Deem and Ramdas Pophale) SiO2 
 PCOD8239701
Probable space group: P M M N
;
_chemical_formula_sum "Si O2"
_cell_formula_units_Z 64
_cell_length_a 23.183761
_cell_length_b 9.321058
_cell_length_c 18.723942
_cell_angle_alpha 90.000000
_cell_angle_beta 90.000000
_cell_angle_gamma 90.000000
_cell_volume 4046.191082
_symmetry_space_group_name_H-M "P M M N"
_symmetry_group_IT_number 59
_space_group.IT_coordinate_system_code '2'
_symmetry_cell_setting 'orthorhombic'
loop_
_space_group_symop_operation_xyz
x,y,z
1/2-x,1/2-y,z
1/2+x,-y,-z
-x,1/2+y,-z
-x,-y,-z
1/2+x,1/2+y,-z
1/2-x,y,z
x,1/2-y,z
loop_
_atom_site_type_symbol
_atom_site_label
_atom_site_fract_x
_atom_site_fract_y
_atom_site_fract_z
Si Si1 0.970960 0.416550 0.604451
Si Si2 0.684471 0.585214 0.381136
Si Si3 0.584888 0.584349 0.484267
Si Si4 0.587828 0.916344 0.026921
Si Si5 0.636022 0.418143 0.250719
Si Si6 0.816574 0.418036 0.097394
Si Si7 0.503018 0.415008 0.261801
Si Si8 0.989865 0.913326 0.897514
O O1 0.956429 0.250000 0.611563
O O2 0.922441 0.488672 0.554773
O O3 0.033683 0.445600 0.571431
O O4 0.968772 0.487308 0.682365
O O5 0.750000 0.563253 0.406479
O O6 0.670703 0.750000 0.362491
O O7 0.643854 0.535063 0.446281
O O8 0.673589 0.494714 0.310553
O O9 0.585975 0.750000 0.507709
O O10 0.595585 0.750000 0.045232
O O11 0.648593 0.996653 0.036419
O O12 0.540896 0.980553 0.080997
O O13 0.566783 0.940212 0.945457
O O14 0.644723 0.250000 0.260938
O O15 0.660149 0.467744 0.174369
O O16 0.569515 0.463226 0.257044
O O17 0.750000 0.460288 0.090214
O O18 0.826583 0.250000 0.085811
O O19 0.498556 0.250000 0.286348
O O20 0.473208 0.439422 0.184860
O O21 0.012830 0.750000 0.907533
#
# Coordination Sequence:
#
# PCOD8239701 Si02
#       8
#     8   8   8   8   8   8   8   8
#     4  10  19  30  47  69  93 119 152 193 235 274
#     4  10  20  33  48  67  94 126 158 195 234 269
#     4   9  18  32  46  64  91 123 155 188 228 277
#     4  10  19  30  48  71  94 121 158 204 242 273
#     4  10  19  31  47  66  92 128 166 194 220 268
#     4  10  20  34  49  65  93 133 169 197 231 279
#     4  10  18  30  49  69  93 126 157 188 230 280
#     4   9  18  33  49  67  94 127 158 190 237 291
#
# _framework density 15.817345
#
# number of rings (size 3 to 8) (size 9 to 14) (size 15 to 20)
#    0.000    2.250    2.500    1.125    0.000    3.500 
#    0.000    0.000    0.000    0.000    0.000    0.875 
#    0.000    3.000    0.000    0.000    0.000    0.000 
#
# Total GULP energy -793754.834168 kJ/mol
# GULP energy per Si atom -12402.419284 kJ/mol
# Density = 1.578134 g / cm^3
# Si number density = 15.817345 Si / 1000 Ang^3
#
#
#
# Elastic Constant Matrix: (Units=GPa)
#
#
# Indices 1 2 3 4 5 6 
#
# 1 82.8968 39.4517 51.7585 0.0000 0.0000 0.0000
# 2 39.4517 66.9851 51.6280 0.0000 0.0000 0.0000
# 3 51.7585 51.6280 103.9936 0.0000 0.0000 0.0000
# 4 0.0000 0.0000 0.0000 27.9552 0.0000 0.0000
# 5 0.0000 0.0000 0.0000 0.0000 23.5142 0.0000
# 6 0.0000 0.0000 0.0000 0.0000 0.0000 22.3542
#
#
#
# Elastic Compliance Matrix: (Units=1/GPa)
#
#
# Indices 1 2 3 4 5 6 
#
# 1 0.019026 -0.006329 -0.006327 0.000000 0.000000 0.000000
# 2 -0.006329 0.026287 -0.009900 0.000000 0.000000 0.000000
# 3 -0.006327 -0.009900 0.017680 0.000000 0.000000 0.000000
# 4 0.000000 0.000000 0.000000 0.035772 0.000000 0.000000
# 5 0.000000 0.000000 0.000000 0.000000 0.042528 0.000000
# 6 0.000000 0.000000 0.000000 0.000000 0.000000 0.044734
#
#
# Mechanical properties :
#
#
# Convention : Reuss Voigt Hill
#
# Bulk Modulus (GPa) = 55.92876 59.95021 57.93949
# Shear Modulus (GPa) = 21.08831 22.16721 21.62776
#
# Velocity S-wave (km/s) = 3.65532 3.74765 3.70177
# Velocity P-wave (km/s) = 7.29733 7.53063 7.41490
#
# Compressibility (1/GPa) = 0.01787989
#
# Stress axis : x y z
#
# Youngs Moduli (GPa) = 52.56038 38.04234 56.56074
#
# Poissons Ratio (x) = 0.24076 0.35788
# Poissons Ratio (y) = 0.33264 0.55996
# Poissons Ratio (z) = 0.33257 0.37663
#
# Static dielectric constant tensor:
#      x y z
#    x 2.892930 0.000000 0.000000 
#    y 0.000000 3.031340 0.000000 
#    z 0.000000 0.000000 3.000330 
# 
# 
# High freq. dielectric constant tensor:
#      x y z
#    x 1.582170 0.000000 0.000000 
#    y 0.000000 1.612420 0.000000 
#    z 0.000000 0.000000 1.599600 
# 
# From -- ./inp_files/28421.got.cif
#   From: 2010.03.12/outbox.cif.g09.slc.cpg/sg59_15_cif.got.tgz:28421.got - 2010.04.16 16:29:54.
