data_PCOD8239130
_publ_section_title
;
Structure prediction by ZEFSAII (Michael W. Deem and Ramdas Pophale) SiO2 
 PCOD8239130
Probable space group: P M M N
;
_chemical_formula_sum "Si O2"
_cell_formula_units_Z 64
_cell_length_a 14.464566
_cell_length_b 25.862685
_cell_length_c 9.999565
_cell_angle_alpha 90.000000
_cell_angle_beta 90.000000
_cell_angle_gamma 90.000000
_cell_volume 3740.762411
_symmetry_space_group_name_H-M "P M M N"
_symmetry_group_IT_number 59
_space_group.IT_coordinate_system_code '2'
_symmetry_cell_setting 'orthorhombic'
loop_
_space_group_symop_operation_xyz
x,y,z
1/2-x,1/2-y,z
1/2+x,-y,-z
-x,1/2+y,-z
-x,-y,-z
1/2+x,1/2+y,-z
1/2-x,y,z
x,1/2-y,z
loop_
_atom_site_type_symbol
_atom_site_label
_atom_site_fract_x
_atom_site_fract_y
_atom_site_fract_z
Si Si1 0.409810 0.020469 0.675450
Si Si2 0.641955 0.891896 0.981691
Si Si3 0.045091 0.128049 0.764776
Si Si4 0.109404 0.497819 0.394959
Si Si5 0.142839 0.114128 0.315590
Si Si6 0.647868 0.421079 0.808188
Si Si7 0.857040 0.690212 0.450849
Si Si8 0.141926 0.992595 0.953811
O O1 0.389960 0.079422 0.720195
O O2 0.348655 0.001597 0.547688
O O3 0.510953 0.025137 0.613858
O O4 0.401102 0.983695 0.805459
O O5 0.750000 0.885433 0.016843
O O6 0.619137 0.868847 0.835522
O O7 0.579217 0.859108 0.084956
O O8 0.611781 0.952377 0.984658
O O9 0.072758 0.175056 0.668244
O O10 0.933237 0.118382 0.762174
O O11 0.092471 0.439107 0.349732
O O12 0.170993 0.532601 0.296543
O O13 0.250000 0.100843 0.328983
O O14 0.112957 0.159444 0.415909
O O15 0.750000 0.394126 0.827921
O O16 0.610178 0.447137 0.946006
O O17 0.750000 0.678921 0.412117
O O18 0.871992 0.750000 0.483129
O O19 0.250000 0.990647 0.933601
#
# Coordination Sequence:
#
# PCOD8239130 Si02
#       8
#     8   8   8   8   8   8   8   8
#     4   9  19  27  42  69  96 129 169 200 233 278
#     4   9  17  28  45  72  98 128 166 194 231 284
#     4  10  19  32  50  70  97 131 160 203 242 286
#     4  10  17  28  43  66  97 130 166 201 231 277
#     4  10  18  29  47  68  95 126 157 194 237 287
#     4  10  20  31  45  69 102 136 167 200 237 278
#     4  10  21  37  55  74  95 120 154 199 251 299
#     4   9  17  28  40  62  98 134 165 197 229 269
#
# _framework density 17.108812
#
# number of rings (size 3 to 8) (size 9 to 14) (size 15 to 20)
#    0.000    2.375    2.500    0.750    1.750    3.000 
#    0.000    0.625    0.000    2.625    0.000    0.000 
#    0.000    0.000    0.000    0.000    0.000    0.000 
#
# Total GULP energy -792925.781131 kJ/mol
# GULP energy per Si atom -12389.465330 kJ/mol
# Density = 1.706987 g / cm^3
# Si number density = 17.108812 Si / 1000 Ang^3
#
#
#
# Elastic Constant Matrix: (Units=GPa)
#
#
# Indices 1 2 3 4 5 6 
#
# 1 54.4128 21.4648 31.7489 0.0000 0.0000 0.0000
# 2 21.4648 50.9080 25.5233 0.0000 0.0000 0.0000
# 3 31.7489 25.5233 121.0631 0.0000 0.0000 0.0000
# 4 0.0000 0.0000 0.0000 15.9059 0.0000 0.0000
# 5 0.0000 0.0000 0.0000 0.0000 14.7186 0.0000
# 6 0.0000 0.0000 0.0000 0.0000 0.0000 16.4429
#
#
#
# Elastic Compliance Matrix: (Units=1/GPa)
#
#
# Indices 1 2 3 4 5 6 
#
# 1 0.024217 -0.007857 -0.004694 0.000000 0.000000 0.000000
# 2 -0.007857 0.024514 -0.003108 0.000000 0.000000 0.000000
# 3 -0.004694 -0.003108 0.010146 0.000000 0.000000 0.000000
# 4 0.000000 0.000000 0.000000 0.062870 0.000000 0.000000
# 5 0.000000 0.000000 0.000000 0.000000 0.067941 0.000000
# 6 0.000000 0.000000 0.000000 0.000000 0.000000 0.060816
#
#
# Mechanical properties :
#
#
# Convention : Reuss Voigt Hill
#
# Bulk Modulus (GPa) = 36.28587 42.65087 39.46837
# Shear Modulus (GPa) = 17.18160 19.25662 18.21911
#
# Velocity S-wave (km/s) = 3.17243 3.35854 3.26682
# Velocity P-wave (km/s) = 5.88847 6.32638 6.11135
#
# Compressibility (1/GPa) = 0.02755894
#
# Stress axis : x y z
#
# Youngs Moduli (GPa) = 41.29409 40.79269 98.55683
#
# Poissons Ratio (x) = 0.32051 0.46266
# Poissons Ratio (y) = 0.32445 0.30629
# Poissons Ratio (z) = 0.19385 0.12677
#
# Static dielectric constant tensor:
#      x y z
#    x 3.044200 0.000000 0.000000 
#    y 0.000000 2.703610 0.000000 
#    z 0.000000 0.000000 3.726460 
# 
# 
# High freq. dielectric constant tensor:
#      x y z
#    x 1.649020 0.000000 0.000000 
#    y 0.000000 1.592210 0.000000 
#    z 0.000000 0.000000 1.683090 
# 
# From -- ./inp_files/10815.got.cif
#   From: 2010.03.12/outbox.cif.g09.slc.cpg/sg59_6_cif.got.tgz:10815.got - 2010.04.16 16:29:54.
