data_PCOD8239078
_publ_section_title
;
Structure prediction by ZEFSAII (Michael W. Deem and Ramdas Pophale) SiO2 
 PCOD8239078
Probable space group: P M M N
;
_chemical_formula_sum "Si O2"
_cell_formula_units_Z 56
_cell_length_a 9.132707
_cell_length_b 28.456527
_cell_length_c 13.672844
_cell_angle_alpha 90.000000
_cell_angle_beta 90.000000
_cell_angle_gamma 90.000000
_cell_volume 3553.368749
_symmetry_space_group_name_H-M "P M M N"
_symmetry_group_IT_number 59
_space_group.IT_coordinate_system_code '2'
_symmetry_cell_setting 'orthorhombic'
loop_
_space_group_symop_operation_xyz
x,y,z
1/2-x,1/2-y,z
1/2+x,-y,-z
-x,1/2+y,-z
-x,-y,-z
1/2+x,1/2+y,-z
1/2-x,y,z
x,1/2-y,z
loop_
_atom_site_type_symbol
_atom_site_label
_atom_site_fract_x
_atom_site_fract_y
_atom_site_fract_z
Si Si1 0.578862 0.302963 0.253836
Si Si2 0.919947 0.515561 0.596698
Si Si3 0.417847 0.944064 0.874214
Si Si4 0.575473 0.301316 0.030599
Si Si5 0.576996 0.608220 0.707936
Si Si6 0.415963 0.609277 0.071597
Si Si7 0.576427 0.469367 0.795804
O O1 0.750000 0.314684 0.262168
O O2 0.547639 0.250000 0.292079
O O3 0.522481 0.307529 0.142065
O O4 0.488724 0.340515 0.320032
O O5 0.750000 0.512128 0.574742
O O6 0.962952 0.568940 0.626398
O O7 0.964769 0.479338 0.683174
O O8 0.000000 0.500000 0.500000
O O9 0.250000 0.946473 0.838627
O O10 0.503055 0.905922 0.809796
O O11 0.492955 0.994432 0.865319
O O12 0.428425 0.928743 0.985996
O O13 0.750000 0.305564 0.032758
O O14 0.526909 0.250000 0.990823
O O15 0.504965 0.341719 0.960098
O O16 0.750000 0.611264 0.722033
O O17 0.250000 0.623266 0.092652
O O18 0.475558 0.583139 0.169929
O O19 0.750000 0.476263 0.812462
#
# Coordination Sequence:
#
# PCOD8239078 Si02
#       7
#     8   8   8   8   8   8   8
#     4   9  16  27  44  66  92 121 154 184 208 246
#     4   9  19  33  47  63  83 110 144 185 231 274
#     4  10  17  26  41  61  86 118 151 173 203 253
#     4   8  13  22  38  61  87 115 148 178 200 233
#     4  10  19  30  44  65  92 119 147 183 225 264
#     4   9  15  24  40  60  86 118 146 173 207 250
#     4   9  18  30  42  61  87 110 139 180 223 263
#
# _framework density 15.759693
#
# number of rings (size 3 to 8) (size 9 to 14) (size 15 to 20)
#    0.000    2.857    1.429    3.000    0.000    3.143 
#    0.000    0.714    0.000    0.000    0.000    1.000 
#    0.000    3.429    0.000    0.000    0.000    0.000 
#
# Total GULP energy -693784.944405 kJ/mol
# GULP energy per Si atom -12389.016864 kJ/mol
# Density = 1.572382 g / cm^3
# Si number density = 15.759693 Si / 1000 Ang^3
#
#
#
# Elastic Constant Matrix: (Units=GPa)
#
#
# Indices 1 2 3 4 5 6 
#
# 1 44.5218 34.7776 24.1776 0.0000 0.0000 0.0000
# 2 34.7776 126.7436 53.4530 0.0000 0.0000 0.0000
# 3 24.1776 53.4530 60.7643 0.0000 0.0000 0.0000
# 4 0.0000 0.0000 0.0000 16.9431 0.0000 0.0000
# 5 0.0000 0.0000 0.0000 0.0000 14.9366 0.0000
# 6 0.0000 0.0000 0.0000 0.0000 0.0000 23.2151
#
#
#
# Elastic Compliance Matrix: (Units=1/GPa)
#
#
# Indices 1 2 3 4 5 6 
#
# 1 0.030663 -0.005196 -0.007630 0.000000 0.000000 0.000000
# 2 -0.005196 0.013424 -0.009741 0.000000 0.000000 0.000000
# 3 -0.007630 -0.009741 0.028062 0.000000 0.000000 0.000000
# 4 0.000000 0.000000 0.000000 0.059021 0.000000 0.000000
# 5 0.000000 0.000000 0.000000 0.000000 0.066950 0.000000
# 6 0.000000 0.000000 0.000000 0.000000 0.000000 0.043075
#
#
# Mechanical properties :
#
#
# Convention : Reuss Voigt Hill
#
# Bulk Modulus (GPa) = 37.01654 50.76067 43.88861
# Shear Modulus (GPa) = 16.92995 18.99372 17.96183
#
# Velocity S-wave (km/s) = 3.28114 3.47538 3.37965
# Velocity P-wave (km/s) = 6.15578 6.95582 6.56799
#
# Compressibility (1/GPa) = 0.02701495
#
# Stress axis : x y z
#
# Youngs Moduli (GPa) = 32.61257 74.49325 35.63511
#
# Poissons Ratio (x) = 0.38706 0.27189
# Poissons Ratio (y) = 0.16945 0.34714
# Poissons Ratio (z) = 0.24883 0.72567
#
# Static dielectric constant tensor:
#      x y z
#    x 2.825030 0.000000 0.000000 
#    y 0.000000 3.452190 0.000000 
#    z 0.000000 0.000000 2.710530 
# 
# 
# High freq. dielectric constant tensor:
#      x y z
#    x 1.583440 0.000000 0.000000 
#    y 0.000000 1.614780 0.000000 
#    z 0.000000 0.000000 1.559130 
# 
# From -- ./inp_files/21754.got.cif
#   From: 2010.03.12/outbox.cif.g09.slc.cpg/sg59_11_cif.got.tgz:21754.got - 2010.04.16 16:29:54.
