data_PCOD8239682
_publ_section_title
;
Structure prediction by ZEFSAII (Michael W. Deem and Ramdas Pophale) SiO2 
 PCOD8239682
Probable space group: P M M N
;
_chemical_formula_sum "Si O2"
_cell_formula_units_Z 48
_cell_length_a 8.684825
_cell_length_b 26.039505
_cell_length_c 12.036080
_cell_angle_alpha 90.000000
_cell_angle_beta 90.000000
_cell_angle_gamma 90.000000
_cell_volume 2721.941968
_symmetry_space_group_name_H-M "P M M N"
_symmetry_group_IT_number 59
_space_group.IT_coordinate_system_code '2'
_symmetry_cell_setting 'orthorhombic'
loop_
_space_group_symop_operation_xyz
x,y,z
1/2-x,1/2-y,z
1/2+x,-y,-z
-x,1/2+y,-z
-x,-y,-z
1/2+x,1/2+y,-z
1/2-x,y,z
x,1/2-y,z
loop_
_atom_site_type_symbol
_atom_site_label
_atom_site_fract_x
_atom_site_fract_y
_atom_site_fract_z
Si Si1 0.570701 0.571307 0.730770
Si Si2 0.070575 0.468952 0.656093
Si Si3 0.428228 0.608793 0.182585
Si Si4 0.933034 0.691295 0.324812
Si Si5 0.925875 0.446550 0.037574
Si Si6 0.931867 0.884839 0.510422
O O1 0.750000 0.575849 0.755631
O O2 0.537446 0.517660 0.670942
O O3 0.486199 0.576771 0.847265
O O4 0.515963 0.614887 0.640393
O O5 0.250000 0.484690 0.654644
O O6 0.016181 0.438687 0.545674
O O7 0.040798 0.431575 0.759448
O O8 0.250000 0.600667 0.217130
O O9 0.484741 0.665690 0.217684
O O10 0.449471 0.599107 0.051264
O O11 0.750000 0.686076 0.311430
O O12 0.986000 0.750000 0.331562
O O13 0.993731 0.663393 0.438357
O O14 0.750000 0.460598 0.054942
O O15 0.000000 0.500000 0.000000
O O16 0.750000 0.882716 0.504838
#
# Coordination Sequence:
#
# PCOD8239682 Si02
#       6
#     8   8   8   8   8   8
#     4  11  20  30  46  69 102 139 173 205 246 299
#     4  10  18  30  48  69  99 135 171 208 246 293
#     4  10  20  33  50  74 102 132 170 212 256 301
#     4   9  18  35  59  81 100 125 161 209 263 311
#     4  11  22  34  49  70 101 140 178 213 249 297
#     4   8  17  31  47  72 101 130 164 205 251 299
#
# _framework density 17.634467999999998
#
# number of rings (size 3 to 8) (size 9 to 14) (size 15 to 20)
#    0.000    2.167    1.667    3.500    0.000    2.333 
#    0.000    7.500    0.000    1.000    0.000    2.333 
#    0.000    0.000    0.000    0.000    0.000    0.000 
#
# Total GULP energy -594827.892869 kJ/mol
# GULP energy per Si atom -12392.247768 kJ/mol
# Density = 1.759433 g / cm^3
# Si number density = 17.634468 Si / 1000 Ang^3
#
#
#
# Elastic Constant Matrix: (Units=GPa)
#
#
# Indices 1 2 3 4 5 6 
#
# 1 55.5719 14.4111 44.9420 0.0000 0.0000 0.0000
# 2 14.4111 84.7213 57.0111 0.0000 0.0000 0.0000
# 3 44.9420 57.0111 150.1318 0.0000 0.0000 0.0000
# 4 0.0000 0.0000 0.0000 10.0124 0.0000 0.0000
# 5 0.0000 0.0000 0.0000 0.0000 26.3912 0.0000
# 6 0.0000 0.0000 0.0000 0.0000 0.0000 19.3193
#
#
#
# Elastic Compliance Matrix: (Units=1/GPa)
#
#
# Indices 1 2 3 4 5 6 
#
# 1 0.023806 0.001002 -0.007507 0.000000 0.000000 0.000000
# 2 0.001002 0.015897 -0.006337 0.000000 0.000000 0.000000
# 3 -0.007507 -0.006337 0.011314 0.000000 0.000000 0.000000
# 4 0.000000 0.000000 0.000000 0.099876 0.000000 0.000000
# 5 0.000000 0.000000 0.000000 0.000000 0.037891 0.000000
# 6 0.000000 0.000000 0.000000 0.000000 0.000000 0.051762
#
#
# Mechanical properties :
#
#
# Convention : Reuss Voigt Hill
#
# Bulk Modulus (GPa) = 39.47217 58.12818 48.80017
# Shear Modulus (GPa) = 18.20339 22.74864 20.47601
#
# Velocity S-wave (km/s) = 3.21637 3.59557 3.41124
# Velocity P-wave (km/s) = 6.01876 7.09026 6.57637
#
# Compressibility (1/GPa) = 0.02533431
#
# Stress axis : x y z
#
# Youngs Moduli (GPa) = 42.00666 62.90451 88.38358
#
# Poissons Ratio (x) = -0.06304 0.66348
# Poissons Ratio (y) = -0.04210 0.56007
# Poissons Ratio (z) = 0.31534 0.39861
#
# Static dielectric constant tensor:
#      x y z
#    x 3.231790 0.000000 0.000000 
#    y 0.000000 3.210460 0.000000 
#    z 0.000000 0.000000 3.585920 
# 
# 
# High freq. dielectric constant tensor:
#      x y z
#    x 1.678940 0.000000 0.000000 
#    y 0.000000 1.643840 0.000000 
#    z 0.000000 0.000000 1.689030 
# 
# From -- ./inp_files/14484.got.cif
#   From: 2010.03.12/outbox.cif.g09.slc.cpg/sg59_8_cif.got.tgz:14484.got - 2010.04.16 16:29:54.
