data_PCOD8239525
_publ_section_title
;
Structure prediction by ZEFSAII (Michael W. Deem and Ramdas Pophale) SiO2 
 PCOD8239525
Probable space group: P M M N
;
_chemical_formula_sum "Si O2"
_cell_formula_units_Z 56
_cell_length_a 9.095378
_cell_length_b 19.349601
_cell_length_c 18.049574
_cell_angle_alpha 90.000000
_cell_angle_beta 90.000000
_cell_angle_gamma 90.000000
_cell_volume 3176.579459
_symmetry_space_group_name_H-M "P M M N"
_symmetry_group_IT_number 59
_space_group.IT_coordinate_system_code '2'
_symmetry_cell_setting 'orthorhombic'
loop_
_space_group_symop_operation_xyz
x,y,z
1/2-x,1/2-y,z
1/2+x,-y,-z
-x,1/2+y,-z
-x,-y,-z
1/2+x,1/2+y,-z
1/2-x,y,z
x,1/2-y,z
loop_
_atom_site_type_symbol
_atom_site_label
_atom_site_fract_x
_atom_site_fract_y
_atom_site_fract_z
Si Si1 0.925860 0.672692 0.314684
Si Si2 0.424233 0.327101 0.089187
Si Si3 0.575057 0.585093 0.771264
Si Si4 0.076759 0.058216 0.799382
Si Si5 0.922121 0.566663 0.031791
Si Si6 0.925890 0.672449 0.632561
Si Si7 0.089364 0.168104 0.526123
O O1 0.750000 0.673075 0.319377
O O2 0.981853 0.750000 0.294820
O O3 0.981722 0.620445 0.251972
O O4 0.990361 0.648547 0.395831
O O5 0.250000 0.321716 0.093942
O O6 0.492822 0.250000 0.088834
O O7 0.483210 0.369467 0.159896
O O8 0.473600 0.366116 0.014238
O O9 0.750000 0.578188 0.773291
O O10 0.505375 0.510123 0.774271
O O11 0.517996 0.621207 0.696178
O O12 0.250000 0.046507 0.790624
O O13 0.034456 0.078466 0.883076
O O14 0.750000 0.554268 0.021767
O O15 0.000000 0.500000 0.000000
O O16 0.750000 0.672682 0.628834
O O17 0.981392 0.750000 0.651131
O O18 0.989827 0.647009 0.551795
O O19 0.250000 0.132819 0.526644
O O20 0.107996 0.250000 0.524695
#
# Coordination Sequence:
#
# PCOD8239525 Si02
#       7
#     8   8   8   8   8   8   8
#     4   8  14  26  44  65  89 117 150 188 228 266
#     4   9  17  29  47  70  90 111 146 190 228 258
#     4  10  18  29  46  67  93 123 150 181 222 269
#     4  10  20  31  46  68  93 120 149 183 224 271
#     4  10  19  32  49  67  89 119 150 183 223 270
#     4   8  13  22  40  66  90 114 151 194 226 255
#     4   7  10  19  37  61  88 115 144 184 230 265
#
# _framework density 17.629026
#
# number of rings (size 3 to 8) (size 9 to 14) (size 15 to 20)
#    0.000    3.143    1.429    2.143    0.000    2.286 
#    0.000    3.571    0.000    3.429    0.000    2.000 
#    0.000    3.429    0.000    0.000    0.000    0.000 
#
# Total GULP energy -693804.242351 kJ/mol
# GULP energy per Si atom -12389.361471 kJ/mol
# Density = 1.758890 g / cm^3
# Si number density = 17.629026 Si / 1000 Ang^3
#
#
#
# Elastic Constant Matrix: (Units=GPa)
#
#
# Indices 1 2 3 4 5 6 
#
# 1 9.6323 17.4012 20.9763 0.0000 0.0000 0.0000
# 2 17.4012 137.5650 99.2362 0.0000 0.0000 0.0000
# 3 20.9763 99.2362 201.4311 0.0000 0.0000 0.0000
# 4 0.0000 0.0000 0.0000 33.0629 0.0000 0.0000
# 5 0.0000 0.0000 0.0000 0.0000 10.7253 0.0000
# 6 0.0000 0.0000 0.0000 0.0000 0.0000 20.8448
#
#
#
# Elastic Compliance Matrix: (Units=1/GPa)
#
#
# Indices 1 2 3 4 5 6 
#
# 1 0.145250 -0.011576 -0.009423 0.000000 0.000000 0.000000
# 2 -0.011576 0.012200 -0.004805 0.000000 0.000000 0.000000
# 3 -0.009423 -0.004805 0.008313 0.000000 0.000000 0.000000
# 4 0.000000 0.000000 0.000000 0.030245 0.000000 0.000000
# 5 0.000000 0.000000 0.000000 0.000000 0.093238 0.000000
# 6 0.000000 0.000000 0.000000 0.000000 0.000000 0.047974
#
#
# Mechanical properties :
#
#
# Convention : Reuss Voigt Hill
#
# Bulk Modulus (GPa) = 8.75999 69.31732 39.03865
# Shear Modulus (GPa) = 11.71295 26.99423 19.35359
#
# Velocity S-wave (km/s) = 2.58042 3.91735 3.31694
# Velocity P-wave (km/s) = 3.72262 7.73732 6.07141
#
# Compressibility (1/GPa) = 0.11415544
#
# Stress axis : x y z
#
# Youngs Moduli (GPa) = 6.88468 81.96991 120.29620
#
# Poissons Ratio (x) = 0.94887 1.13353
# Poissons Ratio (y) = 0.07970 0.57799
# Poissons Ratio (z) = 0.06487 0.39384
#
# Static dielectric constant tensor:
#      x y z
#    x 2.669400 0.000000 0.000000 
#    y 0.000000 3.128440 0.000000 
#    z 0.000000 0.000000 3.897910 
# 
# 
# High freq. dielectric constant tensor:
#      x y z
#    x 1.610950 0.000000 0.000000 
#    y 0.000000 1.668190 0.000000 
#    z 0.000000 0.000000 1.708180 
# 
# From -- ./inp_files/27139.got.cif
#   From: 2010.03.12/outbox.cif.g09.slc.cpg/sg59_14_cif.got.tgz:27139.got - 2010.04.16 16:29:54.
