data_PCOD8239029
_publ_section_title
;
Structure prediction by ZEFSAII (Michael W. Deem and Ramdas Pophale) SiO2 
 PCOD8239029
Probable space group: P M M N
;
_chemical_formula_sum "Si O2"
_cell_formula_units_Z 56
_cell_length_a 8.669003
_cell_length_b 21.186158
_cell_length_c 16.087318
_cell_angle_alpha 90.000000
_cell_angle_beta 90.000000
_cell_angle_gamma 90.000000
_cell_volume 2954.642950
_symmetry_space_group_name_H-M "P M M N"
_symmetry_group_IT_number 59
_space_group.IT_coordinate_system_code '2'
_symmetry_cell_setting 'orthorhombic'
loop_
_space_group_symop_operation_xyz
x,y,z
1/2-x,1/2-y,z
1/2+x,-y,-z
-x,1/2+y,-z
-x,-y,-z
1/2+x,1/2+y,-z
1/2-x,y,z
x,1/2-y,z
loop_
_atom_site_type_symbol
_atom_site_label
_atom_site_fract_x
_atom_site_fract_y
_atom_site_fract_z
Si Si1 0.433865 0.500797 0.908614
Si Si2 0.930954 0.884166 0.189641
Si Si3 0.431360 0.873827 0.480146
Si Si4 0.430829 0.458034 0.651362
Si Si5 0.432980 0.750000 0.389439
Si Si6 0.567856 0.569588 0.756820
Si Si7 0.933346 0.750000 0.209386
Si Si8 0.931961 0.176786 0.341947
O O1 0.250000 0.505093 0.910132
O O2 0.501931 0.435385 0.871915
O O3 0.496496 0.555729 0.848160
O O4 0.500000 0.500000 0.000000
O O5 0.750000 0.886750 0.177933
O O6 0.972301 0.901251 0.284892
O O7 0.992281 0.814137 0.164890
O O8 0.250000 0.881928 0.468524
O O9 0.509695 0.936300 0.439650
O O10 0.496306 0.811751 0.435227
O O11 0.475554 0.863813 0.576172
O O12 0.250000 0.472301 0.646427
O O13 0.508977 0.521721 0.685344
O O14 0.250000 0.750000 0.391229
O O15 0.496711 0.750000 0.298866
O O16 0.750000 0.564988 0.763483
O O17 0.517136 0.640917 0.733465
O O18 0.750000 0.750000 0.217144
O O19 0.750000 0.175585 0.326989
O O20 0.987647 0.250000 0.348053
#
# Coordination Sequence:
#
# PCOD8239029 Si02
#       8
#     8   8   8   8   4   8   4   8
#     4  10  20  38  62  88 112 141 180 222 273 337
#     4   8  16  28  48  77 108 138 175 214 260 319
#     4  10  19  32  51  77 110 149 193 236 281 329
#     4  10  19  33  52  78 111 148 189 233 277 328
#     4  10  18  28  44  74 109 144 185 230 269 316
#     4  11  23  39  59  85 113 144 183 232 287 340
#     4  10  16  28  48  74 107 146 177 214 269 324
#     4  10  21  39  60  80 108 150 195 239 287 337
#
# _framework density 18.953220999999999
#
# number of rings (size 3 to 8) (size 9 to 14) (size 15 to 20)
#    0.000    2.143    2.143    3.000    0.000    1.429 
#    0.000    0.714    1.571    0.000    0.000    0.000 
#    0.000    0.000    0.000    0.000    0.000    0.000 
#
# Total GULP energy -693968.777658 kJ/mol
# GULP energy per Si atom -12392.299601 kJ/mol
# Density = 1.891008 g / cm^3
# Si number density = 18.953221 Si / 1000 Ang^3
#
#
#
# Elastic Constant Matrix: (Units=GPa)
#
#
# Indices 1 2 3 4 5 6 
#
# 1 75.5971 38.4725 41.4129 0.0000 0.0000 0.0000
# 2 38.4725 84.1566 54.2871 0.0000 0.0000 0.0000
# 3 41.4129 54.2871 116.7851 0.0000 0.0000 0.0000
# 4 0.0000 0.0000 0.0000 21.4202 0.0000 0.0000
# 5 0.0000 0.0000 0.0000 0.0000 28.3328 0.0000
# 6 0.0000 0.0000 0.0000 0.0000 0.0000 22.8260
#
#
#
# Elastic Compliance Matrix: (Units=1/GPa)
#
#
# Indices 1 2 3 4 5 6 
#
# 1 0.018301 -0.005970 -0.003714 0.000000 0.000000 0.000000
# 2 -0.005970 0.018919 -0.006678 0.000000 0.000000 0.000000
# 3 -0.003714 -0.006678 0.012984 0.000000 0.000000 0.000000
# 4 0.000000 0.000000 0.000000 0.046685 0.000000 0.000000
# 5 0.000000 0.000000 0.000000 0.000000 0.035295 0.000000
# 6 0.000000 0.000000 0.000000 0.000000 0.000000 0.043810
#
#
# Mechanical properties :
#
#
# Convention : Reuss Voigt Hill
#
# Bulk Modulus (GPa) = 57.20837 60.54265 58.87551
# Shear Modulus (GPa) = 23.30509 24.00689 23.65599
#
# Velocity S-wave (km/s) = 3.51039 3.56285 3.53671
# Velocity P-wave (km/s) = 6.83227 6.99555 6.91439
#
# Compressibility (1/GPa) = 0.01747996
#
# Stress axis : x y z
#
# Youngs Moduli (GPa) = 54.64114 52.85565 77.01838
#
# Poissons Ratio (x) = 0.31557 0.28608
# Poissons Ratio (y) = 0.32623 0.51429
# Poissons Ratio (z) = 0.20296 0.35294
#
# Static dielectric constant tensor:
#      x y z
#    x 3.280740 0.000000 0.000000 
#    y 0.000000 3.434010 0.000000 
#    z 0.000000 0.000000 3.383190 
# 
# 
# High freq. dielectric constant tensor:
#      x y z
#    x 1.722040 0.000000 0.000000 
#    y 0.000000 1.745280 0.000000 
#    z 0.000000 0.000000 1.713360 
# 
# From -- ./inp_files/21216.got.cif
#   From: 2010.03.12/outbox.cif.g09.slc.cpg/sg59_11_cif.got.tgz:21216.got - 2010.04.16 16:29:54.
