data_PCOD8239132
_publ_section_title
;
Structure prediction by ZEFSAII (Michael W. Deem and Ramdas Pophale) SiO2 
 PCOD8239132
Probable space group: P M M N
;
_chemical_formula_sum "Si O2"
_cell_formula_units_Z 64
_cell_length_a 23.417625
_cell_length_b 9.516502
_cell_length_c 19.142233
_cell_angle_alpha 90.000000
_cell_angle_beta 90.000000
_cell_angle_gamma 90.000000
_cell_volume 4265.920803
_symmetry_space_group_name_H-M "P M M N"
_symmetry_group_IT_number 59
_space_group.IT_coordinate_system_code '2'
_symmetry_cell_setting 'orthorhombic'
loop_
_space_group_symop_operation_xyz
x,y,z
1/2-x,1/2-y,z
1/2+x,-y,-z
-x,1/2+y,-z
-x,-y,-z
1/2+x,1/2+y,-z
1/2-x,y,z
x,1/2-y,z
loop_
_atom_site_type_symbol
_atom_site_label
_atom_site_fract_x
_atom_site_fract_y
_atom_site_fract_z
Si Si1 0.313810 0.916905 0.890919
Si Si2 0.914079 0.411728 0.012147
Si Si3 0.984828 0.587072 0.602536
Si Si4 0.507426 0.414850 0.246809
Si Si5 0.314475 0.411087 0.617585
Si Si6 0.580226 0.911320 0.470292
Si Si7 0.972032 0.911797 0.900704
Si Si8 0.363432 0.917289 0.744064
O O1 0.250000 0.973185 0.906805
O O2 0.315716 0.750000 0.890627
O O3 0.356980 0.971346 0.950759
O O4 0.333583 0.969765 0.815063
O O5 0.907145 0.250000 0.990237
O O6 0.965659 0.431046 0.066155
O O7 0.924579 0.500186 0.942087
O O8 0.001877 0.750000 0.598665
O O9 0.971158 0.547331 0.683267
O O10 0.930822 0.552297 0.552391
O O11 0.040315 0.503727 0.578608
O O12 0.512922 0.250000 0.233765
O O13 0.475595 0.474743 0.178174
O O14 0.571573 0.473509 0.255177
O O15 0.250000 0.441335 0.593213
O O16 0.322187 0.250000 0.642219
O O17 0.354335 0.442402 0.550048
O O18 0.329915 0.512185 0.680883
O O19 0.563817 0.750000 0.456221
O O20 0.952646 0.750000 0.902345
O O21 0.359828 0.750000 0.734671
#
# Coordination Sequence:
#
# PCOD8239132 Si02
#       8
#     8   8   8   8   8   8   8   8
#     4   9  16  26  42  62  83 109 141 175 205 235
#     4   9  16  27  41  59  81 105 136 170 200 239
#     4   9  16  27  44  62  81 104 135 171 207 245
#     4   9  15  25  43  64  84 107 133 167 207 244
#     4  10  20  31  40  55  85 119 144 168 202 242
#     4   9  17  28  41  59  81 108 138 169 205 243
#     4   9  16  27  42  59  82 108 133 164 207 248
#     4  10  17  28  44  63  84 109 145 176 197 232
#
# _framework density 15.002622000000001
#
# number of rings (size 3 to 8) (size 9 to 14) (size 15 to 20)
#    0.000    2.750    2.500    0.375    0.000    0.750 
#    0.000    1.875    0.000    1.125    0.000    0.875 
#    0.000    3.000    0.000    0.000    0.000    0.000 
#
# Total GULP energy -793251.118819 kJ/mol
# GULP energy per Si atom -12394.548732 kJ/mol
# Density = 1.496848 g / cm^3
# Si number density = 15.002622 Si / 1000 Ang^3
#
#
#
# Elastic Constant Matrix: (Units=GPa)
#
#
# Indices 1 2 3 4 5 6 
#
# 1 97.0752 27.7892 70.0725 0.0000 0.0000 0.0000
# 2 27.7892 33.3762 37.2098 0.0000 0.0000 0.0000
# 3 70.0725 37.2098 135.1494 0.0000 0.0000 0.0000
# 4 0.0000 0.0000 0.0000 19.7247 0.0000 0.0000
# 5 0.0000 0.0000 0.0000 0.0000 24.6868 0.0000
# 6 0.0000 0.0000 0.0000 0.0000 0.0000 14.6643
#
#
#
# Elastic Compliance Matrix: (Units=1/GPa)
#
#
# Indices 1 2 3 4 5 6 
#
# 1 0.017354 -0.006375 -0.007243 0.000000 0.000000 0.000000
# 2 -0.006375 0.045573 -0.009242 0.000000 0.000000 0.000000
# 3 -0.007243 -0.009242 0.013699 0.000000 0.000000 0.000000
# 4 0.000000 0.000000 0.000000 0.050698 0.000000 0.000000
# 5 0.000000 0.000000 0.000000 0.000000 0.040507 0.000000
# 6 0.000000 0.000000 0.000000 0.000000 0.000000 0.068193
#
#
# Mechanical properties :
#
#
# Convention : Reuss Voigt Hill
#
# Bulk Modulus (GPa) = 32.35509 59.52710 45.94110
# Shear Modulus (GPa) = 17.12061 20.51710 18.81886
#
# Velocity S-wave (km/s) = 3.38179 3.70208 3.54555
# Velocity P-wave (km/s) = 6.07139 7.61825 6.88838
#
# Compressibility (1/GPa) = 0.03090704
#
# Stress axis : x y z
#
# Youngs Moduli (GPa) = 57.62294 21.94294 72.99768
#
# Poissons Ratio (x) = 0.13988 0.52871
# Poissons Ratio (y) = 0.36732 0.67466
# Poissons Ratio (z) = 0.41735 0.20280
#
# Static dielectric constant tensor:
#      x y z
#    x 2.903550 0.000000 0.000000 
#    y 0.000000 2.734010 0.000000 
#    z 0.000000 0.000000 3.071420 
# 
# 
# High freq. dielectric constant tensor:
#      x y z
#    x 1.551250 0.000000 0.000000 
#    y 0.000000 1.553360 0.000000 
#    z 0.000000 0.000000 1.573890 
# 
# From -- ./inp_files/31081.got.cif
#   From: 2010.03.12/outbox.cif.g09.slc.cpg/sg59_16_cif.got.tgz:31081.got - 2010.04.16 16:29:54.
