data_PCOD8239111
_publ_section_title
;
Structure prediction by ZEFSAII (Michael W. Deem and Ramdas Pophale) SiO2 
 PCOD8239111
Probable space group: P M M N
;
_chemical_formula_sum "Si O2"
_cell_formula_units_Z 48
_cell_length_a 8.811372
_cell_length_b 21.495146
_cell_length_c 15.239888
_cell_angle_alpha 90.000000
_cell_angle_beta 90.000000
_cell_angle_gamma 90.000000
_cell_volume 2886.461116
_symmetry_space_group_name_H-M "P M M N"
_symmetry_group_IT_number 59
_space_group.IT_coordinate_system_code '2'
_symmetry_cell_setting 'orthorhombic'
loop_
_space_group_symop_operation_xyz
x,y,z
1/2-x,1/2-y,z
1/2+x,-y,-z
-x,1/2+y,-z
-x,-y,-z
1/2+x,1/2+y,-z
1/2-x,y,z
x,1/2-y,z
loop_
_atom_site_type_symbol
_atom_site_label
_atom_site_fract_x
_atom_site_fract_y
_atom_site_fract_z
Si Si1 0.070157 0.544701 0.800755
Si Si2 0.927738 0.593310 0.158279
Si Si3 0.571451 0.546551 0.619780
Si Si4 0.571309 0.411434 0.552728
Si Si5 0.428486 0.435313 0.027816
Si Si6 0.930199 0.821147 0.311776
O O1 0.250000 0.549302 0.798511
O O2 0.007194 0.474484 0.815326
O O3 0.002426 0.570130 0.710135
O O4 0.007582 0.587145 0.881762
O O5 0.750000 0.588913 0.173031
O O6 0.993306 0.646148 0.222795
O O7 0.962497 0.610163 0.055776
O O8 0.750000 0.556132 0.623605
O O9 0.526311 0.474623 0.603609
O O10 0.504221 0.589162 0.542916
O O11 0.750000 0.405219 0.541547
O O12 0.506537 0.352757 0.604524
O O13 0.250000 0.442690 0.043361
O O14 0.500000 0.500000 0.000000
O O15 0.750000 0.827261 0.320260
O O16 0.982800 0.750000 0.308236
#
# Coordination Sequence:
#
# PCOD8239111 Si02
#       6
#     8   8   8   8   8   8
#     4  10  17  27  44  66  94 123 151 188 234 286
#     4   8  15  27  42  62  90 122 153 190 228 269
#     4  10  19  30  47  69  93 124 157 192 238 293
#     4  10  20  32  46  67  94 124 156 196 241 286
#     4   9  16  26  40  61  90 121 153 187 227 275
#     4  10  19  32  50  69  92 126 164 197 231 276
#
# _framework density 16.629359000000001
#
# number of rings (size 3 to 8) (size 9 to 14) (size 15 to 20)
#    0.000    2.500    1.667    3.000    0.000    1.667 
#    0.000    0.833    0.000    0.000    0.000    1.167 
#    0.000    6.667    0.000    0.000    0.000    0.000 
#
# Total GULP energy -594950.059082 kJ/mol
# GULP energy per Si atom -12394.792898 kJ/mol
# Density = 1.659151 g / cm^3
# Si number density = 16.629359 Si / 1000 Ang^3
#
#
#
# Elastic Constant Matrix: (Units=GPa)
#
#
# Indices 1 2 3 4 5 6 
#
# 1 66.4681 25.3803 54.8733 0.0000 0.0000 0.0000
# 2 25.3803 55.9908 46.0737 0.0000 0.0000 0.0000
# 3 54.8733 46.0737 177.3585 0.0000 0.0000 0.0000
# 4 0.0000 0.0000 0.0000 18.0331 0.0000 0.0000
# 5 0.0000 0.0000 0.0000 0.0000 31.9698 0.0000
# 6 0.0000 0.0000 0.0000 0.0000 0.0000 14.8426
#
#
#
# Elastic Compliance Matrix: (Units=1/GPa)
#
#
# Indices 1 2 3 4 5 6 
#
# 1 0.021423 -0.005414 -0.005222 0.000000 0.000000 0.000000
# 2 -0.005414 0.024084 -0.004581 0.000000 0.000000 0.000000
# 3 -0.005222 -0.004581 0.008444 0.000000 0.000000 0.000000
# 4 0.000000 0.000000 0.000000 0.055454 0.000000 0.000000
# 5 0.000000 0.000000 0.000000 0.000000 0.031280 0.000000
# 6 0.000000 0.000000 0.000000 0.000000 0.000000 0.067374
#
#
# Mechanical properties :
#
#
# Convention : Reuss Voigt Hill
#
# Bulk Modulus (GPa) = 42.52287 61.38579 51.95433
# Shear Modulus (GPa) = 20.29787 24.53510 22.41648
#
# Velocity S-wave (km/s) = 3.49750 3.84527 3.67550
# Velocity P-wave (km/s) = 6.47584 7.53054 7.02302
#
# Compressibility (1/GPa) = 0.02351675
#
# Stress axis : x y z
#
# Youngs Moduli (GPa) = 46.67901 41.52087 118.42765
#
# Poissons Ratio (x) = 0.22480 0.61838
# Poissons Ratio (y) = 0.25273 0.54257
# Poissons Ratio (z) = 0.24374 0.19023
#
# Static dielectric constant tensor:
#      x y z
#    x 3.073410 0.000000 0.000000 
#    y 0.000000 2.771850 0.000000 
#    z 0.000000 0.000000 3.593420 
# 
# 
# High freq. dielectric constant tensor:
#      x y z
#    x 1.640420 0.000000 0.000000 
#    y 0.000000 1.571980 0.000000 
#    z 0.000000 0.000000 1.663200 
# 
# From -- ./inp_files/20727.got.cif
#   From: 2010.03.12/outbox.cif.g09.slc.cpg/sg59_11_cif.got.tgz:20727.got - 2010.04.16 16:29:54.
