data_PCOD8239724
_publ_section_title
;
Structure prediction by ZEFSAII (Michael W. Deem and Ramdas Pophale) SiO2 
 PCOD8239724
Probable space group: P M M N
;
_chemical_formula_sum "Si O2"
_cell_formula_units_Z 40
_cell_length_a 8.527997
_cell_length_b 25.661454
_cell_length_c 9.964926
_cell_angle_alpha 90.000000
_cell_angle_beta 90.000000
_cell_angle_gamma 90.000000
_cell_volume 2180.732405
_symmetry_space_group_name_H-M "P M M N"
_symmetry_group_IT_number 59
_space_group.IT_coordinate_system_code '2'
_symmetry_cell_setting 'orthorhombic'
loop_
_space_group_symop_operation_xyz
x,y,z
1/2-x,1/2-y,z
1/2+x,-y,-z
-x,1/2+y,-z
-x,-y,-z
1/2+x,1/2+y,-z
1/2-x,y,z
x,1/2-y,z
loop_
_atom_site_type_symbol
_atom_site_label
_atom_site_fract_x
_atom_site_fract_y
_atom_site_fract_z
Si Si1 0.932313 0.250000 0.639791
Si Si2 0.936814 0.861510 0.642853
Si Si3 0.933212 0.645072 0.339089
Si Si4 0.068607 0.250000 0.352244
Si Si5 0.934530 0.942702 0.859219
Si Si6 0.568272 0.437865 0.855993
O O1 0.750000 0.250000 0.601798
O O2 0.976523 0.196563 0.718083
O O3 0.045290 0.250000 0.511526
O O4 0.750000 0.861559 0.645235
O O5 0.994089 0.869189 0.489500
O O6 0.001476 0.805278 0.700881
O O7 0.000235 0.907790 0.736570
O O8 0.750000 0.656948 0.338529
O O9 0.967421 0.596530 0.244430
O O10 0.250000 0.250000 0.317651
O O11 0.750000 0.935209 0.883110
O O12 0.975072 0.002262 0.824835
O O13 0.024039 0.923968 0.991771
O O14 0.750000 0.426399 0.832135
#
# Coordination Sequence:
#
# PCOD8239724 Si02
#       6
#     4   8   8   4   8   8
#     4  10  18  30  49  74 103 130 158 196 242 290
#     4   8  15  29  51  75  96 124 164 205 242 292
#     4  10  19  33  53  75  99 129 164 201 245 296
#     4   8  14  28  49  72  99 128 158 194 242 296
#     4   9  18  34  52  69  96 134 171 208 253 301
#     4  10  20  33  49  71  99 132 169 209 253 298
#
# _framework density 18.342461
#
# number of rings (size 3 to 8) (size 9 to 14) (size 15 to 20)
#    0.000    2.800    0.000    3.300    0.000    1.600 
#    0.000    6.000    0.000    2.400    0.000    0.000 
#    0.000    0.000    0.000    0.000    0.000    0.000 
#
# Total GULP energy -495689.434341 kJ/mol
# GULP energy per Si atom -12392.235859 kJ/mol
# Density = 1.830071 g / cm^3
# Si number density = 18.342461 Si / 1000 Ang^3
#
#
#
# Elastic Constant Matrix: (Units=GPa)
#
#
# Indices 1 2 3 4 5 6 
#
# 1 38.6351 25.8392 22.1385 0.0000 0.0000 0.0000
# 2 25.8392 138.1129 76.0600 0.0000 0.0000 0.0000
# 3 22.1385 76.0600 84.3172 0.0000 0.0000 0.0000
# 4 0.0000 0.0000 0.0000 10.7251 0.0000 0.0000
# 5 0.0000 0.0000 0.0000 0.0000 19.7899 0.0000
# 6 0.0000 0.0000 0.0000 0.0000 0.0000 24.9625
#
#
#
# Elastic Compliance Matrix: (Units=1/GPa)
#
#
# Indices 1 2 3 4 5 6 
#
# 1 0.030934 -0.002612 -0.005766 0.000000 0.000000 0.000000
# 2 -0.002612 0.014609 -0.012492 0.000000 0.000000 0.000000
# 3 -0.005766 -0.012492 0.024643 0.000000 0.000000 0.000000
# 4 0.000000 0.000000 0.000000 0.093240 0.000000 0.000000
# 5 0.000000 0.000000 0.000000 0.000000 0.050531 0.000000
# 6 0.000000 0.000000 0.000000 0.000000 0.000000 0.040060
#
#
# Mechanical properties :
#
#
# Convention : Reuss Voigt Hill
#
# Bulk Modulus (GPa) = 35.15534 56.57119 45.86326
# Shear Modulus (GPa) = 16.38064 20.23065 18.30565
#
# Velocity S-wave (km/s) = 2.99163 3.32466 3.16253
# Velocity P-wave (km/s) = 5.58040 6.75621 6.19626
#
# Compressibility (1/GPa) = 0.02844518
#
# Stress axis : x y z
#
# Youngs Moduli (GPa) = 32.32684 68.45207 40.57982
#
# Poissons Ratio (x) = 0.17880 0.23398
# Poissons Ratio (y) = 0.08444 0.50694
# Poissons Ratio (z) = 0.18639 0.85512
#
# Static dielectric constant tensor:
#      x y z
#    x 3.121640 0.000000 0.000000 
#    y 0.000000 3.881040 0.000000 
#    z 0.000000 0.000000 3.236640 
# 
# 
# High freq. dielectric constant tensor:
#      x y z
#    x 1.693530 0.000000 0.000000 
#    y 0.000000 1.729370 0.000000 
#    z 0.000000 0.000000 1.679430 
# 
# From -- ./inp_files/5899.got.cif
#   From: 2010.03.12/outbox.cif.g09.slc.cpg/sg59_3_cif.got.tgz:5899.got - 2010.04.16 16:29:54.
