data_PCOD8239245
_publ_section_title
;
Structure prediction by ZEFSAII (Michael W. Deem and Ramdas Pophale) SiO2 
 PCOD8239245
Probable space group: P M M N
;
_chemical_formula_sum "Si O2"
_cell_formula_units_Z 64
_cell_length_a 9.120673
_cell_length_b 18.524570
_cell_length_c 25.990285
_cell_angle_alpha 90.000000
_cell_angle_beta 90.000000
_cell_angle_gamma 90.000000
_cell_volume 4391.228768
_symmetry_space_group_name_H-M "P M M N"
_symmetry_group_IT_number 59
_space_group.IT_coordinate_system_code '2'
_symmetry_cell_setting 'orthorhombic'
loop_
_space_group_symop_operation_xyz
x,y,z
1/2-x,1/2-y,z
1/2+x,-y,-z
-x,1/2+y,-z
-x,-y,-z
1/2+x,1/2+y,-z
1/2-x,y,z
x,1/2-y,z
loop_
_atom_site_type_symbol
_atom_site_label
_atom_site_fract_x
_atom_site_fract_y
_atom_site_fract_z
Si Si1 0.581477 0.041931 0.044430
Si Si2 0.577482 0.095657 0.606738
Si Si3 0.083058 0.095200 0.897033
Si Si4 0.920545 0.668724 0.488825
Si Si5 0.917168 0.535146 0.546033
Si Si6 0.921690 0.666550 0.299001
Si Si7 0.079564 0.833078 0.194269
Si Si8 0.921274 0.832386 0.994735
O O1 0.750000 0.052303 0.029065
O O2 0.506272 0.120829 0.048999
O O3 0.567493 0.991697 0.095198
O O4 0.500000 0.000000 0.000000
O O5 0.750000 0.111289 0.613087
O O6 0.517974 0.141634 0.558652
O O7 0.494328 0.117133 0.658039
O O8 0.543532 0.009117 0.598188
O O9 0.250000 0.115045 0.881772
O O10 0.973283 0.117513 0.852361
O O11 0.039119 0.138400 0.948608
O O12 0.750000 0.664025 0.472115
O O13 0.966200 0.750000 0.502719
O O14 0.948620 0.621422 0.541498
O O15 0.750000 0.519099 0.534166
O O16 0.000000 0.500000 0.500000
O O17 0.750000 0.650789 0.296825
O O18 0.954792 0.750000 0.311864
O O19 0.991057 0.644206 0.244814
O O20 0.250000 0.847200 0.204503
O O21 0.048197 0.750000 0.180081
O O22 0.750000 0.840538 0.983893
O O23 0.973734 0.750000 0.990101
#
# Coordination Sequence:
#
# PCOD8239245 Si02
#       8
#     8   8   8   8   8   8   8   8
#     4   9  17  28  41  58  81 109 140 172 204 240
#     4  10  18  27  40  57  79 105 132 164 199 233
#     4   9  17  29  43  58  80 111 141 167 200 242
#     4   9  16  26  40  57  78 105 136 164 190 228
#     4   8  15  26  38  54  76 102 130 160 194 229
#     4  10  20  32  44  57  76 104 135 165 197 234
#     4  10  20  31  43  61  82 103 132 170 205 236
#     4   9  17  28  42  61  85 112 141 172 205 241
#
# _framework density 14.574509000000001
#
# number of rings (size 3 to 8) (size 9 to 14) (size 15 to 20)
#    0.000    2.750    0.000    3.000    0.000    7.000 
#    0.000    0.000    0.000    0.000    0.000    0.000 
#    0.000    1.000    0.000    5.250    0.000    2.625 
#
# Total GULP energy -792977.283605 kJ/mol
# GULP energy per Si atom -12390.270056 kJ/mol
# Density = 1.454134 g / cm^3
# Si number density = 14.574509 Si / 1000 Ang^3
#
#
#
# Elastic Constant Matrix: (Units=GPa)
#
#
# Indices 1 2 3 4 5 6 
#
# 1 72.6746 45.1208 41.8183 0.0000 0.0000 0.0000
# 2 45.1208 111.9766 49.8934 0.0000 0.0000 0.0000
# 3 41.8183 49.8934 67.0147 0.0000 0.0000 0.0000
# 4 0.0000 0.0000 0.0000 23.0182 0.0000 0.0000
# 5 0.0000 0.0000 0.0000 0.0000 23.7532 0.0000
# 6 0.0000 0.0000 0.0000 0.0000 0.0000 22.5217
#
#
#
# Elastic Compliance Matrix: (Units=1/GPa)
#
#
# Indices 1 2 3 4 5 6 
#
# 1 0.022745 -0.004251 -0.011028 0.000000 0.000000 0.000000
# 2 -0.004251 0.014158 -0.007888 0.000000 0.000000 0.000000
# 3 -0.011028 -0.007888 0.027677 0.000000 0.000000 0.000000
# 4 0.000000 0.000000 0.000000 0.043444 0.000000 0.000000
# 5 0.000000 0.000000 0.000000 0.000000 0.042100 0.000000
# 6 0.000000 0.000000 0.000000 0.000000 0.000000 0.044402
#
#
# Mechanical properties :
#
#
# Convention : Reuss Voigt Hill
#
# Bulk Modulus (GPa) = 54.80998 58.37009 56.59003
# Shear Modulus (GPa) = 20.24764 21.51419 20.88092
#
# Velocity S-wave (km/s) = 3.73131 3.84624 3.78921
# Velocity P-wave (km/s) = 7.50013 7.73700 7.61948
#
# Compressibility (1/GPa) = 0.01824485
#
# Stress axis : x y z
#
# Youngs Moduli (GPa) = 43.96501 70.63045 36.13140
#
# Poissons Ratio (x) = 0.30027 0.39847
# Poissons Ratio (y) = 0.18691 0.28501
# Poissons Ratio (z) = 0.48486 0.55714
#
# Static dielectric constant tensor:
#      x y z
#    x 2.966560 0.000000 0.000000 
#    y 0.000000 3.482070 0.000000 
#    z 0.000000 0.000000 2.748510 
# 
# 
# High freq. dielectric constant tensor:
#      x y z
#    x 1.571780 0.000000 0.000000 
#    y 0.000000 1.552720 0.000000 
#    z 0.000000 0.000000 1.517740 
# 
# From -- ./inp_files/31710.got.cif
#   From: 2010.03.12/outbox.cif.g09.slc.cpg/sg59_16_cif.got.tgz:31710.got - 2010.04.16 16:29:54.
