data_PCOD8239983
_publ_section_title
;
Structure prediction by ZEFSAII (Michael W. Deem and Ramdas Pophale) SiO2 
 PCOD8239983
Probable space group: P M M N
;
_chemical_formula_sum "Si O2"
_cell_formula_units_Z 48
_cell_length_a 23.382991
_cell_length_b 9.516728
_cell_length_c 12.470162
_cell_angle_alpha 90.000000
_cell_angle_beta 90.000000
_cell_angle_gamma 90.000000
_cell_volume 2774.979728
_symmetry_space_group_name_H-M "P M M N"
_symmetry_group_IT_number 59
_space_group.IT_coordinate_system_code '2'
_symmetry_cell_setting 'orthorhombic'
loop_
_space_group_symop_operation_xyz
x,y,z
1/2-x,1/2-y,z
1/2+x,-y,-z
-x,1/2+y,-z
-x,-y,-z
1/2+x,1/2+y,-z
1/2-x,y,z
x,1/2-y,z
loop_
_atom_site_type_symbol
_atom_site_label
_atom_site_fract_x
_atom_site_fract_y
_atom_site_fract_z
Si Si1 0.508840 0.596076 0.399823
Si Si2 0.686333 0.416139 0.502688
Si Si3 0.887350 0.093976 0.702992
Si Si4 0.567242 0.913390 0.888142
Si Si5 0.603627 0.408899 0.315605
Si Si6 0.935735 0.406806 0.091662
O O1 0.500000 0.500000 0.500000
O O2 0.531388 0.750000 0.434652
O O3 0.450742 0.613715 0.337695
O O4 0.554216 0.521648 0.325458
O O5 0.750000 0.481865 0.503787
O O6 0.689380 0.250000 0.510717
O O7 0.651353 0.471486 0.606602
O O8 0.657072 0.457950 0.388814
O O9 0.864565 0.250000 0.737479
O O10 0.890357 0.987370 0.802626
O O11 0.583403 0.750000 0.889793
O O12 0.499954 0.937004 0.862547
O O13 0.581777 0.979414 0.003741
O O14 0.585432 0.250000 0.351379
O O15 0.612237 0.411430 0.186666
O O16 0.935926 0.250000 0.040260
#
# Coordination Sequence:
#
# PCOD8239983 Si02
#       6
#     8   8   8   8   8   8
#     4  11  20  29  45  72 103 133 163 198 246 304
#     4   9  18  33  53  75  98 128 167 210 253 294
#     4  10  19  31  49  72 101 132 164 202 247 295
#     4  10  19  30  47  71 102 135 167 199 240 296
#     4  10  18  32  51  74 102 131 164 203 249 298
#     4   9  18  30  46  70 103 135 164 199 241 295
#
# _framework density 17.297422999999998
#
# number of rings (size 3 to 8) (size 9 to 14) (size 15 to 20)
#    0.000    2.167    3.333    1.000    0.000    2.000 
#    0.000    0.000    0.000    3.000    0.000    4.667 
#    0.000    0.000    0.000    0.000    0.000    0.000 
#
# Total GULP energy -594707.792423 kJ/mol
# GULP energy per Si atom -12389.745675 kJ/mol
# Density = 1.725805 g / cm^3
# Si number density = 17.297423 Si / 1000 Ang^3
#
#
#
# Elastic Constant Matrix: (Units=GPa)
#
#
# Indices 1 2 3 4 5 6 
#
# 1 81.0814 27.9298 46.8703 0.0000 0.0000 0.0000
# 2 27.9298 97.5951 56.2897 0.0000 0.0000 0.0000
# 3 46.8703 56.2897 119.2318 0.0000 0.0000 0.0000
# 4 0.0000 0.0000 0.0000 25.3499 0.0000 0.0000
# 5 0.0000 0.0000 0.0000 0.0000 11.4240 0.0000
# 6 0.0000 0.0000 0.0000 0.0000 0.0000 11.9379
#
#
#
# Elastic Compliance Matrix: (Units=1/GPa)
#
#
# Indices 1 2 3 4 5 6 
#
# 1 0.016082 -0.001314 -0.005701 0.000000 0.000000 0.000000
# 2 -0.001314 0.014188 -0.006182 0.000000 0.000000 0.000000
# 3 -0.005701 -0.006182 0.013547 0.000000 0.000000 0.000000
# 4 0.000000 0.000000 0.000000 0.039448 0.000000 0.000000
# 5 0.000000 0.000000 0.000000 0.000000 0.087535 0.000000
# 6 0.000000 0.000000 0.000000 0.000000 0.000000 0.083767
#
#
# Mechanical properties :
#
#
# Convention : Reuss Voigt Hill
#
# Bulk Modulus (GPa) = 57.39791 62.23199 59.81495
# Shear Modulus (GPa) = 17.43576 20.86360 19.14968
#
# Velocity S-wave (km/s) = 3.17834 3.47676 3.33089
# Velocity P-wave (km/s) = 6.83550 7.22308 7.03196
#
# Compressibility (1/GPa) = 0.01742224
#
# Stress axis : x y z
#
# Youngs Moduli (GPa) = 62.18255 70.48329 73.81900
#
# Poissons Ratio (x) = 0.09260 0.42088
# Poissons Ratio (y) = 0.08170 0.45632
# Poissons Ratio (z) = 0.35453 0.43570
#
# Static dielectric constant tensor:
#      x y z
#    x 14.192150 0.000000 0.000000 
#    y 0.000000 3.180520 0.000000 
#    z 0.000000 0.000000 3.440500 
# 
# 
# High freq. dielectric constant tensor:
#      x y z
#    x 1.617350 0.000000 0.000000 
#    y 0.000000 1.662260 0.000000 
#    z 0.000000 0.000000 1.672260 
# 
# From -- ./inp_files/14316.got.cif
#   From: 2010.03.12/outbox.cif.g09.slc.cpg/sg59_8_cif.got.tgz:14316.got - 2010.04.16 16:29:54.
