data_PCOD8239445
_publ_section_title
;
Structure prediction by ZEFSAII (Michael W. Deem and Ramdas Pophale) SiO2 
 PCOD8239445
Probable space group: P M M N
;
_chemical_formula_sum "Si O2"
_cell_formula_units_Z 64
_cell_length_a 9.153329
_cell_length_b 23.443643
_cell_length_c 16.528204
_cell_angle_alpha 90.000000
_cell_angle_beta 90.000000
_cell_angle_gamma 90.000000
_cell_volume 3546.743948
_symmetry_space_group_name_H-M "P M M N"
_symmetry_group_IT_number 59
_space_group.IT_coordinate_system_code '2'
_symmetry_cell_setting 'orthorhombic'
loop_
_space_group_symop_operation_xyz
x,y,z
1/2-x,1/2-y,z
1/2+x,-y,-z
-x,1/2+y,-z
-x,-y,-z
1/2+x,1/2+y,-z
1/2-x,y,z
x,1/2-y,z
loop_
_atom_site_type_symbol
_atom_site_label
_atom_site_fract_x
_atom_site_fract_y
_atom_site_fract_z
Si Si1 0.411199 0.685636 0.662318
Si Si2 0.077102 0.684214 0.393584
Si Si3 0.916484 0.926871 0.940681
Si Si4 0.582153 0.440732 0.902087
Si Si5 0.086993 0.596484 0.790826
Si Si6 0.078777 0.025936 0.343002
Si Si7 0.421252 0.590626 0.273979
Si Si8 0.919738 0.880617 0.536027
O O1 0.250000 0.678332 0.620149
O O2 0.451979 0.750000 0.676732
O O3 0.405846 0.657891 0.749938
O O4 0.542386 0.660638 0.609789
O O5 0.250000 0.685313 0.405422
O O6 0.017204 0.750000 0.395920
O O7 0.033953 0.653063 0.308817
O O8 0.011880 0.642183 0.460817
O O9 0.750000 0.907133 0.944564
O O10 0.001848 0.891349 0.873443
O O11 0.932614 0.991827 0.911858
O O12 0.986936 0.912407 0.027316
O O13 0.750000 0.421292 0.911447
O O14 0.513090 0.420812 0.815582
O O15 0.250000 0.572706 0.808711
O O16 0.007070 0.552815 0.731467
O O17 0.250000 0.035824 0.326688
O O18 0.038198 0.055371 0.430203
O O19 0.035418 0.958748 0.339820
O O20 0.250000 0.587022 0.261825
O O21 0.750000 0.876698 0.513230
#
# Coordination Sequence:
#
# PCOD8239445 Si02
#       8
#     8   8   8   8   8   8   8   8
#     4   9  18  32  49  69  95 129 167 204 242 285
#     4  10  21  36  54  73  94 127 171 211 244 283
#     4  10  18  29  47  72 102 132 160 193 239 294
#     4   9  17  30  49  71  95 127 163 198 239 288
#     4  10  18  28  46  72 101 130 161 200 240 286
#     4   9  17  32  50  71  99 131 160 193 246 301
#     4   9  17  33  54  72  96 129 163 202 246 292
#     4  10  20  32  50  74 100 127 160 202 248 297
#
# _framework density 18.044719000000001
#
# number of rings (size 3 to 8) (size 9 to 14) (size 15 to 20)
#    0.000    2.500    1.250    1.500    0.000    4.000 
#    0.000    1.250    0.000    0.750    0.000    3.500 
#    0.000    0.000    0.000    0.000    0.000    0.000 
#
# Total GULP energy -792926.804026 kJ/mol
# GULP energy per Si atom -12389.481313 kJ/mol
# Density = 1.800365 g / cm^3
# Si number density = 18.044719 Si / 1000 Ang^3
#
#
#
# Elastic Constant Matrix: (Units=GPa)
#
#
# Indices 1 2 3 4 5 6 
#
# 1 54.0950 19.4308 31.9659 0.0000 0.0000 0.0000
# 2 19.4308 73.4835 43.5246 0.0000 0.0000 0.0000
# 3 31.9659 43.5246 116.3079 0.0000 0.0000 0.0000
# 4 0.0000 0.0000 0.0000 14.7093 0.0000 0.0000
# 5 0.0000 0.0000 0.0000 0.0000 27.7483 0.0000
# 6 0.0000 0.0000 0.0000 0.0000 0.0000 16.6111
#
#
#
# Elastic Compliance Matrix: (Units=1/GPa)
#
#
# Indices 1 2 3 4 5 6 
#
# 1 0.022556 -0.002945 -0.005097 0.000000 0.000000 0.000000
# 2 -0.002945 0.017868 -0.005877 0.000000 0.000000 0.000000
# 3 -0.005097 -0.005877 0.012198 0.000000 0.000000 0.000000
# 4 0.000000 0.000000 0.000000 0.067984 0.000000 0.000000
# 5 0.000000 0.000000 0.000000 0.000000 0.036038 0.000000
# 6 0.000000 0.000000 0.000000 0.000000 0.000000 0.060201
#
#
# Mechanical properties :
#
#
# Convention : Reuss Voigt Hill
#
# Bulk Modulus (GPa) = 40.34982 48.19212 44.27097
# Shear Modulus (GPa) = 19.76708 21.74475 20.75591
#
# Velocity S-wave (km/s) = 3.31335 3.47515 3.39521
# Velocity P-wave (km/s) = 6.08665 6.54731 6.32117
#
# Compressibility (1/GPa) = 0.02478326
#
# Stress axis : x y z
#
# Youngs Moduli (GPa) = 44.33433 55.96470 81.98010
#
# Poissons Ratio (x) = 0.16483 0.41786
# Poissons Ratio (y) = 0.13058 0.48181
# Poissons Ratio (z) = 0.22597 0.32892
#
# Static dielectric constant tensor:
#      x y z
#    x 3.320210 0.000000 0.000000 
#    y 0.000000 3.321140 0.000000 
#    z 0.000000 0.000000 3.442630 
# 
# 
# High freq. dielectric constant tensor:
#      x y z
#    x 1.689710 0.000000 0.000000 
#    y 0.000000 1.672570 0.000000 
#    z 0.000000 0.000000 1.696710 
# 
# From -- ./inp_files/26460.got.cif
#   From: 2010.03.12/outbox.cif.g09.slc.cpg/sg59_14_cif.got.tgz:26460.got - 2010.04.16 16:29:54.
