data_PCOD8239216
_publ_section_title
;
Structure prediction by ZEFSAII (Michael W. Deem and Ramdas Pophale) SiO2 
 PCOD8239216
Probable space group: P M M N
;
_chemical_formula_sum "Si O2"
_cell_formula_units_Z 64
_cell_length_a 25.081554
_cell_length_b 9.202211
_cell_length_c 18.488095
_cell_angle_alpha 90.000000
_cell_angle_beta 90.000000
_cell_angle_gamma 90.000000
_cell_volume 4267.158672
_symmetry_space_group_name_H-M "P M M N"
_symmetry_group_IT_number 59
_space_group.IT_coordinate_system_code '2'
_symmetry_cell_setting 'orthorhombic'
loop_
_space_group_symop_operation_xyz
x,y,z
1/2-x,1/2-y,z
1/2+x,-y,-z
-x,1/2+y,-z
-x,-y,-z
1/2+x,1/2+y,-z
1/2-x,y,z
x,1/2-y,z
loop_
_atom_site_type_symbol
_atom_site_label
_atom_site_fract_x
_atom_site_fract_y
_atom_site_fract_z
Si Si1 0.076519 0.085796 0.534812
Si Si2 0.005107 0.081925 0.273209
Si Si3 0.996317 0.919866 0.890663
Si Si4 0.919497 0.920698 0.016891
Si Si5 0.307919 0.077892 0.932731
Si Si6 0.688501 0.586194 0.231133
Si Si7 0.388714 0.918768 0.668084
Si Si8 0.457671 0.586058 0.404375
O O1 0.097311 0.250000 0.525039
O O2 0.016507 0.084679 0.563181
O O3 0.113568 0.002787 0.591991
O O4 0.080644 0.004122 0.457876
O O5 0.019299 0.250000 0.285893
O O6 0.016674 0.032884 0.191063
O O7 0.943541 0.051166 0.290000
O O8 0.042869 0.987911 0.325448
O O9 0.009641 0.750000 0.894769
O O10 0.944835 0.960664 0.939301
O O11 0.048247 0.003121 0.918763
O O12 0.922539 0.750000 0.032225
O O13 0.857733 0.975320 0.018014
O O14 0.250000 0.014717 0.959245
O O15 0.303786 0.250000 0.934663
O O16 0.318981 0.029144 0.850593
O O17 0.750000 0.584800 0.253265
O O18 0.665415 0.750000 0.239655
O O19 0.658735 0.474994 0.282664
O O20 0.380728 0.750000 0.651451
O O21 0.436028 0.750000 0.397328
#
# Coordination Sequence:
#
# PCOD8239216 Si02
#       8
#     8   8   8   8   8   8   8   8
#     4   9  16  26  39  54  75 102 127 152 187 226
#     4   9  17  27  37  52  77 106 131 157 194 236
#     4   9  17  27  38  55  80 107 133 163 200 242
#     4   9  16  26  41  58  76 102 135 167 200 240
#     4   8  14  25  41  59  77  99 131 170 205 236
#     4   9  17  28  40  54  74 100 129 162 199 234
#     4  10  18  26  38  55  75 101 132 162 190 226
#     4   9  16  25  38  56  76  98 127 160 187 217
#
# _framework density 14.998271000000001
#
# number of rings (size 3 to 8) (size 9 to 14) (size 15 to 20)
#    0.000    3.000    0.000    2.625    0.000    4.250 
#    0.000    0.000    0.000    1.125    0.000    0.000 
#    0.000    1.000    0.000    7.500    0.000    1.875 
#
# Total GULP energy -793366.528567 kJ/mol
# GULP energy per Si atom -12396.352009 kJ/mol
# Density = 1.496413 g / cm^3
# Si number density = 14.998271 Si / 1000 Ang^3
#
#
#
# Elastic Constant Matrix: (Units=GPa)
#
#
# Indices 1 2 3 4 5 6 
#
# 1 74.1236 27.0493 43.3286 0.0000 0.0000 0.0000
# 2 27.0493 70.2497 45.4441 0.0000 0.0000 0.0000
# 3 43.3286 45.4441 109.3934 0.0000 0.0000 0.0000
# 4 0.0000 0.0000 0.0000 21.7532 0.0000 0.0000
# 5 0.0000 0.0000 0.0000 0.0000 15.5452 0.0000
# 6 0.0000 0.0000 0.0000 0.0000 0.0000 16.5852
#
#
#
# Elastic Compliance Matrix: (Units=1/GPa)
#
#
# Indices 1 2 3 4 5 6 
#
# 1 0.018061 -0.003182 -0.005832 0.000000 0.000000 0.000000
# 2 -0.003182 0.020027 -0.007059 0.000000 0.000000 0.000000
# 3 -0.005832 -0.007059 0.014384 0.000000 0.000000 0.000000
# 4 0.000000 0.000000 0.000000 0.045970 0.000000 0.000000
# 5 0.000000 0.000000 0.000000 0.000000 0.064328 0.000000
# 6 0.000000 0.000000 0.000000 0.000000 0.000000 0.060295
#
#
# Mechanical properties :
#
#
# Convention : Reuss Voigt Hill
#
# Bulk Modulus (GPa) = 49.19861 53.93452 51.56657
# Shear Modulus (GPa) = 19.08500 19.97303 19.52902
#
# Velocity S-wave (km/s) = 3.57105 3.65319 3.61236
# Velocity P-wave (km/s) = 7.06239 7.33709 7.20105
#
# Compressibility (1/GPa) = 0.02032578
#
# Stress axis : x y z
#
# Youngs Moduli (GPa) = 55.36773 49.93354 69.52289
#
# Poissons Ratio (x) = 0.15887 0.40545
# Poissons Ratio (y) = 0.17616 0.49078
# Poissons Ratio (z) = 0.32290 0.35249
#
# Static dielectric constant tensor:
#      x y z
#    x 2.829600 0.000000 0.000000 
#    y 0.000000 2.890040 0.000000 
#    z 0.000000 0.000000 2.939560 
# 
# 
# High freq. dielectric constant tensor:
#      x y z
#    x 1.534340 0.000000 0.000000 
#    y 0.000000 1.572870 0.000000 
#    z 0.000000 0.000000 1.567170 
# 
# From -- ./inp_files/28484.got.cif
#   From: 2010.03.12/outbox.cif.g09.slc.cpg/sg59_15_cif.got.tgz:28484.got - 2010.04.16 16:29:54.
