data_PCOD8239023
_publ_section_title
;
Structure prediction by ZEFSAII (Michael W. Deem and Ramdas Pophale) SiO2 
 PCOD8239023
Probable space group: P M M N
;
_chemical_formula_sum "Si O2"
_cell_formula_units_Z 56
_cell_length_a 28.530815
_cell_length_b 8.738658
_cell_length_c 13.671777
_cell_angle_alpha 90.000000
_cell_angle_beta 90.000000
_cell_angle_gamma 90.000000
_cell_volume 3408.661588
_symmetry_space_group_name_H-M "P M M N"
_symmetry_group_IT_number 59
_space_group.IT_coordinate_system_code '2'
_symmetry_cell_setting 'orthorhombic'
loop_
_space_group_symop_operation_xyz
x,y,z
1/2-x,1/2-y,z
1/2+x,-y,-z
-x,1/2+y,-z
-x,-y,-z
1/2+x,1/2+y,-z
1/2-x,y,z
x,1/2-y,z
loop_
_atom_site_type_symbol
_atom_site_label
_atom_site_fract_x
_atom_site_fract_y
_atom_site_fract_z
Si Si1 0.054576 0.071848 0.393444
Si Si2 0.698814 0.931651 0.731314
Si Si3 0.698510 0.931504 0.511508
Si Si4 0.517165 0.069278 0.899524
Si Si5 0.397612 0.068631 0.197449
Si Si6 0.464706 0.571012 0.717981
Si Si7 0.104752 0.068062 0.583657
O O1 0.064289 0.250000 0.401226
O O2 0.084841 0.010242 0.302851
O O3 0.072764 0.001075 0.494925
O O4 0.000261 0.034425 0.371860
O O5 0.750000 0.989037 0.769349
O O6 0.698481 0.750000 0.724881
O O7 0.689769 0.995293 0.621418
O O8 0.657370 0.981780 0.806313
O O9 0.750000 0.985585 0.474027
O O10 0.696341 0.750000 0.516351
O O11 0.658083 0.988049 0.437030
O O12 0.515351 0.250000 0.904568
O O13 0.571072 0.015812 0.883713
O O14 0.482200 0.012511 0.815071
O O15 0.500000 0.000000 0.000000
O O16 0.404656 0.250000 0.183621
O O17 0.462352 0.750000 0.741477
O O18 0.414019 0.508320 0.683905
O O19 0.101373 0.250000 0.595067
#
# Coordination Sequence:
#
# PCOD8239023 Si02
#       7
#     8   8   8   8   8   8   8
#     4   8  14  24  39  60  90 124 155 187 222 257
#     4   8  12  20  39  67  97 129 163 195 225 260
#     4   8  13  21  37  63  93 126 164 201 230 257
#     4  11  22  37  54  71  90 115 149 190 239 291
#     4   9  15  27  46  70  98 127 158 193 230 270
#     4  10  20  32  45  65  92 120 152 189 230 276
#     4  10  16  25  42  64  92 126 162 195 225 261
#
# _framework density 16.428737000000002
#
# number of rings (size 3 to 8) (size 9 to 14) (size 15 to 20)
#    0.000    2.857    1.429    3.857    0.000    0.000 
#    0.000    2.857    0.000    0.857    0.000    3.000 
#    0.000    8.000    0.000    0.000    0.000    0.000 
#
# Total GULP energy -693767.320533 kJ/mol
# GULP energy per Si atom -12388.702152 kJ/mol
# Density = 1.639134 g / cm^3
# Si number density = 16.428737 Si / 1000 Ang^3
#
#
#
# Elastic Constant Matrix: (Units=GPa)
#
#
# Indices 1 2 3 4 5 6 
#
# 1 148.5657 41.3049 62.8672 0.0000 0.0000 0.0000
# 2 41.3049 58.8557 32.1238 0.0000 0.0000 0.0000
# 3 62.8672 32.1238 69.3418 0.0000 0.0000 0.0000
# 4 0.0000 0.0000 0.0000 17.4207 0.0000 0.0000
# 5 0.0000 0.0000 0.0000 0.0000 18.1067 0.0000
# 6 0.0000 0.0000 0.0000 0.0000 0.0000 16.8873
#
#
#
# Elastic Compliance Matrix: (Units=1/GPa)
#
#
# Indices 1 2 3 4 5 6 
#
# 1 0.011339 -0.003141 -0.008825 0.000000 0.000000 0.000000
# 2 -0.003141 0.023611 -0.008091 0.000000 0.000000 0.000000
# 3 -0.008825 -0.008091 0.026170 0.000000 0.000000 0.000000
# 4 0.000000 0.000000 0.000000 0.057403 0.000000 0.000000
# 5 0.000000 0.000000 0.000000 0.000000 0.055228 0.000000
# 6 0.000000 0.000000 0.000000 0.000000 0.000000 0.059216
#
#
# Mechanical properties :
#
#
# Convention : Reuss Voigt Hill
#
# Bulk Modulus (GPa) = 47.60273 61.03943 54.32108
# Shear Modulus (GPa) = 17.85193 19.84743 18.84968
#
# Velocity S-wave (km/s) = 3.29998 3.47953 3.39095
# Velocity P-wave (km/s) = 6.59985 7.30600 6.96188
#
# Compressibility (1/GPa) = 0.02100720
#
# Stress axis : x y z
#
# Youngs Moduli (GPa) = 88.19460 42.35349 38.21120
#
# Poissons Ratio (x) = 0.13302 0.33721
# Poissons Ratio (y) = 0.27700 0.30915
# Poissons Ratio (z) = 0.77830 0.34267
#
# Static dielectric constant tensor:
#      x y z
#    x 3.541560 0.000000 0.000000 
#    y 0.000000 2.726810 0.000000 
#    z 0.000000 0.000000 2.557510 
# 
# 
# High freq. dielectric constant tensor:
#      x y z
#    x 1.640580 0.000000 0.000000 
#    y 0.000000 1.597500 0.000000 
#    z 0.000000 0.000000 1.589310 
# 
# From -- ./inp_files/24972.got.cif
#   From: 2010.03.12/outbox.cif.g09.slc.cpg/sg59_13_cif.got.tgz:24972.got - 2010.04.16 16:29:54.
