data_PCOD8239172
_publ_section_title
;
Structure prediction by ZEFSAII (Michael W. Deem and Ramdas Pophale) SiO2 
 PCOD8239172
Probable space group: P M M N
;
_chemical_formula_sum "Si O2"
_cell_formula_units_Z 64
_cell_length_a 17.649580
_cell_length_b 13.749508
_cell_length_c 15.180779
_cell_angle_alpha 90.000000
_cell_angle_beta 90.000000
_cell_angle_gamma 90.000000
_cell_volume 3683.965811
_symmetry_space_group_name_H-M "P M M N"
_symmetry_group_IT_number 59
_space_group.IT_coordinate_system_code '2'
_symmetry_cell_setting 'orthorhombic'
loop_
_space_group_symop_operation_xyz
x,y,z
1/2-x,1/2-y,z
1/2+x,-y,-z
-x,1/2+y,-z
-x,-y,-z
1/2+x,1/2+y,-z
1/2-x,y,z
x,1/2-y,z
loop_
_atom_site_type_symbol
_atom_site_label
_atom_site_fract_x
_atom_site_fract_y
_atom_site_fract_z
Si Si1 0.921967 0.461896 0.167027
Si Si2 0.404909 0.642351 0.104444
Si Si3 0.486435 0.140361 0.745436
Si Si4 0.338290 0.862544 0.496657
Si Si5 0.461713 0.524334 0.408656
Si Si6 0.665363 0.987216 0.003304
Si Si7 0.446398 0.860253 0.661725
Si Si8 0.969776 0.860526 0.957924
O O1 0.926341 0.569887 0.207633
O O2 0.854921 0.458820 0.095389
O O3 0.906169 0.385710 0.245598
O O4 0.000496 0.430282 0.119806
O O5 0.370743 0.750000 0.090168
O O6 0.432067 0.629992 0.205454
O O7 0.341696 0.564535 0.076822
O O8 0.478715 0.626744 0.043691
O O9 0.454947 0.250000 0.751826
O O10 0.496529 0.112070 0.642992
O O11 0.250000 0.889686 0.508046
O O12 0.347087 0.750000 0.465313
O O13 0.375508 0.938173 0.425709
O O14 0.382150 0.877925 0.588346
O O15 0.500000 0.500000 0.500000
O O16 0.476955 0.426538 0.350721
O O17 0.750000 0.948031 0.007635
O O18 0.613526 0.893843 0.986050
O O19 0.475141 0.750000 0.661142
O O20 0.967356 0.750000 0.924101
#
# Coordination Sequence:
#
# PCOD8239172 Si02
#       8
#     8   8   8   8   8   8   8   8
#     4  10  18  33  51  74  97 130 176 214 253 295
#     4   9  17  32  51  69  93 129 172 213 249 289
#     4  10  17  29  54  76  95 124 168 217 254 291
#     4   9  17  31  50  74 106 135 159 197 254 316
#     4   9  18  31  49  76 103 128 164 208 251 303
#     4  11  21  32  46  71 107 138 167 207 255 308
#     4   9  18  31  51  76  99 128 170 215 251 292
#     4  10  18  32  52  70  94 132 175 210 242 289
#
# _framework density 17.372582999999999
#
# number of rings (size 3 to 8) (size 9 to 14) (size 15 to 20)
#    0.000    2.375    2.500    1.500    0.000    2.000 
#    0.000    0.625    0.000    1.125    0.000    0.000 
#    0.000    0.000    0.000    0.000    0.000    0.000 
#
# Total GULP energy -793090.015222 kJ/mol
# GULP energy per Si atom -12392.031488 kJ/mol
# Density = 1.733304 g / cm^3
# Si number density = 17.372583 Si / 1000 Ang^3
#
#
#
# Elastic Constant Matrix: (Units=GPa)
#
#
# Indices 1 2 3 4 5 6 
#
# 1 88.3710 34.0771 10.8321 0.0000 0.0000 0.0000
# 2 34.0771 102.1812 28.2007 0.0000 0.0000 0.0000
# 3 10.8321 28.2007 62.4754 0.0000 0.0000 0.0000
# 4 0.0000 0.0000 0.0000 28.0753 0.0000 0.0000
# 5 0.0000 0.0000 0.0000 0.0000 12.4969 0.0000
# 6 0.0000 0.0000 0.0000 0.0000 0.0000 20.1841
#
#
#
# Elastic Compliance Matrix: (Units=1/GPa)
#
#
# Indices 1 2 3 4 5 6 
#
# 1 0.012992 -0.004239 -0.000339 0.000000 0.000000 0.000000
# 2 -0.004239 0.012562 -0.004936 0.000000 0.000000 0.000000
# 3 -0.000339 -0.004936 0.018293 0.000000 0.000000 0.000000
# 4 0.000000 0.000000 0.000000 0.035618 0.000000 0.000000
# 5 0.000000 0.000000 0.000000 0.000000 0.080020 0.000000
# 6 0.000000 0.000000 0.000000 0.000000 0.000000 0.049544
#
#
# Mechanical properties :
#
#
# Convention : Reuss Voigt Hill
#
# Bulk Modulus (GPa) = 40.29029 44.36080 42.32555
# Shear Modulus (GPa) = 21.15678 24.14578 22.65128
#
# Velocity S-wave (km/s) = 3.49352 3.73215 3.61481
# Velocity P-wave (km/s) = 6.28611 6.64547 6.46829
#
# Compressibility (1/GPa) = 0.02481987
#
# Stress axis : x y z
#
# Youngs Moduli (GPa) = 76.96909 79.60213 54.66593
#
# Poissons Ratio (x) = 0.33746 0.01853
# Poissons Ratio (y) = 0.32629 0.26981
# Poissons Ratio (z) = 0.02610 0.39288
#
# Static dielectric constant tensor:
#      x y z
#    x 2.876730 0.000000 0.000000 
#    y 0.000000 3.450840 0.000000 
#    z 0.000000 0.000000 3.470520 
# 
# 
# High freq. dielectric constant tensor:
#      x y z
#    x 1.620020 0.000000 0.000000 
#    y 0.000000 1.680860 0.000000 
#    z 0.000000 0.000000 1.677520 
# 
# From -- ./inp_files/24006.got.cif
#   From: 2010.03.12/outbox.cif.g09.slc.cpg/sg59_13_cif.got.tgz:24006.got - 2010.04.16 16:29:54.
