data_PCOD8239316
_publ_section_title
;
Structure prediction by ZEFSAII (Michael W. Deem and Ramdas Pophale) SiO2 
 PCOD8239316
Probable space group: P M M N
;
_chemical_formula_sum "Si O2"
_cell_formula_units_Z 48
_cell_length_a 9.137637
_cell_length_b 18.720860
_cell_length_c 16.356566
_cell_angle_alpha 90.000000
_cell_angle_beta 90.000000
_cell_angle_gamma 90.000000
_cell_volume 2798.026525
_symmetry_space_group_name_H-M "P M M N"
_symmetry_group_IT_number 59
_space_group.IT_coordinate_system_code '2'
_symmetry_cell_setting 'orthorhombic'
loop_
_space_group_symop_operation_xyz
x,y,z
1/2-x,1/2-y,z
1/2+x,-y,-z
-x,1/2+y,-z
-x,-y,-z
1/2+x,1/2+y,-z
1/2-x,y,z
x,1/2-y,z
loop_
_atom_site_type_symbol
_atom_site_label
_atom_site_fract_x
_atom_site_fract_y
_atom_site_fract_z
Si Si1 0.420809 0.830892 0.829845
Si Si2 0.924133 0.901766 0.683710
Si Si3 0.576548 0.670580 0.521304
Si Si4 0.423552 0.171074 0.659230
Si Si5 0.420587 0.465144 0.752099
Si Si6 0.418131 0.969360 0.922813
O O1 0.250000 0.843209 0.809603
O O2 0.450617 0.750000 0.861052
O O3 0.511388 0.844514 0.747593
O O4 0.469513 0.888662 0.898848
O O5 0.750000 0.901001 0.692044
O O6 0.979798 0.881329 0.592831
O O7 0.985088 0.980204 0.699372
O O8 0.750000 0.671743 0.522865
O O9 0.516381 0.750000 0.538886
O O10 0.521932 0.646067 0.431119
O O11 0.250000 0.175902 0.658470
O O12 0.487121 0.250000 0.680634
O O13 0.475011 0.114079 0.727194
O O14 0.250000 0.477045 0.731296
O O15 0.449797 0.476999 0.847829
O O16 0.250000 0.968251 0.946999
O O17 0.500000 0.000000 0.000000
#
# Coordination Sequence:
#
# PCOD8239316 Si02
#       6
#     8   8   8   8   8   8
#     4   9  18  33  51  70  94 123 154 188 227 272
#     4  10  18  27  43  69  98 125 153 185 223 269
#     4   8  14  24  39  63  93 121 151 188 226 262
#     4   8  14  27  47  66  86 118 157 192 226 266
#     4   9  18  32  48  67  90 117 153 193 231 273
#     4   9  18  32  49  69  92 117 145 181 226 274
#
# _framework density 17.154948000000001
#
# number of rings (size 3 to 8) (size 9 to 14) (size 15 to 20)
#    0.000    3.167    0.000    3.000    0.000    4.333 
#    0.000    0.833    0.000    2.500    0.000    4.667 
#    0.000    0.000    0.000    0.000    0.000    0.000 
#
# Total GULP energy -594829.583117 kJ/mol
# GULP energy per Si atom -12392.282982 kJ/mol
# Density = 1.711590 g / cm^3
# Si number density = 17.154948 Si / 1000 Ang^3
#
#
#
# Elastic Constant Matrix: (Units=GPa)
#
#
# Indices 1 2 3 4 5 6 
#
# 1 35.7589 32.7814 34.1358 0.0000 0.0000 0.0000
# 2 32.7814 138.3238 85.6122 0.0000 0.0000 0.0000
# 3 34.1358 85.6122 116.5827 0.0000 0.0000 0.0000
# 4 0.0000 0.0000 0.0000 27.0577 0.0000 0.0000
# 5 0.0000 0.0000 0.0000 0.0000 19.0006 0.0000
# 6 0.0000 0.0000 0.0000 0.0000 0.0000 20.7150
#
#
#
# Elastic Compliance Matrix: (Units=1/GPa)
#
#
# Indices 1 2 3 4 5 6 
#
# 1 0.040040 -0.004093 -0.008718 0.000000 0.000000 0.000000
# 2 -0.004093 0.013671 -0.008841 0.000000 0.000000 0.000000
# 3 -0.008718 -0.008841 0.017623 0.000000 0.000000 0.000000
# 4 0.000000 0.000000 0.000000 0.036958 0.000000 0.000000
# 5 0.000000 0.000000 0.000000 0.000000 0.052630 0.000000
# 6 0.000000 0.000000 0.000000 0.000000 0.000000 0.048274
#
#
# Mechanical properties :
#
#
# Convention : Reuss Voigt Hill
#
# Bulk Modulus (GPa) = 35.67692 66.19157 50.93425
# Shear Modulus (GPa) = 19.09539 22.56373 20.82956
#
# Velocity S-wave (km/s) = 3.33995 3.63063 3.48832
# Velocity P-wave (km/s) = 5.97626 7.49957 6.78083
#
# Compressibility (1/GPa) = 0.02802932
#
# Stress axis : x y z
#
# Youngs Moduli (GPa) = 24.97524 73.14517 56.74533
#
# Poissons Ratio (x) = 0.29941 0.49469
# Poissons Ratio (y) = 0.10223 0.50169
# Poissons Ratio (z) = 0.21773 0.64668
#
# Static dielectric constant tensor:
#      x y z
#    x 2.889120 0.000000 0.000000 
#    y 0.000000 3.552370 0.000000 
#    z 0.000000 0.000000 3.221640 
# 
# 
# High freq. dielectric constant tensor:
#      x y z
#    x 1.629090 0.000000 0.000000 
#    y 0.000000 1.665940 0.000000 
#    z 0.000000 0.000000 1.652500 
# 
# From -- ./inp_files/24080.got.cif
#   From: 2010.03.12/outbox.cif.g09.slc.cpg/sg59_13_cif.got.tgz:24080.got - 2010.04.16 16:29:54.
