data_PCOD8239846
_publ_section_title
;
Structure prediction by ZEFSAII (Michael W. Deem and Ramdas Pophale) SiO2 
 PCOD8239846
Probable space group: P M M N
;
_chemical_formula_sum "Si O2"
_cell_formula_units_Z 64
_cell_length_a 9.067236
_cell_length_b 29.462341
_cell_length_c 14.984262
_cell_angle_alpha 90.000000
_cell_angle_beta 90.000000
_cell_angle_gamma 90.000000
_cell_volume 4002.925704
_symmetry_space_group_name_H-M "P M M N"
_symmetry_group_IT_number 59
_space_group.IT_coordinate_system_code '2'
_symmetry_cell_setting 'orthorhombic'
loop_
_space_group_symop_operation_xyz
x,y,z
1/2-x,1/2-y,z
1/2+x,-y,-z
-x,1/2+y,-z
-x,-y,-z
1/2+x,1/2+y,-z
1/2-x,y,z
x,1/2-y,z
loop_
_atom_site_type_symbol
_atom_site_label
_atom_site_fract_x
_atom_site_fract_y
_atom_site_fract_z
Si Si1 0.419325 0.122440 0.794488
Si Si2 0.575951 0.945708 0.362358
Si Si3 0.575505 0.799966 0.478250
Si Si4 0.921972 0.034937 0.124613
Si Si5 0.581705 0.198767 0.707132
Si Si6 0.074553 0.462292 0.310033
Si Si7 0.918670 0.938624 0.043054
Si Si8 0.924137 0.894756 0.538911
O O1 0.250000 0.136183 0.779781
O O2 0.465375 0.084524 0.722903
O O3 0.520553 0.166589 0.784830
O O4 0.446530 0.104425 0.894214
O O5 0.750000 0.956122 0.365325
O O6 0.516401 0.920511 0.450869
O O7 0.489678 0.992648 0.354385
O O8 0.750000 0.800415 0.468569
O O9 0.522742 0.750000 0.514063
O O10 0.512128 0.809608 0.381115
O O11 0.522159 0.841756 0.541188
O O12 0.750000 0.043222 0.141072
O O13 0.009344 0.048039 0.213204
O O14 0.958254 0.983026 0.100708
O O15 0.977627 0.066414 0.043270
O O16 0.750000 0.186691 0.685416
O O17 0.565381 0.250000 0.741969
O O18 0.250000 0.466509 0.304049
O O19 0.023384 0.420077 0.371923
O O20 0.750000 0.941570 0.010460
O O21 0.750000 0.895668 0.532022
#
# Coordination Sequence:
#
# PCOD8239846 Si02
#       8
#     8   8   8   8   8   8   8   8
#     4  10  18  31  51  70  93 126 159 193 232 277
#     4  10  18  32  47  64  95 128 161 198 228 268
#     4   9  16  30  51  68  86 119 160 197 237 281
#     4  10  19  33  49  67  92 122 155 194 234 277
#     4  10  20  31  44  68 100 126 153 194 236 277
#     4  11  21  31  45  66  95 129 162 196 234 278
#     4   9  18  32  49  70  92 117 151 194 237 273
#     4   9  18  31  46  67  94 124 159 198 235 272
#
# _framework density 15.988306
#
# number of rings (size 3 to 8) (size 9 to 14) (size 15 to 20)
#    0.000    2.250    2.500    1.500    0.000    2.250 
#    0.000    1.875    0.000    0.000    0.000    0.875 
#    0.000    5.000    0.000    0.000    0.000    0.000 
#
# Total GULP energy -793482.237544 kJ/mol
# GULP energy per Si atom -12398.159962 kJ/mol
# Density = 1.595192 g / cm^3
# Si number density = 15.988306 Si / 1000 Ang^3
#
#
#
# Elastic Constant Matrix: (Units=GPa)
#
#
# Indices 1 2 3 4 5 6 
#
# 1 42.8840 37.9917 32.3112 0.0000 0.0000 0.0000
# 2 37.9917 114.1141 55.2545 0.0000 0.0000 0.0000
# 3 32.3112 55.2545 93.7351 0.0000 0.0000 0.0000
# 4 0.0000 0.0000 0.0000 18.4701 0.0000 0.0000
# 5 0.0000 0.0000 0.0000 0.0000 20.5999 0.0000
# 6 0.0000 0.0000 0.0000 0.0000 0.0000 22.5886
#
#
#
# Elastic Compliance Matrix: (Units=1/GPa)
#
#
# Indices 1 2 3 4 5 6 
#
# 1 0.036570 -0.008496 -0.007598 0.000000 0.000000 0.000000
# 2 -0.008496 0.014237 -0.005464 0.000000 0.000000 0.000000
# 3 -0.007598 -0.005464 0.016508 0.000000 0.000000 0.000000
# 4 0.000000 0.000000 0.000000 0.054142 0.000000 0.000000
# 5 0.000000 0.000000 0.000000 0.000000 0.048544 0.000000
# 6 0.000000 0.000000 0.000000 0.000000 0.000000 0.044270
#
#
# Mechanical properties :
#
#
# Convention : Reuss Voigt Hill
#
# Bulk Modulus (GPa) = 41.32213 55.76089 48.54151
# Shear Modulus (GPa) = 18.83565 20.67679 19.75622
#
# Velocity S-wave (km/s) = 3.43605 3.60007 3.51902
# Velocity P-wave (km/s) = 6.45316 7.22720 6.85112
#
# Compressibility (1/GPa) = 0.02420010
#
# Stress axis : x y z
#
# Youngs Moduli (GPa) = 27.34454 70.23712 60.57628
#
# Poissons Ratio (x) = 0.59677 0.46023
# Poissons Ratio (y) = 0.23233 0.33098
# Poissons Ratio (z) = 0.20775 0.38376
#
# Static dielectric constant tensor:
#      x y z
#    x 2.979530 0.000000 0.000000 
#    y 0.000000 3.224240 0.000000 
#    z 0.000000 0.000000 3.012020 
# 
# 
# High freq. dielectric constant tensor:
#      x y z
#    x 1.609940 0.000000 0.000000 
#    y 0.000000 1.604100 0.000000 
#    z 0.000000 0.000000 1.596160 
# 
# From -- ./inp_files/21875.got.cif
#   From: 2010.03.12/outbox.cif.g09.slc.cpg/sg59_11_cif.got.tgz:21875.got - 2010.04.16 16:29:54.
