data_PCOD8239481
_publ_section_title
;
Structure prediction by ZEFSAII (Michael W. Deem and Ramdas Pophale) SiO2 
 PCOD8239481
Probable space group: P M M N
;
_chemical_formula_sum "Si O2"
_cell_formula_units_Z 64
_cell_length_a 29.370143
_cell_length_b 9.407733
_cell_length_c 15.151022
_cell_angle_alpha 90.000000
_cell_angle_beta 90.000000
_cell_angle_gamma 90.000000
_cell_volume 4186.325307
_symmetry_space_group_name_H-M "P M M N"
_symmetry_group_IT_number 59
_space_group.IT_coordinate_system_code '2'
_symmetry_cell_setting 'orthorhombic'
loop_
_space_group_symop_operation_xyz
x,y,z
1/2-x,1/2-y,z
1/2+x,-y,-z
-x,1/2+y,-z
-x,-y,-z
1/2+x,1/2+y,-z
1/2-x,y,z
x,1/2-y,z
loop_
_atom_site_type_symbol
_atom_site_label
_atom_site_fract_x
_atom_site_fract_y
_atom_site_fract_z
Si Si1 0.442044 0.912765 0.060904
Si Si2 0.800496 0.084110 0.529144
Si Si3 0.536426 0.082067 0.320002
Si Si4 0.054794 0.916332 0.359637
Si Si5 0.894865 0.417403 0.464522
Si Si6 0.301643 0.412093 0.292533
Si Si7 0.474005 0.914498 0.875925
Si Si8 0.374577 0.587758 0.205776
O O1 0.457040 0.750000 0.073650
O O2 0.393377 0.939119 0.106754
O O3 0.479162 0.003731 0.111975
O O4 0.439465 0.951984 0.956540
O O5 0.750000 0.051999 0.488823
O O6 0.805022 0.250000 0.553731
O O7 0.841091 0.038243 0.462209
O O8 0.808298 0.997260 0.617653
O O9 0.528876 0.250000 0.332749
O O10 0.578926 0.024266 0.378225
O O11 0.548085 0.043908 0.218097
O O12 0.491376 0.004069 0.352544
O O13 0.042769 0.750000 0.366074
O O14 0.081232 0.972931 0.446213
O O15 0.085953 0.948925 0.275405
O O16 0.898247 0.250000 0.464249
O O17 0.250000 0.420384 0.259016
O O18 0.316823 0.250000 0.308374
O O19 0.332208 0.482950 0.216963
O O20 0.486953 0.750000 0.876910
O O21 0.358219 0.750000 0.218176
#
# Coordination Sequence:
#
# PCOD8239481 Si02
#       8
#     8   8   8   8   8   8   8   8
#     4   9  17  29  44  61  83 110 142 178 213 248
#     4   9  16  29  48  64  81 110 146 178 209 251
#     4  10  19  29  42  60  86 117 146 177 214 252
#     4  10  18  29  42  59  86 117 149 178 202 240
#     4   9  17  29  42  60  85 113 145 177 209 249
#     4  10  20  31  44  65  91 113 136 175 221 259
#     4   9  17  28  42  62  84 110 143 176 214 252
#     4  10  18  29  46  64  84 116 149 176 209 252
#
# _framework density 15.287871000000001
#
# number of rings (size 3 to 8) (size 9 to 14) (size 15 to 20)
#    0.000    2.500    2.500    0.750    0.000    1.750 
#    0.000    0.625    0.000    0.000    0.000    0.875 
#    0.000    5.000    0.000    3.375    0.000    3.000 
#
# Total GULP energy -793241.580538 kJ/mol
# GULP energy per Si atom -12394.399696 kJ/mol
# Density = 1.525308 g / cm^3
# Si number density = 15.287871 Si / 1000 Ang^3
#
#
#
# Elastic Constant Matrix: (Units=GPa)
#
#
# Indices 1 2 3 4 5 6 
#
# 1 110.5730 39.9241 58.2918 0.0000 0.0000 0.0000
# 2 39.9241 44.0688 26.8895 0.0000 0.0000 0.0000
# 3 58.2918 26.8895 96.8379 0.0000 0.0000 0.0000
# 4 0.0000 0.0000 0.0000 12.8198 0.0000 0.0000
# 5 0.0000 0.0000 0.0000 0.0000 18.6405 0.0000
# 6 0.0000 0.0000 0.0000 0.0000 0.0000 22.7926
#
#
#
# Elastic Compliance Matrix: (Units=1/GPa)
#
#
# Indices 1 2 3 4 5 6 
#
# 1 0.016642 -0.010793 -0.007021 0.000000 0.000000 0.000000
# 2 -0.010793 0.034320 -0.003033 0.000000 0.000000 0.000000
# 3 -0.007021 -0.003033 0.015395 0.000000 0.000000 0.000000
# 4 0.000000 0.000000 0.000000 0.078004 0.000000 0.000000
# 5 0.000000 0.000000 0.000000 0.000000 0.053647 0.000000
# 6 0.000000 0.000000 0.000000 0.000000 0.000000 0.043874
#
#
# Mechanical properties :
#
#
# Convention : Reuss Voigt Hill
#
# Bulk Modulus (GPa) = 40.54538 55.74336 48.14437
# Shear Modulus (GPa) = 17.13523 19.27554 18.20538
#
# Velocity S-wave (km/s) = 3.35152 3.55468 3.45460
# Velocity P-wave (km/s) = 6.44638 7.30680 6.89003
#
# Compressibility (1/GPa) = 0.02466373
#
# Stress axis : x y z
#
# Youngs Moduli (GPa) = 60.08925 29.13723 64.95666
#
# Poissons Ratio (x) = 0.31448 0.45604
# Poissons Ratio (y) = 0.64854 0.19702
# Poissons Ratio (z) = 0.42187 0.08838
#
# Static dielectric constant tensor:
#      x y z
#    x 3.037490 0.000000 0.000000 
#    y 0.000000 2.908620 0.000000 
#    z 0.000000 0.000000 3.140800 
# 
# 
# High freq. dielectric constant tensor:
#      x y z
#    x 1.571740 0.000000 0.000000 
#    y 0.000000 1.579340 0.000000 
#    z 0.000000 0.000000 1.571770 
# 
# From -- ./inp_files/25048.got.cif
#   From: 2010.03.12/outbox.cif.g09.slc.cpg/sg59_13_cif.got.tgz:25048.got - 2010.04.16 16:29:54.
