data_PCOD8239392
_publ_section_title
;
Structure prediction by ZEFSAII (Michael W. Deem and Ramdas Pophale) SiO2 
 PCOD8239392
Probable space group: P M M N
;
_chemical_formula_sum "Si O2"
_cell_formula_units_Z 64
_cell_length_a 14.155837
_cell_length_b 18.414781
_cell_length_c 15.613350
_cell_angle_alpha 90.000000
_cell_angle_beta 90.000000
_cell_angle_gamma 90.000000
_cell_volume 4070.035589
_symmetry_space_group_name_H-M "P M M N"
_symmetry_group_IT_number 59
_space_group.IT_coordinate_system_code '2'
_symmetry_cell_setting 'orthorhombic'
loop_
_space_group_symop_operation_xyz
x,y,z
1/2-x,1/2-y,z
1/2+x,-y,-z
-x,1/2+y,-z
-x,-y,-z
1/2+x,1/2+y,-z
1/2-x,y,z
x,1/2-y,z
loop_
_atom_site_type_symbol
_atom_site_label
_atom_site_fract_x
_atom_site_fract_y
_atom_site_fract_z
Si Si1 0.641269 0.916221 0.700623
Si Si2 0.360491 0.834892 0.130115
Si Si3 0.475404 0.835673 0.629237
Si Si4 0.957082 0.164853 0.040016
Si Si5 0.855113 0.833564 0.876244
Si Si6 0.640721 0.165313 0.537224
Si Si7 0.361492 0.917388 0.296382
Si Si8 0.855876 0.336523 0.208850
O O1 0.750000 0.909649 0.670970
O O2 0.577525 0.874338 0.631117
O O3 0.626135 0.882144 0.793771
O O4 0.607441 0.999234 0.704711
O O5 0.250000 0.849832 0.114411
O O6 0.379998 0.750000 0.144675
O O7 0.417031 0.867516 0.048425
O O8 0.401436 0.877259 0.212245
O O9 0.491094 0.750000 0.632641
O O10 0.420303 0.859036 0.544132
O O11 0.415635 0.864236 0.710295
O O12 0.937562 0.250000 0.037234
O O13 0.901719 0.132256 0.121736
O O14 0.068788 0.147026 0.050224
O O15 0.750000 0.847099 0.913595
O O16 0.868421 0.750000 0.846999
O O17 0.750000 0.146643 0.517945
O O18 0.628853 0.250000 0.557412
O O19 0.599832 0.121185 0.618101
O O20 0.250000 0.908165 0.294813
O O21 0.750000 0.367227 0.216718
O O22 0.855272 0.250000 0.208238
#
# Coordination Sequence:
#
# PCOD8239392 Si02
#       8
#     8   8   8   8   8   8   8   8
#     4  10  19  30  44  62  88 118 149 183 217 252
#     4   9  16  27  45  67  89 113 142 178 218 261
#     4  10  18  28  44  66  88 114 146 177 215 260
#     4   9  15  24  40  65  89 110 140 178 219 261
#     4   9  16  27  43  61  84 116 150 184 217 249
#     4   9  17  30  48  69  91 113 140 176 216 262
#     4   9  18  31  45  63  88 117 148 180 216 255
#     4   9  15  23  37  60  90 115 135 167 212 263
#
# _framework density 15.724679
#
# number of rings (size 3 to 8) (size 9 to 14) (size 15 to 20)
#    0.000    2.750    1.250    1.500    0.000    5.750 
#    0.000    0.625    0.000    0.000    0.000    1.750 
#    0.000    4.000    0.000    0.000    0.000    0.000 
#
# Total GULP energy -793449.896357 kJ/mol
# GULP energy per Si atom -12397.654631 kJ/mol
# Density = 1.568889 g / cm^3
# Si number density = 15.724679 Si / 1000 Ang^3
#
#
#
# Elastic Constant Matrix: (Units=GPa)
#
#
# Indices 1 2 3 4 5 6 
#
# 1 92.1216 35.6465 59.7385 0.0000 0.0000 0.0000
# 2 35.6465 52.7432 48.2551 0.0000 0.0000 0.0000
# 3 59.7385 48.2551 138.4350 0.0000 0.0000 0.0000
# 4 0.0000 0.0000 0.0000 8.9794 0.0000 0.0000
# 5 0.0000 0.0000 0.0000 0.0000 18.7520 0.0000
# 6 0.0000 0.0000 0.0000 0.0000 0.0000 12.7626
#
#
#
# Elastic Compliance Matrix: (Units=1/GPa)
#
#
# Indices 1 2 3 4 5 6 
#
# 1 0.016604 -0.006852 -0.004777 0.000000 0.000000 0.000000
# 2 -0.006852 0.030665 -0.007732 0.000000 0.000000 0.000000
# 3 -0.004777 -0.007732 0.011980 0.000000 0.000000 0.000000
# 4 0.000000 0.000000 0.000000 0.111366 0.000000 0.000000
# 5 0.000000 0.000000 0.000000 0.000000 0.053328 0.000000
# 6 0.000000 0.000000 0.000000 0.000000 0.000000 0.078354
#
#
# Mechanical properties :
#
#
# Convention : Reuss Voigt Hill
#
# Bulk Modulus (GPa) = 48.71476 63.39777 56.05627
# Shear Modulus (GPa) = 14.37357 17.40944 15.89150
#
# Velocity S-wave (km/s) = 3.02665 3.33098 3.18246
# Velocity P-wave (km/s) = 6.57733 7.42959 7.01641
#
# Compressibility (1/GPa) = 0.02052766
#
# Stress axis : x y z
#
# Youngs Moduli (GPa) = 60.22615 32.61067 83.47058
#
# Poissons Ratio (x) = 0.22343 0.39873
# Poissons Ratio (y) = 0.41264 0.64543
# Poissons Ratio (z) = 0.28769 0.25216
#
# Static dielectric constant tensor:
#      x y z
#    x 3.035730 0.000000 0.000000 
#    y 0.000000 2.766920 0.000000 
#    z 0.000000 0.000000 3.071490 
# 
# 
# High freq. dielectric constant tensor:
#      x y z
#    x 1.593510 0.000000 0.000000 
#    y 0.000000 1.571820 0.000000 
#    z 0.000000 0.000000 1.598710 
# 
# From -- ./inp_files/23450.got.cif
#   From: 2010.03.12/outbox.cif.g09.slc.cpg/sg59_12_cif.got.tgz:23450.got - 2010.04.16 16:29:54.
