data_PCOD8239679
_publ_section_title
;
Structure prediction by ZEFSAII (Michael W. Deem and Ramdas Pophale) SiO2 
 PCOD8239679
Probable space group: P M M N
;
_chemical_formula_sum "Si O2"
_cell_formula_units_Z 56
_cell_length_a 18.417078
_cell_length_b 9.000543
_cell_length_c 18.965773
_cell_angle_alpha 90.000000
_cell_angle_beta 90.000000
_cell_angle_gamma 90.000000
_cell_volume 3143.836753
_symmetry_space_group_name_H-M "P M M N"
_symmetry_group_IT_number 59
_space_group.IT_coordinate_system_code '2'
_symmetry_cell_setting 'orthorhombic'
loop_
_space_group_symop_operation_xyz
x,y,z
1/2-x,1/2-y,z
1/2+x,-y,-z
-x,1/2+y,-z
-x,-y,-z
1/2+x,1/2+y,-z
1/2-x,y,z
x,1/2-y,z
loop_
_atom_site_type_symbol
_atom_site_label
_atom_site_fract_x
_atom_site_fract_y
_atom_site_fract_z
Si Si1 0.910918 0.422694 0.939205
Si Si2 0.970138 0.919591 0.432221
Si Si3 0.100118 0.926048 0.777950
Si Si4 0.463557 0.921835 0.285894
Si Si5 0.331579 0.423166 0.650152
Si Si6 0.420742 0.422380 0.919001
Si Si7 0.670177 0.425851 0.801115
O O1 0.898326 0.250000 0.955845
O O2 0.860822 0.482102 0.875768
O O3 0.993404 0.452357 0.916205
O O4 0.888743 0.515636 0.007939
O O5 0.962414 0.750000 0.453932
O O6 0.890674 0.979797 0.407426
O O7 0.028277 0.942996 0.369605
O O8 0.000000 0.000000 0.500000
O O9 0.104831 0.750000 0.780049
O O10 0.159219 0.987980 0.722863
O O11 0.117698 0.990864 0.855039
O O12 0.020187 0.976635 0.755136
O O13 0.478130 0.750000 0.264158
O O14 0.383006 0.973169 0.262890
O O15 0.250000 0.449062 0.621083
O O16 0.346921 0.250000 0.666195
O O17 0.401541 0.250000 0.912676
O O18 0.750000 0.495669 0.787914
O O19 0.675527 0.250000 0.803897
#
# Coordination Sequence:
#
# PCOD8239679 Si02
#       7
#     8   8   8   8   8   8   8
#     4   9  17  29  46  70  96 125 168 218 264 306
#     4   9  18  32  54  80 107 135 168 205 244 295
#     4  11  20  30  50  78 104 131 168 214 261 306
#     4   9  17  33  52  73 100 134 174 211 249 303
#     4   9  19  37  58  78 103 138 175 211 258 313
#     4  10  18  30  48  69  96 132 171 213 258 308
#     4   9  16  29  51  74  97 128 168 216 265 305
#
# _framework density 17.812629999999999
#
# number of rings (size 3 to 8) (size 9 to 14) (size 15 to 20)
#    0.000    2.571    1.429    2.571    0.000    3.143 
#    0.000    1.429    0.000    5.143    0.000    0.000 
#    0.000    0.000    0.000    0.000    0.000    0.000 
#
# Total GULP energy -694279.945460 kJ/mol
# GULP energy per Si atom -12397.856169 kJ/mol
# Density = 1.777209 g / cm^3
# Si number density = 17.812630 Si / 1000 Ang^3
#
#
#
# Elastic Constant Matrix: (Units=GPa)
#
#
# Indices 1 2 3 4 5 6 
#
# 1 117.1362 24.6092 59.0688 0.0000 0.0000 0.0000
# 2 24.6092 72.6344 47.8251 0.0000 0.0000 0.0000
# 3 59.0688 47.8251 124.5823 0.0000 0.0000 0.0000
# 4 0.0000 0.0000 0.0000 32.2394 0.0000 0.0000
# 5 0.0000 0.0000 0.0000 0.0000 22.3791 0.0000
# 6 0.0000 0.0000 0.0000 0.0000 0.0000 15.0815
#
#
#
# Elastic Compliance Matrix: (Units=1/GPa)
#
#
# Indices 1 2 3 4 5 6 
#
# 1 0.011228 -0.000400 -0.005170 0.000000 0.000000 0.000000
# 2 -0.000400 0.018439 -0.006889 0.000000 0.000000 0.000000
# 3 -0.005170 -0.006889 0.013123 0.000000 0.000000 0.000000
# 4 0.000000 0.000000 0.000000 0.031018 0.000000 0.000000
# 5 0.000000 0.000000 0.000000 0.000000 0.044685 0.000000
# 6 0.000000 0.000000 0.000000 0.000000 0.000000 0.066306
#
#
# Mechanical properties :
#
#
# Convention : Reuss Voigt Hill
#
# Bulk Modulus (GPa) = 55.95341 64.15100 60.05220
# Shear Modulus (GPa) = 23.18313 26.12997 24.65655
#
# Velocity S-wave (km/s) = 3.61154 3.83421 3.72454
# Velocity P-wave (km/s) = 6.99081 7.46285 7.23068
#
# Compressibility (1/GPa) = 0.01787201
#
# Stress axis : x y z
#
# Youngs Moduli (GPa) = 89.06071 54.23318 76.20420
#
# Poissons Ratio (x) = 0.02170 0.39399
# Poissons Ratio (y) = 0.03563 0.52495
# Poissons Ratio (z) = 0.46046 0.37360
#
# Static dielectric constant tensor:
#      x y z
#    x 3.418590 0.000000 0.000000 
#    y 0.000000 3.108740 0.000000 
#    z 0.000000 0.000000 3.299540 
# 
# 
# High freq. dielectric constant tensor:
#      x y z
#    x 1.672270 0.000000 0.000000 
#    y 0.000000 1.670410 0.000000 
#    z 0.000000 0.000000 1.686480 
# 
# From -- ./inp_files/28040.got.cif
#   From: 2010.03.12/outbox.cif.g09.slc.cpg/sg59_15_cif.got.tgz:28040.got - 2010.04.16 16:29:54.
