data_PCOD8239100
_publ_section_title
;
Structure prediction by ZEFSAII (Michael W. Deem and Ramdas Pophale) SiO2 
 PCOD8239100
Probable space group: P M M N
;
_chemical_formula_sum "Si O2"
_cell_formula_units_Z 56
_cell_length_a 28.316499
_cell_length_b 9.191754
_cell_length_c 13.703786
_cell_angle_alpha 90.000000
_cell_angle_beta 90.000000
_cell_angle_gamma 90.000000
_cell_volume 3566.798027
_symmetry_space_group_name_H-M "P M M N"
_symmetry_group_IT_number 59
_space_group.IT_coordinate_system_code '2'
_symmetry_cell_setting 'orthorhombic'
loop_
_space_group_symop_operation_xyz
x,y,z
1/2-x,1/2-y,z
1/2+x,-y,-z
-x,1/2+y,-z
-x,-y,-z
1/2+x,1/2+y,-z
1/2-x,y,z
x,1/2-y,z
loop_
_atom_site_type_symbol
_atom_site_label
_atom_site_fract_x
_atom_site_fract_y
_atom_site_fract_z
Si Si1 0.801634 0.577511 0.022789
Si Si2 0.990752 0.579450 0.399744
Si Si3 0.898437 0.920345 0.937884
Si Si4 0.099900 0.080569 0.715912
Si Si5 0.535706 0.585063 0.772507
Si Si6 0.443358 0.582706 0.891188
Si Si7 0.800486 0.921389 0.243061
O O1 0.750000 0.522311 0.984389
O O2 0.802076 0.750000 0.021274
O O3 0.809365 0.519950 0.133183
O O4 0.844801 0.520941 0.954675
O O5 0.998950 0.750000 0.412943
O O6 0.936620 0.541689 0.370178
O O7 0.000000 0.500000 0.500000
O O8 0.027110 0.523080 0.317592
O O9 0.902403 0.750000 0.962845
O O10 0.914061 0.948288 0.825118
O O11 0.935424 0.003458 0.006543
O O12 0.094871 0.250000 0.743360
O O13 0.154467 0.040225 0.687558
O O14 0.090321 0.988454 0.811439
O O15 0.533952 0.750000 0.731622
O O16 0.497148 0.563039 0.857230
O O17 0.429343 0.750000 0.902687
O O18 0.750000 0.984361 0.283463
O O19 0.795681 0.750000 0.236599
#
# Coordination Sequence:
#
# PCOD8239100 Si02
#       7
#     8   8   8   8   8   8   8
#     4   8  13  21  37  61  85 112 147 181 209 239
#     4  10  20  33  50  67  86 110 138 177 220 265
#     4  10  17  27  43  60  84 118 150 179 208 245
#     4   9  16  28  45  64  84 113 147 173 208 257
#     4   9  19  31  43  62  86 112 144 178 212 251
#     4  10  18  26  37  58  89 119 145 175 208 242
#     4   8  12  20  38  63  87 110 141 178 207 239
#
# _framework density 15.700355999999999
#
# number of rings (size 3 to 8) (size 9 to 14) (size 15 to 20)
#    0.000    2.857    1.429    2.143    0.000    1.714 
#    0.000    0.000    0.000    1.714    0.000    1.000 
#    0.000    8.000    0.000    0.000    0.000    0.000 
#
# Total GULP energy -693741.620955 kJ/mol
# GULP energy per Si atom -12388.243231 kJ/mol
# Density = 1.566462 g / cm^3
# Si number density = 15.700356 Si / 1000 Ang^3
#
#
#
# Elastic Constant Matrix: (Units=GPa)
#
#
# Indices 1 2 3 4 5 6 
#
# 1 107.0208 24.1766 51.0245 0.0000 0.0000 0.0000
# 2 24.1766 49.7051 38.4808 0.0000 0.0000 0.0000
# 3 51.0245 38.4808 80.9055 0.0000 0.0000 0.0000
# 4 0.0000 0.0000 0.0000 22.1422 0.0000 0.0000
# 5 0.0000 0.0000 0.0000 0.0000 14.7760 0.0000
# 6 0.0000 0.0000 0.0000 0.0000 0.0000 11.8493
#
#
#
# Elastic Compliance Matrix: (Units=1/GPa)
#
#
# Indices 1 2 3 4 5 6 
#
# 1 0.013362 0.000039 -0.008445 0.000000 0.000000 0.000000
# 2 0.000039 0.031845 -0.015171 0.000000 0.000000 0.000000
# 3 -0.008445 -0.015171 0.024902 0.000000 0.000000 0.000000
# 4 0.000000 0.000000 0.000000 0.045163 0.000000 0.000000
# 5 0.000000 0.000000 0.000000 0.000000 0.067677 0.000000
# 6 0.000000 0.000000 0.000000 0.000000 0.000000 0.084394
#
#
# Mechanical properties :
#
#
# Convention : Reuss Voigt Hill
#
# Bulk Modulus (GPa) = 43.56518 51.66614 47.61566
# Shear Modulus (GPa) = 15.52087 18.01680 16.76884
#
# Velocity S-wave (km/s) = 3.14756 3.39121 3.27166
# Velocity P-wave (km/s) = 6.40450 6.95074 6.68321
#
# Compressibility (1/GPa) = 0.02295411
#
# Stress axis : x y z
#
# Youngs Moduli (GPa) = 74.84106 31.40250 40.15755
#
# Poissons Ratio (x) = -0.00123 0.33914
# Poissons Ratio (y) = -0.00293 0.60922
# Poissons Ratio (z) = 0.63206 0.47640
#
# Static dielectric constant tensor:
#      x y z
#    x 3.564010 0.000000 0.000000 
#    y 0.000000 2.837200 0.000000 
#    z 0.000000 0.000000 2.657460 
# 
# 
# High freq. dielectric constant tensor:
#      x y z
#    x 1.611240 0.000000 0.000000 
#    y 0.000000 1.581430 0.000000 
#    z 0.000000 0.000000 1.556290 
# 
# From -- ./inp_files/21723.got.cif
#   From: 2010.03.12/outbox.cif.g09.slc.cpg/sg59_11_cif.got.tgz:21723.got - 2010.04.16 16:29:54.
