data_PCOD8239562
_publ_section_title
;
Structure prediction by ZEFSAII (Michael W. Deem and Ramdas Pophale) SiO2 
 PCOD8239562
Probable space group: P M M N
;
_chemical_formula_sum "Si O2"
_cell_formula_units_Z 48
_cell_length_a 26.044548
_cell_length_b 9.020343
_cell_length_c 11.769953
_cell_angle_alpha 90.000000
_cell_angle_beta 90.000000
_cell_angle_gamma 90.000000
_cell_volume 2765.123959
_symmetry_space_group_name_H-M "P M M N"
_symmetry_group_IT_number 59
_space_group.IT_coordinate_system_code '2'
_symmetry_cell_setting 'orthorhombic'
loop_
_space_group_symop_operation_xyz
x,y,z
1/2-x,1/2-y,z
1/2+x,-y,-z
-x,1/2+y,-z
-x,-y,-z
1/2+x,1/2+y,-z
1/2-x,y,z
x,1/2-y,z
loop_
_atom_site_type_symbol
_atom_site_label
_atom_site_fract_x
_atom_site_fract_y
_atom_site_fract_z
Si Si1 0.065701 0.922475 0.217295
Si Si2 0.101609 0.080301 0.676366
Si Si3 0.533001 0.077225 0.156512
Si Si4 0.875220 0.079924 0.995858
Si Si5 0.449740 0.420884 0.450937
Si Si6 0.807044 0.575912 0.166956
O O1 0.056491 0.750000 0.242325
O O2 0.116778 0.946412 0.139414
O O3 0.071229 0.007394 0.335586
O O4 0.018823 0.984171 0.141874
O O5 0.090310 0.250000 0.714232
O O6 0.097669 0.065868 0.540126
O O7 0.157237 0.030432 0.725402
O O8 0.057960 0.971982 0.724239
O O9 0.519655 0.250000 0.160136
O O10 0.571665 0.033923 0.056388
O O11 0.862589 0.250000 0.022665
O O12 0.828786 0.985209 0.047370
O O13 0.500000 0.500000 0.500000
O O14 0.463757 0.250000 0.427782
O O15 0.750000 0.510868 0.188297
O O16 0.804393 0.750000 0.153393
#
# Coordination Sequence:
#
# PCOD8239562 Si02
#       6
#     8   8   8   8   8   8
#     4  11  21  32  46  67 101 139 171 202 242 293
#     4   9  18  32  49  71 100 131 163 203 251 297
#     4  10  18  29  47  70  97 130 169 207 243 290
#     4   9  20  34  48  71 100 131 166 204 249 300
#     4  11  21  32  48  70 100 138 176 209 241 291
#     4   9  18  34  57  80  98 120 156 206 261 310
#
# _framework density 17.359076999999999
#
# number of rings (size 3 to 8) (size 9 to 14) (size 15 to 20)
#    0.000    2.167    1.667    2.000    0.000    3.000 
#    0.000    0.000    0.000    1.000    0.000    2.333 
#    0.000    0.000    0.000    0.000    0.000    0.000 
#
# Total GULP energy -594995.346599 kJ/mol
# GULP energy per Si atom -12395.736387 kJ/mol
# Density = 1.731957 g / cm^3
# Si number density = 17.359077 Si / 1000 Ang^3
#
#
#
# Elastic Constant Matrix: (Units=GPa)
#
#
# Indices 1 2 3 4 5 6 
#
# 1 87.3274 29.1581 36.8512 0.0000 0.0000 0.0000
# 2 29.1581 70.9348 35.6345 0.0000 0.0000 0.0000
# 3 36.8512 35.6345 96.7509 0.0000 0.0000 0.0000
# 4 0.0000 0.0000 0.0000 28.2074 0.0000 0.0000
# 5 0.0000 0.0000 0.0000 0.0000 15.1658 0.0000
# 6 0.0000 0.0000 0.0000 0.0000 0.0000 20.0856
#
#
#
# Elastic Compliance Matrix: (Units=1/GPa)
#
#
# Indices 1 2 3 4 5 6 
#
# 1 0.014474 -0.003902 -0.004076 0.000000 0.000000 0.000000
# 2 -0.003902 0.018350 -0.005272 0.000000 0.000000 0.000000
# 3 -0.004076 -0.005272 0.013830 0.000000 0.000000 0.000000
# 4 0.000000 0.000000 0.000000 0.035452 0.000000 0.000000
# 5 0.000000 0.000000 0.000000 0.000000 0.065938 0.000000
# 6 0.000000 0.000000 0.000000 0.000000 0.000000 0.049787
#
#
# Mechanical properties :
#
#
# Convention : Reuss Voigt Hill
#
# Bulk Modulus (GPa) = 49.61851 50.92229 50.27040
# Shear Modulus (GPa) = 21.64047 22.91638 22.27842
#
# Velocity S-wave (km/s) = 3.53460 3.63731 3.58633
# Velocity P-wave (km/s) = 6.73079 6.85846 6.79492
#
# Compressibility (1/GPa) = 0.02015377
#
# Stress axis : x y z
#
# Youngs Moduli (GPa) = 69.08952 54.49600 72.30636
#
# Poissons Ratio (x) = 0.21265 0.29470
# Poissons Ratio (y) = 0.26960 0.38122
# Poissons Ratio (z) = 0.28159 0.28732
#
# Static dielectric constant tensor:
#      x y z
#    x 3.180640 0.000000 0.000000 
#    y 0.000000 3.276100 0.000000 
#    z 0.000000 0.000000 3.331450 
# 
# 
# High freq. dielectric constant tensor:
#      x y z
#    x 1.634080 0.000000 0.000000 
#    y 0.000000 1.677830 0.000000 
#    z 0.000000 0.000000 1.671050 
# 
# From -- ./inp_files/14396.got.cif
#   From: 2010.03.12/outbox.cif.g09.slc.cpg/sg59_8_cif.got.tgz:14396.got - 2010.04.16 16:29:54.
