data_PCOD8239372
_publ_section_title
;
Structure prediction by ZEFSAII (Michael W. Deem and Ramdas Pophale) SiO2 
 PCOD8239372
Probable space group: P M M N
;
_chemical_formula_sum "Si O2"
_cell_formula_units_Z 56
_cell_length_a 24.236443
_cell_length_b 9.067420
_cell_length_c 16.213482
_cell_angle_alpha 90.000000
_cell_angle_beta 90.000000
_cell_angle_gamma 90.000000
_cell_volume 3563.107361
_symmetry_space_group_name_H-M "P M M N"
_symmetry_group_IT_number 59
_space_group.IT_coordinate_system_code '2'
_symmetry_cell_setting 'orthorhombic'
loop_
_space_group_symop_operation_xyz
x,y,z
1/2-x,1/2-y,z
1/2+x,-y,-z
-x,1/2+y,-z
-x,-y,-z
1/2+x,1/2+y,-z
1/2-x,y,z
x,1/2-y,z
loop_
_atom_site_type_symbol
_atom_site_label
_atom_site_fract_x
_atom_site_fract_y
_atom_site_fract_z
Si Si1 0.505754 0.578587 0.804097
Si Si2 0.395543 0.923890 0.891757
Si Si3 0.586149 0.077412 0.487675
Si Si4 0.185854 0.084610 0.780158
Si Si5 0.812984 0.922745 0.408098
Si Si6 0.054730 0.422674 0.031428
Si Si7 0.017811 0.423359 0.378202
O O1 0.495551 0.750000 0.789264
O O2 0.448563 0.515547 0.841075
O O3 0.556154 0.551513 0.869020
O O4 0.519298 0.510119 0.714745
O O5 0.396993 0.750000 0.905454
O O6 0.341623 0.969165 0.841877
O O7 0.394561 0.001431 0.982567
O O8 0.592267 0.250000 0.501710
O O9 0.542286 0.040364 0.415775
O O10 0.645827 0.013089 0.465724
O O11 0.565924 0.005443 0.572630
O O12 0.250000 0.082006 0.799933
O O13 0.162633 0.250000 0.794236
O O14 0.174920 0.034128 0.686523
O O15 0.750000 0.964569 0.431281
O O16 0.822822 0.750000 0.421612
O O17 0.052764 0.250000 0.011203
O O18 0.000000 0.500000 0.000000
O O19 0.030380 0.250000 0.381958
#
# Coordination Sequence:
#
# PCOD8239372 Si02
#       7
#     8   8   8   8   8   8   8
#     4   8  15  27  43  62  84 113 147 179 210 248
#     4  10  18  28  43  64  90 118 146 176 214 258
#     4  10  19  29  43  66  92 117 147 182 221 263
#     4   9  18  31  45  63  87 114 146 181 214 251
#     4   9  18  32  48  65  87 117 150 182 219 264
#     4   9  16  27  42  62  87 113 144 178 212 251
#     4   9  17  30  45  61  87 121 151 181 218 261
#
# _framework density 15.716620000000001
#
# number of rings (size 3 to 8) (size 9 to 14) (size 15 to 20)
#    0.000    2.857    0.000    3.857    0.000    2.857 
#    0.000    5.714    0.000    0.000    0.000    1.000 
#    0.000    8.000    0.000    0.000    0.000    0.000 
#
# Total GULP energy -694107.639509 kJ/mol
# GULP energy per Si atom -12394.779277 kJ/mol
# Density = 1.568085 g / cm^3
# Si number density = 15.716620 Si / 1000 Ang^3
#
#
#
# Elastic Constant Matrix: (Units=GPa)
#
#
# Indices 1 2 3 4 5 6 
#
# 1 69.5752 34.4921 45.6284 0.0000 0.0000 0.0000
# 2 34.4921 66.8865 44.5720 0.0000 0.0000 0.0000
# 3 45.6284 44.5720 118.8255 0.0000 0.0000 0.0000
# 4 0.0000 0.0000 0.0000 21.0308 0.0000 0.0000
# 5 0.0000 0.0000 0.0000 0.0000 25.8536 0.0000
# 6 0.0000 0.0000 0.0000 0.0000 0.0000 25.2964
#
#
#
# Elastic Compliance Matrix: (Units=1/GPa)
#
#
# Indices 1 2 3 4 5 6 
#
# 1 0.021722 -0.007524 -0.005519 0.000000 0.000000 0.000000
# 2 -0.007524 0.022539 -0.005565 0.000000 0.000000 0.000000
# 3 -0.005519 -0.005565 0.012623 0.000000 0.000000 0.000000
# 4 0.000000 0.000000 0.000000 0.047549 0.000000 0.000000
# 5 0.000000 0.000000 0.000000 0.000000 0.038679 0.000000
# 6 0.000000 0.000000 0.000000 0.000000 0.000000 0.039531
#
#
# Mechanical properties :
#
#
# Convention : Reuss Voigt Hill
#
# Bulk Modulus (GPa) = 50.84547 56.07471 53.46009
# Shear Modulus (GPa) = 22.08311 23.14247 22.61279
#
# Velocity S-wave (km/s) = 3.75251 3.84146 3.79724
# Velocity P-wave (km/s) = 7.15519 7.44525 7.30166
#
# Compressibility (1/GPa) = 0.01966743
#
# Stress axis : x y z
#
# Youngs Moduli (GPa) = 46.03527 44.36666 79.22302
#
# Poissons Ratio (x) = 0.33382 0.43723
# Poissons Ratio (y) = 0.34637 0.44091
# Poissons Ratio (z) = 0.25407 0.24692
#
# Static dielectric constant tensor:
#      x y z
#    x 3.008970 0.000000 0.000000 
#    y 0.000000 2.954880 0.000000 
#    z 0.000000 0.000000 3.327100 
# 
# 
# High freq. dielectric constant tensor:
#      x y z
#    x 1.572410 0.000000 0.000000 
#    y 0.000000 1.601810 0.000000 
#    z 0.000000 0.000000 1.599680 
# 
# From -- ./inp_files/28086.got.cif
#   From: 2010.03.12/outbox.cif.g09.slc.cpg/sg59_15_cif.got.tgz:28086.got - 2010.04.16 16:29:54.
