data_PCOD8239425
_publ_section_title
;
Structure prediction by ZEFSAII (Michael W. Deem and Ramdas Pophale) SiO2 
 PCOD8239425
Probable space group: P M M N
;
_chemical_formula_sum "Si O2"
_cell_formula_units_Z 56
_cell_length_a 13.857269
_cell_length_b 9.609635
_cell_length_c 25.852997
_cell_angle_alpha 90.000000
_cell_angle_beta 90.000000
_cell_angle_gamma 90.000000
_cell_volume 3442.670323
_symmetry_space_group_name_H-M "P M M N"
_symmetry_group_IT_number 59
_space_group.IT_coordinate_system_code '2'
_symmetry_cell_setting 'orthorhombic'
loop_
_space_group_symop_operation_xyz
x,y,z
1/2-x,1/2-y,z
1/2+x,-y,-z
-x,1/2+y,-z
-x,-y,-z
1/2+x,1/2+y,-z
1/2-x,y,z
x,1/2-y,z
loop_
_atom_site_type_symbol
_atom_site_label
_atom_site_fract_x
_atom_site_fract_y
_atom_site_fract_z
Si Si1 0.361536 0.588126 0.972455
Si Si2 0.361245 0.410725 0.273464
Si Si3 0.143606 0.084764 0.468538
Si Si4 0.139114 0.911643 0.175627
Si Si5 0.517963 0.586020 0.626498
Si Si6 0.636999 0.909030 0.416113
Si Si7 0.022110 0.588577 0.074709
O O1 0.250000 0.541196 0.969534
O O2 0.372410 0.750000 0.958550
O O3 0.424326 0.500199 0.931581
O O4 0.400867 0.556457 0.029734
O O5 0.250000 0.440373 0.287252
O O6 0.377590 0.250000 0.259475
O O7 0.395879 0.500985 0.224883
O O8 0.424000 0.456268 0.322471
O O9 0.250000 0.022813 0.458173
O O10 0.149369 0.250000 0.465945
O O11 0.074588 0.028254 0.423683
O O12 0.108798 0.040176 0.525815
O O13 0.250000 0.946048 0.161614
O O14 0.126550 0.750000 0.188832
O O15 0.072648 0.956412 0.127817
O O16 0.499888 0.750000 0.623951
O O17 0.416134 0.506187 0.625834
O O18 0.750000 0.926021 0.406809
O O19 0.605036 0.750000 0.407610
O O20 0.992914 0.750000 0.074757
#
# Coordination Sequence:
#
# PCOD8239425 Si02
#       7
#     8   8   8   8   8   8   8
#     4   9  17  29  45  67  96 126 153 183 221 263
#     4   9  18  31  46  67  93 117 143 178 221 267
#     4   8  14  26  44  65  89 116 143 170 208 263
#     4   9  17  30  48  68  91 120 151 182 218 260
#     4  10  18  28  46  68  88 113 144 179 218 259
#     4   9  18  31  45  62  86 116 147 178 214 258
#     4   9  17  29  46  68  93 122 155 187 219 260
#
# _framework density 16.266442999999999
#
# number of rings (size 3 to 8) (size 9 to 14) (size 15 to 20)
#    0.000    3.000    0.000    2.143    0.000    5.143 
#    0.000    0.000    0.000    5.571    0.000    0.000 
#    0.000    0.000    0.000    0.000    0.000    0.000 
#
# Total GULP energy -694311.581353 kJ/mol
# GULP energy per Si atom -12398.421096 kJ/mol
# Density = 1.622942 g / cm^3
# Si number density = 16.266443 Si / 1000 Ang^3
#
#
#
# Elastic Constant Matrix: (Units=GPa)
#
#
# Indices 1 2 3 4 5 6 
#
# 1 101.4389 52.0119 67.8215 0.0000 0.0000 0.0000
# 2 52.0119 52.8074 54.5188 0.0000 0.0000 0.0000
# 3 67.8215 54.5188 112.4493 0.0000 0.0000 0.0000
# 4 0.0000 0.0000 0.0000 27.0064 0.0000 0.0000
# 5 0.0000 0.0000 0.0000 0.0000 27.8430 0.0000
# 6 0.0000 0.0000 0.0000 0.0000 0.0000 28.8327
#
#
#
# Elastic Compliance Matrix: (Units=1/GPa)
#
#
# Indices 1 2 3 4 5 6 
#
# 1 0.021432 -0.015545 -0.005390 0.000000 0.000000 0.000000
# 2 -0.015545 0.049189 -0.014473 0.000000 0.000000 0.000000
# 3 -0.005390 -0.014473 0.019161 0.000000 0.000000 0.000000
# 4 0.000000 0.000000 0.000000 0.037028 0.000000 0.000000
# 5 0.000000 0.000000 0.000000 0.000000 0.035916 0.000000
# 6 0.000000 0.000000 0.000000 0.000000 0.000000 0.034683
#
#
# Mechanical properties :
#
#
# Convention : Reuss Voigt Hill
#
# Bulk Modulus (GPa) = 52.72314 68.37777 60.55046
# Shear Modulus (GPa) = 18.21184 22.89264 20.55224
#
# Velocity S-wave (km/s) = 3.34967 3.75554 3.55840
# Velocity P-wave (km/s) = 6.88788 7.80595 7.36124
#
# Compressibility (1/GPa) = 0.01896700
#
# Stress axis : x y z
#
# Youngs Moduli (GPa) = 46.65862 20.32955 52.19055
#
# Poissons Ratio (x) = 0.31602 0.28130
# Poissons Ratio (y) = 0.72531 0.75535
# Poissons Ratio (z) = 0.25148 0.29423
#
# Static dielectric constant tensor:
#      x y z
#    x 3.050870 0.000000 0.000000 
#    y 0.000000 2.911320 0.000000 
#    z 0.000000 0.000000 3.023860 
# 
# 
# High freq. dielectric constant tensor:
#      x y z
#    x 1.620630 0.000000 0.000000 
#    y 0.000000 1.612570 0.000000 
#    z 0.000000 0.000000 1.612640 
# 
# From -- ./inp_files/30058.got.cif
#   From: 2010.03.12/outbox.cif.g09.slc.cpg/sg59_16_cif.got.tgz:30058.got - 2010.04.16 16:29:54.
