data_PCOD8239569
_publ_section_title
;
Structure prediction by ZEFSAII (Michael W. Deem and Ramdas Pophale) SiO2 
 PCOD8239569
Probable space group: P M M N
;
_chemical_formula_sum "Si O2"
_cell_formula_units_Z 64
_cell_length_a 19.134068
_cell_length_b 9.162196
_cell_length_c 19.893613
_cell_angle_alpha 90.000000
_cell_angle_beta 90.000000
_cell_angle_gamma 90.000000
_cell_volume 3487.550912
_symmetry_space_group_name_H-M "P M M N"
_symmetry_group_IT_number 59
_space_group.IT_coordinate_system_code '2'
_symmetry_cell_setting 'orthorhombic'
loop_
_space_group_symop_operation_xyz
x,y,z
1/2-x,1/2-y,z
1/2+x,-y,-z
-x,1/2+y,-z
-x,-y,-z
1/2+x,1/2+y,-z
1/2-x,y,z
x,1/2-y,z
loop_
_atom_site_type_symbol
_atom_site_label
_atom_site_fract_x
_atom_site_fract_y
_atom_site_fract_z
Si Si1 0.940932 0.578324 0.638344
Si Si2 0.672774 0.076710 0.283784
Si Si3 0.669636 0.921867 0.530995
Si Si4 0.087906 0.922835 0.587673
Si Si5 0.672872 0.923555 0.886371
Si Si6 0.593128 0.422802 0.154183
Si Si7 0.169870 0.421001 0.962151
Si Si8 0.054541 0.076017 0.210996
O O1 0.949726 0.750000 0.646545
O O2 0.868577 0.537610 0.601169
O O3 0.941262 0.510040 0.713375
O O4 0.007208 0.524494 0.593697
O O5 0.750000 0.011868 0.294645
O O6 0.673863 0.250000 0.282935
O O7 0.624111 0.022794 0.343962
O O8 0.643826 0.019421 0.212995
O O9 0.750000 0.976597 0.534197
O O10 0.666539 0.750000 0.517767
O O11 0.627102 0.000252 0.472889
O O12 0.094562 0.750000 0.577088
O O13 0.750000 0.982753 0.867779
O O14 0.672953 0.750000 0.883547
O O15 0.618621 0.988487 0.832447
O O16 0.652742 0.971604 0.961868
O O17 0.597129 0.250000 0.145952
O O18 0.616016 0.494182 0.084706
O O19 0.515632 0.474652 0.173762
O O20 0.250000 0.461167 0.944212
O O21 0.157263 0.250000 0.953161
O O22 0.057713 0.250000 0.214394
#
# Coordination Sequence:
#
# PCOD8239569 Si02
#       8
#     8   8   8   8   8   8   8   8
#     4   9  17  31  50  71  97 127 159 198 243 285
#     4   9  16  26  43  67  92 119 154 194 232 270
#     4  10  21  34  48  72 104 130 154 193 244 290
#     4  10  18  32  53  73  93 125 165 200 234 280
#     4   8  15  28  46  68  95 128 163 197 235 282
#     4  10  18  29  47  72  98 123 156 202 245 281
#     4   9  18  32  47  66  97 133 163 193 234 285
#     4   9  16  28  48  73  97 122 159 203 241 280
#
# _framework density 18.350987
#
# number of rings (size 3 to 8) (size 9 to 14) (size 15 to 20)
#    0.000    2.750    1.250    1.875    0.000    2.500 
#    0.000    3.125    0.000    3.000    0.000    0.000 
#    0.000    2.000    0.000    0.000    0.000    0.000 
#
# Total GULP energy -793339.647019 kJ/mol
# GULP energy per Si atom -12395.931985 kJ/mol
# Density = 1.830922 g / cm^3
# Si number density = 18.350987 Si / 1000 Ang^3
#
#
#
# Elastic Constant Matrix: (Units=GPa)
#
#
# Indices 1 2 3 4 5 6 
#
# 1 151.3780 24.2369 94.5850 0.0000 0.0000 0.0000
# 2 24.2369 16.9570 26.2632 0.0000 0.0000 0.0000
# 3 94.5850 26.2632 140.1372 0.0000 0.0000 0.0000
# 4 0.0000 0.0000 0.0000 21.1773 0.0000 0.0000
# 5 0.0000 0.0000 0.0000 0.0000 39.6891 0.0000
# 6 0.0000 0.0000 0.0000 0.0000 0.0000 17.0138
#
#
#
# Elastic Compliance Matrix: (Units=1/GPa)
#
#
# Indices 1 2 3 4 5 6 
#
# 1 0.011902 -0.006439 -0.006827 0.000000 0.000000 0.000000
# 2 -0.006439 0.086574 -0.011879 0.000000 0.000000 0.000000
# 3 -0.006827 -0.011879 0.013970 0.000000 0.000000 0.000000
# 4 0.000000 0.000000 0.000000 0.047220 0.000000 0.000000
# 5 0.000000 0.000000 0.000000 0.000000 0.025196 0.000000
# 6 0.000000 0.000000 0.000000 0.000000 0.000000 0.058776
#
#
# Mechanical properties :
#
#
# Convention : Reuss Voigt Hill
#
# Bulk Modulus (GPa) = 16.08829 66.51582 41.30205
# Shear Modulus (GPa) = 15.89083 26.46852 21.17968
#
# Velocity S-wave (km/s) = 2.94588 3.80195 3.40095
# Velocity P-wave (km/s) = 4.51187 7.45642 6.16259
#
# Compressibility (1/GPa) = 0.06215701
#
# Stress axis : x y z
#
# Youngs Moduli (GPa) = 84.01612 11.55079 71.58280
#
# Poissons Ratio (x) = 0.07437 0.48868
# Poissons Ratio (y) = 0.54098 0.85033
# Poissons Ratio (z) = 0.57356 0.13721
#
# Static dielectric constant tensor:
#      x y z
#    x 3.715120 0.000000 0.000000 
#    y 0.000000 2.796180 0.000000 
#    z 0.000000 0.000000 3.568770 
# 
# 
# High freq. dielectric constant tensor:
#      x y z
#    x 1.724950 0.000000 0.000000 
#    y 0.000000 1.646690 0.000000 
#    z 0.000000 0.000000 1.722040 
# 
# From -- ./inp_files/30816.got.cif
#   From: 2010.03.12/outbox.cif.g09.slc.cpg/sg59_16_cif.got.tgz:30816.got - 2010.04.16 16:29:54.
