data_PCOD8239155
_publ_section_title
;
Structure prediction by ZEFSAII (Michael W. Deem and Ramdas Pophale) SiO2 
 PCOD8239155
Probable space group: P M M N
;
_chemical_formula_sum "Si O2"
_cell_formula_units_Z 64
_cell_length_a 29.059646
_cell_length_b 9.351030
_cell_length_c 14.928958
_cell_angle_alpha 90.000000
_cell_angle_beta 90.000000
_cell_angle_gamma 90.000000
_cell_volume 4056.759539
_symmetry_space_group_name_H-M "P M M N"
_symmetry_group_IT_number 59
_space_group.IT_coordinate_system_code '2'
_symmetry_cell_setting 'orthorhombic'
loop_
_space_group_symop_operation_xyz
x,y,z
1/2-x,1/2-y,z
1/2+x,-y,-z
-x,1/2+y,-z
-x,-y,-z
1/2+x,1/2+y,-z
1/2-x,y,z
x,1/2-y,z
loop_
_atom_site_type_symbol
_atom_site_label
_atom_site_fract_x
_atom_site_fract_y
_atom_site_fract_z
Si Si1 0.436720 0.915707 0.042720
Si Si2 0.697724 0.589367 0.712295
Si Si3 0.544063 0.919016 0.323952
Si Si4 0.302281 0.083090 0.494271
Si Si5 0.057276 0.580884 0.369795
Si Si6 0.389800 0.920883 0.548340
Si Si7 0.380167 0.581432 0.209853
Si Si8 0.964198 0.584823 0.117348
O O1 0.435083 0.750000 0.018843
O O2 0.396230 0.960395 0.110325
O O3 0.483603 0.956152 0.093861
O O4 0.430474 0.999741 0.949605
O O5 0.750000 0.579332 0.744327
O O6 0.678996 0.750000 0.723262
O O7 0.693175 0.541250 0.609553
O O8 0.669754 0.484918 0.776376
O O9 0.551688 0.750000 0.340169
O O10 0.495542 0.971827 0.366242
O O11 0.545310 0.957540 0.219272
O O12 0.584600 0.011018 0.367162
O O13 0.250000 0.051007 0.526968
O O14 0.313794 0.250000 0.509447
O O15 0.338143 0.984219 0.547821
O O16 0.057188 0.750000 0.362848
O O17 0.082146 0.529013 0.460232
O O18 0.084878 0.518306 0.284604
O O19 0.387458 0.750000 0.556994
O O20 0.376738 0.750000 0.221211
O O21 0.954524 0.750000 0.101182
#
# Coordination Sequence:
#
# PCOD8239155 Si02
#       8
#     8   8   8   8   8   8   8   8
#     4   9  17  29  47  68  92 120 151 192 236 273
#     4   9  18  31  46  67  95 123 153 193 235 274
#     4  10  19  33  49  63  91 133 167 195 232 277
#     4   9  18  33  50  67  90 122 158 193 233 282
#     4   9  17  30  45  64  94 129 162 192 224 270
#     4  11  21  31  46  70  96 124 160 200 236 272
#     4  10  17  29  48  69  94 126 159 189 230 280
#     4   9  17  30  47  66  89 121 158 193 230 273
#
# _framework density 15.776139000000001
#
# number of rings (size 3 to 8) (size 9 to 14) (size 15 to 20)
#    0.000    2.500    2.500    1.500    0.000    1.500 
#    0.000    2.500    0.000    0.000    0.000    0.875 
#    0.000    5.000    0.000    0.000    0.000    0.000 
#
# Total GULP energy -793513.363504 kJ/mol
# GULP energy per Si atom -12398.646305 kJ/mol
# Density = 1.574023 g / cm^3
# Si number density = 15.776139 Si / 1000 Ang^3
#
#
#
# Elastic Constant Matrix: (Units=GPa)
#
#
# Indices 1 2 3 4 5 6 
#
# 1 95.7396 42.9439 49.8598 0.0000 0.0000 0.0000
# 2 42.9439 50.2741 44.9480 0.0000 0.0000 0.0000
# 3 49.8598 44.9480 91.2235 0.0000 0.0000 0.0000
# 4 0.0000 0.0000 0.0000 26.1430 0.0000 0.0000
# 5 0.0000 0.0000 0.0000 0.0000 22.9201 0.0000
# 6 0.0000 0.0000 0.0000 0.0000 0.0000 26.7221
#
#
#
# Elastic Compliance Matrix: (Units=1/GPa)
#
#
# Indices 1 2 3 4 5 6 
#
# 1 0.017705 -0.011567 -0.003977 0.000000 0.000000 0.000000
# 2 -0.011567 0.043110 -0.014919 0.000000 0.000000 0.000000
# 3 -0.003977 -0.014919 0.020487 0.000000 0.000000 0.000000
# 4 0.000000 0.000000 0.000000 0.038251 0.000000 0.000000
# 5 0.000000 0.000000 0.000000 0.000000 0.043630 0.000000
# 6 0.000000 0.000000 0.000000 0.000000 0.000000 0.037422
#
#
# Mechanical properties :
#
#
# Convention : Reuss Voigt Hill
#
# Bulk Modulus (GPa) = 49.08121 56.97121 53.02621
# Shear Modulus (GPa) = 18.63413 21.78941 20.21177
#
# Velocity S-wave (km/s) = 3.44053 3.72043 3.58321
# Velocity P-wave (km/s) = 6.85285 7.39230 7.12768
#
# Compressibility (1/GPa) = 0.02037439
#
# Stress axis : x y z
#
# Youngs Moduli (GPa) = 56.48144 23.19627 48.81141
#
# Poissons Ratio (x) = 0.26832 0.19414
# Poissons Ratio (y) = 0.65335 0.72822
# Poissons Ratio (z) = 0.22465 0.34607
#
# Static dielectric constant tensor:
#      x y z
#    x 2.939970 0.000000 0.000000 
#    y 0.000000 2.867810 0.000000 
#    z 0.000000 0.000000 2.962550 
# 
# 
# High freq. dielectric constant tensor:
#      x y z
#    x 1.592380 0.000000 0.000000 
#    y 0.000000 1.596570 0.000000 
#    z 0.000000 0.000000 1.589580 
# 
# From -- ./inp_files/21829.got.cif
#   From: 2010.03.12/outbox.cif.g09.slc.cpg/sg59_11_cif.got.tgz:21829.got - 2010.04.16 16:29:54.
