data_PCOD8239897
_publ_section_title
;
Structure prediction by ZEFSAII (Michael W. Deem and Ramdas Pophale) SiO2 
 PCOD8239897
Probable space group: P M M N
;
_chemical_formula_sum "Si O2"
_cell_formula_units_Z 56
_cell_length_a 14.209766
_cell_length_b 8.796204
_cell_length_c 22.993208
_cell_angle_alpha 90.000000
_cell_angle_beta 90.000000
_cell_angle_gamma 90.000000
_cell_volume 2873.967066
_symmetry_space_group_name_H-M "P M M N"
_symmetry_group_IT_number 59
_space_group.IT_coordinate_system_code '2'
_symmetry_cell_setting 'orthorhombic'
loop_
_space_group_symop_operation_xyz
x,y,z
1/2-x,1/2-y,z
1/2+x,-y,-z
-x,1/2+y,-z
-x,-y,-z
1/2+x,1/2+y,-z
1/2-x,y,z
x,1/2-y,z
loop_
_atom_site_type_symbol
_atom_site_label
_atom_site_fract_x
_atom_site_fract_y
_atom_site_fract_z
Si Si1 0.150648 0.072833 0.401459
Si Si2 0.858791 0.429070 0.804914
Si Si3 0.027084 0.069621 0.300376
Si Si4 0.405243 0.070417 0.522218
Si Si5 0.641593 0.425842 0.023251
Si Si6 0.856179 0.572389 0.350458
Si Si7 0.452397 0.425934 0.085250
O O1 0.250000 0.035526 0.370737
O O2 0.128833 0.250000 0.401705
O O3 0.069812 0.000869 0.361037
O O4 0.161179 0.020050 0.468524
O O5 0.750000 0.484893 0.808940
O O6 0.862480 0.250000 0.796542
O O7 0.911454 0.506676 0.751704
O O8 0.916965 0.472144 0.862032
O O9 0.028833 0.250000 0.295850
O O10 0.920020 0.010645 0.301915
O O11 0.412686 0.250000 0.528713
O O12 0.371082 0.004457 0.584127
O O13 0.500000 0.000000 0.500000
O O14 0.750000 0.463761 0.042766
O O15 0.634882 0.250000 0.003602
O O16 0.564540 0.456350 0.074292
O O17 0.611773 0.531786 0.969902
O O18 0.750000 0.539050 0.331403
O O19 0.879026 0.750000 0.349514
O O20 0.435424 0.250000 0.100115
#
# Coordination Sequence:
#
# PCOD8239897 Si02
#       7
#     8   8   8   8   8   8   8
#     4   9  17  30  50  76 104 134 169 212 267 327
#     4  11  24  41  60  82 112 150 188 230 283 340
#     4  11  22  37  58  82 108 140 182 233 282 331
#     4  10  18  31  52  77 106 138 174 218 272 331
#     4   9  18  34  56  84 121 160 192 228 279 333
#     4  10  21  37  57  79 107 145 185 226 278 341
#     4  10  20  34  56  87 119 153 196 240 279 326
#
# _framework density 19.485261000000001
#
# number of rings (size 3 to 8) (size 9 to 14) (size 15 to 20)
#    0.000    2.000    1.429    2.571    0.000    6.286 
#    0.000    0.714    0.000    4.714    0.000    0.000 
#    0.000    0.000    0.000    0.000    0.000    0.000 
#
# Total GULP energy -693797.513114 kJ/mol
# GULP energy per Si atom -12389.241306 kJ/mol
# Density = 1.944091 g / cm^3
# Si number density = 19.485261 Si / 1000 Ang^3
#
#
#
# Elastic Constant Matrix: (Units=GPa)
#
#
# Indices 1 2 3 4 5 6 
#
# 1 144.3738 34.0568 71.8082 0.0000 0.0000 0.0000
# 2 34.0568 45.5210 39.3174 0.0000 0.0000 0.0000
# 3 71.8082 39.3174 76.4476 0.0000 0.0000 0.0000
# 4 0.0000 0.0000 0.0000 27.8306 0.0000 0.0000
# 5 0.0000 0.0000 0.0000 0.0000 29.7241 0.0000
# 6 0.0000 0.0000 0.0000 0.0000 0.0000 28.2246
#
#
#
# Elastic Compliance Matrix: (Units=1/GPa)
#
#
# Indices 1 2 3 4 5 6 
#
# 1 0.013055 0.001483 -0.013026 0.000000 0.000000 0.000000
# 2 0.001483 0.039694 -0.021808 0.000000 0.000000 0.000000
# 3 -0.013026 -0.021808 0.036532 0.000000 0.000000 0.000000
# 4 0.000000 0.000000 0.000000 0.035932 0.000000 0.000000
# 5 0.000000 0.000000 0.000000 0.000000 0.033643 0.000000
# 6 0.000000 0.000000 0.000000 0.000000 0.000000 0.035430
#
#
# Mechanical properties :
#
#
# Convention : Reuss Voigt Hill
#
# Bulk Modulus (GPa) = 44.28640 61.85636 53.07138
# Shear Modulus (GPa) = 18.62088 25.23316 21.92702
#
# Velocity S-wave (km/s) = 3.09470 3.60250 3.35821
# Velocity P-wave (km/s) = 5.96213 7.00843 6.50635
#
# Compressibility (1/GPa) = 0.02258030
#
# Stress axis : x y z
#
# Youngs Moduli (GPa) = 76.59674 25.19243 27.37291
#
# Poissons Ratio (x) = -0.03737 0.35656
# Poissons Ratio (y) = -0.11362 0.59696
# Poissons Ratio (z) = 0.99775 0.54941
#
# Static dielectric constant tensor:
#      x y z
#    x 3.698770 0.000000 0.000000 
#    y 0.000000 2.516330 0.000000 
#    z 0.000000 0.000000 4.294490 
# 
# 
# High freq. dielectric constant tensor:
#      x y z
#    x 1.774910 0.000000 0.000000 
#    y 0.000000 1.742020 0.000000 
#    z 0.000000 0.000000 1.743590 
# 
# From -- ./inp_files/30382.got.cif
#   From: 2010.03.12/outbox.cif.g09.slc.cpg/sg59_16_cif.got.tgz:30382.got - 2010.04.16 16:29:54.
