data_PCOD8239778
_publ_section_title
;
Structure prediction by ZEFSAII (Michael W. Deem and Ramdas Pophale) SiO2 
 PCOD8239778
Probable space group: P M M N
;
_chemical_formula_sum "Si O2"
_cell_formula_units_Z 48
_cell_length_a 31.292237
_cell_length_b 8.940154
_cell_length_c 9.568818
_cell_angle_alpha 90.000000
_cell_angle_beta 90.000000
_cell_angle_gamma 90.000000
_cell_volume 2676.947815
_symmetry_space_group_name_H-M "P M M N"
_symmetry_group_IT_number 59
_space_group.IT_coordinate_system_code '2'
_symmetry_cell_setting 'orthorhombic'
loop_
_space_group_symop_operation_xyz
x,y,z
1/2-x,1/2-y,z
1/2+x,-y,-z
-x,1/2+y,-z
-x,-y,-z
1/2+x,1/2+y,-z
1/2-x,y,z
x,1/2-y,z
loop_
_atom_site_type_symbol
_atom_site_label
_atom_site_fract_x
_atom_site_fract_y
_atom_site_fract_z
Si Si1 0.250000 0.079633 0.631978
Si Si2 0.336603 0.074432 0.336677
Si Si3 0.503921 0.574667 0.850824
Si Si4 0.250000 0.573787 0.346622
Si Si5 0.412310 0.928021 0.167106
Si Si6 0.589550 0.077221 0.149650
Si Si7 0.157653 0.418012 0.663994
O O1 0.250000 0.250000 0.565979
O O2 0.293509 0.059792 0.721611
O O3 0.250000 0.956015 0.511776
O O4 0.336715 0.250000 0.303481
O O5 0.342746 0.041600 0.500638
O O6 0.292313 0.002555 0.281382
O O7 0.374396 0.992700 0.257673
O O8 0.513778 0.750000 0.864547
O O9 0.542890 0.493425 0.770131
O O10 0.457228 0.547378 0.780277
O O11 0.500000 0.500000 0.000000
O O12 0.250000 0.750000 0.315335
O O13 0.413462 0.750000 0.178087
O O14 0.407135 0.988549 0.007768
O O15 0.597967 0.250000 0.132449
O O16 0.625966 0.019893 0.250858
O O17 0.141964 0.250000 0.688105
#
# Coordination Sequence:
#
# PCOD8239778 Si02
#       7
#     4   8   8   4   8   8   8
#     4   8  16  32  49  70  99 130 166 206 240 286
#     4  10  20  35  53  75 102 133 167 206 248 294
#     4   9  17  31  50  72  98 131 167 205 247 299
#     4  10  18  30  51  76  99 130 168 204 244 296
#     4  10  20  34  52  76 101 130 169 211 250 296
#     4   9  19  33  50  74 103 129 161 204 250 297
#     4   9  18  32  52  74  98 129 167 205 245 293
#
# _framework density 17.930869999999999
#
# number of rings (size 3 to 8) (size 9 to 14) (size 15 to 20)
#    0.000    2.667    0.000    4.250    0.000    7.333 
#    0.000    1.667    0.000    4.000    0.000    0.000 
#    0.000    0.000    0.000    0.000    0.000    0.000 
#
# Total GULP energy -594770.624048 kJ/mol
# GULP energy per Si atom -12391.054668 kJ/mol
# Density = 1.789006 g / cm^3
# Si number density = 17.930870 Si / 1000 Ang^3
#
#
#
# Elastic Constant Matrix: (Units=GPa)
#
#
# Indices 1 2 3 4 5 6 
#
# 1 174.9614 61.4855 45.5498 0.0000 0.0000 0.0000
# 2 61.4855 83.0437 22.3744 0.0000 0.0000 0.0000
# 3 45.5498 22.3744 35.0259 0.0000 0.0000 0.0000
# 4 0.0000 0.0000 0.0000 26.0682 0.0000 0.0000
# 5 0.0000 0.0000 0.0000 0.0000 28.7762 0.0000
# 6 0.0000 0.0000 0.0000 0.0000 0.0000 39.0118
#
#
#
# Elastic Compliance Matrix: (Units=1/GPa)
#
#
# Indices 1 2 3 4 5 6 
#
# 1 0.009953 -0.004689 -0.009949 0.000000 0.000000 0.000000
# 2 -0.004689 0.016754 -0.004605 0.000000 0.000000 0.000000
# 3 -0.009949 -0.004605 0.044430 0.000000 0.000000 0.000000
# 4 0.000000 0.000000 0.000000 0.038361 0.000000 0.000000
# 5 0.000000 0.000000 0.000000 0.000000 0.034751 0.000000
# 6 0.000000 0.000000 0.000000 0.000000 0.000000 0.025633
#
#
# Mechanical properties :
#
#
# Convention : Reuss Voigt Hill
#
# Bulk Modulus (GPa) = 30.62550 61.31671 45.97110
# Shear Modulus (GPa) = 22.80488 29.67932 26.24210
#
# Velocity S-wave (km/s) = 3.57013 4.07284 3.82974
# Velocity P-wave (km/s) = 5.84049 7.50918 6.72678
#
# Compressibility (1/GPa) = 0.03265253
#
# Stress axis : x y z
#
# Youngs Moduli (GPa) = 100.46759 59.68636 22.50754
#
# Poissons Ratio (x) = 0.27987 0.22392
# Poissons Ratio (y) = 0.47110 0.10364
# Poissons Ratio (z) = 0.99952 0.27483
#
# Static dielectric constant tensor:
#      x y z
#    x 3.894390 0.000000 0.000000 
#    y 0.000000 3.376770 0.000000 
#    z 0.000000 0.000000 2.917310 
# 
# 
# High freq. dielectric constant tensor:
#      x y z
#    x 1.720880 0.000000 0.000000 
#    y 0.000000 1.702270 0.000000 
#    z 0.000000 0.000000 1.639680 
# 
# From -- ./inp_files/13073.got.cif
#   From: 2010.03.12/outbox.cif.g09.slc.cpg/sg59_7_cif.got.tgz:13073.got - 2010.04.16 16:29:54.
