data_PCOD8239383
_publ_section_title
;
Structure prediction by ZEFSAII (Michael W. Deem and Ramdas Pophale) SiO2 
 PCOD8239383
Probable space group: P M M N
;
_chemical_formula_sum "Si O2"
_cell_formula_units_Z 64
_cell_length_a 29.458669
_cell_length_b 9.617397
_cell_length_c 14.979141
_cell_angle_alpha 90.000000
_cell_angle_beta 90.000000
_cell_angle_gamma 90.000000
_cell_volume 4243.826040
_symmetry_space_group_name_H-M "P M M N"
_symmetry_group_IT_number 59
_space_group.IT_coordinate_system_code '2'
_symmetry_cell_setting 'orthorhombic'
loop_
_space_group_symop_operation_xyz
x,y,z
1/2-x,1/2-y,z
1/2+x,-y,-z
-x,1/2+y,-z
-x,-y,-z
1/2+x,1/2+y,-z
1/2-x,y,z
x,1/2-y,z
loop_
_atom_site_type_symbol
_atom_site_label
_atom_site_fract_x
_atom_site_fract_y
_atom_site_fract_z
Si Si1 0.962466 0.086586 0.813057
Si Si2 0.037327 0.910768 0.385573
Si Si3 0.603933 0.085882 0.967613
Si Si4 0.376888 0.410351 0.706550
Si Si5 0.198286 0.591719 0.779895
Si Si6 0.700927 0.414330 0.019190
Si Si7 0.437640 0.091391 0.542147
Si Si8 0.560103 0.913462 0.126395
O O1 0.968762 0.250000 0.802145
O O2 0.954177 0.027097 0.713645
O O3 0.919571 0.046133 0.874219
O O4 0.008865 0.031311 0.857700
O O5 0.051427 0.750000 0.392581
O O6 0.984826 0.934402 0.407620
O O7 0.068170 0.995412 0.455232
O O8 0.598902 0.250000 0.988209
O O9 0.657327 0.041911 0.959866
O O10 0.580195 0.001097 0.045600
O O11 0.363158 0.250000 0.711589
O O12 0.331590 0.500249 0.713690
O O13 0.398436 0.447908 0.611424
O O14 0.412021 0.447384 0.784673
O O15 0.250000 0.581095 0.747473
O O16 0.180912 0.750000 0.775919
O O17 0.193107 0.531177 0.880179
O O18 0.750000 0.472260 0.982524
O O19 0.704907 0.250000 0.023853
O O20 0.433846 0.250000 0.510302
O O21 0.561666 0.750000 0.102291
#
# Coordination Sequence:
#
# PCOD8239383 Si02
#       8
#     8   8   8   8   8   8   8   8
#     4   9  17  29  44  61  85 116 147 178 217 255
#     4   9  16  29  45  61  83 111 143 181 218 254
#     4  10  18  28  44  63  82 113 152 179 202 253
#     4  10  18  28  44  63  87 118 145 173 214 263
#     4   9  17  29  44  62  87 115 142 179 220 252
#     4   8  14  25  40  59  83 108 136 175 215 242
#     4   9  17  29  44  62  84 111 142 176 217 257
#     4  10  18  29  41  58  89 121 142 170 213 253
#
# _framework density 15.080731
#
# number of rings (size 3 to 8) (size 9 to 14) (size 15 to 20)
#    0.000    2.750    2.500    1.125    0.000    0.750 
#    0.000    1.250    0.000    0.375    0.000    0.875 
#    0.000    3.000    0.000    0.000    0.000    0.000 
#
# Total GULP energy -793308.989444 kJ/mol
# GULP energy per Si atom -12395.452960 kJ/mol
# Density = 1.504641 g / cm^3
# Si number density = 15.080731 Si / 1000 Ang^3
#
#
#
# Elastic Constant Matrix: (Units=GPa)
#
#
# Indices 1 2 3 4 5 6 
#
# 1 105.9748 36.1988 61.1279 0.0000 0.0000 0.0000
# 2 36.1988 42.0357 41.7571 0.0000 0.0000 0.0000
# 3 61.1279 41.7571 102.3546 0.0000 0.0000 0.0000
# 4 0.0000 0.0000 0.0000 20.1388 0.0000 0.0000
# 5 0.0000 0.0000 0.0000 0.0000 19.2821 0.0000
# 6 0.0000 0.0000 0.0000 0.0000 0.0000 20.2266
#
#
#
# Elastic Compliance Matrix: (Units=1/GPa)
#
#
# Indices 1 2 3 4 5 6 
#
# 1 0.015529 -0.006995 -0.006421 0.000000 0.000000 0.000000
# 2 -0.006995 0.043150 -0.013426 0.000000 0.000000 0.000000
# 3 -0.006421 -0.013426 0.019082 0.000000 0.000000 0.000000
# 4 0.000000 0.000000 0.000000 0.049656 0.000000 0.000000
# 5 0.000000 0.000000 0.000000 0.000000 0.051862 0.000000
# 6 0.000000 0.000000 0.000000 0.000000 0.000000 0.049440
#
#
# Mechanical properties :
#
#
# Convention : Reuss Voigt Hill
#
# Bulk Modulus (GPa) = 41.53213 58.72586 50.12899
# Shear Modulus (GPa) = 17.21602 19.34823 18.28213
#
# Velocity S-wave (km/s) = 3.38241 3.58575 3.48556
# Velocity P-wave (km/s) = 6.54629 7.49460 7.03644
#
# Compressibility (1/GPa) = 0.02407774
#
# Stress axis : x y z
#
# Youngs Moduli (GPa) = 64.39595 23.17489 52.40565
#
# Poissons Ratio (x) = 0.16210 0.33647
# Poissons Ratio (y) = 0.45043 0.70362
# Poissons Ratio (z) = 0.41346 0.31116
#
# Static dielectric constant tensor:
#      x y z
#    x 3.032540 0.000000 0.000000 
#    y 0.000000 2.738070 0.000000 
#    z 0.000000 0.000000 2.920670 
# 
# 
# High freq. dielectric constant tensor:
#      x y z
#    x 1.570180 0.000000 0.000000 
#    y 0.000000 1.556750 0.000000 
#    z 0.000000 0.000000 1.560240 
# 
# From -- ./inp_files/25092.got.cif
#   From: 2010.03.12/outbox.cif.g09.slc.cpg/sg59_13_cif.got.tgz:25092.got - 2010.04.16 16:29:54.
