data_PCOD8239936
_publ_section_title
;
Structure prediction by ZEFSAII (Michael W. Deem and Ramdas Pophale) SiO2 
 PCOD8239936
Probable space group: P M M N
;
_chemical_formula_sum "Si O2"
_cell_formula_units_Z 40
_cell_length_a 17.849040
_cell_length_b 20.471298
_cell_length_c 6.441057
_cell_angle_alpha 90.000000
_cell_angle_beta 90.000000
_cell_angle_gamma 90.000000
_cell_volume 2353.517249
_symmetry_space_group_name_H-M "P M M N"
_symmetry_group_IT_number 59
_space_group.IT_coordinate_system_code '2'
_symmetry_cell_setting 'orthorhombic'
loop_
_space_group_symop_operation_xyz
x,y,z
1/2-x,1/2-y,z
1/2+x,-y,-z
-x,1/2+y,-z
-x,-y,-z
1/2+x,1/2+y,-z
1/2-x,y,z
x,1/2-y,z
loop_
_atom_site_type_symbol
_atom_site_label
_atom_site_fract_x
_atom_site_fract_y
_atom_site_fract_z
Si Si1 0.029781 0.822560 0.154747
Si Si2 0.577957 0.100605 0.464448
Si Si3 0.835305 0.015019 0.790494
Si Si4 0.333815 0.636057 0.919189
Si Si5 0.968314 0.936884 0.886121
O O1 0.994091 0.750000 0.151273
O O2 0.037903 0.845789 0.391215
O O3 0.112519 0.818057 0.054360
O O4 0.977611 0.871951 0.024281
O O5 0.621922 0.046916 0.596908
O O6 0.639104 0.135621 0.318412
O O7 0.512339 0.068217 0.330038
O O8 0.750000 0.997718 0.729582
O O9 0.879759 0.948353 0.845871
O O10 0.837935 0.062719 0.989008
O O11 0.250000 0.664438 0.930274
O O12 0.000000 0.000000 0.000000
#
# Coordination Sequence:
#
# PCOD8239936 Si02
#       5
#     8   8   8   8   8
#     4  10  22  35  49  73 105 140 179 215 255 310
#     4  10  18  31  54  75 106 137 177 208 262 308
#     4  10  19  31  51  83 108 130 167 219 267 310
#     4   9  18  32  50  74 108 140 170 208 253 306
#     4  11  19  35  57  78 103 137 174 220 260 305
#
# _framework density 16.995839
#
# number of rings (size 3 to 8) (size 9 to 14) (size 15 to 20)
#    0.000    2.000    6.000    1.200    0.000    4.400 
#    0.000    0.000    0.000    0.600    0.000    0.000 
#    0.000    0.000    0.000    0.000    0.000    0.000 
#
# Total GULP energy -495869.696509 kJ/mol
# GULP energy per Si atom -12396.742413 kJ/mol
# Density = 1.695716 g / cm^3
# Si number density = 16.995839 Si / 1000 Ang^3
#
#
#
# Elastic Constant Matrix: (Units=GPa)
#
#
# Indices 1 2 3 4 5 6 
#
# 1 81.5178 48.1657 30.6173 0.0000 0.0000 0.0000
# 2 48.1657 107.5113 45.3992 0.0000 0.0000 0.0000
# 3 30.6173 45.3992 111.6715 0.0000 0.0000 0.0000
# 4 0.0000 0.0000 0.0000 10.7258 0.0000 0.0000
# 5 0.0000 0.0000 0.0000 0.0000 14.8812 0.0000
# 6 0.0000 0.0000 0.0000 0.0000 0.0000 16.5008
#
#
#
# Elastic Compliance Matrix: (Units=1/GPa)
#
#
# Indices 1 2 3 4 5 6 
#
# 1 0.017008 -0.006821 -0.001890 0.000000 0.000000 0.000000
# 2 -0.006821 0.013965 -0.003807 0.000000 0.000000 0.000000
# 3 -0.001890 -0.003807 0.011021 0.000000 0.000000 0.000000
# 4 0.000000 0.000000 0.000000 0.093233 0.000000 0.000000
# 5 0.000000 0.000000 0.000000 0.000000 0.067199 0.000000
# 6 0.000000 0.000000 0.000000 0.000000 0.000000 0.060603
#
#
# Mechanical properties :
#
#
# Convention : Reuss Voigt Hill
#
# Bulk Modulus (GPa) = 58.97422 61.00722 59.99072
# Shear Modulus (GPa) = 17.02314 20.18945 18.60630
#
# Velocity S-wave (km/s) = 3.16825 3.45034 3.31230
# Velocity P-wave (km/s) = 6.93962 7.20045 7.07123
#
# Compressibility (1/GPa) = 0.01695656
#
# Stress axis : x y z
#
# Youngs Moduli (GPa) = 58.79728 71.60732 90.73817
#
# Poissons Ratio (x) = 0.48847 0.17148
# Poissons Ratio (y) = 0.40108 0.34545
# Poissons Ratio (z) = 0.11112 0.27262
#
# Static dielectric constant tensor:
#      x y z
#    x 3.382940 0.000000 0.000000 
#    y 0.000000 2.923680 0.000000 
#    z 0.000000 0.000000 3.337840 
# 
# 
# High freq. dielectric constant tensor:
#      x y z
#    x 1.640010 0.000000 0.000000 
#    y 0.000000 1.625130 0.000000 
#    z 0.000000 0.000000 1.670300 
# 
# From -- ./inp_files/2636.got.cif
#   From: 2010.03.12/outbox.cif.g09.slc.cpg/sg59_2_cif.got.tgz:2636.got - 2010.04.16 16:29:54.
