data_PCOD8239865
_publ_section_title
;
Structure prediction by ZEFSAII (Michael W. Deem and Ramdas Pophale) SiO2 
 PCOD8239865
Probable space group: P M M N
;
_chemical_formula_sum "Si O2"
_cell_formula_units_Z 48
_cell_length_a 21.786996
_cell_length_b 8.323236
_cell_length_c 12.638911
_cell_angle_alpha 90.000000
_cell_angle_beta 90.000000
_cell_angle_gamma 90.000000
_cell_volume 2291.918754
_symmetry_space_group_name_H-M "P M M N"
_symmetry_group_IT_number 59
_space_group.IT_coordinate_system_code '2'
_symmetry_cell_setting 'orthorhombic'
loop_
_space_group_symop_operation_xyz
x,y,z
1/2-x,1/2-y,z
1/2+x,-y,-z
-x,1/2+y,-z
-x,-y,-z
1/2+x,1/2+y,-z
1/2-x,y,z
x,1/2-y,z
loop_
_atom_site_type_symbol
_atom_site_label
_atom_site_fract_x
_atom_site_fract_y
_atom_site_fract_z
Si Si1 0.349200 0.065612 0.849645
Si Si2 0.430812 0.058293 0.476619
Si Si3 0.181733 0.436582 0.075801
Si Si4 0.091630 0.431432 0.246194
Si Si5 0.525303 0.431529 0.108373
Si Si6 0.318260 0.058925 0.621981
O O1 0.329150 0.250000 0.849542
O O2 0.322475 0.988037 0.741879
O O3 0.422085 0.047379 0.848972
O O4 0.324268 0.983935 0.958608
O O5 0.432805 0.250000 0.476549
O O6 0.410481 0.988252 0.361902
O O7 0.376878 0.992508 0.555130
O O8 0.500000 0.000000 0.500000
O O9 0.250000 0.458192 0.118983
O O10 0.162281 0.250000 0.063907
O O11 0.137546 0.520091 0.163077
O O12 0.115746 0.250000 0.260284
O O13 0.024044 0.436056 0.200205
O O14 0.549076 0.250000 0.090288
O O15 0.500000 0.500000 0.000000
O O16 0.250000 0.009788 0.577147
O O17 0.324081 0.250000 0.623861
#
# Coordination Sequence:
#
# PCOD8239865 Si02
#       6
#     8   8   8   8   8   8
#     4  10  18  31  51  76 105 134 168 209 256 311
#     4  10  20  35  55  77 106 139 176 223 269 315
#     4   9  16  27  46  71  97 127 163 202 244 293
#     4   9  18  31  47  72 101 128 164 208 252 301
#     4  11  20  32  50  74 104 135 169 211 259 313
#     4   9  18  32  53  82 110 139 180 228 271 313
#
# _framework density 20.943151
#
# number of rings (size 3 to 8) (size 9 to 14) (size 15 to 20)
#    0.000    2.333    1.667    2.000    0.000    2.667 
#    0.000    4.167    0.000    3.500    0.000    0.000 
#    0.000    0.000    0.000    0.000    0.000    0.000 
#
# Total GULP energy -594662.711055 kJ/mol
# GULP energy per Si atom -12388.806480 kJ/mol
# Density = 2.089548 g / cm^3
# Si number density = 20.943151 Si / 1000 Ang^3
#
#
#
# Elastic Constant Matrix: (Units=GPa)
#
#
# Indices 1 2 3 4 5 6 
#
# 1 152.5286 1.7798 72.4410 0.0000 0.0000 0.0000
# 2 1.7798 11.4893 8.3703 0.0000 0.0000 0.0000
# 3 72.4410 8.3703 174.0960 0.0000 0.0000 0.0000
# 4 0.0000 0.0000 0.0000 10.5156 0.0000 0.0000
# 5 0.0000 0.0000 0.0000 0.0000 30.9422 0.0000
# 6 0.0000 0.0000 0.0000 0.0000 0.0000 22.5251
#
#
#
# Elastic Compliance Matrix: (Units=1/GPa)
#
#
# Indices 1 2 3 4 5 6 
#
# 1 0.008188 0.001258 -0.003468 0.000000 0.000000 0.000000
# 2 0.001258 0.090390 -0.004869 0.000000 0.000000 0.000000
# 3 -0.003468 -0.004869 0.007421 0.000000 0.000000 0.000000
# 4 0.000000 0.000000 0.000000 0.095097 0.000000 0.000000
# 5 0.000000 0.000000 0.000000 0.000000 0.032318 0.000000
# 6 0.000000 0.000000 0.000000 0.000000 0.000000 0.044395
#
#
# Mechanical properties :
#
#
# Convention : Reuss Voigt Hill
#
# Bulk Modulus (GPa) = 10.88837 55.92179 33.40508
# Shear Modulus (GPa) = 15.49998 29.83141 22.66570
#
# Velocity S-wave (km/s) = 2.72343 3.77822 3.29332
# Velocity P-wave (km/s) = 3.88583 6.76705 5.51782
#
# Compressibility (1/GPa) = 0.09184108
#
# Stress axis : x y z
#
# Youngs Moduli (GPa) = 122.12442 11.06319 134.75381
#
# Poissons Ratio (x) = -0.01392 0.46728
# Poissons Ratio (y) = -0.15361 0.65614
# Poissons Ratio (z) = 0.42348 0.05387
#
# Static dielectric constant tensor:
#      x y z
#    x 3.833930 0.000000 0.000000 
#    y 0.000000 3.384880 0.000000 
#    z 0.000000 0.000000 4.323600 
# 
# 
# High freq. dielectric constant tensor:
#      x y z
#    x 1.831090 0.000000 0.000000 
#    y 0.000000 1.748200 0.000000 
#    z 0.000000 0.000000 1.833480 
# 
# From -- ./inp_files/18582.got.cif
#   From: 2010.03.12/outbox.cif.g09.slc.cpg/sg59_10_cif.got.tgz:18582.got - 2010.04.16 16:29:54.
