data_PCOD8239021
_publ_section_title
;
Structure prediction by ZEFSAII (Michael W. Deem and Ramdas Pophale) SiO2 
 PCOD8239021
Probable space group: P M M N
;
_chemical_formula_sum "Si O2"
_cell_formula_units_Z 40
_cell_length_a 8.561106
_cell_length_b 18.481344
_cell_length_c 14.133793
_cell_angle_alpha 90.000000
_cell_angle_beta 90.000000
_cell_angle_gamma 90.000000
_cell_volume 2236.259258
_symmetry_space_group_name_H-M "P M M N"
_symmetry_group_IT_number 59
_space_group.IT_coordinate_system_code '2'
_symmetry_cell_setting 'orthorhombic'
loop_
_space_group_symop_operation_xyz
x,y,z
1/2-x,1/2-y,z
1/2+x,-y,-z
-x,1/2+y,-z
-x,-y,-z
1/2+x,1/2+y,-z
1/2-x,y,z
x,1/2-y,z
loop_
_atom_site_type_symbol
_atom_site_label
_atom_site_fract_x
_atom_site_fract_y
_atom_site_fract_z
Si Si1 0.569577 0.829514 0.677637
Si Si2 0.564637 0.376784 0.140775
Si Si3 0.934776 0.924215 0.038029
Si Si4 0.934708 0.026976 0.783237
Si Si5 0.565588 0.474635 0.400923
O O1 0.750000 0.852492 0.685487
O O2 0.551717 0.750000 0.629017
O O3 0.497352 0.819258 0.783096
O O4 0.482459 0.891223 0.617719
O O5 0.750000 0.378043 0.138586
O O6 0.495884 0.451783 0.177207
O O7 0.499237 0.362443 0.034211
O O8 0.750000 0.924635 0.037982
O O9 0.997425 0.911220 0.145544
O O10 0.000000 0.000000 0.000000
O O11 0.750000 0.031708 0.782691
O O12 0.998821 0.031726 0.676337
O O13 0.500000 0.500000 0.500000
O O14 0.750000 0.479649 0.400170
#
# Coordination Sequence:
#
# PCOD8239021 Si02
#       5
#     8   8   8   8   8
#     4  10  20  34  51  72  99 130 164 203 250 304
#     4  10  17  26  41  63  91 122 155 190 231 280
#     4  10  16  24  38  59  88 120 152 184 223 270
#     4  10  17  27  42  63  91 121 155 194 239 286
#     4  11  21  34  51  72  99 130 167 211 260 306
#
# _framework density 17.887014000000001
#
# number of rings (size 3 to 8) (size 9 to 14) (size 15 to 20)
#    0.000    1.800    0.000   12.600    0.000    1.600 
#    0.000    0.000    0.000    0.000    0.000    1.400 
#    0.000   11.200    0.000    0.000    0.000    0.000 
#
# Total GULP energy -495583.123382 kJ/mol
# GULP energy per Si atom -12389.578085 kJ/mol
# Density = 1.784630 g / cm^3
# Si number density = 17.887014 Si / 1000 Ang^3
#
#
#
# Elastic Constant Matrix: (Units=GPa)
#
#
# Indices 1 2 3 4 5 6 
#
# 1 193.4987 22.2030 61.1328 0.0000 0.0000 0.0000
# 2 22.2030 41.9141 34.4291 0.0000 0.0000 0.0000
# 3 61.1328 34.4291 151.2561 0.0000 0.0000 0.0000
# 4 0.0000 0.0000 0.0000 15.4057 0.0000 0.0000
# 5 0.0000 0.0000 0.0000 0.0000 35.8138 0.0000
# 6 0.0000 0.0000 0.0000 0.0000 0.0000 15.5301
#
#
#
# Elastic Compliance Matrix: (Units=1/GPa)
#
#
# Indices 1 2 3 4 5 6 
#
# 1 0.005996 -0.001458 -0.002091 0.000000 0.000000 0.000000
# 2 -0.001458 0.029700 -0.006171 0.000000 0.000000 0.000000
# 3 -0.002091 -0.006171 0.008861 0.000000 0.000000 0.000000
# 4 0.000000 0.000000 0.000000 0.064911 0.000000 0.000000
# 5 0.000000 0.000000 0.000000 0.000000 0.027922 0.000000
# 6 0.000000 0.000000 0.000000 0.000000 0.000000 0.064391
#
#
# Mechanical properties :
#
#
# Convention : Reuss Voigt Hill
#
# Bulk Modulus (GPa) = 39.81574 69.13320 54.47447
# Shear Modulus (GPa) = 21.77751 31.27686 26.52719
#
# Velocity S-wave (km/s) = 3.49306 4.18614 3.85521
# Velocity P-wave (km/s) = 6.21100 7.88028 7.09491
#
# Compressibility (1/GPa) = 0.02511569
#
# Stress axis : x y z
#
# Youngs Moduli (GPa) = 166.77514 33.67036 112.85096
#
# Poissons Ratio (x) = 0.04910 0.23603
# Poissons Ratio (y) = 0.24321 0.69639
# Poissons Ratio (z) = 0.34881 0.20778
#
# Static dielectric constant tensor:
#      x y z
#    x 3.420470 0.000000 0.000000 
#    y 0.000000 3.092380 0.000000 
#    z 0.000000 0.000000 4.072940 
# 
# 
# High freq. dielectric constant tensor:
#      x y z
#    x 1.719830 0.000000 0.000000 
#    y 0.000000 1.627950 0.000000 
#    z 0.000000 0.000000 1.696430 
# 
# From -- ./inp_files/20658.got.cif
#   From: 2010.03.12/outbox.cif.g09.slc.cpg/sg59_11_cif.got.tgz:20658.got - 2010.04.16 16:29:54.
