data_PCOD8239596
_publ_section_title
;
Structure prediction by ZEFSAII (Michael W. Deem and Ramdas Pophale) SiO2 
 PCOD8239596
Probable space group: P M M N
;
_chemical_formula_sum "Si O2"
_cell_formula_units_Z 48
_cell_length_a 8.655384
_cell_length_b 20.747831
_cell_length_c 15.132331
_cell_angle_alpha 90.000000
_cell_angle_beta 90.000000
_cell_angle_gamma 90.000000
_cell_volume 2717.470727
_symmetry_space_group_name_H-M "P M M N"
_symmetry_group_IT_number 59
_space_group.IT_coordinate_system_code '2'
_symmetry_cell_setting 'orthorhombic'
loop_
_space_group_symop_operation_xyz
x,y,z
1/2-x,1/2-y,z
1/2+x,-y,-z
-x,1/2+y,-z
-x,-y,-z
1/2+x,1/2+y,-z
1/2-x,y,z
x,1/2-y,z
loop_
_atom_site_type_symbol
_atom_site_label
_atom_site_fract_x
_atom_site_fract_y
_atom_site_fract_z
Si Si1 0.426391 0.320097 0.019917
Si Si2 0.432094 0.049790 0.929037
Si Si3 0.573383 0.140132 0.191008
Si Si4 0.929905 0.989306 0.764698
Si Si5 0.066436 0.959685 0.580033
Si Si6 0.070929 0.819024 0.616001
O O1 0.250000 0.331034 0.049906
O O2 0.445711 0.250000 0.972888
O O3 0.533515 0.317377 0.106467
O O4 0.477659 0.377298 0.955158
O O5 0.250000 0.038612 0.924308
O O6 0.505139 0.042617 0.831875
O O7 0.500000 0.000000 0.000000
O O8 0.750000 0.115474 0.187289
O O9 0.460281 0.079009 0.189149
O O10 0.545817 0.181437 0.278815
O O11 0.750000 0.000622 0.748634
O O12 0.015816 0.993656 0.670722
O O13 0.250000 0.959074 0.576290
O O14 0.000536 0.885429 0.575302
O O15 0.000000 0.000000 0.500000
O O16 0.250000 0.818662 0.591936
O O17 0.998783 0.750000 0.581364
#
# Coordination Sequence:
#
# PCOD8239596 Si02
#       6
#     8   8   8   8   8   8
#     4  10  21  34  48  70 103 141 178 220 270 318
#     4  11  21  34  53  76 105 140 180 220 260 313
#     4  10  18  29  48  74 104 137 173 211 258 316
#     4  11  21  34  53  77 105 138 177 221 264 312
#     4  10  20  35  56  81 108 137 172 216 266 320
#     4   8  15  28  47  73 103 133 165 204 252 307
#
# _framework density 17.663484
#
# number of rings (size 3 to 8) (size 9 to 14) (size 15 to 20)
#    0.000    2.000    1.667    4.500    0.000    1.667 
#    0.000    0.000    0.000   11.000    0.000    0.000 
#    0.000    0.000    0.000    0.000    0.000    0.000 
#
# Total GULP energy -594873.948205 kJ/mol
# GULP energy per Si atom -12393.207254 kJ/mol
# Density = 1.762328 g / cm^3
# Si number density = 17.663484 Si / 1000 Ang^3
#
#
#
# Elastic Constant Matrix: (Units=GPa)
#
#
# Indices 1 2 3 4 5 6 
#
# 1 71.0200 36.0252 30.1888 0.0000 0.0000 0.0000
# 2 36.0252 145.9376 73.9338 0.0000 0.0000 0.0000
# 3 30.1888 73.9338 99.4624 0.0000 0.0000 0.0000
# 4 0.0000 0.0000 0.0000 16.3307 0.0000 0.0000
# 5 0.0000 0.0000 0.0000 0.0000 28.9439 0.0000
# 6 0.0000 0.0000 0.0000 0.0000 0.0000 18.1141
#
#
#
# Elastic Compliance Matrix: (Units=1/GPa)
#
#
# Indices 1 2 3 4 5 6 
#
# 1 0.016714 -0.002496 -0.003218 0.000000 0.000000 0.000000
# 2 -0.002496 0.011364 -0.007690 0.000000 0.000000 0.000000
# 3 -0.003218 -0.007690 0.016747 0.000000 0.000000 0.000000
# 4 0.000000 0.000000 0.000000 0.061234 0.000000 0.000000
# 5 0.000000 0.000000 0.000000 0.000000 0.034550 0.000000
# 6 0.000000 0.000000 0.000000 0.000000 0.000000 0.055206
#
#
# Mechanical properties :
#
#
# Convention : Reuss Voigt Hill
#
# Bulk Modulus (GPa) = 55.49911 66.30171 60.90041
# Shear Modulus (GPa) = 21.86956 24.42920 23.14938
#
# Velocity S-wave (km/s) = 3.52251 3.72295 3.62412
# Velocity P-wave (km/s) = 6.93056 7.48986 7.21563
#
# Compressibility (1/GPa) = 0.01801831
#
# Stress axis : x y z
#
# Youngs Moduli (GPa) = 59.82863 87.99660 59.71268
#
# Poissons Ratio (x) = 0.21962 0.19215
# Poissons Ratio (y) = 0.14932 0.45918
# Poissons Ratio (z) = 0.19253 0.67668
#
# Static dielectric constant tensor:
#      x y z
#    x 3.217290 0.000000 0.000000 
#    y 0.000000 3.501970 0.000000 
#    z 0.000000 0.000000 3.115920 
# 
# 
# High freq. dielectric constant tensor:
#      x y z
#    x 1.678180 0.000000 0.000000 
#    y 0.000000 1.685800 0.000000 
#    z 0.000000 0.000000 1.652530 
# 
# From -- ./inp_files/20723.got.cif
#   From: 2010.03.12/outbox.cif.g09.slc.cpg/sg59_11_cif.got.tgz:20723.got - 2010.04.16 16:29:54.
