data_PCOD8239411
_publ_section_title
;
Structure prediction by ZEFSAII (Michael W. Deem and Ramdas Pophale) SiO2 
 PCOD8239411
Probable space group: P M M N
;
_chemical_formula_sum "Si O2"
_cell_formula_units_Z 48
_cell_length_a 21.500648
_cell_length_b 8.653390
_cell_length_c 15.120626
_cell_angle_alpha 90.000000
_cell_angle_beta 90.000000
_cell_angle_gamma 90.000000
_cell_volume 2813.245275
_symmetry_space_group_name_H-M "P M M N"
_symmetry_group_IT_number 59
_space_group.IT_coordinate_system_code '2'
_symmetry_cell_setting 'orthorhombic'
loop_
_space_group_symop_operation_xyz
x,y,z
1/2-x,1/2-y,z
1/2+x,-y,-z
-x,1/2+y,-z
-x,-y,-z
1/2+x,1/2+y,-z
1/2-x,y,z
x,1/2-y,z
loop_
_atom_site_type_symbol
_atom_site_label
_atom_site_fract_x
_atom_site_fract_y
_atom_site_fract_z
Si Si1 0.678967 0.571228 0.203594
Si Si2 0.932377 0.567003 0.519668
Si Si3 0.093252 0.568743 0.654211
Si Si4 0.456151 0.072461 0.127737
Si Si5 0.959735 0.069329 0.693403
Si Si6 0.920683 0.572310 0.062623
O O1 0.750000 0.520926 0.190454
O O2 0.672812 0.750000 0.231137
O O3 0.649919 0.468043 0.280896
O O4 0.644706 0.539965 0.110311
O O5 0.931001 0.750000 0.514014
O O6 0.888085 0.495933 0.443467
O O7 0.915884 0.511281 0.618974
O O8 0.000000 0.500000 0.500000
O O9 0.081122 0.750000 0.648886
O O10 0.030882 0.488151 0.690043
O O11 0.451404 0.250000 0.155871
O O12 0.432018 0.971297 0.210264
O O13 0.527814 0.036533 0.106018
O O14 0.413740 0.034946 0.041878
O O15 0.958412 0.250000 0.676592
O O16 0.942282 0.750000 0.075126
#
# Coordination Sequence:
#
# PCOD8239411 Si02
#       6
#     8   8   8   8   8   8
#     4  10  20  34  51  70  94 128 166 202 239 282
#     4  10  18  29  45  66  93 124 155 189 231 281
#     4  11  20  31  46  67  95 126 159 196 237 284
#     4  10  18  28  45  69  95 126 159 196 242 294
#     4  11  19  29  45  68  97 127 157 192 238 290
#     4   9  18  31  46  66  94 126 160 198 241 289
#
# _framework density 17.062145000000001
#
# number of rings (size 3 to 8) (size 9 to 14) (size 15 to 20)
#    0.000    1.833    1.667    7.000    0.000    1.000 
#    0.000    0.000    0.000    0.000    0.000    1.167 
#    0.000    6.667    0.000    0.000    0.000    0.000 
#
# Total GULP energy -595117.760305 kJ/mol
# GULP energy per Si atom -12398.286673 kJ/mol
# Density = 1.702331 g / cm^3
# Si number density = 17.062145 Si / 1000 Ang^3
#
#
#
# Elastic Constant Matrix: (Units=GPa)
#
#
# Indices 1 2 3 4 5 6 
#
# 1 56.9179 19.1887 40.5194 0.0000 0.0000 0.0000
# 2 19.1887 103.2490 45.2426 0.0000 0.0000 0.0000
# 3 40.5194 45.2426 150.8231 0.0000 0.0000 0.0000
# 4 0.0000 0.0000 0.0000 32.0045 0.0000 0.0000
# 5 0.0000 0.0000 0.0000 0.0000 18.0962 0.0000
# 6 0.0000 0.0000 0.0000 0.0000 0.0000 14.3203
#
#
#
# Elastic Compliance Matrix: (Units=1/GPa)
#
#
# Indices 1 2 3 4 5 6 
#
# 1 0.021987 -0.001725 -0.005390 0.000000 0.000000 0.000000
# 2 -0.001725 0.011286 -0.002922 0.000000 0.000000 0.000000
# 3 -0.005390 -0.002922 0.008955 0.000000 0.000000 0.000000
# 4 0.000000 0.000000 0.000000 0.031246 0.000000 0.000000
# 5 0.000000 0.000000 0.000000 0.000000 0.055260 0.000000
# 6 0.000000 0.000000 0.000000 0.000000 0.000000 0.069831
#
#
# Mechanical properties :
#
#
# Convention : Reuss Voigt Hill
#
# Bulk Modulus (GPa) = 45.13553 57.87682 51.50618
# Shear Modulus (GPa) = 22.12157 26.62015 24.37086
#
# Velocity S-wave (km/s) = 3.60464 3.95421 3.78346
# Velocity P-wave (km/s) = 6.62085 7.40557 7.02418
#
# Compressibility (1/GPa) = 0.02215549
#
# Stress axis : x y z
#
# Youngs Moduli (GPa) = 45.48043 88.60264 111.67134
#
# Poissons Ratio (x) = 0.15281 0.60188
# Poissons Ratio (y) = 0.07844 0.32633
# Poissons Ratio (z) = 0.24513 0.25892
#
# Static dielectric constant tensor:
#      x y z
#    x 2.695230 0.000000 0.000000 
#    y 0.000000 3.253910 0.000000 
#    z 0.000000 0.000000 3.954010 
# 
# 
# High freq. dielectric constant tensor:
#      x y z
#    x 1.582080 0.000000 0.000000 
#    y 0.000000 1.672080 0.000000 
#    z 0.000000 0.000000 1.682700 
# 
# From -- ./inp_files/24494.got.cif
#   From: 2010.03.12/outbox.cif.g09.slc.cpg/sg59_13_cif.got.tgz:24494.got - 2010.04.16 16:29:54.
