data_PCOD8239871
_publ_section_title
;
Structure prediction by ZEFSAII (Michael W. Deem and Ramdas Pophale) SiO2 
 PCOD8239871
Probable space group: P M M N
;
_chemical_formula_sum "Si O2"
_cell_formula_units_Z 56
_cell_length_a 17.955756
_cell_length_b 18.976059
_cell_length_c 9.397813
_cell_angle_alpha 90.000000
_cell_angle_beta 90.000000
_cell_angle_gamma 90.000000
_cell_volume 3202.111986
_symmetry_space_group_name_H-M "P M M N"
_symmetry_group_IT_number 59
_space_group.IT_coordinate_system_code '2'
_symmetry_cell_setting 'orthorhombic'
loop_
_space_group_symop_operation_xyz
x,y,z
1/2-x,1/2-y,z
1/2+x,-y,-z
-x,1/2+y,-z
-x,-y,-z
1/2+x,1/2+y,-z
1/2-x,y,z
x,1/2-y,z
loop_
_atom_site_type_symbol
_atom_site_label
_atom_site_fract_x
_atom_site_fract_y
_atom_site_fract_z
Si Si1 0.164376 0.168602 0.409490
Si Si2 0.542582 0.830221 0.812477
Si Si3 0.833393 0.326760 0.285800
Si Si4 0.559453 0.584749 0.381671
Si Si5 0.007543 0.831481 0.125993
Si Si6 0.668220 0.333779 0.963767
Si Si7 0.943117 0.073694 0.378351
O O1 0.250000 0.144944 0.392932
O O2 0.158445 0.250000 0.457036
O O3 0.124491 0.157206 0.256024
O O4 0.126020 0.121535 0.531564
O O5 0.516708 0.750000 0.777155
O O6 0.487801 0.887865 0.747263
O O7 0.539741 0.841957 0.981302
O O8 0.750000 0.317891 0.336030
O O9 0.872912 0.250000 0.293242
O O10 0.868586 0.380968 0.397677
O O11 0.839578 0.358359 0.126719
O O12 0.540242 0.628015 0.241991
O O13 0.580712 0.505435 0.336393
O O14 0.485170 0.578293 0.473638
O O15 0.010510 0.750000 0.169515
O O16 0.093582 0.860885 0.117711
O O17 0.750000 0.360479 0.903662
O O18 0.668660 0.250000 0.961653
#
# Coordination Sequence:
#
# PCOD8239871 Si02
#       7
#     8   8   8   8   8   8   8
#     4   9  18  35  56  73  93 129 173 214 258 311
#     4   9  17  31  54  76  95 125 169 213 257 305
#     4   9  16  28  50  76  97 125 168 211 246 289
#     4  10  22  33  48  74 103 137 172 207 257 307
#     4  10  18  31  51  78 105 130 165 217 265 298
#     4   8  14  26  46  72 101 131 159 193 246 302
#     4  10  19  34  49  71 101 138 175 203 244 303
#
# _framework density 17.488455999999999
#
# number of rings (size 3 to 8) (size 9 to 14) (size 15 to 20)
#    0.000    2.714    1.429    1.714    0.000    2.857 
#    0.000    1.429    0.000    7.714    0.000    0.000 
#    0.000    0.000    0.000    0.000    0.000    0.000 
#
# Total GULP energy -693792.063194 kJ/mol
# GULP energy per Si atom -12389.143986 kJ/mol
# Density = 1.744865 g / cm^3
# Si number density = 17.488456 Si / 1000 Ang^3
#
#
#
# Elastic Constant Matrix: (Units=GPa)
#
#
# Indices 1 2 3 4 5 6 
#
# 1 123.3209 48.7156 49.7840 0.0000 0.0000 0.0000
# 2 48.7156 93.8403 47.7897 0.0000 0.0000 0.0000
# 3 49.7840 47.7897 77.1664 0.0000 0.0000 0.0000
# 4 0.0000 0.0000 0.0000 17.1982 0.0000 0.0000
# 5 0.0000 0.0000 0.0000 0.0000 16.0125 0.0000
# 6 0.0000 0.0000 0.0000 0.0000 0.0000 0.5429
#
#
#
# Elastic Compliance Matrix: (Units=1/GPa)
#
#
# Indices 1 2 3 4 5 6 
#
# 1 0.011598 -0.003229 -0.005483 0.000000 0.000000 0.000000
# 2 -0.003229 0.016464 -0.008114 0.000000 0.000000 0.000000
# 3 -0.005483 -0.008114 0.021521 0.000000 0.000000 0.000000
# 4 0.000000 0.000000 0.000000 0.058146 0.000000 0.000000
# 5 0.000000 0.000000 0.000000 0.000000 0.062451 0.000000
# 6 0.000000 0.000000 0.000000 0.000000 0.000000 1.842079
#
#
# Mechanical properties :
#
#
# Convention : Reuss Voigt Hill
#
# Bulk Modulus (GPa) = 62.76192 65.21182 63.98687
# Shear Modulus (GPa) = 2.43757 16.61992 9.52875
#
# Velocity S-wave (km/s) = 1.18188 3.08610 2.33675
# Velocity P-wave (km/s) = 6.15045 7.07588 6.62933
#
# Compressibility (1/GPa) = 0.01593323
#
# Stress axis : x y z
#
# Youngs Moduli (GPa) = 86.22408 60.73685 46.46596
#
# Poissons Ratio (x) = 0.19609 0.25476
# Poissons Ratio (y) = 0.27838 0.37701
# Poissons Ratio (z) = 0.47275 0.49280
#
# Static dielectric constant tensor:
#      x y z
#    x 3.506170 0.000000 0.000000 
#    y 0.000000 3.342900 0.000000 
#    z 0.000000 0.000000 3.014440 
# 
# 
# High freq. dielectric constant tensor:
#      x y z
#    x 1.677940 0.000000 0.000000 
#    y 0.000000 1.659710 0.000000 
#    z 0.000000 0.000000 1.651810 
# 
# From -- ./inp_files/10609.got.cif
#   From: 2010.03.12/outbox.cif.g09.slc.cpg/sg59_6_cif.got.tgz:10609.got - 2010.04.16 16:29:54.
