data_PCOD8239422
_publ_section_title
;
Structure prediction by ZEFSAII (Michael W. Deem and Ramdas Pophale) SiO2 
 PCOD8239422
Probable space group: P M M N
;
_chemical_formula_sum "Si O2"
_cell_formula_units_Z 64
_cell_length_a 9.482933
_cell_length_b 23.345947
_cell_length_c 15.535897
_cell_angle_alpha 90.000000
_cell_angle_beta 90.000000
_cell_angle_gamma 90.000000
_cell_volume 3439.461961
_symmetry_space_group_name_H-M "P M M N"
_symmetry_group_IT_number 59
_space_group.IT_coordinate_system_code '2'
_symmetry_cell_setting 'orthorhombic'
loop_
_space_group_symop_operation_xyz
x,y,z
1/2-x,1/2-y,z
1/2+x,-y,-z
-x,1/2+y,-z
-x,-y,-z
1/2+x,1/2+y,-z
1/2-x,y,z
x,1/2-y,z
loop_
_atom_site_type_symbol
_atom_site_label
_atom_site_fract_x
_atom_site_fract_y
_atom_site_fract_z
Si Si1 0.084687 0.613076 0.555114
Si Si2 0.588103 0.979576 0.636171
Si Si3 0.588883 0.011436 0.200150
Si Si4 0.907960 0.113581 0.632979
Si Si5 0.413525 0.381228 0.795860
Si Si6 0.416137 0.184003 0.964399
Si Si7 0.582985 0.186335 0.284138
Si Si8 0.087936 0.876396 0.888485
O O1 0.250000 0.597928 0.565639
O O2 0.057823 0.641278 0.460548
O O3 0.029635 0.656589 0.628224
O O4 0.994037 0.554970 0.562230
O O5 0.750000 0.959601 0.640427
O O6 0.513725 0.965285 0.726472
O O7 0.574617 0.046276 0.616862
O O8 0.750000 0.014852 0.234555
O O9 0.571254 0.054447 0.119075
O O10 0.550222 0.946265 0.174372
O O11 0.750000 0.128734 0.662805
O O12 0.009499 0.136481 0.707622
O O13 0.250000 0.373837 0.776539
O O14 0.463387 0.338583 0.870789
O O15 0.250000 0.175968 0.977129
O O16 0.461834 0.250000 0.973229
O O17 0.493182 0.145829 0.034563
O O18 0.750000 0.189083 0.286438
O O19 0.517769 0.250000 0.279915
O O20 0.533211 0.151851 0.200124
O O21 0.250000 0.859453 0.906862
#
# Coordination Sequence:
#
# PCOD8239422 Si02
#       8
#     8   8   8   8   8   8   8   8
#     4  10  18  31  49  70 101 139 174 208 249 299
#     4  10  18  28  45  74 107 136 168 206 250 300
#     4   9  17  32  53  77 104 135 169 205 256 313
#     4   9  19  32  49  75 105 134 168 213 259 297
#     4   9  19  36  56  75 101 137 174 210 254 312
#     4  10  22  39  56  76 103 136 173 212 257 307
#     4   9  17  30  49  72  99 133 171 208 248 298
#     4  10  19  33  55  80 103 130 169 213 257 308
#
# _framework density 18.607562000000001
#
# number of rings (size 3 to 8) (size 9 to 14) (size 15 to 20)
#    0.000    2.500    1.250    1.125    0.000    3.250 
#    0.000    0.625    0.000    1.125    0.000    0.000 
#    0.000    0.000    0.000    0.000    0.000    0.000 
#
# Total GULP energy -793445.675801 kJ/mol
# GULP energy per Si atom -12397.588684 kJ/mol
# Density = 1.856521 g / cm^3
# Si number density = 18.607562 Si / 1000 Ang^3
#
#
#
# Elastic Constant Matrix: (Units=GPa)
#
#
# Indices 1 2 3 4 5 6 
#
# 1 57.2308 15.2559 44.6593 0.0000 0.0000 0.0000
# 2 15.2559 29.3007 18.0907 0.0000 0.0000 0.0000
# 3 44.6593 18.0907 116.1468 0.0000 0.0000 0.0000
# 4 0.0000 0.0000 0.0000 20.1822 0.0000 0.0000
# 5 0.0000 0.0000 0.0000 0.0000 31.9394 0.0000
# 6 0.0000 0.0000 0.0000 0.0000 0.0000 15.9735
#
#
#
# Elastic Compliance Matrix: (Units=1/GPa)
#
#
# Indices 1 2 3 4 5 6 
#
# 1 0.026697 -0.008367 -0.008962 0.000000 0.000000 0.000000
# 2 -0.008367 0.040382 -0.003073 0.000000 0.000000 0.000000
# 3 -0.008962 -0.003073 0.012534 0.000000 0.000000 0.000000
# 4 0.000000 0.000000 0.000000 0.049549 0.000000 0.000000
# 5 0.000000 0.000000 0.000000 0.000000 0.031309 0.000000
# 6 0.000000 0.000000 0.000000 0.000000 0.000000 0.062604
#
#
# Mechanical properties :
#
#
# Convention : Reuss Voigt Hill
#
# Bulk Modulus (GPa) = 25.76626 39.85445 32.81036
# Shear Modulus (GPa) = 18.06262 21.93052 19.99657
#
# Velocity S-wave (km/s) = 3.11901 3.43677 3.28174
# Velocity P-wave (km/s) = 5.18153 6.10028 5.65958
#
# Compressibility (1/GPa) = 0.03881044
#
# Stress axis : x y z
#
# Youngs Moduli (GPa) = 37.45775 24.76321 79.78108
#
# Poissons Ratio (x) = 0.20719 0.71499
# Poissons Ratio (y) = 0.31341 0.24514
# Poissons Ratio (z) = 0.33569 0.07609
#
# Static dielectric constant tensor:
#      x y z
#    x 3.292470 0.000000 0.000000 
#    y 0.000000 3.474020 0.000000 
#    z 0.000000 0.000000 3.413110 
# 
# 
# High freq. dielectric constant tensor:
#      x y z
#    x 1.703750 0.000000 0.000000 
#    y 0.000000 1.708970 0.000000 
#    z 0.000000 0.000000 1.720400 
# 
# From -- ./inp_files/21440.got.cif
#   From: 2010.03.12/outbox.cif.g09.slc.cpg/sg59_11_cif.got.tgz:21440.got - 2010.04.16 16:29:54.
