data_PCOD8239978
_publ_section_title
;
Structure prediction by ZEFSAII (Michael W. Deem and Ramdas Pophale) SiO2 
 PCOD8239978
Probable space group: P M M N
;
_chemical_formula_sum "Si O2"
_cell_formula_units_Z 56
_cell_length_a 27.364082
_cell_length_b 9.008999
_cell_length_c 15.511476
_cell_angle_alpha 90.000000
_cell_angle_beta 90.000000
_cell_angle_gamma 90.000000
_cell_volume 3823.935402
_symmetry_space_group_name_H-M "P M M N"
_symmetry_group_IT_number 59
_space_group.IT_coordinate_system_code '2'
_symmetry_cell_setting 'orthorhombic'
loop_
_space_group_symop_operation_xyz
x,y,z
1/2-x,1/2-y,z
1/2+x,-y,-z
-x,1/2+y,-z
-x,-y,-z
1/2+x,1/2+y,-z
1/2-x,y,z
x,1/2-y,z
loop_
_atom_site_type_symbol
_atom_site_label
_atom_site_fract_x
_atom_site_fract_y
_atom_site_fract_z
Si Si1 0.192258 0.419953 0.762186
Si Si2 0.691953 0.416934 0.405387
Si Si3 0.052531 0.073255 1.000000
Si Si4 0.631456 0.417755 0.905449
Si Si5 0.368544 0.917755 0.905449
Si Si6 0.807742 0.919952 0.762186
Si Si7 0.308047 0.916934 0.405387
O O1 0.250000 0.443292 0.768780
O O2 0.177130 0.250000 0.772697
O O3 0.172011 0.475847 0.669618
O O4 0.168264 0.513240 0.837709
O O5 0.750000 0.419266 0.405097
O O6 0.673248 0.250000 0.387468
O O7 0.673277 0.470802 0.500000
O O8 0.048637 0.250000 1.000000
O O9 0.081618 0.015341 0.085543
O O10 0.081618 0.015341 0.914457
O O11 0.000000 0.000000 0.000000
O O12 0.617987 0.250000 0.877177
O O13 0.668264 0.486760 0.837709
O O14 0.657446 0.416803 0.000000
O O15 0.382013 0.750000 0.877177
O O16 0.750000 0.943291 0.768780
O O17 0.822870 0.750000 0.772697
O O18 0.827990 0.975847 0.669618
O O19 0.250000 0.919267 0.405097
O O20 0.326751 0.750000 0.387468
#
# Coordination Sequence:
#
# PCOD8239978 Si02
#       7
#     8   8   8   8   8   8   8
#     4  10  19  28  40  60  87 118 148 181 219 255
#     4   8  14  25  40  56  76 107 146 183 216 251
#     4  10  18  32  51  68  87 108 134 171 215 257
#     4   9  19  32  45  63  84 112 147 179 211 251
#     4   9  19  32  45  63  84 112 147 179 211 251
#     4  10  19  28  40  60  87 118 148 181 219 255
#     4   8  14  25  40  56  76 107 146 183 216 251
#
# _framework density 14.644598999999999
#
# number of rings (size 3 to 8) (size 9 to 14) (size 15 to 20)
#    0.857    2.000    0.000    3.429    0.000    2.857 
#    0.000    5.714    0.000    0.000    0.000    0.000 
#    0.000    1.143    0.000    4.286    0.000    6.571 
#
# Total GULP energy -693782.142914 kJ/mol
# GULP energy per Si atom -12388.966838 kJ/mol
# Density = 1.461127 g / cm^3
# Si number density = 14.644599 Si / 1000 Ang^3
#
#
#
# Elastic Constant Matrix: (Units=GPa)
#
#
# Indices 1 2 3 4 5 6 
#
# 1 32.4223 36.8731 29.2751 0.0000 0.0000 0.0000
# 2 36.8731 132.1032 57.3957 0.0000 0.0000 0.0000
# 3 29.2751 57.3957 97.4474 0.0000 0.0000 0.0000
# 4 0.0000 0.0000 0.0000 28.2180 0.0000 0.0000
# 5 0.0000 0.0000 0.0000 0.0000 -0.7240 0.0000
# 6 0.0000 0.0000 0.0000 0.0000 0.0000 22.3040
#
#
#
# Elastic Compliance Matrix: (Units=1/GPa)
#
#
# Indices 1 2 3 4 5 6 
#
# 1 0.050743 -0.010133 -0.009276 0.000000 0.000000 0.000000
# 2 -0.010133 0.012197 -0.004140 0.000000 0.000000 0.000000
# 3 -0.009276 -0.004140 0.015487 0.000000 0.000000 0.000000
# 4 0.000000 0.000000 0.000000 0.035438 0.000000 0.000000
# 5 0.000000 0.000000 0.000000 0.000000 -1.381214 0.000000
# 6 0.000000 0.000000 0.000000 0.000000 0.000000 0.044835
#
#
# Mechanical properties :
#
#
# Convention : Reuss Voigt Hill
#
# Bulk Modulus (GPa) = 31.91923 56.56232 44.24078
# Shear Modulus (GPa) = -4.29194 19.18820 7.44813
#
# Velocity S-wave (km/s) = -1.71380 3.62368 2.25765
# Velocity P-wave (km/s) = 4.23404 7.49768 6.08861
#
# Compressibility (1/GPa) = 0.03132907
#
# Stress axis : x y z
#
# Youngs Moduli (GPa) = 19.70723 81.98829 64.57161
#
# Poissons Ratio (x) = 0.83083 0.59894
# Poissons Ratio (y) = 0.19970 0.26730
# Poissons Ratio (z) = 0.18280 0.33940
#
# Static dielectric constant tensor:
#      x y z
#    x 2.389750 0.000000 0.000000 
#    y 0.000000 3.032460 0.000000 
#    z 0.000000 0.000000 3.012210 
# 
# 
# High freq. dielectric constant tensor:
#      x y z
#    x 1.502030 0.000000 0.000000 
#    y 0.000000 1.576740 0.000000 
#    z 0.000000 0.000000 1.559490 
# 
# From -- ./inp_files/24949.got.cif
#   From: 2010.03.12/outbox.cif.g09.slc.cpg/sg59_13_cif.got.tgz:24949.got - 2010.04.16 16:29:54.
