data_PCOD8239755
_publ_section_title
;
Structure prediction by ZEFSAII (Michael W. Deem and Ramdas Pophale) SiO2 
 PCOD8239755
Probable space group: P M M N
;
_chemical_formula_sum "Si O2"
_cell_formula_units_Z 64
_cell_length_a 17.674126
_cell_length_b 8.602954
_cell_length_c 23.130231
_cell_angle_alpha 90.000000
_cell_angle_beta 90.000000
_cell_angle_gamma 90.000000
_cell_volume 3516.944522
_symmetry_space_group_name_H-M "P M M N"
_symmetry_group_IT_number 59
_space_group.IT_coordinate_system_code '2'
_symmetry_cell_setting 'orthorhombic'
loop_
_space_group_symop_operation_xyz
x,y,z
1/2-x,1/2-y,z
1/2+x,-y,-z
-x,1/2+y,-z
-x,-y,-z
1/2+x,1/2+y,-z
1/2-x,y,z
x,1/2-y,z
loop_
_atom_site_type_symbol
_atom_site_label
_atom_site_fract_x
_atom_site_fract_y
_atom_site_fract_z
Si Si1 0.068296 0.934671 0.037218
Si Si2 0.907186 0.570322 0.440328
Si Si3 0.030673 0.569929 0.740077
Si Si4 0.335813 0.427006 0.679191
Si Si5 0.526483 0.435410 0.131266
Si Si6 0.664269 0.431574 0.552068
Si Si7 0.837028 0.566586 0.056581
Si Si8 0.044054 0.433198 0.374453
O O1 0.070744 0.750000 0.037006
O O2 0.050000 0.998399 0.101241
O O3 0.144912 0.001082 0.008102
O O4 0.000000 0.000000 0.000000
O O5 0.909724 0.750000 0.459054
O O6 0.848497 0.539930 0.388449
O O7 0.880756 0.468792 0.493939
O O8 0.990074 0.516916 0.420790
O O9 0.016195 0.750000 0.746938
O O10 0.115861 0.540308 0.719149
O O11 0.019852 0.496787 0.803544
O O12 0.973361 0.504032 0.690735
O O13 0.250000 0.461896 0.695000
O O14 0.358832 0.250000 0.693343
O O15 0.526860 0.250000 0.127947
O O16 0.605405 0.493379 0.103192
O O17 0.750000 0.490473 0.545797
O O18 0.660207 0.250000 0.564612
O O19 0.628751 0.521228 0.607253
O O20 0.750000 0.523329 0.071987
O O21 0.849232 0.750000 0.056498
O O22 0.029943 0.250000 0.377432
#
# Coordination Sequence:
#
# PCOD8239755 Si02
#       8
#     8   8   8   8   8   8   8   8
#     4  10  18  30  50  74 100 130 165 201 239 283
#     4  10  19  33  53  75 100 130 165 202 246 302
#     4   9  20  35  51  72  96 129 170 207 243 287
#     4   9  18  31  47  69  98 131 165 202 244 291
#     4  10  19  33  52  73 100 132 169 208 244 288
#     4  11  23  36  51  74 101 127 159 203 256 308
#     4  10  20  33  50  75 107 138 166 199 242 289
#     4  10  20  36  55  74  99 130 167 207 248 296
#
# _framework density 18.197614999999999
#
# number of rings (size 3 to 8) (size 9 to 14) (size 15 to 20)
#    0.000    2.125    0.000    5.250    0.000    5.250 
#    0.000    2.500    0.000    0.750    0.000    1.750 
#    0.000    0.000    0.000    0.000    0.000    0.000 
#
# Total GULP energy -793383.257278 kJ/mol
# GULP energy per Si atom -12396.613395 kJ/mol
# Density = 1.815620 g / cm^3
# Si number density = 18.197615 Si / 1000 Ang^3
#
#
#
# Elastic Constant Matrix: (Units=GPa)
#
#
# Indices 1 2 3 4 5 6 
#
# 1 64.6963 22.5217 54.4647 0.0000 0.0000 0.0000
# 2 22.5217 64.2240 28.9364 0.0000 0.0000 0.0000
# 3 54.4647 28.9364 134.4943 0.0000 0.0000 0.0000
# 4 0.0000 0.0000 0.0000 24.0312 0.0000 0.0000
# 5 0.0000 0.0000 0.0000 0.0000 13.8881 0.0000
# 6 0.0000 0.0000 0.0000 0.0000 0.0000 27.3629
#
#
#
# Elastic Compliance Matrix: (Units=1/GPa)
#
#
# Indices 1 2 3 4 5 6 
#
# 1 0.024614 -0.004585 -0.008981 0.000000 0.000000 0.000000
# 2 -0.004585 0.018096 -0.002037 0.000000 0.000000 0.000000
# 3 -0.008981 -0.002037 0.011510 0.000000 0.000000 0.000000
# 4 0.000000 0.000000 0.000000 0.041613 0.000000 0.000000
# 5 0.000000 0.000000 0.000000 0.000000 0.072004 0.000000
# 6 0.000000 0.000000 0.000000 0.000000 0.000000 0.036546
#
#
# Mechanical properties :
#
#
# Convention : Reuss Voigt Hill
#
# Bulk Modulus (GPa) = 43.45039 52.80669 48.12854
# Shear Modulus (GPa) = 20.55418 23.55588 22.05503
#
# Velocity S-wave (km/s) = 3.36445 3.60175 3.48512
# Velocity P-wave (km/s) = 6.24672 6.81016 6.53451
#
# Compressibility (1/GPa) = 0.02301475
#
# Stress axis : x y z
#
# Youngs Moduli (GPa) = 40.62784 55.26101 86.87779
#
# Poissons Ratio (x) = 0.25337 0.78026
# Poissons Ratio (y) = 0.18627 0.17694
# Poissons Ratio (z) = 0.36488 0.11255
#
# Static dielectric constant tensor:
#      x y z
#    x 3.478020 0.000000 0.000000 
#    y 0.000000 3.353890 0.000000 
#    z 0.000000 0.000000 3.751060 
# 
# 
# High freq. dielectric constant tensor:
#      x y z
#    x 1.687140 0.000000 0.000000 
#    y 0.000000 1.712370 0.000000 
#    z 0.000000 0.000000 1.700250 
# 
# From -- ./inp_files/32301.got.cif
#   From: 2010.03.12/outbox.cif.g09.slc.cpg/sg59_17_cif.got.tgz:32301.got - 2010.04.16 16:29:54.
