data_PCOD8239306
_publ_section_title
;
Structure prediction by ZEFSAII (Michael W. Deem and Ramdas Pophale) SiO2 
 PCOD8239306
Probable space group: P M M N
;
_chemical_formula_sum "Si O2"
_cell_formula_units_Z 64
_cell_length_a 9.073145
_cell_length_b 21.903154
_cell_length_c 20.339748
_cell_angle_alpha 90.000000
_cell_angle_beta 90.000000
_cell_angle_gamma 90.000000
_cell_volume 4042.128131
_symmetry_space_group_name_H-M "P M M N"
_symmetry_group_IT_number 59
_space_group.IT_coordinate_system_code '2'
_symmetry_cell_setting 'orthorhombic'
loop_
_space_group_symop_operation_xyz
x,y,z
1/2-x,1/2-y,z
1/2+x,-y,-z
-x,1/2+y,-z
-x,-y,-z
1/2+x,1/2+y,-z
1/2-x,y,z
x,1/2-y,z
loop_
_atom_site_type_symbol
_atom_site_label
_atom_site_fract_x
_atom_site_fract_y
_atom_site_fract_z
Si Si1 0.924783 0.026946 0.277705
Si Si2 0.919382 0.680215 0.354995
Si Si3 0.423984 0.601089 0.251546
Si Si4 0.078347 0.436950 0.014297
Si Si5 0.079633 0.462150 0.404519
Si Si6 0.086497 0.944310 0.862488
Si Si7 0.081554 0.421756 0.544525
Si Si8 0.086449 0.410363 0.875243
O O1 0.750000 0.018064 0.282058
O O2 0.967269 0.066631 0.212830
O O3 0.987136 0.062009 0.341710
O O4 0.996697 0.960030 0.276079
O O5 0.750000 0.672786 0.332250
O O6 0.959906 0.750000 0.369688
O O7 0.947719 0.643787 0.422844
O O8 0.025032 0.656523 0.297349
O O9 0.250000 0.592509 0.255186
O O10 0.469953 0.617203 0.176267
O O11 0.250000 0.449503 0.022883
O O12 0.016211 0.410368 0.083504
O O13 0.048374 0.392283 0.951410
O O14 0.000000 0.500000 0.000000
O O15 0.250000 0.464834 0.384662
O O16 0.051232 0.417043 0.466178
O O17 0.028236 0.530150 0.422867
O O18 0.250000 0.917859 0.872479
O O19 0.084827 0.016686 0.872267
O O20 0.250000 0.443901 0.556383
O O21 0.250000 0.386406 0.856803
#
# Coordination Sequence:
#
# PCOD8239306 Si02
#       8
#     8   8   8   8   8   8   8   8
#     4  10  18  28  40  56  81 112 140 170 208 250
#     4  10  20  34  50  63  80 111 142 170 211 260
#     4  11  20  28  41  61  80 102 137 178 213 245
#     4   9  15  22  33  49  70  98 132 166 198 231
#     4  10  18  27  43  65  84 106 136 172 213 251
#     4   8  15  24  34  49  72 102 134 165 199 237
#     4   9  18  31  45  62  84 107 134 170 210 257
#     4   8  15  26  37  50  72 103 134 166 202 241
#
# _framework density 15.833245
#
# number of rings (size 3 to 8) (size 9 to 14) (size 15 to 20)
#    0.000    2.625    1.250    3.750    0.000    6.250 
#    0.000    0.000    0.000    0.000    0.000    0.000 
#    0.000    0.000    0.000    1.125    0.000   20.375 
#
# Total GULP energy -793088.188313 kJ/mol
# GULP energy per Si atom -12392.002942 kJ/mol
# Density = 1.579721 g / cm^3
# Si number density = 15.833245 Si / 1000 Ang^3
#
#
#
# Elastic Constant Matrix: (Units=GPa)
#
#
# Indices 1 2 3 4 5 6 
#
# 1 94.2951 20.7086 67.4632 0.0000 0.0000 0.0000
# 2 20.7086 34.0234 29.4953 0.0000 0.0000 0.0000
# 3 67.4632 29.4953 158.0948 0.0000 0.0000 0.0000
# 4 0.0000 0.0000 0.0000 10.5413 0.0000 0.0000
# 5 0.0000 0.0000 0.0000 0.0000 31.6187 0.0000
# 6 0.0000 0.0000 0.0000 0.0000 0.0000 9.8227
#
#
#
# Elastic Compliance Matrix: (Units=1/GPa)
#
#
# Indices 1 2 3 4 5 6 
#
# 1 0.015824 -0.004507 -0.005912 0.000000 0.000000 0.000000
# 2 -0.004507 0.036346 -0.004858 0.000000 0.000000 0.000000
# 3 -0.005912 -0.004858 0.009754 0.000000 0.000000 0.000000
# 4 0.000000 0.000000 0.000000 0.094865 0.000000 0.000000
# 5 0.000000 0.000000 0.000000 0.000000 0.031627 0.000000
# 6 0.000000 0.000000 0.000000 0.000000 0.000000 0.101805
#
#
# Mechanical properties :
#
#
# Convention : Reuss Voigt Hill
#
# Bulk Modulus (GPa) = 31.87556 57.97193 44.92374
# Shear Modulus (GPa) = 15.09519 21.64628 18.37074
#
# Velocity S-wave (km/s) = 3.09104 3.70150 3.40996
# Velocity P-wave (km/s) = 5.73717 7.41361 6.62861
#
# Compressibility (1/GPa) = 0.03137200
#
# Stress axis : x y z
#
# Youngs Moduli (GPa) = 63.19368 27.51343 102.51786
#
# Poissons Ratio (x) = 0.12399 0.60607
# Poissons Ratio (y) = 0.28479 0.49802
# Poissons Ratio (z) = 0.37359 0.13366
#
# Static dielectric constant tensor:
#      x y z
#    x 3.203500 0.000000 0.000000 
#    y 0.000000 2.361770 0.000000 
#    z 0.000000 0.000000 3.955250 
# 
# 
# High freq. dielectric constant tensor:
#      x y z
#    x 1.616520 0.000000 0.000000 
#    y 0.000000 1.514620 0.000000 
#    z 0.000000 0.000000 1.634450 
# 
# From -- ./inp_files/29762.got.cif
#   From: 2010.03.12/outbox.cif.g09.slc.cpg/sg59_15_cif.got.tgz:29762.got - 2010.04.16 16:29:54.
