data_PCOD8239429
_publ_section_title
;
Structure prediction by ZEFSAII (Michael W. Deem and Ramdas Pophale) SiO2 
 PCOD8239429
Probable space group: P M M N
;
_chemical_formula_sum "Si O2"
_cell_formula_units_Z 56
_cell_length_a 14.354925
_cell_length_b 9.423657
_cell_length_c 23.258365
_cell_angle_alpha 90.000000
_cell_angle_beta 90.000000
_cell_angle_gamma 90.000000
_cell_volume 3146.296013
_symmetry_space_group_name_H-M "P M M N"
_symmetry_group_IT_number 59
_space_group.IT_coordinate_system_code '2'
_symmetry_cell_setting 'orthorhombic'
loop_
_space_group_symop_operation_xyz
x,y,z
1/2-x,1/2-y,z
1/2+x,-y,-z
-x,1/2+y,-z
-x,-y,-z
1/2+x,1/2+y,-z
1/2-x,y,z
x,1/2-y,z
loop_
_atom_site_type_symbol
_atom_site_label
_atom_site_fract_x
_atom_site_fract_y
_atom_site_fract_z
Si Si1 0.854053 0.584720 0.086008
Si Si2 0.356376 0.580737 0.250391
Si Si3 0.956301 0.418017 0.635169
Si Si4 0.358280 0.089709 0.462839
Si Si5 0.459807 0.583478 0.138949
Si Si6 0.851115 0.917747 0.408404
Si Si7 0.858269 0.087717 0.973460
O O1 0.750000 0.539088 0.106465
O O2 0.856745 0.750000 0.070439
O O3 0.885319 0.502783 0.029030
O O4 0.928965 0.550144 0.136324
O O5 0.250000 0.525253 0.249118
O O6 0.358396 0.750000 0.249859
O O7 0.408147 0.522691 0.307159
O O8 0.412748 0.516681 0.195792
O O9 0.943426 0.250000 0.630534
O O10 0.910080 0.485304 0.579785
O O11 0.066283 0.460846 0.635447
O O12 0.250000 0.087229 0.447489
O O13 0.397261 0.250000 0.456197
O O14 0.375047 0.029331 0.527167
O O15 0.440470 0.750000 0.140836
O O16 0.412110 0.522798 0.081318
O O17 0.750000 0.979437 0.387902
O O18 0.842123 0.750000 0.412328
O O19 0.750000 0.075371 0.959165
O O20 0.887573 0.250000 0.985498
#
# Coordination Sequence:
#
# PCOD8239429 Si02
#       7
#     8   8   8   8   8   8   8
#     4   9  17  28  42  62  87 110 133 168 212 251
#     4   9  17  28  42  63  89 112 138 177 218 249
#     4  10  18  28  46  69  89 112 146 187 222 250
#     4   9  17  29  45  64  89 121 148 172 214 270
#     4   9  16  27  42  59  83 115 143 166 202 252
#     4   8  15  28  44  64  91 119 145 175 216 265
#     4   9  16  26  43  65  84 106 139 172 201 243
#
# _framework density 17.798705999999999
#
# number of rings (size 3 to 8) (size 9 to 14) (size 15 to 20)
#    0.000    3.000    0.000    2.571    0.000    2.571 
#    0.000    0.714    0.000    7.286    0.000    2.000 
#    0.000    0.000    0.000    0.000    0.000    0.000 
#
# Total GULP energy -694026.704047 kJ/mol
# GULP energy per Si atom -12393.334001 kJ/mol
# Density = 1.775820 g / cm^3
# Si number density = 17.798706 Si / 1000 Ang^3
#
#
#
# Elastic Constant Matrix: (Units=GPa)
#
#
# Indices 1 2 3 4 5 6 
#
# 1 138.8287 19.0430 89.4759 0.0000 0.0000 0.0000
# 2 19.0430 20.0497 16.1483 0.0000 0.0000 0.0000
# 3 89.4759 16.1483 98.1172 0.0000 0.0000 0.0000
# 4 0.0000 0.0000 0.0000 16.0335 0.0000 0.0000
# 5 0.0000 0.0000 0.0000 0.0000 33.5383 0.0000
# 6 0.0000 0.0000 0.0000 0.0000 0.0000 14.2625
#
#
#
# Elastic Compliance Matrix: (Units=1/GPa)
#
#
# Indices 1 2 3 4 5 6 
#
# 1 0.017806 -0.004420 -0.015510 0.000000 0.000000 0.000000
# 2 -0.004420 0.058595 -0.005613 0.000000 0.000000 0.000000
# 3 -0.015510 -0.005613 0.025260 0.000000 0.000000 0.000000
# 4 0.000000 0.000000 0.000000 0.062370 0.000000 0.000000
# 5 0.000000 0.000000 0.000000 0.000000 0.029817 0.000000
# 6 0.000000 0.000000 0.000000 0.000000 0.000000 0.070114
#
#
# Mechanical properties :
#
#
# Convention : Reuss Voigt Hill
#
# Bulk Modulus (GPa) = 19.77291 56.25889 38.01590
# Shear Modulus (GPa) = 15.06456 21.58874 18.32665
#
# Velocity S-wave (km/s) = 2.91243 3.48651 3.21232
# Velocity P-wave (km/s) = 4.73740 6.91987 5.92991
#
# Compressibility (1/GPa) = 0.05057425
#
# Stress axis : x y z
#
# Youngs Moduli (GPa) = 56.16166 17.06640 39.58843
#
# Poissons Ratio (x) = 0.07543 0.61402
# Poissons Ratio (y) = 0.24821 0.22222
# Poissons Ratio (z) = 0.87108 0.09580
#
# Static dielectric constant tensor:
#      x y z
#    x 3.727070 0.000000 0.000000 
#    y 0.000000 2.871530 0.000000 
#    z 0.000000 0.000000 3.303030 
# 
# 
# High freq. dielectric constant tensor:
#      x y z
#    x 1.708760 0.000000 0.000000 
#    y 0.000000 1.634550 0.000000 
#    z 0.000000 0.000000 1.671480 
# 
# From -- ./inp_files/30375.got.cif
#   From: 2010.03.12/outbox.cif.g09.slc.cpg/sg59_16_cif.got.tgz:30375.got - 2010.04.16 16:29:54.
