data_PCOD8239215
_publ_section_title
;
Structure prediction by ZEFSAII (Michael W. Deem and Ramdas Pophale) SiO2 
 PCOD8239215
Probable space group: P M M N
;
_chemical_formula_sum "Si O2"
_cell_formula_units_Z 48
_cell_length_a 21.925224
_cell_length_b 9.301353
_cell_length_c 14.988575
_cell_angle_alpha 90.000000
_cell_angle_beta 90.000000
_cell_angle_gamma 90.000000
_cell_volume 3056.683772
_symmetry_space_group_name_H-M "P M M N"
_symmetry_group_IT_number 59
_space_group.IT_coordinate_system_code '2'
_symmetry_cell_setting 'orthorhombic'
loop_
_space_group_symop_operation_xyz
x,y,z
1/2-x,1/2-y,z
1/2+x,-y,-z
-x,1/2+y,-z
-x,-y,-z
1/2+x,1/2+y,-z
1/2-x,y,z
x,1/2-y,z
loop_
_atom_site_type_symbol
_atom_site_label
_atom_site_fract_x
_atom_site_fract_y
_atom_site_fract_z
Si Si1 0.098659 0.582227 0.353111
Si Si2 0.035626 0.583571 0.872467
Si Si3 0.080498 0.916330 0.061458
Si Si4 0.960981 0.912742 0.294889
Si Si5 0.562580 0.917353 0.488205
Si Si6 0.817581 0.419970 0.807511
O O1 0.106546 0.750000 0.375351
O O2 0.110711 0.491494 0.444224
O O3 0.147470 0.526294 0.280914
O O4 0.031424 0.550012 0.315338
O O5 0.023225 0.750000 0.855476
O O6 0.064462 0.515280 0.783184
O O7 0.971639 0.509547 0.893147
O O8 0.082254 0.559113 0.954834
O O9 0.066493 0.750000 0.084621
O O10 0.145063 0.964599 0.103548
O O11 0.955814 0.750000 0.260609
O O12 0.919348 0.934429 0.383710
O O13 0.554196 0.750000 0.512531
O O14 0.500000 0.000000 0.500000
O O15 0.750000 0.489610 0.811807
O O16 0.812202 0.250000 0.802923
#
# Coordination Sequence:
#
# PCOD8239215 Si02
#       6
#     8   8   8   8   8   8
#     4   9  16  27  42  61  85 112 141 176 211 251
#     4  10  18  25  41  64  86 114 143 174 217 261
#     4   9  17  30  42  59  87 113 142 179 215 258
#     4   9  16  27  41  59  86 115 139 170 210 256
#     4   9  17  27  40  59  84 114 141 169 209 253
#     4   9  16  28  47  65  83 114 150 179 213 259
#
# _framework density 15.703291999999999
#
# number of rings (size 3 to 8) (size 9 to 14) (size 15 to 20)
#    0.000    2.833    1.667    2.000    0.000    4.000 
#    0.000    0.000    0.000    2.000    0.000    1.167 
#    0.000    6.667    0.000    0.000    0.000    0.000 
#
# Total GULP energy -594858.525068 kJ/mol
# GULP energy per Si atom -12392.885939 kJ/mol
# Density = 1.566755 g / cm^3
# Si number density = 15.703292 Si / 1000 Ang^3
#
#
#
# Elastic Constant Matrix: (Units=GPa)
#
#
# Indices 1 2 3 4 5 6 
#
# 1 68.9543 22.3633 52.6876 0.0000 0.0000 0.0000
# 2 22.3633 72.1415 62.5059 0.0000 0.0000 0.0000
# 3 52.6876 62.5059 142.7558 0.0000 0.0000 0.0000
# 4 0.0000 0.0000 0.0000 31.8784 0.0000 0.0000
# 5 0.0000 0.0000 0.0000 0.0000 18.3769 0.0000
# 6 0.0000 0.0000 0.0000 0.0000 0.0000 10.1242
#
#
#
# Elastic Compliance Matrix: (Units=1/GPa)
#
#
# Indices 1 2 3 4 5 6 
#
# 1 0.020203 0.000319 -0.007596 0.000000 0.000000 0.000000
# 2 0.000319 0.022340 -0.009899 0.000000 0.000000 0.000000
# 3 -0.007596 -0.009899 0.014143 0.000000 0.000000 0.000000
# 4 0.000000 0.000000 0.000000 0.031369 0.000000 0.000000
# 5 0.000000 0.000000 0.000000 0.000000 0.054416 0.000000
# 6 0.000000 0.000000 0.000000 0.000000 0.000000 0.098774
#
#
# Mechanical properties :
#
#
# Convention : Reuss Voigt Hill
#
# Bulk Modulus (GPa) = 44.77733 62.10724 53.44229
# Shear Modulus (GPa) = 17.66524 21.82888 19.74706
#
# Velocity S-wave (km/s) = 3.35765 3.73243 3.54999
# Velocity P-wave (km/s) = 6.60366 7.62961 7.13510
#
# Compressibility (1/GPa) = 0.02233273
#
# Stress axis : x y z
#
# Youngs Moduli (GPa) = 49.49750 44.76308 70.70749
#
# Poissons Ratio (x) = -0.01426 0.53709
# Poissons Ratio (y) = -0.01577 0.69994
# Poissons Ratio (z) = 0.37598 0.44311
#
# Static dielectric constant tensor:
#      x y z
#    x 2.772980 0.000000 0.000000 
#    y 0.000000 3.004040 0.000000 
#    z 0.000000 0.000000 3.529480 
# 
# 
# High freq. dielectric constant tensor:
#      x y z
#    x 1.539380 0.000000 0.000000 
#    y 0.000000 1.595650 0.000000 
#    z 0.000000 0.000000 1.620080 
# 
# From -- ./inp_files/21244.got.cif
#   From: 2010.03.12/outbox.cif.g09.slc.cpg/sg59_11_cif.got.tgz:21244.got - 2010.04.16 16:29:54.
