data_PCOD8239366
_publ_section_title
;
Structure prediction by ZEFSAII (Michael W. Deem and Ramdas Pophale) SiO2 
 PCOD8239366
Probable space group: P M M N
;
_chemical_formula_sum "Si O2"
_cell_formula_units_Z 64
_cell_length_a 9.321710
_cell_length_b 20.159417
_cell_length_c 20.509300
_cell_angle_alpha 90.000000
_cell_angle_beta 90.000000
_cell_angle_gamma 90.000000
_cell_volume 3854.112559
_symmetry_space_group_name_H-M "P M M N"
_symmetry_group_IT_number 59
_space_group.IT_coordinate_system_code '2'
_symmetry_cell_setting 'orthorhombic'
loop_
_space_group_symop_operation_xyz
x,y,z
1/2-x,1/2-y,z
1/2+x,-y,-z
-x,1/2+y,-z
-x,-y,-z
1/2+x,1/2+y,-z
1/2-x,y,z
x,1/2-y,z
loop_
_atom_site_type_symbol
_atom_site_label
_atom_site_fract_x
_atom_site_fract_y
_atom_site_fract_z
Si Si1 0.091499 0.399252 0.306649
Si Si2 0.583028 0.561833 0.028555
Si Si3 0.085171 0.438468 0.582939
Si Si4 0.414499 0.068659 0.442473
Si Si5 0.914803 0.825328 0.930544
Si Si6 0.416820 0.614612 0.814482
Si Si7 0.415524 0.460747 0.826465
Si Si8 0.588195 0.057259 0.703877
O O1 0.250000 0.376237 0.284417
O O2 0.061905 0.378912 0.382571
O O3 0.080675 0.478754 0.305659
O O4 0.977649 0.367215 0.257280
O O5 0.750000 0.545568 0.020591
O O6 0.545268 0.572559 0.104515
O O7 0.500000 0.500000 0.000000
O O8 0.537224 0.628207 0.990517
O O9 0.250000 0.440692 0.606013
O O10 0.067671 0.397499 0.514385
O O11 0.033517 0.512185 0.565546
O O12 0.992020 0.408005 0.642358
O O13 0.250000 0.040148 0.436696
O O14 0.750000 0.839063 0.911738
O O15 0.938599 0.750000 0.953508
O O16 0.009659 0.838746 0.867302
O O17 0.250000 0.630378 0.814349
O O18 0.452289 0.538683 0.831869
O O19 0.250000 0.451017 0.807668
O O20 0.509583 0.424302 0.771473
O O21 0.750000 0.084188 0.707062
#
# Coordination Sequence:
#
# PCOD8239366 Si02
#       8
#     8   8   8   8   8   8   8   8
#     4   8  14  24  36  51  74 104 139 177 214 255
#     4  10  19  32  50  70  91 114 147 187 226 271
#     4   9  14  20  31  46  69 101 136 175 213 253
#     4   8  14  22  31  46  68  99 139 175 211 253
#     4  10  21  35  50  68  91 120 149 179 223 277
#     4  10  18  28  43  63  85 110 143 183 223 261
#     4   9  17  28  42  62  84 107 140 182 223 261
#     4   9  16  24  34  51  75 105 139 174 214 260
#
# _framework density 16.605637999999999
#
# number of rings (size 3 to 8) (size 9 to 14) (size 15 to 20)
#    0.000    2.875    1.250    1.875    0.000    4.750 
#    0.000    0.000    0.000    0.000    0.000    0.000 
#    0.000    0.000    0.000    1.125    0.000   23.000 
#
# Total GULP energy -793088.209005 kJ/mol
# GULP energy per Si atom -12392.003266 kJ/mol
# Density = 1.656784 g / cm^3
# Si number density = 16.605638 Si / 1000 Ang^3
#
#
#
# Elastic Constant Matrix: (Units=GPa)
#
#
# Indices 1 2 3 4 5 6 
#
# 1 90.6424 26.1120 69.6535 0.0000 0.0000 0.0000
# 2 26.1120 37.3704 38.7953 0.0000 0.0000 0.0000
# 3 69.6535 38.7953 162.7600 0.0000 0.0000 0.0000
# 4 0.0000 0.0000 0.0000 9.8649 0.0000 0.0000
# 5 0.0000 0.0000 0.0000 0.0000 28.6268 0.0000
# 6 0.0000 0.0000 0.0000 0.0000 0.0000 9.8092
#
#
#
# Elastic Compliance Matrix: (Units=1/GPa)
#
#
# Indices 1 2 3 4 5 6 
#
# 1 0.017356 -0.005869 -0.006029 0.000000 0.000000 0.000000
# 2 -0.005869 0.037542 -0.006437 0.000000 0.000000 0.000000
# 3 -0.006029 -0.006437 0.010258 0.000000 0.000000 0.000000
# 4 0.000000 0.000000 0.000000 0.101369 0.000000 0.000000
# 5 0.000000 0.000000 0.000000 0.000000 0.034932 0.000000
# 6 0.000000 0.000000 0.000000 0.000000 0.000000 0.101945
#
#
# Mechanical properties :
#
#
# Convention : Reuss Voigt Hill
#
# Bulk Modulus (GPa) = 35.10284 62.21052 48.65668
# Shear Modulus (GPa) = 14.30342 20.07432 17.18887
#
# Velocity S-wave (km/s) = 2.93808 3.48068 3.22082
# Velocity P-wave (km/s) = 5.71793 7.32791 6.57241
#
# Compressibility (1/GPa) = 0.02848772
#
# Stress axis : x y z
#
# Youngs Moduli (GPa) = 57.61855 26.63672 97.48238
#
# Poissons Ratio (x) = 0.15632 0.58767
# Poissons Ratio (y) = 0.33814 0.62750
# Poissons Ratio (z) = 0.34735 0.17146
#
# Static dielectric constant tensor:
#      x y z
#    x 3.226420 0.000000 0.000000 
#    y 0.000000 2.466140 0.000000 
#    z 0.000000 0.000000 3.659990 
# 
# 
# High freq. dielectric constant tensor:
#      x y z
#    x 1.649120 0.000000 0.000000 
#    y 0.000000 1.546070 0.000000 
#    z 0.000000 0.000000 1.665700 
# 
# From -- ./inp_files/29824.got.cif
#   From: 2010.03.12/outbox.cif.g09.slc.cpg/sg59_15_cif.got.tgz:29824.got - 2010.04.16 16:29:54.
