data_PCOD8239926
_publ_section_title
;
Structure prediction by ZEFSAII (Michael W. Deem and Ramdas Pophale) SiO2 
 PCOD8239926
Probable space group: P M M N
;
_chemical_formula_sum "Si O2"
_cell_formula_units_Z 48
_cell_length_a 9.046369
_cell_length_b 16.012179
_cell_length_c 16.887731
_cell_angle_alpha 90.000000
_cell_angle_beta 90.000000
_cell_angle_gamma 90.000000
_cell_volume 2446.222957
_symmetry_space_group_name_H-M "P M M N"
_symmetry_group_IT_number 59
_space_group.IT_coordinate_system_code '2'
_symmetry_cell_setting 'orthorhombic'
loop_
_space_group_symop_operation_xyz
x,y,z
1/2-x,1/2-y,z
1/2+x,-y,-z
-x,1/2+y,-z
-x,-y,-z
1/2+x,1/2+y,-z
1/2-x,y,z
x,1/2-y,z
loop_
_atom_site_type_symbol
_atom_site_label
_atom_site_fract_x
_atom_site_fract_y
_atom_site_fract_z
Si Si1 0.076591 0.841181 0.321143
Si Si2 0.420031 0.655785 0.669955
Si Si3 0.577332 0.419126 0.839222
Si Si4 0.073212 0.003161 0.415037
Si Si5 0.919674 0.085384 0.164517
Si Si6 0.926446 0.157179 0.000633
O O1 0.250000 0.840504 0.336034
O O2 0.011396 0.750000 0.347840
O O3 0.042351 0.850193 0.227529
O O4 0.012441 0.920168 0.369703
O O5 0.250000 0.637175 0.646502
O O6 0.464170 0.750000 0.643527
O O7 0.523572 0.588113 0.628073
O O8 0.438744 0.652143 0.765186
O O9 0.750000 0.435157 0.846460
O O10 0.504606 0.503410 0.808683
O O11 0.512016 0.392895 0.924642
O O12 0.250000 0.003724 0.420881
O O13 0.000000 0.000000 0.500000
O O14 0.750000 0.062089 0.150853
O O15 0.988277 0.118807 0.082194
O O16 0.750000 0.158753 0.000746
O O17 0.989769 0.250000 0.993810
#
# Coordination Sequence:
#
# PCOD8239926 Si02
#       6
#     8   8   8   8   8   8
#     4   9  18  34  57  83 110 144 185 228 276 333
#     4  10  21  38  60  84 114 155 197 234 279 338
#     4  10  18  31  53  79 107 142 187 233 277 330
#     4  11  23  40  62  88 117 147 184 235 290 347
#     4  10  19  32  52  78 111 148 187 232 280 329
#     4   9  17  29  48  76 107 143 190 235 271 320
#
# _framework density 19.622088000000002
#
# number of rings (size 3 to 8) (size 9 to 14) (size 15 to 20)
#    0.000    2.167    1.667    2.000    0.000    5.000 
#    0.000    1.667    0.000    8.000    0.000    0.000 
#    0.000    0.000    0.000    0.000    0.000    0.000 
#
# Total GULP energy -594980.058486 kJ/mol
# GULP energy per Si atom -12395.417885 kJ/mol
# Density = 1.957743 g / cm^3
# Si number density = 19.622088 Si / 1000 Ang^3
#
#
#
# Elastic Constant Matrix: (Units=GPa)
#
#
# Indices 1 2 3 4 5 6 
#
# 1 38.0519 35.4714 34.6016 0.0000 0.0000 0.0000
# 2 35.4714 154.0385 53.3920 0.0000 0.0000 0.0000
# 3 34.6016 53.3920 122.1577 0.0000 0.0000 0.0000
# 4 0.0000 0.0000 0.0000 23.7102 0.0000 0.0000
# 5 0.0000 0.0000 0.0000 0.0000 23.0352 0.0000
# 6 0.0000 0.0000 0.0000 0.0000 0.0000 25.0561
#
#
#
# Elastic Compliance Matrix: (Units=1/GPa)
#
#
# Indices 1 2 3 4 5 6 
#
# 1 0.039868 -0.006207 -0.008580 0.000000 0.000000 0.000000
# 2 -0.006207 0.008617 -0.002008 0.000000 0.000000 0.000000
# 3 -0.008580 -0.002008 0.011494 0.000000 0.000000 0.000000
# 4 0.000000 0.000000 0.000000 0.042176 0.000000 0.000000
# 5 0.000000 0.000000 0.000000 0.000000 0.043412 0.000000
# 6 0.000000 0.000000 0.000000 0.000000 0.000000 0.039910
#
#
# Mechanical properties :
#
#
# Convention : Reuss Voigt Hill
#
# Bulk Modulus (GPa) = 37.89408 62.35311 50.12360
# Shear Modulus (GPa) = 21.94298 27.07917 24.51108
#
# Velocity S-wave (km/s) = 3.34770 3.71891 3.53818
# Velocity P-wave (km/s) = 5.85633 7.09129 6.50319
#
# Compressibility (1/GPa) = 0.02638935
#
# Stress axis : x y z
#
# Youngs Moduli (GPa) = 25.08305 116.04646 87.00043
#
# Poissons Ratio (x) = 0.72026 0.74645
# Poissons Ratio (y) = 0.15568 0.17472
# Poissons Ratio (z) = 0.21521 0.23306
#
# Static dielectric constant tensor:
#      x y z
#    x 3.149660 0.000000 0.000000 
#    y 0.000000 3.876660 0.000000 
#    z 0.000000 0.000000 3.728720 
# 
# 
# High freq. dielectric constant tensor:
#      x y z
#    x 1.717670 0.000000 0.000000 
#    y 0.000000 1.775980 0.000000 
#    z 0.000000 0.000000 1.773800 
# 
# From -- ./inp_files/22407.got.cif
#   From: 2010.03.12/outbox.cif.g09.slc.cpg/sg59_12_cif.got.tgz:22407.got - 2010.04.16 16:29:54.
