data_PCOD8239312
_publ_section_title
;
Structure prediction by ZEFSAII (Michael W. Deem and Ramdas Pophale) SiO2 
 PCOD8239312
Probable space group: P M M N
;
_chemical_formula_sum "Si O2"
_cell_formula_units_Z 64
_cell_length_a 33.282459
_cell_length_b 9.234008
_cell_length_c 11.636195
_cell_angle_alpha 90.000000
_cell_angle_beta 90.000000
_cell_angle_gamma 90.000000
_cell_volume 3576.157542
_symmetry_space_group_name_H-M "P M M N"
_symmetry_group_IT_number 59
_space_group.IT_coordinate_system_code '2'
_symmetry_cell_setting 'orthorhombic'
loop_
_space_group_symop_operation_xyz
x,y,z
1/2-x,1/2-y,z
1/2+x,-y,-z
-x,1/2+y,-z
-x,-y,-z
1/2+x,1/2+y,-z
1/2-x,y,z
x,1/2-y,z
loop_
_atom_site_type_symbol
_atom_site_label
_atom_site_fract_x
_atom_site_fract_y
_atom_site_fract_z
Si Si1 0.871340 0.078599 0.617482
Si Si2 0.975761 0.078017 0.253357
Si Si3 0.295738 0.920030 0.241275
Si Si4 0.605141 0.078201 0.370570
Si Si5 0.702956 0.912785 0.988458
Si Si6 0.933919 0.420551 0.025423
Si Si7 0.945684 0.422410 0.770212
Si Si8 0.852621 0.079813 0.143145
O O1 0.872897 0.250000 0.608195
O O2 0.826937 0.030032 0.659705
O O3 0.880510 0.010728 0.491893
O O4 0.905426 0.025425 0.705886
O O5 0.982271 0.250000 0.258283
O O6 0.940170 0.028449 0.339564
O O7 0.964442 0.024746 0.123987
O O8 0.016112 0.995710 0.291712
O O9 0.250000 0.959947 0.278755
O O10 0.299795 0.750000 0.216432
O O11 0.308914 0.000396 0.125793
O O12 0.604976 0.250000 0.374777
O O13 0.636312 0.028933 0.272089
O O14 0.750000 0.912081 0.006241
O O15 0.686070 0.750000 0.977783
O O16 0.685697 0.990855 0.101161
O O17 0.936992 0.250000 0.020093
O O18 0.888750 0.463640 0.058221
O O19 0.943979 0.484680 0.900321
O O20 0.950335 0.250000 0.765244
O O21 0.843183 0.250000 0.138889
#
# Coordination Sequence:
#
# PCOD8239312 Si02
#       8
#     8   8   8   8   8   8   8   8
#     4   9  17  30  48  71  98 125 155 195 241 280
#     4   9  17  30  46  63  89 124 158 193 234 279
#     4   9  17  31  53  76  95 120 156 193 228 275
#     4   8  16  31  49  68  93 126 159 195 241 281
#     4  10  20  32  47  71 103 129 147 180 236 292
#     4   8  15  28  45  65  89 119 153 192 242 287
#     4  10  18  27  43  66  92 122 155 192 234 280
#     4   9  16  30  52  71  89 120 162 198 229 277
#
# _framework density 17.896304000000001
#
# number of rings (size 3 to 8) (size 9 to 14) (size 15 to 20)
#    0.000    3.000    0.000    3.000    0.000    3.250 
#    0.000    5.625    0.000    4.500    0.000    1.750 
#    0.000    0.000    0.000    0.000    0.000    0.000 
#
# Total GULP energy -793307.580772 kJ/mol
# GULP energy per Si atom -12395.430950 kJ/mol
# Density = 1.785557 g / cm^3
# Si number density = 17.896304 Si / 1000 Ang^3
#
#
#
# Elastic Constant Matrix: (Units=GPa)
#
#
# Indices 1 2 3 4 5 6 
#
# 1 103.5619 30.9142 74.8731 0.0000 0.0000 0.0000
# 2 30.9142 37.7338 27.4515 0.0000 0.0000 0.0000
# 3 74.8731 27.4515 117.7429 0.0000 0.0000 0.0000
# 4 0.0000 0.0000 0.0000 7.1075 0.0000 0.0000
# 5 0.0000 0.0000 0.0000 0.0000 24.2155 0.0000
# 6 0.0000 0.0000 0.0000 0.0000 0.0000 25.7230
#
#
#
# Elastic Compliance Matrix: (Units=1/GPa)
#
#
# Indices 1 2 3 4 5 6 
#
# 1 0.019932 -0.008561 -0.010679 0.000000 0.000000 0.000000
# 2 -0.008561 0.035592 -0.002854 0.000000 0.000000 0.000000
# 3 -0.010679 -0.002854 0.015949 0.000000 0.000000 0.000000
# 4 0.000000 0.000000 0.000000 0.140696 0.000000 0.000000
# 5 0.000000 0.000000 0.000000 0.000000 0.041296 0.000000
# 6 0.000000 0.000000 0.000000 0.000000 0.000000 0.038876
#
#
# Mechanical properties :
#
#
# Convention : Reuss Voigt Hill
#
# Bulk Modulus (GPa) = 36.65026 58.39070 47.52048
# Shear Modulus (GPa) = 14.46657 19.79586 17.13122
#
# Velocity S-wave (km/s) = 2.84624 3.32948 3.09730
# Velocity P-wave (km/s) = 5.59689 6.89048 6.27709
#
# Compressibility (1/GPa) = 0.02728493
#
# Stress axis : x y z
#
# Youngs Moduli (GPa) = 50.16975 28.09657 62.69836
#
# Poissons Ratio (x) = 0.24053 0.66956
# Poissons Ratio (y) = 0.42950 0.17895
# Poissons Ratio (z) = 0.53577 0.08019
#
# Static dielectric constant tensor:
#      x y z
#    x 3.350680 0.000000 0.000000 
#    y 0.000000 2.920480 0.000000 
#    z 0.000000 0.000000 3.721860 
# 
# 
# High freq. dielectric constant tensor:
#      x y z
#    x 1.696600 0.000000 0.000000 
#    y 0.000000 1.648980 0.000000 
#    z 0.000000 0.000000 1.688010 
# 
# From -- ./inp_files/19352.got.cif
#   From: 2010.03.12/outbox.cif.g09.slc.cpg/sg59_10_cif.got.tgz:19352.got - 2010.04.16 16:29:54.
