data_PCOD8239026
_publ_section_title
;
Structure prediction by ZEFSAII (Michael W. Deem and Ramdas Pophale) SiO2 
 PCOD8239026
Probable space group: P M M N
;
_chemical_formula_sum "Si O2"
_cell_formula_units_Z 64
_cell_length_a 9.286824
_cell_length_b 29.991346
_cell_length_c 14.863333
_cell_angle_alpha 90.000000
_cell_angle_beta 90.000000
_cell_angle_gamma 90.000000
_cell_volume 4139.800190
_symmetry_space_group_name_H-M "P M M N"
_symmetry_group_IT_number 59
_space_group.IT_coordinate_system_code '2'
_symmetry_cell_setting 'orthorhombic'
loop_
_space_group_symop_operation_xyz
x,y,z
1/2-x,1/2-y,z
1/2+x,-y,-z
-x,1/2+y,-z
-x,-y,-z
1/2+x,1/2+y,-z
1/2-x,y,z
x,1/2-y,z
loop_
_atom_site_type_symbol
_atom_site_label
_atom_site_fract_x
_atom_site_fract_y
_atom_site_fract_z
Si Si1 0.082613 0.456694 0.674853
Si Si2 0.913634 0.524250 0.123641
Si Si3 0.421338 0.894292 0.455566
Si Si4 0.079021 0.798746 0.511080
Si Si5 0.079796 0.701547 0.712484
Si Si6 0.584788 0.939683 0.935511
Si Si7 0.079647 0.944195 0.634409
Si Si8 0.579427 0.113996 0.197352
O O1 0.250000 0.450316 0.651621
O O2 0.054434 0.452436 0.781480
O O3 0.026887 0.504549 0.637616
O O4 0.992176 0.417324 0.630247
O O5 0.750000 0.504871 0.123309
O O6 0.023776 0.484448 0.108806
O O7 0.933188 0.560162 0.043678
O O8 0.250000 0.898227 0.448277
O O9 0.472074 0.842175 0.454939
O O10 0.478881 0.919163 0.545638
O O11 0.250000 0.799044 0.515042
O O12 0.027796 0.750000 0.471694
O O13 0.016930 0.804133 0.611998
O O14 0.250000 0.696523 0.705181
O O15 0.035951 0.750000 0.751740
O O16 0.021681 0.663240 0.777957
O O17 0.750000 0.935547 0.906993
O O18 0.496534 0.898060 0.896442
O O19 0.250000 0.942178 0.634097
O O20 0.025689 0.919371 0.724189
O O21 0.750000 0.112050 0.183996
#
# Coordination Sequence:
#
# PCOD8239026 Si02
#       8
#     8   8   8   8   8   8   8   8
#     4  10  19  31  44  58  84 121 152 175 210 258
#     4   9  18  33  48  61  83 115 147 180 219 258
#     4  10  18  28  43  65  88 113 147 183 213 248
#     4   8  13  23  41  64  87 110 140 181 222 256
#     4   8  13  22  41  67  88 111 148 184 210 251
#     4  10  19  29  45  68  88 108 142 184 219 258
#     4   9  16  27  42  60  86 120 150 171 202 252
#     4  10  16  27  46  65  90 122 147 173 215 264
#
# _framework density 15.459683
#
# number of rings (size 3 to 8) (size 9 to 14) (size 15 to 20)
#    0.000    2.750    2.500    1.500    0.000    1.000 
#    0.000    0.625    0.000    0.750    0.000    2.625 
#    0.000    7.000    0.000    0.000    0.000    0.000 
#
# Total GULP energy -793139.480226 kJ/mol
# GULP energy per Si atom -12392.804379 kJ/mol
# Density = 1.542450 g / cm^3
# Si number density = 15.459683 Si / 1000 Ang^3
#
#
#
# Elastic Constant Matrix: (Units=GPa)
#
#
# Indices 1 2 3 4 5 6 
#
# 1 35.8029 32.8337 29.7853 0.0000 0.0000 0.0000
# 2 32.8337 139.2861 59.8771 0.0000 0.0000 0.0000
# 3 29.7853 59.8771 88.1796 0.0000 0.0000 0.0000
# 4 0.0000 0.0000 0.0000 23.0994 0.0000 0.0000
# 5 0.0000 0.0000 0.0000 0.0000 21.5149 0.0000
# 6 0.0000 0.0000 0.0000 0.0000 0.0000 15.9337
#
#
#
# Elastic Compliance Matrix: (Units=1/GPa)
#
#
# Indices 1 2 3 4 5 6 
#
# 1 0.041442 -0.005298 -0.010401 0.000000 0.000000 0.000000
# 2 -0.005298 0.010816 -0.005555 0.000000 0.000000 0.000000
# 3 -0.010401 -0.005555 0.018626 0.000000 0.000000 0.000000
# 4 0.000000 0.000000 0.000000 0.043291 0.000000 0.000000
# 5 0.000000 0.000000 0.000000 0.000000 0.046479 0.000000
# 6 0.000000 0.000000 0.000000 0.000000 0.000000 0.062760
#
#
# Mechanical properties :
#
#
# Convention : Reuss Voigt Hill
#
# Bulk Modulus (GPa) = 35.24056 56.47342 45.85699
# Shear Modulus (GPa) = 18.15662 21.49442 19.82552
#
# Velocity S-wave (km/s) = 3.43074 3.73279 3.58495
# Velocity P-wave (km/s) = 6.20789 7.42880 6.84562
#
# Compressibility (1/GPa) = 0.02837640
#
# Stress axis : x y z
#
# Youngs Moduli (GPa) = 24.13014 92.45184 53.68873
#
# Poissons Ratio (x) = 0.48980 0.55841
# Poissons Ratio (y) = 0.12784 0.29825
# Poissons Ratio (z) = 0.25097 0.51359
#
# Static dielectric constant tensor:
#      x y z
#    x 2.634190 0.000000 0.000000 
#    y 0.000000 3.193000 0.000000 
#    z 0.000000 0.000000 2.949640 
# 
# 
# High freq. dielectric constant tensor:
#      x y z
#    x 1.558970 0.000000 0.000000 
#    y 0.000000 1.586880 0.000000 
#    z 0.000000 0.000000 1.575780 
# 
# From -- ./inp_files/21811.got.cif
#   From: 2010.03.12/outbox.cif.g09.slc.cpg/sg59_11_cif.got.tgz:21811.got - 2010.04.16 16:29:54.
